MODEL 1
REMARK VINA RESULT:     -11.3      0.000      0.000
REMARK SMILES Cc1c(NCc2ccccn2)cccc1C(=O)N1CCOC[C@@H]1CC(=O)OCCOCCOC(=O)c1ccc(-c2c3nc(c(-c4c(F)cc(S(=O)(=O)[O-])cc4F)c4ccc([nH]4)c(-c4c(F)cc(S(=O)(=O)[O-])cc4F)c4nc(c(-c5c(F)cc(S(=O)(=O)[O-])cc5F)c5ccc2[nH]5)C=C4)C=C3)cc1
REMARK SMILES IDX 28 1 27 2 25 3 26 4 24 5 23 6 18 7 19 8 20 9 22 10 21 11
REMARK SMILES IDX 16 12 17 13 15 14 1 15 2 16 3 17 12 18 14 19 13 20 4 21 5 23
REMARK SMILES IDX 6 24 7 25 11 26 8 27 10 28 9 29 29 30 30 31 31 32 32 33
REMARK SMILES IDX 33 34 34 35 35 36 36 37 37 38 101 39 38 40 100 41 39 42
REMARK SMILES IDX 40 43 41 44 94 45 42 46 99 47 93 48 95 49 43 50 98 51 92 52
REMARK SMILES IDX 91 53 44 55 78 56 57 57 77 58 58 59 61 60 76 61 96 62 59 63
REMARK SMILES IDX 60 64 75 66 97 67 62 68 45 69 46 70 55 71 47 72 48 73 54 74
REMARK SMILES IDX 56 75 49 76 50 77 51 78 52 79 53 80 79 81 80 82 89 83 81 84
REMARK SMILES IDX 82 85 88 86 90 87 83 88 84 89 85 90 86 91 87 92 63 93 64 94
REMARK SMILES IDX 73 95 65 96 66 97 72 98 74 99 67 100 68 101 69 102 70 103
REMARK SMILES IDX 71 104
REMARK H PARENT 4 22 95 54 61 65
REMARK Flexibility Score: inf
ROOT
ATOM      1  C   UNL A   1      33.901  30.973  27.541  1.00  0.00     0.261 C 
ENDROOT
BRANCH   1   2
ATOM      2  O   UNL A   1      32.617  30.543  27.131  1.00  0.00    -0.463 OA
BRANCH   2   3
ATOM      3  C   UNL A   1      32.417  29.210  27.123  1.00  0.00     0.308 C 
ATOM      4  O   UNL A   1      31.818  28.542  27.955  1.00  0.00    -0.252 OA
BRANCH   3   5
ATOM      5  C   UNL A   1      32.918  28.666  25.829  1.00  0.00     0.150 C 
BRANCH   5   6
ATOM      6  C   UNL A   1      31.786  28.149  24.925  1.00  0.00     0.122 C 
ATOM      7  N   UNL A   1      31.944  26.914  24.078  1.00  0.00    -0.330 N 
ATOM      8  C   UNL A   1      30.692  26.555  23.419  1.00  0.00     0.148 C 
ATOM      9  C   UNL A   1      30.119  27.729  22.618  1.00  0.00     0.181 C 
ATOM     10  C   UNL A   1      31.252  29.284  24.007  1.00  0.00     0.185 C 
ATOM     11  O   UNL A   1      29.988  28.912  23.421  1.00  0.00    -0.377 OA
BRANCH   7  12
ATOM     12  C   UNL A   1      32.918  25.930  24.281  1.00  0.00     0.254 C 
ATOM     13  O   UNL A   1      34.100  26.175  24.027  1.00  0.00    -0.269 OA
BRANCH  12  14
ATOM     14  C   UNL A   1      32.583  24.531  24.808  1.00  0.00     0.045 A 
ATOM     15  C   UNL A   1      32.804  23.149  22.646  1.00  0.00     0.047 C 
ATOM     16  C   UNL A   1      32.757  23.287  24.137  1.00  0.00    -0.015 A 
ATOM     17  C   UNL A   1      32.799  22.064  24.875  1.00  0.00     0.038 A 
ATOM     18  C   UNL A   1      32.478  22.081  26.231  1.00  0.00     0.026 A 
ATOM     19  C   UNL A   1      32.268  24.487  26.180  1.00  0.00     0.014 A 
ATOM     20  C   UNL A   1      32.177  23.277  26.874  1.00  0.00     0.003 A 
BRANCH  17  21
ATOM     21  N   UNL A   1      33.264  20.914  24.221  1.00  0.00    -0.379 N 
ATOM     22  H   UNL A   1      34.205  20.925  23.929  1.00  0.00     0.160 HD
BRANCH  21  23
ATOM     23  C   UNL A   1      32.500  19.698  23.924  1.00  0.00     0.169 C 
BRANCH  23  24
ATOM     24  C   UNL A   1      33.059  18.394  24.466  1.00  0.00     0.059 A 
ATOM     25  C   UNL A   1      34.228  17.818  23.975  1.00  0.00     0.026 A 
ATOM     26  N   UNL A   1      32.309  17.764  25.414  1.00  0.00    -0.259 NA
ATOM     27  C   UNL A   1      34.605  16.550  24.407  1.00  0.00     0.004 A 
ATOM     28  C   UNL A   1      32.705  16.542  25.828  1.00  0.00     0.111 A 
ATOM     29  C   UNL A   1      33.825  15.893  25.345  1.00  0.00     0.020 A 
ENDBRANCH  23  24
ENDBRANCH  21  23
ENDBRANCH  17  21
ENDBRANCH  12  14
ENDBRANCH   7  12
ENDBRANCH   5   6
ENDBRANCH   3   5
ENDBRANCH   2   3
ENDBRANCH   1   2
BRANCH   1  30
ATOM     30  C   UNL A   1      33.886  32.427  27.940  1.00  0.00     0.202 C 
BRANCH  30  31
ATOM     31  O   UNL A   1      34.734  32.622  29.062  1.00  0.00    -0.374 OA
BRANCH  31  32
ATOM     32  C   UNL A   1      35.986  33.234  28.800  1.00  0.00     0.202 C 
BRANCH  32  33
ATOM     33  C   UNL A   1      37.238  32.443  29.229  1.00  0.00     0.261 C 
BRANCH  33  34
ATOM     34  O   UNL A   1      37.375  31.192  28.510  1.00  0.00    -0.460 OA
BRANCH  34  35
ATOM     35  C   UNL A   1      37.247  30.020  29.215  1.00  0.00     0.338 C 
ATOM     36  O   UNL A   1      36.217  29.640  29.713  1.00  0.00    -0.246 OA
BRANCH  35  37
ATOM     37  C   UNL A   1      38.556  29.288  29.261  1.00  0.00     0.060 A 
ATOM     38  C   UNL A   1      39.457  29.445  30.327  1.00  0.00     0.016 A 
ATOM     39  C   UNL A   1      38.973  28.624  28.117  1.00  0.00     0.016 A 
ATOM     40  C   UNL A   1      40.814  29.087  30.175  1.00  0.00     0.010 A 
ATOM     41  C   UNL A   1      40.323  28.414  27.925  1.00  0.00     0.010 A 
ATOM     42  C   UNL A   1      41.268  28.656  28.941  1.00  0.00    -0.014 A 
BRANCH  42  43
ATOM     43  C   UNL A   1      42.654  28.379  28.531  1.00  0.00     0.031 A 
ATOM     44  C   UNL A   1      43.417  29.547  28.012  1.00  0.00     0.074 A 
ATOM     45  C   UNL A   1      43.377  27.323  28.991  1.00  0.00     0.049 A 
ATOM     46  N   UNL A   1      44.671  29.531  27.726  1.00  0.00    -0.248 NA
ATOM     47  C   UNL A   1      42.802  30.847  27.737  1.00  0.00     0.031 C 
ATOM     48  C   UNL A   1      44.744  27.402  29.524  1.00  0.00     0.029 A 
ATOM     49  N   UNL A   1      43.091  25.975  29.115  1.00  0.00    -0.354 N 
ATOM     50  C   UNL A   1      45.089  30.837  27.631  1.00  0.00     0.074 A 
ATOM     51  C   UNL A   1      43.876  31.598  27.489  1.00  0.00     0.031 C 
ATOM     52  C   UNL A   1      45.230  26.169  29.734  1.00  0.00     0.029 A 
ATOM     53  C   UNL A   1      44.279  25.227  29.190  1.00  0.00     0.049 A 
ATOM     54  H   UNL A   1      42.184  25.593  29.145  1.00  0.00     0.167 HD
ATOM     55  C   UNL A   1      46.412  31.101  27.826  1.00  0.00     0.037 A 
ATOM     56  C   UNL A   1      44.559  24.175  28.359  1.00  0.00     0.037 A 
ATOM     57  C   UNL A   1      47.179  29.852  27.905  1.00  0.00     0.049 A 
ATOM     58  C   UNL A   1      45.825  24.363  27.563  1.00  0.00     0.074 A 
ATOM     59  C   UNL A   1      47.812  29.173  28.931  1.00  0.00     0.029 A 
ATOM     60  N   UNL A   1      47.160  28.986  26.819  1.00  0.00    -0.354 N 
ATOM     61  N   UNL A   1      46.570  25.425  27.649  1.00  0.00    -0.248 NA
ATOM     62  C   UNL A   1      46.294  23.450  26.522  1.00  0.00     0.031 C 
ATOM     63  C   UNL A   1      48.167  27.885  28.445  1.00  0.00     0.029 A 
ATOM     64  C   UNL A   1      47.760  27.782  27.124  1.00  0.00     0.049 A 
ATOM     65  H   UNL A   1      46.767  29.204  25.942  1.00  0.00     0.167 HD
ATOM     66  C   UNL A   1      47.335  25.516  26.520  1.00  0.00     0.074 A 
ATOM     67  C   UNL A   1      47.252  24.192  25.938  1.00  0.00     0.031 C 
ATOM     68  C   UNL A   1      47.831  26.723  26.117  1.00  0.00     0.037 A 
BRANCH  55  69
ATOM     69  C   UNL A   1      47.050  32.455  28.083  1.00  0.00     0.058 A 
ATOM     70  C   UNL A   1      47.473  32.792  29.392  1.00  0.00     0.135 A 
ATOM     71  C   UNL A   1      47.235  33.487  27.138  1.00  0.00     0.135 A 
ATOM     72  F   UNL A   1      47.346  31.935  30.415  1.00  0.00    -0.206 F 
ATOM     73  C   UNL A   1      48.037  34.025  29.725  1.00  0.00     0.059 A 
ATOM     74  C   UNL A   1      47.828  34.716  27.441  1.00  0.00     0.059 A 
ATOM     75  F   UNL A   1      46.823  33.391  25.873  1.00  0.00    -0.206 F 
ATOM     76  C   UNL A   1      48.225  34.980  28.739  1.00  0.00     0.060 A 
BRANCH  76  77
ATOM     77  S   UNL A   1      48.992  36.547  29.171  1.00  0.00     0.124 S 
ATOM     78  O   UNL A   1      48.364  37.464  28.225  1.00  0.00    -0.237 OA
ATOM     79  O   UNL A   1      48.602  36.705  30.568  1.00  0.00    -0.237 OA
ATOM     80  O   UNL A   1      50.415  36.304  28.947  1.00  0.00    -0.744 OA
ENDBRANCH  76  77
ENDBRANCH  55  69
BRANCH  56  81
ATOM     81  C   UNL A   1      43.314  23.553  27.817  1.00  0.00     0.058 A 
ATOM     82  C   UNL A   1      43.253  23.456  26.420  1.00  0.00     0.135 A 
ATOM     83  C   UNL A   1      42.688  22.549  28.577  1.00  0.00     0.135 A 
ATOM     84  F   UNL A   1      43.783  24.422  25.653  1.00  0.00    -0.206 F 
ATOM     85  C   UNL A   1      42.879  22.261  25.823  1.00  0.00     0.059 A 
ATOM     86  C   UNL A   1      42.276  21.356  27.985  1.00  0.00     0.059 A 
ATOM     87  F   UNL A   1      42.659  22.637  29.914  1.00  0.00    -0.206 F 
ATOM     88  C   UNL A   1      42.451  21.196  26.613  1.00  0.00     0.060 A 
BRANCH  88  89
ATOM     89  S   UNL A   1      42.312  19.568  25.843  1.00  0.00     0.124 S 
ATOM     90  O   UNL A   1      43.252  19.672  24.735  1.00  0.00    -0.237 OA
ATOM     91  O   UNL A   1      42.693  18.675  26.935  1.00  0.00    -0.237 OA
ATOM     92  O   UNL A   1      40.908  19.480  25.458  1.00  0.00    -0.744 OA
ENDBRANCH  88  89
ENDBRANCH  56  81
BRANCH  68  93
ATOM     93  C   UNL A   1      48.420  27.011  24.753  1.00  0.00     0.058 A 
ATOM     94  C   UNL A   1      47.698  27.521  23.659  1.00  0.00     0.135 A 
ATOM     95  C   UNL A   1      49.809  26.844  24.528  1.00  0.00     0.135 A 
ATOM     96  F   UNL A   1      46.420  27.908  23.773  1.00  0.00    -0.206 F 
ATOM     97  C   UNL A   1      48.269  27.689  22.398  1.00  0.00     0.059 A 
ATOM     98  C   UNL A   1      50.416  27.086  23.299  1.00  0.00     0.059 A 
ATOM     99  F   UNL A   1      50.636  26.431  25.499  1.00  0.00    -0.206 F 
ATOM    100  C   UNL A   1      49.624  27.442  22.221  1.00  0.00     0.060 A 
BRANCH 100 101
ATOM    101  S   UNL A   1      50.340  27.571  20.577  1.00  0.00     0.124 S 
ATOM    102  O   UNL A   1      49.285  26.980  19.760  1.00  0.00    -0.237 OA
ATOM    103  O   UNL A   1      50.526  29.011  20.419  1.00  0.00    -0.237 OA
ATOM    104  O   UNL A   1      51.571  26.793  20.680  1.00  0.00    -0.744 OA
ENDBRANCH 100 101
ENDBRANCH  68  93
ENDBRANCH  42  43
ENDBRANCH  35  37
ENDBRANCH  34  35
ENDBRANCH  33  34
ENDBRANCH  32  33
ENDBRANCH  31  32
ENDBRANCH  30  31
ENDBRANCH   1  30
TORSDOF 23
ENDMDL
MODEL 2
REMARK VINA RESULT:     -10.8      2.917      9.144
REMARK SMILES Cc1c(NCc2ccccn2)cccc1C(=O)N1CCOC[C@@H]1CC(=O)OCCOCCOC(=O)c1ccc(-c2c3nc(c(-c4c(F)cc(S(=O)(=O)[O-])cc4F)c4ccc([nH]4)c(-c4c(F)cc(S(=O)(=O)[O-])cc4F)c4nc(c(-c5c(F)cc(S(=O)(=O)[O-])cc5F)c5ccc2[nH]5)C=C4)C=C3)cc1
REMARK SMILES IDX 28 1 27 2 25 3 26 4 24 5 23 6 18 7 19 8 20 9 22 10 21 11
REMARK SMILES IDX 16 12 17 13 15 14 1 15 2 16 3 17 12 18 14 19 13 20 4 21 5 23
REMARK SMILES IDX 6 24 7 25 11 26 8 27 10 28 9 29 29 30 30 31 31 32 32 33
REMARK SMILES IDX 33 34 34 35 35 36 36 37 37 38 101 39 38 40 100 41 39 42
REMARK SMILES IDX 40 43 41 44 94 45 42 46 99 47 93 48 95 49 43 50 98 51 92 52
REMARK SMILES IDX 91 53 44 55 78 56 57 57 77 58 58 59 61 60 76 61 96 62 59 63
REMARK SMILES IDX 60 64 75 66 97 67 62 68 45 69 46 70 55 71 47 72 48 73 54 74
REMARK SMILES IDX 56 75 49 76 50 77 51 78 52 79 53 80 79 81 80 82 89 83 81 84
REMARK SMILES IDX 82 85 88 86 90 87 83 88 84 89 85 90 86 91 87 92 63 93 64 94
REMARK SMILES IDX 73 95 65 96 66 97 72 98 74 99 67 100 68 101 69 102 70 103
REMARK SMILES IDX 71 104
REMARK H PARENT 4 22 95 54 61 65
REMARK Flexibility Score: inf
ROOT
ATOM      1  C   UNL A   1      39.006  22.453  26.414  1.00  0.00     0.261 C 
ENDROOT
BRANCH   1   2
ATOM      2  O   UNL A   1      38.205  23.198  25.516  1.00  0.00    -0.463 OA
BRANCH   2   3
ATOM      3  C   UNL A   1      36.872  23.079  25.677  1.00  0.00     0.308 C 
ATOM      4  O   UNL A   1      36.232  23.216  26.710  1.00  0.00    -0.252 OA
BRANCH   3   5
ATOM      5  C   UNL A   1      36.250  22.899  24.335  1.00  0.00     0.150 C 
BRANCH   5   6
ATOM      6  C   UNL A   1      35.104  21.871  24.345  1.00  0.00     0.122 C 
ATOM      7  N   UNL A   1      33.728  22.216  24.848  1.00  0.00    -0.330 N 
ATOM      8  C   UNL A   1      32.790  21.120  24.628  1.00  0.00     0.148 C 
ATOM      9  C   UNL A   1      33.305  19.807  25.227  1.00  0.00     0.181 C 
ATOM     10  C   UNL A   1      35.549  20.560  25.051  1.00  0.00     0.185 C 
ATOM     11  O   UNL A   1      34.626  19.490  24.763  1.00  0.00    -0.377 OA
BRANCH   7  12
ATOM     12  C   UNL A   1      33.239  23.519  24.994  1.00  0.00     0.254 C 
ATOM     13  O   UNL A   1      33.335  24.093  26.081  1.00  0.00    -0.269 OA
BRANCH  12  14
ATOM     14  C   UNL A   1      32.569  24.284  23.847  1.00  0.00     0.045 A 
ATOM     15  C   UNL A   1      30.419  25.090  25.013  1.00  0.00     0.047 C 
ATOM     16  C   UNL A   1      31.449  25.158  23.927  1.00  0.00    -0.015 A 
ATOM     17  C   UNL A   1      31.193  26.107  22.889  1.00  0.00     0.038 A 
ATOM     18  C   UNL A   1      31.937  26.040  21.713  1.00  0.00     0.026 A 
ATOM     19  C   UNL A   1      33.289  24.264  22.637  1.00  0.00     0.014 A 
ATOM     20  C   UNL A   1      32.954  25.102  21.569  1.00  0.00     0.003 A 
BRANCH  17  21
ATOM     21  N   UNL A   1      30.272  27.133  23.145  1.00  0.00    -0.379 N 
ATOM     22  H   UNL A   1      29.331  26.943  22.925  1.00  0.00     0.160 HD
BRANCH  21  23
ATOM     23  C   UNL A   1      30.559  28.457  23.705  1.00  0.00     0.169 C 
BRANCH  23  24
ATOM     24  C   UNL A   1      29.511  29.534  23.479  1.00  0.00     0.059 A 
ATOM     25  C   UNL A   1      28.380  29.325  22.694  1.00  0.00     0.026 A 
ATOM     26  N   UNL A   1      29.775  30.757  24.022  1.00  0.00    -0.259 NA
ATOM     27  C   UNL A   1      27.538  30.394  22.402  1.00  0.00     0.004 A 
ATOM     28  C   UNL A   1      28.934  31.773  23.737  1.00  0.00     0.111 A 
ATOM     29  C   UNL A   1      27.823  31.645  22.925  1.00  0.00     0.020 A 
ENDBRANCH  23  24
ENDBRANCH  21  23
ENDBRANCH  17  21
ENDBRANCH  12  14
ENDBRANCH   7  12
ENDBRANCH   5   6
ENDBRANCH   3   5
ENDBRANCH   2   3
ENDBRANCH   1   2
BRANCH   1  30
ATOM     30  C   UNL A   1      39.471  21.164  25.785  1.00  0.00     0.202 C 
BRANCH  30  31
ATOM     31  O   UNL A   1      40.690  20.754  26.386  1.00  0.00    -0.374 OA
BRANCH  31  32
ATOM     32  C   UNL A   1      40.885  19.356  26.515  1.00  0.00     0.202 C 
BRANCH  32  33
ATOM     33  C   UNL A   1      42.283  18.822  26.143  1.00  0.00     0.261 C 
BRANCH  33  34
ATOM     34  O   UNL A   1      42.821  19.459  24.956  1.00  0.00    -0.460 OA
BRANCH  34  35
ATOM     35  C   UNL A   1      44.090  19.980  25.016  1.00  0.00     0.338 C 
ATOM     36  O   UNL A   1      45.094  19.337  24.833  1.00  0.00    -0.246 OA
BRANCH  35  37
ATOM     37  C   UNL A   1      44.042  21.447  25.325  1.00  0.00     0.060 A 
ATOM     38  C   UNL A   1      44.496  22.414  24.413  1.00  0.00     0.016 A 
ATOM     39  C   UNL A   1      43.753  21.830  26.626  1.00  0.00     0.016 A 
ATOM     40  C   UNL A   1      44.818  23.716  24.851  1.00  0.00     0.010 A 
ATOM     41  C   UNL A   1      44.206  23.054  27.075  1.00  0.00     0.010 A 
ATOM     42  C   UNL A   1      44.761  24.011  26.203  1.00  0.00    -0.014 A 
BRANCH  42  43
ATOM     43  C   UNL A   1      45.192  25.244  26.881  1.00  0.00     0.031 A 
ATOM     44  C   UNL A   1      44.100  26.173  27.281  1.00  0.00     0.074 A 
ATOM     45  C   UNL A   1      46.379  25.366  27.534  1.00  0.00     0.049 A 
ATOM     46  N   UNL A   1      44.266  27.232  27.991  1.00  0.00    -0.248 NA
ATOM     47  C   UNL A   1      42.706  25.993  26.871  1.00  0.00     0.031 C 
ATOM     48  C   UNL A   1      46.545  25.902  28.892  1.00  0.00     0.029 A 
ATOM     49  N   UNL A   1      47.678  25.046  27.184  1.00  0.00    -0.354 N 
ATOM     50  C   UNL A   1      43.030  27.620  28.449  1.00  0.00     0.074 A 
ATOM     51  C   UNL A   1      42.095  26.924  27.606  1.00  0.00     0.031 C 
ATOM     52  C   UNL A   1      47.849  26.044  29.177  1.00  0.00     0.029 A 
ATOM     53  C   UNL A   1      48.590  25.775  27.966  1.00  0.00     0.049 A 
ATOM     54  H   UNL A   1      47.929  24.398  26.485  1.00  0.00     0.167 HD
ATOM     55  C   UNL A   1      42.976  28.380  29.579  1.00  0.00     0.037 A 
ATOM     56  C   UNL A   1      49.588  26.547  27.434  1.00  0.00     0.037 A 
ATOM     57  C   UNL A   1      44.323  28.808  29.976  1.00  0.00     0.049 A 
ATOM     58  C   UNL A   1      49.507  27.995  27.844  1.00  0.00     0.074 A 
ATOM     59  C   UNL A   1      45.179  28.464  31.007  1.00  0.00     0.029 A 
ATOM     60  N   UNL A   1      45.070  29.570  29.087  1.00  0.00    -0.354 N 
ATOM     61  N   UNL A   1      48.574  28.465  28.619  1.00  0.00    -0.248 NA
ATOM     62  C   UNL A   1      50.375  29.054  27.331  1.00  0.00     0.031 C 
ATOM     63  C   UNL A   1      46.452  29.027  30.721  1.00  0.00     0.029 A 
ATOM     64  C   UNL A   1      46.370  29.720  29.523  1.00  0.00     0.049 A 
ATOM     65  H   UNL A   1      44.717  29.955  28.252  1.00  0.00     0.167 HD
ATOM     66  C   UNL A   1      48.486  29.815  28.429  1.00  0.00     0.074 A 
ATOM     67  C   UNL A   1      49.724  30.152  27.756  1.00  0.00     0.031 C 
ATOM     68  C   UNL A   1      47.329  30.480  28.719  1.00  0.00     0.037 A 
BRANCH  55  69
ATOM     69  C   UNL A   1      41.756  28.659  30.441  1.00  0.00     0.058 A 
ATOM     70  C   UNL A   1      40.719  29.483  29.939  1.00  0.00     0.135 A 
ATOM     71  C   UNL A   1      41.547  28.216  31.764  1.00  0.00     0.135 A 
ATOM     72  F   UNL A   1      40.772  30.009  28.707  1.00  0.00    -0.206 F 
ATOM     73  C   UNL A   1      39.581  29.821  30.674  1.00  0.00     0.059 A 
ATOM     74  C   UNL A   1      40.400  28.512  32.506  1.00  0.00     0.059 A 
ATOM     75  F   UNL A   1      42.449  27.502  32.439  1.00  0.00    -0.206 F 
ATOM     76  C   UNL A   1      39.420  29.319  31.955  1.00  0.00     0.060 A 
BRANCH  76  77
ATOM     77  S   UNL A   1      37.930  29.724  32.875  1.00  0.00     0.124 S 
ATOM     78  O   UNL A   1      38.466  30.465  34.012  1.00  0.00    -0.237 OA
ATOM     79  O   UNL A   1      37.173  30.506  31.904  1.00  0.00    -0.237 OA
ATOM     80  O   UNL A   1      37.363  28.417  33.199  1.00  0.00    -0.744 OA
ENDBRANCH  76  77
ENDBRANCH  55  69
BRANCH  56  81
ATOM     81  C   UNL A   1      49.973  26.086  26.066  1.00  0.00     0.058 A 
ATOM     82  C   UNL A   1      49.302  26.718  25.010  1.00  0.00     0.135 A 
ATOM     83  C   UNL A   1      51.302  25.677  25.853  1.00  0.00     0.135 A 
ATOM     84  F   UNL A   1      48.013  27.072  25.146  1.00  0.00    -0.206 F 
ATOM     85  C   UNL A   1      50.016  27.205  23.926  1.00  0.00     0.059 A 
ATOM     86  C   UNL A   1      52.022  26.132  24.750  1.00  0.00     0.059 A 
ATOM     87  F   UNL A   1      51.960  25.006  26.809  1.00  0.00    -0.206 F 
ATOM     88  C   UNL A   1      51.385  26.963  23.833  1.00  0.00     0.060 A 
BRANCH  88  89
ATOM     89  S   UNL A   1      52.333  27.898  22.613  1.00  0.00     0.124 S 
ATOM     90  O   UNL A   1      52.693  26.867  21.649  1.00  0.00    -0.237 OA
ATOM     91  O   UNL A   1      51.364  28.895  22.165  1.00  0.00    -0.237 OA
ATOM     92  O   UNL A   1      53.448  28.446  23.378  1.00  0.00    -0.744 OA
ENDBRANCH  88  89
ENDBRANCH  56  81
BRANCH  68  93
ATOM     93  C   UNL A   1      46.999  31.890  28.278  1.00  0.00     0.058 A 
ATOM     94  C   UNL A   1      46.414  32.227  27.044  1.00  0.00     0.135 A 
ATOM     95  C   UNL A   1      47.205  32.979  29.160  1.00  0.00     0.135 A 
ATOM     96  F   UNL A   1      45.988  31.293  26.184  1.00  0.00    -0.206 F 
ATOM     97  C   UNL A   1      46.208  33.549  26.649  1.00  0.00     0.059 A 
ATOM     98  C   UNL A   1      46.928  34.300  28.819  1.00  0.00     0.059 A 
ATOM     99  F   UNL A   1      47.692  32.801  30.397  1.00  0.00    -0.206 F 
ATOM    100  C   UNL A   1      46.495  34.580  27.535  1.00  0.00     0.060 A 
BRANCH 100 101
ATOM    101  S   UNL A   1      46.316  36.285  26.994  1.00  0.00     0.124 S 
ATOM    102  O   UNL A   1      44.871  36.463  27.083  1.00  0.00    -0.237 OA
ATOM    103  O   UNL A   1      47.103  37.020  27.980  1.00  0.00    -0.237 OA
ATOM    104  O   UNL A   1      46.869  36.274  25.643  1.00  0.00    -0.744 OA
ENDBRANCH 100 101
ENDBRANCH  68  93
ENDBRANCH  42  43
ENDBRANCH  35  37
ENDBRANCH  34  35
ENDBRANCH  33  34
ENDBRANCH  32  33
ENDBRANCH  31  32
ENDBRANCH  30  31
ENDBRANCH   1  30
TORSDOF 23
ENDMDL
MODEL 3
REMARK VINA RESULT:     -10.6      1.635      2.457
REMARK SMILES Cc1c(NCc2ccccn2)cccc1C(=O)N1CCOC[C@@H]1CC(=O)OCCOCCOC(=O)c1ccc(-c2c3nc(c(-c4c(F)cc(S(=O)(=O)[O-])cc4F)c4ccc([nH]4)c(-c4c(F)cc(S(=O)(=O)[O-])cc4F)c4nc(c(-c5c(F)cc(S(=O)(=O)[O-])cc5F)c5ccc2[nH]5)C=C4)C=C3)cc1
REMARK SMILES IDX 28 1 27 2 25 3 26 4 24 5 23 6 18 7 19 8 20 9 22 10 21 11
REMARK SMILES IDX 16 12 17 13 15 14 1 15 2 16 3 17 12 18 14 19 13 20 4 21 5 23
REMARK SMILES IDX 6 24 7 25 11 26 8 27 10 28 9 29 29 30 30 31 31 32 32 33
REMARK SMILES IDX 33 34 34 35 35 36 36 37 37 38 101 39 38 40 100 41 39 42
REMARK SMILES IDX 40 43 41 44 94 45 42 46 99 47 93 48 95 49 43 50 98 51 92 52
REMARK SMILES IDX 91 53 44 55 78 56 57 57 77 58 58 59 61 60 76 61 96 62 59 63
REMARK SMILES IDX 60 64 75 66 97 67 62 68 45 69 46 70 55 71 47 72 48 73 54 74
REMARK SMILES IDX 56 75 49 76 50 77 51 78 52 79 53 80 79 81 80 82 89 83 81 84
REMARK SMILES IDX 82 85 88 86 90 87 83 88 84 89 85 90 86 91 87 92 63 93 64 94
REMARK SMILES IDX 73 95 65 96 66 97 72 98 74 99 67 100 68 101 69 102 70 103
REMARK SMILES IDX 71 104
REMARK H PARENT 4 22 95 54 61 65
REMARK Flexibility Score: inf
ROOT
ATOM      1  C   UNL A   1      33.848  31.252  27.661  1.00  0.00     0.261 C 
ENDROOT
BRANCH   1   2
ATOM      2  O   UNL A   1      32.555  30.993  27.147  1.00  0.00    -0.463 OA
BRANCH   2   3
ATOM      3  C   UNL A   1      32.328  29.730  26.735  1.00  0.00     0.308 C 
ATOM      4  O   UNL A   1      31.787  28.828  27.361  1.00  0.00    -0.252 OA
BRANCH   3   5
ATOM      5  C   UNL A   1      32.707  29.628  25.297  1.00  0.00     0.150 C 
BRANCH   5   6
ATOM      6  C   UNL A   1      31.555  29.116  24.415  1.00  0.00     0.122 C 
ATOM      7  N   UNL A   1      31.799  28.500  23.063  1.00  0.00    -0.330 N 
ATOM      8  C   UNL A   1      30.566  27.974  22.486  1.00  0.00     0.148 C 
ATOM      9  C   UNL A   1      29.466  29.040  22.438  1.00  0.00     0.181 C 
ATOM     10  C   UNL A   1      30.466  30.213  24.242  1.00  0.00     0.185 C 
ATOM     11  O   UNL A   1      29.248  29.641  23.723  1.00  0.00    -0.377 OA
BRANCH   7  12
ATOM     12  C   UNL A   1      33.030  27.992  22.632  1.00  0.00     0.254 C 
ATOM     13  O   UNL A   1      33.915  28.762  22.256  1.00  0.00    -0.269 OA
BRANCH  12  14
ATOM     14  C   UNL A   1      33.337  26.490  22.598  1.00  0.00     0.045 A 
ATOM     15  C   UNL A   1      34.264  26.147  24.976  1.00  0.00     0.047 C 
ATOM     16  C   UNL A   1      33.663  25.647  23.699  1.00  0.00    -0.015 A 
ATOM     17  C   UNL A   1      33.516  24.230  23.595  1.00  0.00     0.038 A 
ATOM     18  C   UNL A   1      33.235  23.667  22.351  1.00  0.00     0.026 A 
ATOM     19  C   UNL A   1      33.053  25.867  21.368  1.00  0.00     0.014 A 
ATOM     20  C   UNL A   1      33.042  24.475  21.236  1.00  0.00     0.003 A 
BRANCH  17  21
ATOM     21  N   UNL A   1      33.559  23.474  24.776  1.00  0.00    -0.379 N 
ATOM     22  H   UNL A   1      34.393  23.524  25.299  1.00  0.00     0.160 HD
BRANCH  21  23
ATOM     23  C   UNL A   1      32.498  22.618  25.315  1.00  0.00     0.169 C 
BRANCH  23  24
ATOM     24  C   UNL A   1      31.231  23.316  25.778  1.00  0.00     0.059 A 
ATOM     25  C   UNL A   1      30.956  24.648  25.477  1.00  0.00     0.026 A 
ATOM     26  N   UNL A   1      30.402  22.591  26.584  1.00  0.00    -0.259 NA
ATOM     27  C   UNL A   1      29.856  25.272  26.057  1.00  0.00     0.004 A 
ATOM     28  C   UNL A   1      29.333  23.216  27.120  1.00  0.00     0.111 A 
ATOM     29  C   UNL A   1      29.031  24.547  26.902  1.00  0.00     0.020 A 
ENDBRANCH  23  24
ENDBRANCH  21  23
ENDBRANCH  17  21
ENDBRANCH  12  14
ENDBRANCH   7  12
ENDBRANCH   5   6
ENDBRANCH   3   5
ENDBRANCH   2   3
ENDBRANCH   1   2
BRANCH   1  30
ATOM     30  C   UNL A   1      34.011  32.710  28.012  1.00  0.00     0.202 C 
BRANCH  30  31
ATOM     31  O   UNL A   1      34.891  32.837  29.119  1.00  0.00    -0.374 OA
BRANCH  31  32
ATOM     32  C   UNL A   1      36.203  33.285  28.826  1.00  0.00     0.202 C 
BRANCH  32  33
ATOM     33  C   UNL A   1      37.355  32.345  29.235  1.00  0.00     0.261 C 
BRANCH  33  34
ATOM     34  O   UNL A   1      37.341  31.098  28.496  1.00  0.00    -0.460 OA
BRANCH  34  35
ATOM     35  C   UNL A   1      37.203  29.926  29.200  1.00  0.00     0.338 C 
ATOM     36  O   UNL A   1      36.165  29.547  29.682  1.00  0.00    -0.246 OA
BRANCH  35  37
ATOM     37  C   UNL A   1      38.511  29.196  29.267  1.00  0.00     0.060 A 
ATOM     38  C   UNL A   1      39.408  29.375  30.333  1.00  0.00     0.016 A 
ATOM     39  C   UNL A   1      38.932  28.508  28.139  1.00  0.00     0.016 A 
ATOM     40  C   UNL A   1      40.766  29.014  30.194  1.00  0.00     0.010 A 
ATOM     41  C   UNL A   1      40.283  28.293  27.957  1.00  0.00     0.010 A 
ATOM     42  C   UNL A   1      41.225  28.557  28.971  1.00  0.00    -0.014 A 
BRANCH  42  43
ATOM     43  C   UNL A   1      42.612  28.271  28.572  1.00  0.00     0.031 A 
ATOM     44  C   UNL A   1      43.395  29.439  28.083  1.00  0.00     0.074 A 
ATOM     45  C   UNL A   1      43.317  27.198  29.022  1.00  0.00     0.049 A 
ATOM     46  N   UNL A   1      44.652  29.413  27.812  1.00  0.00    -0.248 NA
ATOM     47  C   UNL A   1      42.798  30.751  27.824  1.00  0.00     0.031 C 
ATOM     48  C   UNL A   1      44.678  27.251  29.572  1.00  0.00     0.029 A 
ATOM     49  N   UNL A   1      43.014  25.852  29.118  1.00  0.00    -0.354 N 
ATOM     50  C   UNL A   1      45.086  30.716  27.746  1.00  0.00     0.074 A 
ATOM     51  C   UNL A   1      43.884  31.493  27.603  1.00  0.00     0.031 C 
ATOM     52  C   UNL A   1      45.147  26.010  29.766  1.00  0.00     0.029 A 
ATOM     53  C   UNL A   1      44.192  25.089  29.193  1.00  0.00     0.049 A 
ATOM     54  H   UNL A   1      42.102  25.480  29.131  1.00  0.00     0.167 HD
ATOM     55  C   UNL A   1      46.409  30.960  27.961  1.00  0.00     0.037 A 
ATOM     56  C   UNL A   1      44.470  24.048  28.347  1.00  0.00     0.037 A 
ATOM     57  C   UNL A   1      47.161  29.701  28.026  1.00  0.00     0.049 A 
ATOM     58  C   UNL A   1      45.747  24.235  27.569  1.00  0.00     0.074 A 
ATOM     59  C   UNL A   1      47.774  28.997  29.047  1.00  0.00     0.029 A 
ATOM     60  N   UNL A   1      47.144  28.855  26.924  1.00  0.00    -0.354 N 
ATOM     61  N   UNL A   1      46.503  25.288  27.683  1.00  0.00    -0.248 NA
ATOM     62  C   UNL A   1      46.219  23.336  26.518  1.00  0.00     0.031 C 
ATOM     63  C   UNL A   1      48.120  27.713  28.543  1.00  0.00     0.029 A 
ATOM     64  C   UNL A   1      47.727  27.639  27.215  1.00  0.00     0.049 A 
ATOM     65  H   UNL A   1      46.765  29.094  26.047  1.00  0.00     0.167 HD
ATOM     66  C   UNL A   1      47.283  25.389  26.566  1.00  0.00     0.074 A 
ATOM     67  C   UNL A   1      47.192  24.077  25.959  1.00  0.00     0.031 C 
ATOM     68  C   UNL A   1      47.798  26.597  26.189  1.00  0.00     0.037 A 
BRANCH  55  69
ATOM     69  C   UNL A   1      47.060  32.302  28.250  1.00  0.00     0.058 A 
ATOM     70  C   UNL A   1      48.075  32.787  27.390  1.00  0.00     0.135 A 
ATOM     71  C   UNL A   1      46.797  33.140  29.355  1.00  0.00     0.135 A 
ATOM     72  F   UNL A   1      48.466  32.102  26.306  1.00  0.00    -0.206 F 
ATOM     73  C   UNL A   1      48.751  33.991  27.599  1.00  0.00     0.059 A 
ATOM     74  C   UNL A   1      47.435  34.365  29.566  1.00  0.00     0.059 A 
ATOM     75  F   UNL A   1      45.936  32.814  30.321  1.00  0.00    -0.206 F 
ATOM     76  C   UNL A   1      48.415  34.784  28.683  1.00  0.00     0.060 A 
BRANCH  76  77
ATOM     77  S   UNL A   1      49.260  36.353  28.918  1.00  0.00     0.124 S 
ATOM     78  O   UNL A   1      49.743  36.643  27.571  1.00  0.00    -0.237 OA
ATOM     79  O   UNL A   1      48.186  37.210  29.408  1.00  0.00    -0.237 OA
ATOM     80  O   UNL A   1      50.300  36.039  29.895  1.00  0.00    -0.744 OA
ENDBRANCH  76  77
ENDBRANCH  55  69
BRANCH  56  81
ATOM     81  C   UNL A   1      43.224  23.451  27.779  1.00  0.00     0.058 A 
ATOM     82  C   UNL A   1      43.214  23.302  26.386  1.00  0.00     0.135 A 
ATOM     83  C   UNL A   1      42.533  22.500  28.550  1.00  0.00     0.135 A 
ATOM     84  F   UNL A   1      43.809  24.218  25.604  1.00  0.00    -0.206 F 
ATOM     85  C   UNL A   1      42.818  22.100  25.819  1.00  0.00     0.059 A 
ATOM     86  C   UNL A   1      42.100  21.301  27.987  1.00  0.00     0.059 A 
ATOM     87  F   UNL A   1      42.455  22.641  29.881  1.00  0.00    -0.206 F 
ATOM     88  C   UNL A   1      42.321  21.082  26.630  1.00  0.00     0.060 A 
BRANCH  88  89
ATOM     89  S   UNL A   1      42.151  19.431  25.917  1.00  0.00     0.124 S 
ATOM     90  O   UNL A   1      42.984  19.525  24.725  1.00  0.00    -0.237 OA
ATOM     91  O   UNL A   1      42.651  18.576  26.991  1.00  0.00    -0.237 OA
ATOM     92  O   UNL A   1      40.720  19.303  25.664  1.00  0.00    -0.744 OA
ENDBRANCH  88  89
ENDBRANCH  56  81
BRANCH  68  93
ATOM     93  C   UNL A   1      48.407  26.903  24.838  1.00  0.00     0.058 A 
ATOM     94  C   UNL A   1      47.696  27.409  23.735  1.00  0.00     0.135 A 
ATOM     95  C   UNL A   1      49.802  26.758  24.636  1.00  0.00     0.135 A 
ATOM     96  F   UNL A   1      46.411  27.776  23.828  1.00  0.00    -0.206 F 
ATOM     97  C   UNL A   1      48.287  27.594  22.485  1.00  0.00     0.059 A 
ATOM     98  C   UNL A   1      50.427  27.016  23.420  1.00  0.00     0.059 A 
ATOM     99  F   UNL A   1      50.617  26.350  25.620  1.00  0.00    -0.206 F 
ATOM    100  C   UNL A   1      49.648  27.368  22.331  1.00  0.00     0.060 A 
BRANCH 100 101
ATOM    101  S   UNL A   1      50.391  27.518  20.701  1.00  0.00     0.124 S 
ATOM    102  O   UNL A   1      49.234  27.297  19.839  1.00  0.00    -0.237 OA
ATOM    103  O   UNL A   1      50.917  28.879  20.711  1.00  0.00    -0.237 OA
ATOM    104  O   UNL A   1      51.399  26.463  20.687  1.00  0.00    -0.744 OA
ENDBRANCH 100 101
ENDBRANCH  68  93
ENDBRANCH  42  43
ENDBRANCH  35  37
ENDBRANCH  34  35
ENDBRANCH  33  34
ENDBRANCH  32  33
ENDBRANCH  31  32
ENDBRANCH  30  31
ENDBRANCH   1  30
TORSDOF 23
ENDMDL
