MODEL 1
REMARK VINA RESULT:     -10.1      0.000      0.000
REMARK SMILES CN1C(=O)CC[C@H]([NH2+]Cc2ccc(C(=O)OCCOCCOC(=O)c3ccc(-c4c5nc(c(-c6c(F)cc(S(=O)(=O)[O-])cc6F)c6ccc([nH]6)c(-c6c(F)cc(S(=O)(=O)[O-])cc6F)c6nc(c(-c7c(F)cc(S(=O)(=O)[O-])cc7F)c7ccc4[nH]7)C=C6)C=C5)cc3)cn2)C1=O
REMARK SMILES IDX 19 1 18 2 17 3 16 4 14 5 15 6 13 7 10 8 11 9 92 10 12 11
REMARK SMILES IDX 91 12 9 13 8 14 7 17 1 18 2 19 3 20 93 21 4 22 5 23 94 24
REMARK SMILES IDX 6 25 20 26 21 27 22 28 23 29 24 30 25 31 26 32 90 33 27 34
REMARK SMILES IDX 89 35 28 36 29 37 30 38 83 39 31 40 88 41 82 42 84 43 32 44
REMARK SMILES IDX 87 45 81 46 80 47 33 49 67 50 46 51 66 52 47 53 50 54 65 55
REMARK SMILES IDX 85 56 48 57 49 58 64 60 86 61 51 62 34 63 35 64 44 65 36 66
REMARK SMILES IDX 37 67 43 68 45 69 38 70 39 71 40 72 41 73 42 74 68 75 69 76
REMARK SMILES IDX 78 77 70 78 71 79 77 80 79 81 72 82 73 83 74 84 75 85 76 86
REMARK SMILES IDX 52 87 53 88 62 89 54 90 55 91 61 92 63 93 56 94 57 95 58 96
REMARK SMILES IDX 59 97 60 98
REMARK H PARENT 8 15 8 16 84 48 50 59
REMARK Flexibility Score: inf
ROOT
ATOM      1  O   UNL A   1      34.911  34.764  28.579  1.00  0.00    -0.374 OA
ENDROOT
BRANCH   1   2
ATOM      2  C   UNL A   1      33.515  34.766  28.876  1.00  0.00     0.202 C 
BRANCH   2   3
ATOM      3  C   UNL A   1      32.996  35.888  29.780  1.00  0.00     0.261 C 
BRANCH   3   4
ATOM      4  O   UNL A   1      32.265  35.366  30.899  1.00  0.00    -0.460 OA
BRANCH   4   5
ATOM      5  C   UNL A   1      32.583  35.911  32.096  1.00  0.00     0.339 C 
ATOM      6  O   UNL A   1      32.000  36.822  32.669  1.00  0.00    -0.246 OA
BRANCH   5   7
ATOM      7  C   UNL A   1      33.665  35.141  32.729  1.00  0.00     0.078 A 
ATOM      8  C   UNL A   1      35.810  33.914  33.928  1.00  0.00     0.094 A 
ATOM      9  C   UNL A   1      34.804  33.127  33.359  1.00  0.00     0.031 A 
ATOM     10  N   UNL A   1      35.755  35.274  33.950  1.00  0.00    -0.254 NA
ATOM     11  C   UNL A   1      33.712  33.749  32.758  1.00  0.00     0.019 A 
ATOM     12  C   UNL A   1      34.684  35.851  33.353  1.00  0.00     0.127 A 
BRANCH   8  13
ATOM     13  C   UNL A   1      37.121  33.258  34.326  1.00  0.00     0.318 C 
BRANCH  13  14
ATOM     14  N   UNL A   1      37.091  31.793  34.279  1.00  0.00    -0.331 N 
ATOM     15  H   UNL A   1      36.801  31.457  35.198  1.00  0.00     0.347 HD
ATOM     16  H   UNL A   1      36.446  31.556  33.525  1.00  0.00     0.347 HD
BRANCH  14  17
ATOM     17  C   UNL A   1      38.371  31.127  33.935  1.00  0.00     0.274 C 
ATOM     18  C   UNL A   1      41.417  30.026  35.993  1.00  0.00     0.156 C 
ATOM     19  N   UNL A   1      40.631  30.670  34.953  1.00  0.00    -0.281 N 
ATOM     20  C   UNL A   1      41.315  31.262  33.900  1.00  0.00     0.229 C 
ATOM     21  C   UNL A   1      39.244  30.647  35.124  1.00  0.00     0.287 C 
ATOM     22  O   UNL A   1      42.535  31.424  33.885  1.00  0.00    -0.274 OA
ATOM     23  C   UNL A   1      40.492  31.624  32.692  1.00  0.00     0.107 C 
ATOM     24  O   UNL A   1      38.758  30.152  36.146  1.00  0.00    -0.267 OA
ATOM     25  C   UNL A   1      39.119  32.131  33.064  1.00  0.00     0.085 C 
ENDBRANCH  14  17
ENDBRANCH  13  14
ENDBRANCH   8  13
ENDBRANCH   5   7
ENDBRANCH   4   5
ENDBRANCH   3   4
ENDBRANCH   2   3
ENDBRANCH   1   2
BRANCH   1  26
ATOM     26  C   UNL A   1      35.645  33.568  28.843  1.00  0.00     0.202 C 
BRANCH  26  27
ATOM     27  C   UNL A   1      34.873  32.357  29.378  1.00  0.00     0.261 C 
BRANCH  27  28
ATOM     28  O   UNL A   1      35.584  31.121  29.188  1.00  0.00    -0.460 OA
BRANCH  28  29
ATOM     29  C   UNL A   1      36.374  30.765  30.229  1.00  0.00     0.338 C 
ATOM     30  O   UNL A   1      36.126  30.891  31.419  1.00  0.00    -0.246 OA
BRANCH  29  31
ATOM     31  C   UNL A   1      37.540  30.006  29.741  1.00  0.00     0.060 A 
ATOM     32  C   UNL A   1      38.392  29.444  30.702  1.00  0.00     0.016 A 
ATOM     33  C   UNL A   1      37.844  29.919  28.381  1.00  0.00     0.016 A 
ATOM     34  C   UNL A   1      39.589  28.854  30.310  1.00  0.00     0.010 A 
ATOM     35  C   UNL A   1      39.050  29.329  27.991  1.00  0.00     0.010 A 
ATOM     36  C   UNL A   1      39.949  28.837  28.956  1.00  0.00    -0.014 A 
BRANCH  36  37
ATOM     37  C   UNL A   1      41.336  28.473  28.575  1.00  0.00     0.031 A 
ATOM     38  C   UNL A   1      42.390  29.549  28.573  1.00  0.00     0.074 A 
ATOM     39  C   UNL A   1      41.659  27.204  28.271  1.00  0.00     0.049 A 
ATOM     40  N   UNL A   1      43.652  29.474  28.240  1.00  0.00    -0.248 NA
ATOM     41  C   UNL A   1      41.960  30.891  28.999  1.00  0.00     0.031 C 
ATOM     42  C   UNL A   1      40.735  26.071  28.280  1.00  0.00     0.029 A 
ATOM     43  N   UNL A   1      42.859  26.658  27.891  1.00  0.00    -0.354 N 
ATOM     44  C   UNL A   1      44.164  30.757  28.404  1.00  0.00     0.074 A 
ATOM     45  C   UNL A   1      43.068  31.597  28.832  1.00  0.00     0.031 C 
ATOM     46  C   UNL A   1      41.401  24.963  27.911  1.00  0.00     0.029 A 
ATOM     47  C   UNL A   1      42.788  25.315  27.609  1.00  0.00     0.049 A 
ATOM     48  H   UNL A   1      43.693  27.178  27.827  1.00  0.00     0.167 HD
ATOM     49  C   UNL A   1      45.434  31.191  28.223  1.00  0.00     0.037 A 
ATOM     50  C   UNL A   1      43.729  24.472  27.142  1.00  0.00     0.037 A 
ATOM     51  C   UNL A   1      46.520  30.345  27.802  1.00  0.00     0.049 A 
ATOM     52  C   UNL A   1      45.124  24.988  26.895  1.00  0.00     0.074 A 
ATOM     53  C   UNL A   1      47.847  30.683  27.602  1.00  0.00     0.029 A 
ATOM     54  N   UNL A   1      46.405  28.992  27.510  1.00  0.00    -0.354 N 
ATOM     55  N   UNL A   1      45.598  26.200  27.066  1.00  0.00    -0.248 NA
ATOM     56  C   UNL A   1      46.115  24.021  26.404  1.00  0.00     0.031 C 
ATOM     57  C   UNL A   1      48.523  29.549  27.139  1.00  0.00     0.029 A 
ATOM     58  C   UNL A   1      47.632  28.487  27.114  1.00  0.00     0.049 A 
ATOM     59  H   UNL A   1      45.574  28.470  27.577  1.00  0.00     0.167 HD
ATOM     60  C   UNL A   1      46.950  26.130  26.742  1.00  0.00     0.074 A 
ATOM     61  C   UNL A   1      47.217  24.757  26.368  1.00  0.00     0.031 C 
ATOM     62  C   UNL A   1      47.886  27.112  26.759  1.00  0.00     0.037 A 
BRANCH  49  63
ATOM     63  C   UNL A   1      45.711  32.652  28.453  1.00  0.00     0.058 A 
ATOM     64  C   UNL A   1      46.123  33.145  29.702  1.00  0.00     0.135 A 
ATOM     65  C   UNL A   1      45.586  33.572  27.398  1.00  0.00     0.135 A 
ATOM     66  F   UNL A   1      46.241  32.314  30.750  1.00  0.00    -0.206 F 
ATOM     67  C   UNL A   1      46.373  34.499  29.905  1.00  0.00     0.059 A 
ATOM     68  C   UNL A   1      45.861  34.925  27.570  1.00  0.00     0.059 A 
ATOM     69  F   UNL A   1      45.193  33.159  26.183  1.00  0.00    -0.206 F 
ATOM     70  C   UNL A   1      46.239  35.382  28.833  1.00  0.00     0.060 A 
BRANCH  70  71
ATOM     71  S   UNL A   1      46.567  37.134  29.112  1.00  0.00     0.124 S 
ATOM     72  O   UNL A   1      46.064  37.312  30.471  1.00  0.00    -0.237 OA
ATOM     73  O   UNL A   1      48.016  37.208  28.958  1.00  0.00    -0.237 OA
ATOM     74  O   UNL A   1      45.795  37.797  28.066  1.00  0.00    -0.744 OA
ENDBRANCH  70  71
ENDBRANCH  49  63
BRANCH  50  75
ATOM     75  C   UNL A   1      43.385  23.049  26.874  1.00  0.00     0.058 A 
ATOM     76  C   UNL A   1      43.163  22.144  27.923  1.00  0.00     0.135 A 
ATOM     77  C   UNL A   1      43.268  22.566  25.560  1.00  0.00     0.135 A 
ATOM     78  F   UNL A   1      43.274  22.555  29.195  1.00  0.00    -0.206 F 
ATOM     79  C   UNL A   1      42.854  20.810  27.682  1.00  0.00     0.059 A 
ATOM     80  C   UNL A   1      42.931  21.243  25.294  1.00  0.00     0.059 A 
ATOM     81  F   UNL A   1      43.459  23.393  24.520  1.00  0.00    -0.206 F 
ATOM     82  C   UNL A   1      42.736  20.370  26.363  1.00  0.00     0.060 A 
BRANCH  82  83
ATOM     83  S   UNL A   1      42.283  18.647  26.061  1.00  0.00     0.124 S 
ATOM     84  O   UNL A   1      42.554  18.040  27.358  1.00  0.00    -0.237 OA
ATOM     85  O   UNL A   1      40.876  18.764  25.690  1.00  0.00    -0.237 OA
ATOM     86  O   UNL A   1      43.177  18.250  24.978  1.00  0.00    -0.744 OA
ENDBRANCH  82  83
ENDBRANCH  50  75
BRANCH  62  87
ATOM     87  C   UNL A   1      49.304  26.729  26.427  1.00  0.00     0.058 A 
ATOM     88  C   UNL A   1      50.165  26.151  27.374  1.00  0.00     0.135 A 
ATOM     89  C   UNL A   1      49.794  26.901  25.121  1.00  0.00     0.135 A 
ATOM     90  F   UNL A   1      49.751  25.965  28.638  1.00  0.00    -0.206 F 
ATOM     91  C   UNL A   1      51.468  25.789  27.047  1.00  0.00     0.059 A 
ATOM     92  C   UNL A   1      51.082  26.517  24.764  1.00  0.00     0.059 A 
ATOM     93  F   UNL A   1      49.010  27.437  24.170  1.00  0.00    -0.206 F 
ATOM     94  C   UNL A   1      51.917  25.977  25.738  1.00  0.00     0.060 A 
BRANCH  94  95
ATOM     95  S   UNL A   1      53.604  25.485  25.322  1.00  0.00     0.124 S 
ATOM     96  O   UNL A   1      53.626  24.098  25.777  1.00  0.00    -0.237 OA
ATOM     97  O   UNL A   1      53.639  25.679  23.876  1.00  0.00    -0.237 OA
ATOM     98  O   UNL A   1      54.428  26.411  26.093  1.00  0.00    -0.744 OA
ENDBRANCH  94  95
ENDBRANCH  62  87
ENDBRANCH  36  37
ENDBRANCH  29  31
ENDBRANCH  28  29
ENDBRANCH  27  28
ENDBRANCH  26  27
ENDBRANCH   1  26
TORSDOF 20
ENDMDL
MODEL 2
REMARK VINA RESULT:      -9.9      6.400     13.716
REMARK SMILES CN1C(=O)CC[C@H]([NH2+]Cc2ccc(C(=O)OCCOCCOC(=O)c3ccc(-c4c5nc(c(-c6c(F)cc(S(=O)(=O)[O-])cc6F)c6ccc([nH]6)c(-c6c(F)cc(S(=O)(=O)[O-])cc6F)c6nc(c(-c7c(F)cc(S(=O)(=O)[O-])cc7F)c7ccc4[nH]7)C=C6)C=C5)cc3)cn2)C1=O
REMARK SMILES IDX 19 1 18 2 17 3 16 4 14 5 15 6 13 7 10 8 11 9 92 10 12 11
REMARK SMILES IDX 91 12 9 13 8 14 7 17 1 18 2 19 3 20 93 21 4 22 5 23 94 24
REMARK SMILES IDX 6 25 20 26 21 27 22 28 23 29 24 30 25 31 26 32 90 33 27 34
REMARK SMILES IDX 89 35 28 36 29 37 30 38 83 39 31 40 88 41 82 42 84 43 32 44
REMARK SMILES IDX 87 45 81 46 80 47 33 49 67 50 46 51 66 52 47 53 50 54 65 55
REMARK SMILES IDX 85 56 48 57 49 58 64 60 86 61 51 62 34 63 35 64 44 65 36 66
REMARK SMILES IDX 37 67 43 68 45 69 38 70 39 71 40 72 41 73 42 74 68 75 69 76
REMARK SMILES IDX 78 77 70 78 71 79 77 80 79 81 72 82 73 83 74 84 75 85 76 86
REMARK SMILES IDX 52 87 53 88 62 89 54 90 55 91 61 92 63 93 56 94 57 95 58 96
REMARK SMILES IDX 59 97 60 98
REMARK H PARENT 8 15 8 16 84 48 50 59
REMARK Flexibility Score: inf
ROOT
ATOM      1  O   UNL A   1      40.341  21.991  26.990  1.00  0.00    -0.374 OA
ENDROOT
BRANCH   1   2
ATOM      2  C   UNL A   1      39.228  22.750  26.517  1.00  0.00     0.202 C 
BRANCH   2   3
ATOM      3  C   UNL A   1      38.199  22.014  25.653  1.00  0.00     0.261 C 
BRANCH   3   4
ATOM      4  O   UNL A   1      36.979  22.761  25.538  1.00  0.00    -0.460 OA
BRANCH   4   5
ATOM      5  C   UNL A   1      36.476  22.847  24.286  1.00  0.00     0.339 C 
ATOM      6  O   UNL A   1      37.032  22.526  23.243  1.00  0.00    -0.246 OA
BRANCH   5   7
ATOM      7  C   UNL A   1      35.060  23.244  24.338  1.00  0.00     0.078 A 
ATOM      8  C   UNL A   1      32.449  24.026  24.674  1.00  0.00     0.094 A 
ATOM      9  C   UNL A   1      32.829  23.416  23.474  1.00  0.00     0.031 A 
ATOM     10  N   UNL A   1      33.330  24.288  25.677  1.00  0.00    -0.254 NA
ATOM     11  C   UNL A   1      34.155  23.026  23.300  1.00  0.00     0.019 A 
ATOM     12  C   UNL A   1      34.611  23.893  25.481  1.00  0.00     0.127 A 
BRANCH   8  13
ATOM     13  C   UNL A   1      30.969  24.192  24.978  1.00  0.00     0.318 C 
BRANCH  13  14
ATOM     14  N   UNL A   1      30.206  24.814  23.892  1.00  0.00    -0.331 N 
ATOM     15  H   UNL A   1      30.613  24.507  23.008  1.00  0.00     0.347 HD
ATOM     16  H   UNL A   1      29.239  24.518  24.031  1.00  0.00     0.347 HD
BRANCH  14  17
ATOM     17  C   UNL A   1      30.173  26.297  23.886  1.00  0.00     0.274 C 
ATOM     18  C   UNL A   1      27.476  28.880  22.999  1.00  0.00     0.156 C 
ATOM     19  N   UNL A   1      28.752  28.182  23.001  1.00  0.00    -0.281 N 
ATOM     20  C   UNL A   1      29.813  28.771  22.326  1.00  0.00     0.229 C 
ATOM     21  C   UNL A   1      28.785  26.959  23.676  1.00  0.00     0.287 C 
ATOM     22  O   UNL A   1      29.692  29.750  21.589  1.00  0.00    -0.274 OA
ATOM     23  C   UNL A   1      31.180  28.210  22.614  1.00  0.00     0.107 C 
ATOM     24  O   UNL A   1      27.752  26.503  24.176  1.00  0.00    -0.267 OA
ATOM     25  C   UNL A   1      31.158  26.712  22.797  1.00  0.00     0.085 C 
ENDBRANCH  14  17
ENDBRANCH  13  14
ENDBRANCH   8  13
ENDBRANCH   5   7
ENDBRANCH   4   5
ENDBRANCH   3   4
ENDBRANCH   2   3
ENDBRANCH   1   2
BRANCH   1  26
ATOM     26  C   UNL A   1      41.611  22.224  26.382  1.00  0.00     0.202 C 
BRANCH  26  27
ATOM     27  C   UNL A   1      42.494  23.334  26.968  1.00  0.00     0.261 C 
BRANCH  27  28
ATOM     28  O   UNL A   1      42.741  24.394  26.029  1.00  0.00    -0.460 OA
BRANCH  28  29
ATOM     29  C   UNL A   1      41.804  25.373  26.033  1.00  0.00     0.338 C 
ATOM     30  O   UNL A   1      40.962  25.591  25.175  1.00  0.00    -0.246 OA
BRANCH  29  31
ATOM     31  C   UNL A   1      41.799  26.060  27.337  1.00  0.00     0.060 A 
ATOM     32  C   UNL A   1      40.664  25.903  28.145  1.00  0.00     0.016 A 
ATOM     33  C   UNL A   1      42.836  26.911  27.725  1.00  0.00     0.016 A 
ATOM     34  C   UNL A   1      40.531  26.649  29.312  1.00  0.00     0.010 A 
ATOM     35  C   UNL A   1      42.698  27.662  28.896  1.00  0.00     0.010 A 
ATOM     36  C   UNL A   1      41.524  27.570  29.668  1.00  0.00    -0.014 A 
BRANCH  36  37
ATOM     37  C   UNL A   1      41.251  28.558  30.740  1.00  0.00     0.031 A 
ATOM     38  C   UNL A   1      42.099  28.527  31.985  1.00  0.00     0.074 A 
ATOM     39  C   UNL A   1      40.290  29.488  30.596  1.00  0.00     0.049 A 
ATOM     40  N   UNL A   1      42.019  29.263  33.062  1.00  0.00    -0.248 NA
ATOM     41  C   UNL A   1      43.180  27.528  32.017  1.00  0.00     0.031 C 
ATOM     42  C   UNL A   1      39.434  29.643  29.421  1.00  0.00     0.029 A 
ATOM     43  N   UNL A   1      39.872  30.476  31.451  1.00  0.00    -0.354 N 
ATOM     44  C   UNL A   1      43.027  28.809  33.906  1.00  0.00     0.074 A 
ATOM     45  C   UNL A   1      43.683  27.712  33.229  1.00  0.00     0.031 C 
ATOM     46  C   UNL A   1      38.583  30.662  29.633  1.00  0.00     0.029 A 
ATOM     47  C   UNL A   1      38.813  31.208  30.970  1.00  0.00     0.049 A 
ATOM     48  H   UNL A   1      40.291  30.645  32.326  1.00  0.00     0.167 HD
ATOM     49  C   UNL A   1      43.381  29.272  35.128  1.00  0.00     0.037 A 
ATOM     50  C   UNL A   1      38.099  32.192  31.551  1.00  0.00     0.037 A 
ATOM     51  C   UNL A   1      42.726  30.369  35.792  1.00  0.00     0.049 A 
ATOM     52  C   UNL A   1      38.474  32.656  32.935  1.00  0.00     0.074 A 
ATOM     53  C   UNL A   1      43.014  30.924  37.027  1.00  0.00     0.029 A 
ATOM     54  N   UNL A   1      41.646  31.075  35.279  1.00  0.00    -0.354 N 
ATOM     55  N   UNL A   1      39.437  32.227  33.718  1.00  0.00    -0.248 NA
ATOM     56  C   UNL A   1      37.674  33.744  33.513  1.00  0.00     0.031 C 
ATOM     57  C   UNL A   1      42.077  31.931  37.283  1.00  0.00     0.029 A 
ATOM     58  C   UNL A   1      41.246  32.048  36.181  1.00  0.00     0.049 A 
ATOM     59  H   UNL A   1      41.228  30.910  34.404  1.00  0.00     0.167 HD
ATOM     60  C   UNL A   1      39.384  33.021  34.860  1.00  0.00     0.074 A 
ATOM     61  C   UNL A   1      38.295  33.956  34.665  1.00  0.00     0.031 C 
ATOM     62  C   UNL A   1      40.168  32.983  35.966  1.00  0.00     0.037 A 
BRANCH  49  63
ATOM     63  C   UNL A   1      44.509  28.574  35.840  1.00  0.00     0.058 A 
ATOM     64  C   UNL A   1      44.282  27.524  36.745  1.00  0.00     0.135 A 
ATOM     65  C   UNL A   1      45.841  28.945  35.592  1.00  0.00     0.135 A 
ATOM     66  F   UNL A   1      43.027  27.141  37.034  1.00  0.00    -0.206 F 
ATOM     67  C   UNL A   1      45.331  26.888  37.401  1.00  0.00     0.059 A 
ATOM     68  C   UNL A   1      46.908  28.301  36.212  1.00  0.00     0.059 A 
ATOM     69  F   UNL A   1      46.118  29.942  34.738  1.00  0.00    -0.206 F 
ATOM     70  C   UNL A   1      46.641  27.284  37.128  1.00  0.00     0.060 A 
BRANCH  70  71
ATOM     71  S   UNL A   1      47.992  26.448  37.986  1.00  0.00     0.124 S 
ATOM     72  O   UNL A   1      47.288  25.343  38.630  1.00  0.00    -0.237 OA
ATOM     73  O   UNL A   1      48.878  26.080  36.887  1.00  0.00    -0.237 OA
ATOM     74  O   UNL A   1      48.508  27.472  38.888  1.00  0.00    -0.744 OA
ENDBRANCH  70  71
ENDBRANCH  49  63
BRANCH  50  75
ATOM     75  C   UNL A   1      36.954  32.807  30.826  1.00  0.00     0.058 A 
ATOM     76  C   UNL A   1      35.631  32.430  31.101  1.00  0.00     0.135 A 
ATOM     77  C   UNL A   1      37.161  33.789  29.843  1.00  0.00     0.135 A 
ATOM     78  F   UNL A   1      35.382  31.488  32.024  1.00  0.00    -0.206 F 
ATOM     79  C   UNL A   1      34.556  32.990  30.420  1.00  0.00     0.059 A 
ATOM     80  C   UNL A   1      36.101  34.384  29.169  1.00  0.00     0.059 A 
ATOM     81  F   UNL A   1      38.407  34.194  29.550  1.00  0.00    -0.206 F 
ATOM     82  C   UNL A   1      34.801  33.971  29.457  1.00  0.00     0.060 A 
BRANCH  82  83
ATOM     83  S   UNL A   1      33.395  34.729  28.614  1.00  0.00     0.124 S 
ATOM     84  O   UNL A   1      32.509  35.029  29.732  1.00  0.00    -0.237 OA
ATOM     85  O   UNL A   1      34.016  35.878  27.962  1.00  0.00    -0.237 OA
ATOM     86  O   UNL A   1      32.939  33.676  27.711  1.00  0.00    -0.744 OA
ENDBRANCH  82  83
ENDBRANCH  50  75
BRANCH  62  87
ATOM     87  C   UNL A   1      39.926  34.023  37.028  1.00  0.00     0.058 A 
ATOM     88  C   UNL A   1      39.023  33.818  38.084  1.00  0.00     0.135 A 
ATOM     89  C   UNL A   1      40.649  35.228  37.012  1.00  0.00     0.135 A 
ATOM     90  F   UNL A   1      38.303  32.686  38.147  1.00  0.00    -0.206 F 
ATOM     91  C   UNL A   1      38.821  34.784  39.065  1.00  0.00     0.059 A 
ATOM     92  C   UNL A   1      40.487  36.193  38.001  1.00  0.00     0.059 A 
ATOM     93  F   UNL A   1      41.536  35.472  36.034  1.00  0.00    -0.206 F 
ATOM     94  C   UNL A   1      39.559  35.968  39.015  1.00  0.00     0.060 A 
BRANCH  94  95
ATOM     95  S   UNL A   1      39.302  37.205  40.306  1.00  0.00     0.124 S 
ATOM     96  O   UNL A   1      40.675  37.560  40.650  1.00  0.00    -0.237 OA
ATOM     97  O   UNL A   1      38.537  38.232  39.607  1.00  0.00    -0.237 OA
ATOM     98  O   UNL A   1      38.566  36.475  41.334  1.00  0.00    -0.744 OA
ENDBRANCH  94  95
ENDBRANCH  62  87
ENDBRANCH  36  37
ENDBRANCH  29  31
ENDBRANCH  28  29
ENDBRANCH  27  28
ENDBRANCH  26  27
ENDBRANCH   1  26
TORSDOF 20
ENDMDL
MODEL 3
REMARK VINA RESULT:      -9.9      5.896     13.875
REMARK SMILES CN1C(=O)CC[C@H]([NH2+]Cc2ccc(C(=O)OCCOCCOC(=O)c3ccc(-c4c5nc(c(-c6c(F)cc(S(=O)(=O)[O-])cc6F)c6ccc([nH]6)c(-c6c(F)cc(S(=O)(=O)[O-])cc6F)c6nc(c(-c7c(F)cc(S(=O)(=O)[O-])cc7F)c7ccc4[nH]7)C=C6)C=C5)cc3)cn2)C1=O
REMARK SMILES IDX 19 1 18 2 17 3 16 4 14 5 15 6 13 7 10 8 11 9 92 10 12 11
REMARK SMILES IDX 91 12 9 13 8 14 7 17 1 18 2 19 3 20 93 21 4 22 5 23 94 24
REMARK SMILES IDX 6 25 20 26 21 27 22 28 23 29 24 30 25 31 26 32 90 33 27 34
REMARK SMILES IDX 89 35 28 36 29 37 30 38 83 39 31 40 88 41 82 42 84 43 32 44
REMARK SMILES IDX 87 45 81 46 80 47 33 49 67 50 46 51 66 52 47 53 50 54 65 55
REMARK SMILES IDX 85 56 48 57 49 58 64 60 86 61 51 62 34 63 35 64 44 65 36 66
REMARK SMILES IDX 37 67 43 68 45 69 38 70 39 71 40 72 41 73 42 74 68 75 69 76
REMARK SMILES IDX 78 77 70 78 71 79 77 80 79 81 72 82 73 83 74 84 75 85 76 86
REMARK SMILES IDX 52 87 53 88 62 89 54 90 55 91 61 92 63 93 56 94 57 95 58 96
REMARK SMILES IDX 59 97 60 98
REMARK H PARENT 8 15 8 16 84 48 50 59
REMARK Flexibility Score: inf
ROOT
ATOM      1  O   UNL A   1      43.234  20.419  26.100  1.00  0.00    -0.374 OA
ENDROOT
BRANCH   1   2
ATOM      2  C   UNL A   1      42.017  19.678  26.016  1.00  0.00     0.202 C 
BRANCH   2   3
ATOM      3  C   UNL A   1      40.827  20.197  26.829  1.00  0.00     0.261 C 
BRANCH   3   4
ATOM      4  O   UNL A   1      39.729  20.560  25.980  1.00  0.00    -0.460 OA
BRANCH   4   5
ATOM      5  C   UNL A   1      39.278  21.826  26.135  1.00  0.00     0.339 C 
ATOM      6  O   UNL A   1      39.902  22.782  26.576  1.00  0.00    -0.246 OA
BRANCH   5   7
ATOM      7  C   UNL A   1      37.940  21.962  25.537  1.00  0.00     0.078 A 
ATOM      8  C   UNL A   1      35.442  22.446  24.504  1.00  0.00     0.094 A 
ATOM      9  C   UNL A   1      35.920  21.133  24.545  1.00  0.00     0.031 A 
ATOM     10  N   UNL A   1      36.181  23.511  24.920  1.00  0.00    -0.254 NA
ATOM     11  C   UNL A   1      37.190  20.888  25.062  1.00  0.00     0.019 A 
ATOM     12  C   UNL A   1      37.410  23.241  25.422  1.00  0.00     0.127 A 
BRANCH   8  13
ATOM     13  C   UNL A   1      33.971  22.685  24.209  1.00  0.00     0.318 C 
BRANCH  13  14
ATOM     14  N   UNL A   1      33.684  22.959  22.798  1.00  0.00    -0.331 N 
ATOM     15  H   UNL A   1      34.534  23.331  22.373  1.00  0.00     0.347 HD
ATOM     16  H   UNL A   1      33.374  22.071  22.403  1.00  0.00     0.347 HD
BRANCH  14  17
ATOM     17  C   UNL A   1      32.585  23.920  22.533  1.00  0.00     0.274 C 
ATOM     18  C   UNL A   1      32.318  27.745  22.702  1.00  0.00     0.156 C 
ATOM     19  N   UNL A   1      32.015  26.341  22.936  1.00  0.00    -0.281 N 
ATOM     20  C   UNL A   1      30.824  26.037  23.583  1.00  0.00     0.229 C 
ATOM     21  C   UNL A   1      32.971  25.422  22.498  1.00  0.00     0.287 C 
ATOM     22  O   UNL A   1      30.105  26.880  24.118  1.00  0.00    -0.274 OA
ATOM     23  C   UNL A   1      30.382  24.600  23.520  1.00  0.00     0.107 C 
ATOM     24  O   UNL A   1      34.029  25.823  22.002  1.00  0.00    -0.267 OA
ATOM     25  C   UNL A   1      31.543  23.638  23.610  1.00  0.00     0.085 C 
ENDBRANCH  14  17
ENDBRANCH  13  14
ENDBRANCH   8  13
ENDBRANCH   5   7
ENDBRANCH   4   5
ENDBRANCH   3   4
ENDBRANCH   2   3
ENDBRANCH   1   2
BRANCH   1  26
ATOM     26  C   UNL A   1      43.280  21.696  25.462  1.00  0.00     0.202 C 
BRANCH  26  27
ATOM     27  C   UNL A   1      43.965  22.846  26.210  1.00  0.00     0.261 C 
BRANCH  27  28
ATOM     28  O   UNL A   1      43.023  23.738  26.831  1.00  0.00    -0.460 OA
BRANCH  28  29
ATOM     29  C   UNL A   1      42.872  24.923  26.193  1.00  0.00     0.338 C 
ATOM     30  O   UNL A   1      43.066  25.153  25.009  1.00  0.00    -0.246 OA
BRANCH  29  31
ATOM     31  C   UNL A   1      42.242  25.904  27.095  1.00  0.00     0.060 A 
ATOM     32  C   UNL A   1      42.796  27.191  27.138  1.00  0.00     0.016 A 
ATOM     33  C   UNL A   1      41.192  25.553  27.946  1.00  0.00     0.016 A 
ATOM     34  C   UNL A   1      42.348  28.111  28.081  1.00  0.00     0.010 A 
ATOM     35  C   UNL A   1      40.746  26.478  28.895  1.00  0.00     0.010 A 
ATOM     36  C   UNL A   1      41.356  27.743  28.998  1.00  0.00    -0.014 A 
BRANCH  36  37
ATOM     37  C   UNL A   1      41.088  28.613  30.170  1.00  0.00     0.031 A 
ATOM     38  C   UNL A   1      41.940  28.448  31.401  1.00  0.00     0.074 A 
ATOM     39  C   UNL A   1      40.130  29.555  30.128  1.00  0.00     0.049 A 
ATOM     40  N   UNL A   1      41.865  29.065  32.551  1.00  0.00    -0.248 NA
ATOM     41  C   UNL A   1      43.018  27.448  31.324  1.00  0.00     0.031 C 
ATOM     42  C   UNL A   1      39.271  29.836  28.978  1.00  0.00     0.029 A 
ATOM     43  N   UNL A   1      39.717  30.448  31.084  1.00  0.00    -0.354 N 
ATOM     44  C   UNL A   1      42.875  28.522  33.338  1.00  0.00     0.074 A 
ATOM     45  C   UNL A   1      43.525  27.501  32.547  1.00  0.00     0.031 C 
ATOM     46  C   UNL A   1      38.424  30.829  29.301  1.00  0.00     0.029 A 
ATOM     47  C   UNL A   1      38.659  31.230  30.687  1.00  0.00     0.049 A 
ATOM     48  H   UNL A   1      40.139  30.522  31.971  1.00  0.00     0.167 HD
ATOM     49  C   UNL A   1      43.233  28.852  34.602  1.00  0.00     0.037 A 
ATOM     50  C   UNL A   1      37.949  32.148  31.372  1.00  0.00     0.037 A 
ATOM     51  C   UNL A   1      42.583  29.873  35.381  1.00  0.00     0.049 A 
ATOM     52  C   UNL A   1      38.330  32.462  32.796  1.00  0.00     0.074 A 
ATOM     53  C   UNL A   1      42.877  30.294  36.666  1.00  0.00     0.029 A 
ATOM     54  N   UNL A   1      41.504  30.633  34.949  1.00  0.00    -0.354 N 
ATOM     55  N   UNL A   1      39.294  31.950  33.525  1.00  0.00    -0.248 NA
ATOM     56  C   UNL A   1      37.534  33.485  33.488  1.00  0.00     0.031 C 
ATOM     57  C   UNL A   1      41.943  31.270  37.031  1.00  0.00     0.029 A 
ATOM     58  C   UNL A   1      41.109  31.506  35.950  1.00  0.00     0.049 A 
ATOM     59  H   UNL A   1      41.083  30.563  34.063  1.00  0.00     0.167 HD
ATOM     60  C   UNL A   1      39.246  32.618  34.745  1.00  0.00     0.074 A 
ATOM     61  C   UNL A   1      38.160  33.571  34.654  1.00  0.00     0.031 C 
ATOM     62  C   UNL A   1      40.033  32.461  35.839  1.00  0.00     0.037 A 
BRANCH  49  63
ATOM     63  C   UNL A   1      44.361  28.079  35.232  1.00  0.00     0.058 A 
ATOM     64  C   UNL A   1      44.136  26.924  35.998  1.00  0.00     0.135 A 
ATOM     65  C   UNL A   1      45.692  28.488  35.045  1.00  0.00     0.135 A 
ATOM     66  F   UNL A   1      42.882  26.498  36.226  1.00  0.00    -0.206 F 
ATOM     67  C   UNL A   1      45.185  26.219  36.580  1.00  0.00     0.059 A 
ATOM     68  C   UNL A   1      46.759  27.781  35.590  1.00  0.00     0.059 A 
ATOM     69  F   UNL A   1      45.968  29.586  34.323  1.00  0.00    -0.206 F 
ATOM     70  C   UNL A   1      46.494  26.656  36.370  1.00  0.00     0.060 A 
BRANCH  70  71
ATOM     71  S   UNL A   1      47.844  25.730  37.130  1.00  0.00     0.124 S 
ATOM     72  O   UNL A   1      47.805  24.483  36.372  1.00  0.00    -0.237 OA
ATOM     73  O   UNL A   1      48.994  26.590  36.875  1.00  0.00    -0.237 OA
ATOM     74  O   UNL A   1      47.441  25.625  38.529  1.00  0.00    -0.744 OA
ENDBRANCH  70  71
ENDBRANCH  49  63
BRANCH  50  75
ATOM     75  C   UNL A   1      36.804  32.839  30.719  1.00  0.00     0.058 A 
ATOM     76  C   UNL A   1      35.479  32.475  30.999  1.00  0.00     0.135 A 
ATOM     77  C   UNL A   1      37.014  33.884  29.804  1.00  0.00     0.135 A 
ATOM     78  F   UNL A   1      35.227  31.476  31.859  1.00  0.00    -0.206 F 
ATOM     79  C   UNL A   1      34.403  33.106  30.385  1.00  0.00     0.059 A 
ATOM     80  C   UNL A   1      35.954  34.550  29.198  1.00  0.00     0.059 A 
ATOM     81  F   UNL A   1      38.263  34.280  29.510  1.00  0.00    -0.206 F 
ATOM     82  C   UNL A   1      34.651  34.147  29.488  1.00  0.00     0.060 A 
BRANCH  82  83
ATOM     83  S   UNL A   1      33.246  34.995  28.735  1.00  0.00     0.124 S 
ATOM     84  O   UNL A   1      32.477  35.392  29.908  1.00  0.00    -0.237 OA
ATOM     85  O   UNL A   1      33.901  36.076  28.003  1.00  0.00    -0.237 OA
ATOM     86  O   UNL A   1      32.638  33.962  27.901  1.00  0.00    -0.744 OA
ENDBRANCH  82  83
ENDBRANCH  50  75
BRANCH  62  87
ATOM     87  C   UNL A   1      39.797  33.383  37.006  1.00  0.00     0.058 A 
ATOM     88  C   UNL A   1      38.877  33.082  38.023  1.00  0.00     0.135 A 
ATOM     89  C   UNL A   1      40.542  34.568  37.130  1.00  0.00     0.135 A 
ATOM     90  F   UNL A   1      38.136  31.964  37.955  1.00  0.00    -0.206 F 
ATOM     91  C   UNL A   1      38.681  33.938  39.103  1.00  0.00     0.059 A 
ATOM     92  C   UNL A   1      40.386  35.422  38.217  1.00  0.00     0.059 A 
ATOM     93  F   UNL A   1      41.446  34.900  36.193  1.00  0.00    -0.206 F 
ATOM     94  C   UNL A   1      39.441  35.106  39.190  1.00  0.00     0.060 A 
BRANCH  94  95
ATOM     95  S   UNL A   1      39.191  36.199  40.606  1.00  0.00     0.124 S 
ATOM     96  O   UNL A   1      38.316  35.390  41.450  1.00  0.00    -0.237 OA
ATOM     97  O   UNL A   1      40.551  36.387  41.100  1.00  0.00    -0.237 OA
ATOM     98  O   UNL A   1      38.574  37.384  40.017  1.00  0.00    -0.744 OA
ENDBRANCH  94  95
ENDBRANCH  62  87
ENDBRANCH  36  37
ENDBRANCH  29  31
ENDBRANCH  28  29
ENDBRANCH  27  28
ENDBRANCH  26  27
ENDBRANCH   1  26
TORSDOF 20
ENDMDL
