MODEL 1
REMARK VINA RESULT:     -12.1      0.000      0.000
REMARK SMILES Cc1cccc(O[C@H](C)C(=O)NNC(=O)[C@H]2[C@@H]3CC[C@@H](C3)[C@@H]2C(=O)OCCOCCOC(=O)c2ccc(-c3c4nc(c(-c5c(F)cc(S(=O)(=O)[O-])cc5F)c5ccc([nH]5)c(-c5c(F)cc(S(=O)(=O)[O-])cc5F)c5nc(c(-c6c(F)cc(S(=O)(=O)[O-])cc6F)c6ccc3[nH]6)C=C5)C=C4)cc2)c1
REMARK SMILES IDX 27 1 26 2 25 3 23 4 24 5 22 6 16 7 17 8 18 9 21 10 20 11
REMARK SMILES IDX 19 12 14 13 13 14 15 16 12 17 10 18 11 19 8 21 9 22 7 23
REMARK SMILES IDX 6 24 1 25 2 26 3 27 100 28 4 29 5 30 28 31 29 32 30 33 31 34
REMARK SMILES IDX 32 35 33 36 34 37 35 38 99 39 36 40 98 41 37 42 38 43 39 44
REMARK SMILES IDX 92 45 40 46 97 47 91 48 93 49 41 50 96 51 90 52 89 53 42 55
REMARK SMILES IDX 76 56 55 57 75 58 56 59 59 60 74 61 94 62 57 63 58 64 73 66
REMARK SMILES IDX 95 67 60 68 43 69 44 70 53 71 45 72 46 73 52 74 54 75 47 76
REMARK SMILES IDX 48 77 49 78 50 79 51 80 77 81 78 82 87 83 79 84 80 85 86 86
REMARK SMILES IDX 88 87 81 88 82 89 83 90 84 91 85 92 61 93 62 94 71 95 63 96
REMARK SMILES IDX 64 97 70 98 72 99 65 100 66 101 67 102 68 103 69 104
REMARK H PARENT 13 15 12 20 93 54 59 65
REMARK Flexibility Score: inf
ROOT
ATOM      1  C   UNL A   1      35.444  24.013  24.110  1.00  0.00     0.202 C 
ENDROOT
BRANCH   1   2
ATOM      2  C   UNL A   1      35.116  24.517  25.491  1.00  0.00     0.261 C 
BRANCH   2   3
ATOM      3  O   UNL A   1      33.724  24.860  25.638  1.00  0.00    -0.463 OA
BRANCH   3   4
ATOM      4  C   UNL A   1      33.275  26.136  25.417  1.00  0.00     0.310 C 
ATOM      5  O   UNL A   1      33.869  27.177  25.568  1.00  0.00    -0.252 OA
BRANCH   4   6
ATOM      6  C   UNL A   1      31.937  26.009  24.746  1.00  0.00     0.115 C 
ATOM      7  C   UNL A   1      32.110  25.965  23.228  1.00  0.00     0.098 C 
ATOM      8  C   UNL A   1      30.854  26.704  22.716  1.00  0.00     0.003 C 
ATOM      9  C   UNL A   1      31.115  28.219  22.865  1.00  0.00     0.005 C 
ATOM     10  C   UNL A   1      29.842  26.503  23.846  1.00  0.00     0.009 C 
ATOM     11  C   UNL A   1      30.802  27.018  24.935  1.00  0.00     0.004 C 
ATOM     12  C   UNL A   1      31.152  28.408  24.390  1.00  0.00     0.005 C 
BRANCH   7  13
ATOM     13  C   UNL A   1      32.440  24.634  22.580  1.00  0.00     0.242 C 
ATOM     14  N   UNL A   1      32.300  23.433  23.213  1.00  0.00    -0.267 N 
ATOM     15  H   UNL A   1      32.994  22.760  23.026  1.00  0.00     0.191 HD
ATOM     16  O   UNL A   1      32.933  24.624  21.446  1.00  0.00    -0.273 OA
BRANCH  14  17
ATOM     17  N   UNL A   1      31.299  23.052  24.086  1.00  0.00    -0.264 N 
ATOM     18  C   UNL A   1      31.490  22.302  25.210  1.00  0.00     0.279 C 
ATOM     19  O   UNL A   1      30.727  22.517  26.161  1.00  0.00    -0.269 OA
ATOM     20  H   UNL A   1      30.380  23.342  23.882  1.00  0.00     0.191 HD
BRANCH  18  21
ATOM     21  C   UNL A   1      32.402  21.047  25.224  1.00  0.00     0.260 C 
ATOM     22  C   UNL A   1      33.620  21.358  26.108  1.00  0.00     0.064 C 
BRANCH  21  23
ATOM     23  O   UNL A   1      32.002  19.694  25.201  1.00  0.00    -0.481 OA
BRANCH  23  24
ATOM     24  C   UNL A   1      32.532  18.701  24.445  1.00  0.00     0.120 A 
ATOM     25  C   UNL A   1      35.025  15.934  25.296  1.00  0.00     0.044 C 
ATOM     26  C   UNL A   1      34.100  16.828  24.526  1.00  0.00    -0.047 A 
ATOM     27  C   UNL A   1      33.993  16.692  23.141  1.00  0.00     0.003 A 
ATOM     28  C   UNL A   1      33.360  17.829  25.167  1.00  0.00     0.049 A 
ATOM     29  C   UNL A   1      33.145  17.531  22.420  1.00  0.00     0.004 A 
ATOM     30  C   UNL A   1      32.406  18.524  23.071  1.00  0.00     0.046 A 
ENDBRANCH  23  24
ENDBRANCH  21  23
ENDBRANCH  18  21
ENDBRANCH  14  17
ENDBRANCH   7  13
ENDBRANCH   4   6
ENDBRANCH   3   4
ENDBRANCH   2   3
ENDBRANCH   1   2
BRANCH   1  31
ATOM     31  O   UNL A   1      36.563  23.145  24.255  1.00  0.00    -0.374 OA
BRANCH  31  32
ATOM     32  C   UNL A   1      37.036  22.949  25.571  1.00  0.00     0.202 C 
BRANCH  32  33
ATOM     33  C   UNL A   1      37.892  21.688  25.737  1.00  0.00     0.261 C 
BRANCH  33  34
ATOM     34  O   UNL A   1      39.295  22.001  25.613  1.00  0.00    -0.460 OA
BRANCH  34  35
ATOM     35  C   UNL A   1      39.934  22.296  26.784  1.00  0.00     0.338 C 
ATOM     36  O   UNL A   1      40.344  21.457  27.565  1.00  0.00    -0.246 OA
BRANCH  35  37
ATOM     37  C   UNL A   1      40.012  23.774  26.963  1.00  0.00     0.060 A 
ATOM     38  C   UNL A   1      40.706  24.588  26.050  1.00  0.00     0.016 A 
ATOM     39  C   UNL A   1      39.566  24.316  28.163  1.00  0.00     0.016 A 
ATOM     40  C   UNL A   1      41.069  25.906  26.397  1.00  0.00     0.010 A 
ATOM     41  C   UNL A   1      40.002  25.571  28.531  1.00  0.00     0.010 A 
ATOM     42  C   UNL A   1      40.768  26.381  27.672  1.00  0.00    -0.014 A 
BRANCH  42  43
ATOM     43  C   UNL A   1      41.231  27.634  28.292  1.00  0.00     0.031 A 
ATOM     44  C   UNL A   1      40.231  28.700  28.575  1.00  0.00     0.074 A 
ATOM     45  C   UNL A   1      42.434  27.734  28.911  1.00  0.00     0.049 A 
ATOM     46  N   UNL A   1      40.526  29.865  29.041  1.00  0.00    -0.248 NA
ATOM     47  C   UNL A   1      38.803  28.562  28.314  1.00  0.00     0.031 C 
ATOM     48  C   UNL A   1      42.721  28.549  30.095  1.00  0.00     0.029 A 
ATOM     49  N   UNL A   1      43.647  27.093  28.677  1.00  0.00    -0.354 N 
ATOM     50  C   UNL A   1      39.366  30.456  29.487  1.00  0.00     0.074 A 
ATOM     51  C   UNL A   1      38.324  29.676  28.873  1.00  0.00     0.031 C 
ATOM     52  C   UNL A   1      44.027  28.500  30.388  1.00  0.00     0.029 A 
ATOM     53  C   UNL A   1      44.680  27.794  29.310  1.00  0.00     0.049 A 
ATOM     54  H   UNL A   1      43.760  26.270  28.147  1.00  0.00     0.167 HD
ATOM     55  C   UNL A   1      39.458  31.448  30.424  1.00  0.00     0.037 A 
ATOM     56  C   UNL A   1      45.770  28.220  28.618  1.00  0.00     0.037 A 
ATOM     57  C   UNL A   1      40.876  31.736  30.740  1.00  0.00     0.049 A 
ATOM     58  C   UNL A   1      45.803  29.725  28.611  1.00  0.00     0.074 A 
ATOM     59  C   UNL A   1      41.669  31.540  31.861  1.00  0.00     0.029 A 
ATOM     60  N   UNL A   1      41.755  32.096  29.715  1.00  0.00    -0.354 N 
ATOM     61  N   UNL A   1      44.755  30.446  28.911  1.00  0.00    -0.248 NA
ATOM     62  C   UNL A   1      46.979  30.546  28.374  1.00  0.00     0.031 C 
ATOM     63  C   UNL A   1      43.021  31.813  31.504  1.00  0.00     0.029 A 
ATOM     64  C   UNL A   1      43.057  32.188  30.169  1.00  0.00     0.049 A 
ATOM     65  H   UNL A   1      41.480  32.263  28.784  1.00  0.00     0.167 HD
ATOM     66  C   UNL A   1      45.079  31.767  28.965  1.00  0.00     0.074 A 
ATOM     67  C   UNL A   1      46.486  31.779  28.601  1.00  0.00     0.031 C 
ATOM     68  C   UNL A   1      44.134  32.696  29.305  1.00  0.00     0.037 A 
BRANCH  55  69
ATOM     69  C   UNL A   1      38.301  32.064  31.221  1.00  0.00     0.058 A 
ATOM     70  C   UNL A   1      38.114  33.468  31.253  1.00  0.00     0.135 A 
ATOM     71  C   UNL A   1      37.350  31.360  31.991  1.00  0.00     0.135 A 
ATOM     72  F   UNL A   1      38.898  34.297  30.549  1.00  0.00    -0.206 F 
ATOM     73  C   UNL A   1      37.112  34.102  32.003  1.00  0.00     0.059 A 
ATOM     74  C   UNL A   1      36.344  31.968  32.749  1.00  0.00     0.059 A 
ATOM     75  F   UNL A   1      37.308  30.031  32.053  1.00  0.00    -0.206 F 
ATOM     76  C   UNL A   1      36.232  33.342  32.756  1.00  0.00     0.060 A 
BRANCH  76  77
ATOM     77  S   UNL A   1      34.938  34.150  33.714  1.00  0.00     0.124 S 
ATOM     78  O   UNL A   1      35.290  33.774  35.079  1.00  0.00    -0.237 OA
ATOM     79  O   UNL A   1      35.131  35.554  33.368  1.00  0.00    -0.237 OA
ATOM     80  O   UNL A   1      33.708  33.549  33.205  1.00  0.00    -0.744 OA
ENDBRANCH  76  77
ENDBRANCH  55  69
BRANCH  56  81
ATOM     81  C   UNL A   1      46.194  27.233  27.581  1.00  0.00     0.058 A 
ATOM     82  C   UNL A   1      46.767  26.031  28.059  1.00  0.00     0.135 A 
ATOM     83  C   UNL A   1      45.545  27.175  26.337  1.00  0.00     0.135 A 
ATOM     84  F   UNL A   1      47.397  26.022  29.245  1.00  0.00    -0.206 F 
ATOM     85  C   UNL A   1      46.560  24.804  27.425  1.00  0.00     0.059 A 
ATOM     86  C   UNL A   1      45.304  25.950  25.700  1.00  0.00     0.059 A 
ATOM     87  F   UNL A   1      44.972  28.275  25.828  1.00  0.00    -0.206 F 
ATOM     88  C   UNL A   1      45.768  24.765  26.278  1.00  0.00     0.060 A 
BRANCH  88  89
ATOM     89  S   UNL A   1      45.119  23.164  25.703  1.00  0.00     0.124 S 
ATOM     90  O   UNL A   1      44.502  23.524  24.434  1.00  0.00    -0.237 OA
ATOM     91  O   UNL A   1      46.317  22.332  25.611  1.00  0.00    -0.237 OA
ATOM     92  O   UNL A   1      44.208  22.787  26.778  1.00  0.00    -0.744 OA
ENDBRANCH  88  89
ENDBRANCH  56  81
BRANCH  68  93
ATOM     93  C   UNL A   1      44.139  34.171  28.937  1.00  0.00     0.058 A 
ATOM     94  C   UNL A   1      44.359  35.224  29.840  1.00  0.00     0.135 A 
ATOM     95  C   UNL A   1      44.072  34.571  27.573  1.00  0.00     0.135 A 
ATOM     96  F   UNL A   1      44.535  35.021  31.149  1.00  0.00    -0.206 F 
ATOM     97  C   UNL A   1      44.459  36.557  29.437  1.00  0.00     0.059 A 
ATOM     98  C   UNL A   1      44.232  35.886  27.145  1.00  0.00     0.059 A 
ATOM     99  F   UNL A   1      43.875  33.698  26.578  1.00  0.00    -0.206 F 
ATOM    100  C   UNL A   1      44.407  36.877  28.088  1.00  0.00     0.060 A 
BRANCH 100 101
ATOM    101  S   UNL A   1      44.602  38.592  27.595  1.00  0.00     0.124 S 
ATOM    102  O   UNL A   1      45.932  38.572  26.992  1.00  0.00    -0.237 OA
ATOM    103  O   UNL A   1      43.490  38.773  26.665  1.00  0.00    -0.237 OA
ATOM    104  O   UNL A   1      44.488  39.328  28.849  1.00  0.00    -0.744 OA
ENDBRANCH 100 101
ENDBRANCH  68  93
ENDBRANCH  42  43
ENDBRANCH  35  37
ENDBRANCH  34  35
ENDBRANCH  33  34
ENDBRANCH  32  33
ENDBRANCH  31  32
ENDBRANCH   1  31
TORSDOF 22
ENDMDL
MODEL 2
REMARK VINA RESULT:     -12.0      3.603      9.927
REMARK SMILES Cc1cccc(O[C@H](C)C(=O)NNC(=O)[C@H]2[C@@H]3CC[C@@H](C3)[C@@H]2C(=O)OCCOCCOC(=O)c2ccc(-c3c4nc(c(-c5c(F)cc(S(=O)(=O)[O-])cc5F)c5ccc([nH]5)c(-c5c(F)cc(S(=O)(=O)[O-])cc5F)c5nc(c(-c6c(F)cc(S(=O)(=O)[O-])cc6F)c6ccc3[nH]6)C=C5)C=C4)cc2)c1
REMARK SMILES IDX 27 1 26 2 25 3 23 4 24 5 22 6 16 7 17 8 18 9 21 10 20 11
REMARK SMILES IDX 19 12 14 13 13 14 15 16 12 17 10 18 11 19 8 21 9 22 7 23
REMARK SMILES IDX 6 24 1 25 2 26 3 27 100 28 4 29 5 30 28 31 29 32 30 33 31 34
REMARK SMILES IDX 32 35 33 36 34 37 35 38 99 39 36 40 98 41 37 42 38 43 39 44
REMARK SMILES IDX 92 45 40 46 97 47 91 48 93 49 41 50 96 51 90 52 89 53 42 55
REMARK SMILES IDX 76 56 55 57 75 58 56 59 59 60 74 61 94 62 57 63 58 64 73 66
REMARK SMILES IDX 95 67 60 68 43 69 44 70 53 71 45 72 46 73 52 74 54 75 47 76
REMARK SMILES IDX 48 77 49 78 50 79 51 80 77 81 78 82 87 83 79 84 80 85 86 86
REMARK SMILES IDX 88 87 81 88 82 89 83 90 84 91 85 92 61 93 62 94 71 95 63 96
REMARK SMILES IDX 64 97 70 98 72 99 65 100 66 101 67 102 68 103 69 104
REMARK H PARENT 13 15 12 20 93 54 59 65
REMARK Flexibility Score: inf
ROOT
ATOM      1  C   UNL A   1      30.794  26.695  24.390  1.00  0.00     0.202 C 
ENDROOT
BRANCH   1   2
ATOM      2  C   UNL A   1      30.135  25.718  25.329  1.00  0.00     0.261 C 
BRANCH   2   3
ATOM      3  O   UNL A   1      31.053  24.728  25.832  1.00  0.00    -0.463 OA
BRANCH   3   4
ATOM      4  C   UNL A   1      30.614  23.638  26.538  1.00  0.00     0.310 C 
ATOM      5  O   UNL A   1      29.680  23.566  27.300  1.00  0.00    -0.252 OA
BRANCH   4   6
ATOM      6  C   UNL A   1      31.400  22.459  26.039  1.00  0.00     0.115 C 
ATOM      7  C   UNL A   1      32.890  22.798  25.999  1.00  0.00     0.098 C 
ATOM      8  C   UNL A   1      33.389  22.016  24.764  1.00  0.00     0.003 C 
ATOM      9  C   UNL A   1      33.003  22.833  23.511  1.00  0.00     0.005 C 
ATOM     10  C   UNL A   1      32.382  20.869  24.645  1.00  0.00     0.009 C 
ATOM     11  C   UNL A   1      31.159  21.802  24.678  1.00  0.00     0.004 C 
ATOM     12  C   UNL A   1      31.469  22.742  23.506  1.00  0.00     0.005 C 
BRANCH   7  13
ATOM     13  C   UNL A   1      33.694  22.655  27.278  1.00  0.00     0.242 C 
ATOM     14  N   UNL A   1      35.058  22.652  27.314  1.00  0.00    -0.267 N 
ATOM     15  H   UNL A   1      35.475  22.034  27.957  1.00  0.00     0.191 HD
ATOM     16  O   UNL A   1      33.097  22.454  28.342  1.00  0.00    -0.273 OA
BRANCH  14  17
ATOM     17  N   UNL A   1      35.923  23.414  26.552  1.00  0.00    -0.264 N 
ATOM     18  C   UNL A   1      36.706  22.931  25.545  1.00  0.00     0.279 C 
ATOM     19  O   UNL A   1      36.949  23.702  24.607  1.00  0.00    -0.269 OA
ATOM     20  H   UNL A   1      35.979  24.378  26.752  1.00  0.00     0.191 HD
BRANCH  18  21
ATOM     21  C   UNL A   1      37.503  21.606  25.678  1.00  0.00     0.260 C 
ATOM     22  C   UNL A   1      36.662  20.485  25.046  1.00  0.00     0.064 C 
BRANCH  21  23
ATOM     23  O   UNL A   1      38.900  21.432  25.595  1.00  0.00    -0.481 OA
BRANCH  23  24
ATOM     24  C   UNL A   1      39.849  22.140  26.255  1.00  0.00     0.120 A 
ATOM     25  C   UNL A   1      43.659  21.857  26.270  1.00  0.00     0.044 C 
ATOM     26  C   UNL A   1      42.264  22.297  26.598  1.00  0.00    -0.047 A 
ATOM     27  C   UNL A   1      42.048  23.222  27.620  1.00  0.00     0.003 A 
ATOM     28  C   UNL A   1      41.159  21.770  25.918  1.00  0.00     0.049 A 
ATOM     29  C   UNL A   1      40.752  23.624  27.938  1.00  0.00     0.004 A 
ATOM     30  C   UNL A   1      39.656  23.095  27.249  1.00  0.00     0.046 A 
ENDBRANCH  23  24
ENDBRANCH  21  23
ENDBRANCH  18  21
ENDBRANCH  14  17
ENDBRANCH   7  13
ENDBRANCH   4   6
ENDBRANCH   3   4
ENDBRANCH   2   3
ENDBRANCH   1   2
BRANCH   1  31
ATOM     31  O   UNL A   1      31.606  27.540  25.196  1.00  0.00    -0.374 OA
BRANCH  31  32
ATOM     32  C   UNL A   1      32.855  27.913  24.650  1.00  0.00     0.202 C 
BRANCH  32  33
ATOM     33  C   UNL A   1      33.280  29.343  25.004  1.00  0.00     0.261 C 
BRANCH  33  34
ATOM     34  O   UNL A   1      34.143  29.350  26.160  1.00  0.00    -0.460 OA
BRANCH  34  35
ATOM     35  C   UNL A   1      33.854  30.299  27.099  1.00  0.00     0.338 C 
ATOM     36  O   UNL A   1      32.788  30.882  27.171  1.00  0.00    -0.246 OA
BRANCH  35  37
ATOM     37  C   UNL A   1      35.039  30.525  27.976  1.00  0.00     0.060 A 
ATOM     38  C   UNL A   1      36.041  31.448  27.632  1.00  0.00     0.016 A 
ATOM     39  C   UNL A   1      35.244  29.653  29.040  1.00  0.00     0.016 A 
ATOM     40  C   UNL A   1      37.301  31.408  28.268  1.00  0.00     0.010 A 
ATOM     41  C   UNL A   1      36.504  29.560  29.593  1.00  0.00     0.010 A 
ATOM     42  C   UNL A   1      37.554  30.416  29.213  1.00  0.00    -0.014 A 
BRANCH  42  43
ATOM     43  C   UNL A   1      38.848  30.081  29.831  1.00  0.00     0.031 A 
ATOM     44  C   UNL A   1      39.603  28.909  29.308  1.00  0.00     0.074 A 
ATOM     45  C   UNL A   1      39.530  30.959  30.609  1.00  0.00     0.049 A 
ATOM     46  N   UNL A   1      40.705  28.471  29.816  1.00  0.00    -0.248 NA
ATOM     47  C   UNL A   1      39.159  28.094  28.183  1.00  0.00     0.031 C 
ATOM     48  C   UNL A   1      40.987  31.086  30.679  1.00  0.00     0.029 A 
ATOM     49  N   UNL A   1      39.090  31.975  31.453  1.00  0.00    -0.354 N 
ATOM     50  C   UNL A   1      41.287  27.616  28.909  1.00  0.00     0.074 A 
ATOM     51  C   UNL A   1      40.219  27.304  27.995  1.00  0.00     0.031 C 
ATOM     52  C   UNL A   1      41.332  31.978  31.617  1.00  0.00     0.029 A 
ATOM     53  C   UNL A   1      40.125  32.346  32.320  1.00  0.00     0.049 A 
ATOM     54  H   UNL A   1      38.189  32.371  31.442  1.00  0.00     0.167 HD
ATOM     55  C   UNL A   1      42.635  27.400  28.989  1.00  0.00     0.037 A 
ATOM     56  C   UNL A   1      39.950  32.341  33.669  1.00  0.00     0.037 A 
ATOM     57  C   UNL A   1      43.212  28.130  30.141  1.00  0.00     0.049 A 
ATOM     58  C   UNL A   1      40.852  31.306  34.287  1.00  0.00     0.074 A 
ATOM     59  C   UNL A   1      44.069  29.214  30.260  1.00  0.00     0.029 A 
ATOM     60  N   UNL A   1      42.711  27.903  31.426  1.00  0.00    -0.354 N 
ATOM     61  N   UNL A   1      41.409  30.357  33.583  1.00  0.00    -0.248 NA
ATOM     62  C   UNL A   1      41.284  31.280  35.675  1.00  0.00     0.031 C 
ATOM     63  C   UNL A   1      44.096  29.613  31.627  1.00  0.00     0.029 A 
ATOM     64  C   UNL A   1      43.267  28.767  32.350  1.00  0.00     0.049 A 
ATOM     65  H   UNL A   1      42.044  27.213  31.646  1.00  0.00     0.167 HD
ATOM     66  C   UNL A   1      42.280  29.639  34.344  1.00  0.00     0.074 A 
ATOM     67  C   UNL A   1      42.151  30.248  35.658  1.00  0.00     0.031 C 
ATOM     68  C   UNL A   1      43.005  28.620  33.789  1.00  0.00     0.037 A 
BRANCH  55  69
ATOM     69  C   UNL A   1      43.510  26.688  27.950  1.00  0.00     0.058 A 
ATOM     70  C   UNL A   1      44.344  25.606  28.328  1.00  0.00     0.135 A 
ATOM     71  C   UNL A   1      43.608  27.010  26.579  1.00  0.00     0.135 A 
ATOM     72  F   UNL A   1      44.355  25.134  29.583  1.00  0.00    -0.206 F 
ATOM     73  C   UNL A   1      45.210  24.945  27.444  1.00  0.00     0.059 A 
ATOM     74  C   UNL A   1      44.465  26.369  25.678  1.00  0.00     0.059 A 
ATOM     75  F   UNL A   1      42.870  27.955  26.002  1.00  0.00    -0.206 F 
ATOM     76  C   UNL A   1      45.269  25.338  26.117  1.00  0.00     0.060 A 
BRANCH  76  77
ATOM     77  S   UNL A   1      46.372  24.489  24.975  1.00  0.00     0.124 S 
ATOM     78  O   UNL A   1      47.130  23.622  25.871  1.00  0.00    -0.237 OA
ATOM     79  O   UNL A   1      45.433  23.819  24.081  1.00  0.00    -0.237 OA
ATOM     80  O   UNL A   1      47.139  25.574  24.367  1.00  0.00    -0.744 OA
ENDBRANCH  76  77
ENDBRANCH  55  69
BRANCH  56  81
ATOM     81  C   UNL A   1      38.582  32.796  34.057  1.00  0.00     0.058 A 
ATOM     82  C   UNL A   1      38.311  34.174  33.890  1.00  0.00     0.135 A 
ATOM     83  C   UNL A   1      37.486  31.921  33.981  1.00  0.00     0.135 A 
ATOM     84  F   UNL A   1      39.319  35.061  33.946  1.00  0.00    -0.206 F 
ATOM     85  C   UNL A   1      37.055  34.644  33.499  1.00  0.00     0.059 A 
ATOM     86  C   UNL A   1      36.226  32.369  33.565  1.00  0.00     0.059 A 
ATOM     87  F   UNL A   1      37.672  30.600  34.122  1.00  0.00    -0.206 F 
ATOM     88  C   UNL A   1      36.033  33.723  33.274  1.00  0.00     0.060 A 
BRANCH  88  89
ATOM     89  S   UNL A   1      34.556  34.248  32.348  1.00  0.00     0.124 S 
ATOM     90  O   UNL A   1      34.916  33.903  30.980  1.00  0.00    -0.237 OA
ATOM     91  O   UNL A   1      33.488  33.445  32.942  1.00  0.00    -0.237 OA
ATOM     92  O   UNL A   1      34.478  35.671  32.656  1.00  0.00    -0.744 OA
ENDBRANCH  88  89
ENDBRANCH  56  81
BRANCH  68  93
ATOM     93  C   UNL A   1      43.599  27.428  34.521  1.00  0.00     0.058 A 
ATOM     94  C   UNL A   1      42.854  26.425  35.163  1.00  0.00     0.135 A 
ATOM     95  C   UNL A   1      44.998  27.172  34.461  1.00  0.00     0.135 A 
ATOM     96  F   UNL A   1      41.520  26.459  35.234  1.00  0.00    -0.206 F 
ATOM     97  C   UNL A   1      43.440  25.294  35.731  1.00  0.00     0.059 A 
ATOM     98  C   UNL A   1      45.595  26.020  34.965  1.00  0.00     0.059 A 
ATOM     99  F   UNL A   1      45.858  28.017  33.879  1.00  0.00    -0.206 F 
ATOM    100  C   UNL A   1      44.809  25.094  35.618  1.00  0.00     0.060 A 
BRANCH 100 101
ATOM    101  S   UNL A   1      45.527  23.598  36.304  1.00  0.00     0.124 S 
ATOM    102  O   UNL A   1      46.902  23.689  35.822  1.00  0.00    -0.237 OA
ATOM    103  O   UNL A   1      45.346  23.801  37.739  1.00  0.00    -0.237 OA
ATOM    104  O   UNL A   1      44.723  22.530  35.722  1.00  0.00    -0.744 OA
ENDBRANCH 100 101
ENDBRANCH  68  93
ENDBRANCH  42  43
ENDBRANCH  35  37
ENDBRANCH  34  35
ENDBRANCH  33  34
ENDBRANCH  32  33
ENDBRANCH  31  32
ENDBRANCH   1  31
TORSDOF 22
ENDMDL
MODEL 3
REMARK VINA RESULT:     -12.0      1.947      4.472
REMARK SMILES Cc1cccc(O[C@H](C)C(=O)NNC(=O)[C@H]2[C@@H]3CC[C@@H](C3)[C@@H]2C(=O)OCCOCCOC(=O)c2ccc(-c3c4nc(c(-c5c(F)cc(S(=O)(=O)[O-])cc5F)c5ccc([nH]5)c(-c5c(F)cc(S(=O)(=O)[O-])cc5F)c5nc(c(-c6c(F)cc(S(=O)(=O)[O-])cc6F)c6ccc3[nH]6)C=C5)C=C4)cc2)c1
REMARK SMILES IDX 27 1 26 2 25 3 23 4 24 5 22 6 16 7 17 8 18 9 21 10 20 11
REMARK SMILES IDX 19 12 14 13 13 14 15 16 12 17 10 18 11 19 8 21 9 22 7 23
REMARK SMILES IDX 6 24 1 25 2 26 3 27 100 28 4 29 5 30 28 31 29 32 30 33 31 34
REMARK SMILES IDX 32 35 33 36 34 37 35 38 99 39 36 40 98 41 37 42 38 43 39 44
REMARK SMILES IDX 92 45 40 46 97 47 91 48 93 49 41 50 96 51 90 52 89 53 42 55
REMARK SMILES IDX 76 56 55 57 75 58 56 59 59 60 74 61 94 62 57 63 58 64 73 66
REMARK SMILES IDX 95 67 60 68 43 69 44 70 53 71 45 72 46 73 52 74 54 75 47 76
REMARK SMILES IDX 48 77 49 78 50 79 51 80 77 81 78 82 87 83 79 84 80 85 86 86
REMARK SMILES IDX 88 87 81 88 82 89 83 90 84 91 85 92 61 93 62 94 71 95 63 96
REMARK SMILES IDX 64 97 70 98 72 99 65 100 66 101 67 102 68 103 69 104
REMARK H PARENT 13 15 12 20 93 54 59 65
REMARK Flexibility Score: inf
ROOT
ATOM      1  C   UNL A   1      36.776  22.843  24.039  1.00  0.00     0.202 C 
ENDROOT
BRANCH   1   2
ATOM      2  C   UNL A   1      35.535  22.906  24.890  1.00  0.00     0.261 C 
BRANCH   2   3
ATOM      3  O   UNL A   1      34.732  24.070  24.611  1.00  0.00    -0.463 OA
BRANCH   3   4
ATOM      4  C   UNL A   1      33.681  24.020  23.733  1.00  0.00     0.310 C 
ATOM      5  O   UNL A   1      33.710  23.848  22.537  1.00  0.00    -0.252 OA
BRANCH   4   6
ATOM      6  C   UNL A   1      32.428  24.021  24.563  1.00  0.00     0.115 C 
ATOM      7  C   UNL A   1      32.689  24.695  25.910  1.00  0.00     0.098 C 
ATOM      8  C   UNL A   1      31.787  23.896  26.876  1.00  0.00     0.003 C 
ATOM      9  C   UNL A   1      32.519  22.577  27.209  1.00  0.00     0.005 C 
ATOM     10  C   UNL A   1      30.685  23.356  25.962  1.00  0.00     0.009 C 
ATOM     11  C   UNL A   1      31.677  22.747  24.954  1.00  0.00     0.004 C 
ATOM     12  C   UNL A   1      32.503  21.831  25.866  1.00  0.00     0.005 C 
BRANCH   7  13
ATOM     13  C   UNL A   1      32.610  26.208  25.984  1.00  0.00     0.242 C 
ATOM     14  N   UNL A   1      33.423  27.041  25.271  1.00  0.00    -0.267 N 
ATOM     15  H   UNL A   1      33.721  27.858  25.733  1.00  0.00     0.191 HD
ATOM     16  O   UNL A   1      31.823  26.729  26.783  1.00  0.00    -0.273 OA
BRANCH  14  17
ATOM     17  N   UNL A   1      33.876  26.872  23.976  1.00  0.00    -0.264 N 
ATOM     18  C   UNL A   1      33.308  27.439  22.873  1.00  0.00     0.279 C 
ATOM     19  O   UNL A   1      34.067  27.716  21.934  1.00  0.00    -0.269 OA
ATOM     20  H   UNL A   1      34.667  26.300  23.841  1.00  0.00     0.191 HD
BRANCH  18  21
ATOM     21  C   UNL A   1      31.772  27.474  22.657  1.00  0.00     0.260 C 
ATOM     22  C   UNL A   1      31.403  26.328  21.702  1.00  0.00     0.064 C 
BRANCH  21  23
ATOM     23  O   UNL A   1      30.780  27.818  23.599  1.00  0.00    -0.481 OA
BRANCH  23  24
ATOM     24  C   UNL A   1      29.615  28.467  23.354  1.00  0.00     0.120 A 
ATOM     25  C   UNL A   1      28.778  32.192  23.223  1.00  0.00     0.044 C 
ATOM     26  C   UNL A   1      28.632  30.700  23.210  1.00  0.00    -0.047 A 
ATOM     27  C   UNL A   1      27.364  30.125  23.126  1.00  0.00     0.003 A 
ATOM     28  C   UNL A   1      29.749  29.862  23.315  1.00  0.00     0.049 A 
ATOM     29  C   UNL A   1      27.223  28.738  23.127  1.00  0.00     0.004 A 
ATOM     30  C   UNL A   1      28.346  27.911  23.227  1.00  0.00     0.046 A 
ENDBRANCH  23  24
ENDBRANCH  21  23
ENDBRANCH  18  21
ENDBRANCH  14  17
ENDBRANCH   7  13
ENDBRANCH   4   6
ENDBRANCH   3   4
ENDBRANCH   2   3
ENDBRANCH   1   2
BRANCH   1  31
ATOM     31  O   UNL A   1      37.547  21.753  24.533  1.00  0.00    -0.374 OA
BRANCH  31  32
ATOM     32  C   UNL A   1      38.229  21.971  25.751  1.00  0.00     0.202 C 
BRANCH  32  33
ATOM     33  C   UNL A   1      39.471  21.091  25.928  1.00  0.00     0.261 C 
BRANCH  33  34
ATOM     34  O   UNL A   1      40.293  21.575  27.009  1.00  0.00    -0.460 OA
BRANCH  34  35
ATOM     35  C   UNL A   1      41.346  22.360  26.636  1.00  0.00     0.338 C 
ATOM     36  O   UNL A   1      42.344  21.941  26.079  1.00  0.00    -0.246 OA
BRANCH  35  37
ATOM     37  C   UNL A   1      41.097  23.773  27.043  1.00  0.00     0.060 A 
ATOM     38  C   UNL A   1      40.869  24.782  26.091  1.00  0.00     0.016 A 
ATOM     39  C   UNL A   1      41.303  24.120  28.374  1.00  0.00     0.016 A 
ATOM     40  C   UNL A   1      40.980  26.142  26.448  1.00  0.00     0.010 A 
ATOM     41  C   UNL A   1      41.500  25.446  28.695  1.00  0.00     0.010 A 
ATOM     42  C   UNL A   1      41.359  26.476  27.746  1.00  0.00    -0.014 A 
BRANCH  42  43
ATOM     43  C   UNL A   1      41.724  27.808  28.256  1.00  0.00     0.031 A 
ATOM     44  C   UNL A   1      40.632  28.762  28.598  1.00  0.00     0.074 A 
ATOM     45  C   UNL A   1      42.961  28.087  28.737  1.00  0.00     0.049 A 
ATOM     46  N   UNL A   1      40.826  29.979  28.978  1.00  0.00    -0.248 NA
ATOM     47  C   UNL A   1      39.213  28.441  28.500  1.00  0.00     0.031 C 
ATOM     48  C   UNL A   1      43.263  28.996  29.846  1.00  0.00     0.029 A 
ATOM     49  N   UNL A   1      44.214  27.582  28.402  1.00  0.00    -0.354 N 
ATOM     50  C   UNL A   1      39.653  30.453  29.520  1.00  0.00     0.074 A 
ATOM     51  C   UNL A   1      38.659  29.519  29.057  1.00  0.00     0.031 C 
ATOM     52  C   UNL A   1      44.588  29.120  29.998  1.00  0.00     0.029 A 
ATOM     53  C   UNL A   1      45.211  28.437  28.888  1.00  0.00     0.049 A 
ATOM     54  H   UNL A   1      44.375  26.750  27.900  1.00  0.00     0.167 HD
ATOM     55  C   UNL A   1      39.716  31.500  30.397  1.00  0.00     0.037 A 
ATOM     56  C   UNL A   1      46.164  28.949  28.064  1.00  0.00     0.037 A 
ATOM     57  C   UNL A   1      41.112  31.972  30.545  1.00  0.00     0.049 A 
ATOM     58  C   UNL A   1      46.007  30.444  27.987  1.00  0.00     0.074 A 
ATOM     59  C   UNL A   1      42.033  31.937  31.581  1.00  0.00     0.029 A 
ATOM     60  N   UNL A   1      41.830  32.376  29.416  1.00  0.00    -0.354 N 
ATOM     61  N   UNL A   1      44.915  31.051  28.366  1.00  0.00    -0.248 NA
ATOM     62  C   UNL A   1      47.043  31.384  27.588  1.00  0.00     0.031 C 
ATOM     63  C   UNL A   1      43.297  32.348  31.068  1.00  0.00     0.029 A 
ATOM     64  C   UNL A   1      43.150  32.648  29.722  1.00  0.00     0.049 A 
ATOM     65  H   UNL A   1      41.443  32.455  28.514  1.00  0.00     0.167 HD
ATOM     66  C   UNL A   1      45.075  32.403  28.326  1.00  0.00     0.074 A 
ATOM     67  C   UNL A   1      46.425  32.561  27.813  1.00  0.00     0.031 C 
ATOM     68  C   UNL A   1      44.061  33.230  28.726  1.00  0.00     0.037 A 
BRANCH  55  69
ATOM     69  C   UNL A   1      38.578  32.018  31.286  1.00  0.00     0.058 A 
ATOM     70  C   UNL A   1      38.113  33.351  31.159  1.00  0.00     0.135 A 
ATOM     71  C   UNL A   1      37.907  31.290  32.292  1.00  0.00     0.135 A 
ATOM     72  F   UNL A   1      38.606  34.180  30.229  1.00  0.00    -0.206 F 
ATOM     73  C   UNL A   1      37.115  33.907  31.974  1.00  0.00     0.059 A 
ATOM     74  C   UNL A   1      36.913  31.821  33.119  1.00  0.00     0.059 A 
ATOM     75  F   UNL A   1      38.148  30.004  32.539  1.00  0.00    -0.206 F 
ATOM     76  C   UNL A   1      36.522  33.135  32.959  1.00  0.00     0.060 A 
BRANCH  76  77
ATOM     77  S   UNL A   1      35.236  33.841  34.003  1.00  0.00     0.124 S 
ATOM     78  O   UNL A   1      35.713  33.510  35.341  1.00  0.00    -0.237 OA
ATOM     79  O   UNL A   1      35.283  35.252  33.638  1.00  0.00    -0.237 OA
ATOM     80  O   UNL A   1      34.028  33.132  33.585  1.00  0.00    -0.744 OA
ENDBRANCH  76  77
ENDBRANCH  55  69
BRANCH  56  81
ATOM     81  C   UNL A   1      46.600  27.961  27.032  1.00  0.00     0.058 A 
ATOM     82  C   UNL A   1      47.121  26.739  27.517  1.00  0.00     0.135 A 
ATOM     83  C   UNL A   1      45.996  27.935  25.764  1.00  0.00     0.135 A 
ATOM     84  F   UNL A   1      47.705  26.700  28.726  1.00  0.00    -0.206 F 
ATOM     85  C   UNL A   1      46.904  25.525  26.862  1.00  0.00     0.059 A 
ATOM     86  C   UNL A   1      45.746  26.725  25.104  1.00  0.00     0.059 A 
ATOM     87  F   UNL A   1      45.473  29.056  25.247  1.00  0.00    -0.206 F 
ATOM     88  C   UNL A   1      46.156  25.521  25.686  1.00  0.00     0.060 A 
BRANCH  88  89
ATOM     89  S   UNL A   1      45.485  23.944  25.068  1.00  0.00     0.124 S 
ATOM     90  O   UNL A   1      44.090  24.282  24.823  1.00  0.00    -0.237 OA
ATOM     91  O   UNL A   1      46.291  23.684  23.877  1.00  0.00    -0.237 OA
ATOM     92  O   UNL A   1      45.743  23.034  26.178  1.00  0.00    -0.744 OA
ENDBRANCH  88  89
ENDBRANCH  56  81
BRANCH  68  93
ATOM     93  C   UNL A   1      43.845  34.671  28.294  1.00  0.00     0.058 A 
ATOM     94  C   UNL A   1      43.405  35.073  27.022  1.00  0.00     0.135 A 
ATOM     95  C   UNL A   1      43.934  35.727  29.245  1.00  0.00     0.135 A 
ATOM     96  F   UNL A   1      43.181  34.202  26.034  1.00  0.00    -0.206 F 
ATOM     97  C   UNL A   1      43.121  36.402  26.705  1.00  0.00     0.059 A 
ATOM     98  C   UNL A   1      43.595  37.048  28.966  1.00  0.00     0.059 A 
ATOM     99  F   UNL A   1      44.329  35.525  30.508  1.00  0.00    -0.206 F 
ATOM    100  C   UNL A   1      43.207  37.380  27.685  1.00  0.00     0.060 A 
BRANCH 100 101
ATOM    101  S   UNL A   1      42.774  39.071  27.264  1.00  0.00     0.124 S 
ATOM    102  O   UNL A   1      43.941  39.486  26.490  1.00  0.00    -0.237 OA
ATOM    103  O   UNL A   1      41.542  38.892  26.501  1.00  0.00    -0.237 OA
ATOM    104  O   UNL A   1      42.613  39.719  28.560  1.00  0.00    -0.744 OA
ENDBRANCH 100 101
ENDBRANCH  68  93
ENDBRANCH  42  43
ENDBRANCH  35  37
ENDBRANCH  34  35
ENDBRANCH  33  34
ENDBRANCH  32  33
ENDBRANCH  31  32
ENDBRANCH   1  31
TORSDOF 22
ENDMDL
