MODEL 1
REMARK VINA RESULT:     -11.9      0.000      0.000
REMARK SMILES Cc1cc2c(cc1C(=O)c1ccccc1C(=O)OCCOCCOC(=O)c1ccc(-c3c4nc(c(-c5c(F)cc(S(=O)(=O)[O-])cc5F)c5ccc([nH]5)c(-c5c(F)cc(S(=O)(=O)[O-])cc5F)c5nc(c(-c6c(F)cc(S(=O)(=O)[O-])cc6F)c6ccc3[nH]6)C=C5)C=C4)cc1)CCCC2
REMARK SMILES IDX 22 1 21 2 20 3 19 4 18 5 16 6 17 7 15 8 10 9 11 10 12 11
REMARK SMILES IDX 14 12 13 13 8 14 9 15 7 16 1 17 2 18 3 19 4 20 6 21 5 22
REMARK SMILES IDX 96 23 93 24 95 25 94 26 23 27 24 28 25 29 26 30 27 31 28 32
REMARK SMILES IDX 92 33 29 34 91 35 30 36 31 37 32 38 85 39 33 40 90 41 84 42
REMARK SMILES IDX 86 43 34 44 89 45 83 46 82 47 35 49 69 50 48 51 68 52 49 53
REMARK SMILES IDX 52 54 67 55 87 56 50 57 51 58 66 60 88 61 53 62 36 63 37 64
REMARK SMILES IDX 46 65 38 66 39 67 45 68 47 69 40 70 41 71 42 72 43 73 44 74
REMARK SMILES IDX 70 75 71 76 80 77 72 78 73 79 79 80 81 81 74 82 75 83 76 84
REMARK SMILES IDX 77 85 78 86 54 87 55 88 64 89 56 90 57 91 63 92 65 93 58 94
REMARK SMILES IDX 59 95 60 96 61 97 62 98
REMARK H PARENT 86 48 52 59
REMARK Flexibility Score: inf
ROOT
ATOM      1  C   UNL A   1      34.303  32.244  28.372  1.00  0.00     0.202 C 
ENDROOT
BRANCH   1   2
ATOM      2  O   UNL A   1      34.789  31.196  27.534  1.00  0.00    -0.374 OA
BRANCH   2   3
ATOM      3  C   UNL A   1      33.895  30.136  27.196  1.00  0.00     0.202 C 
BRANCH   3   4
ATOM      4  C   UNL A   1      34.477  28.729  27.049  1.00  0.00     0.261 C 
BRANCH   4   5
ATOM      5  O   UNL A   1      33.549  27.837  26.417  1.00  0.00    -0.460 OA
BRANCH   5   6
ATOM      6  C   UNL A   1      33.767  27.651  25.096  1.00  0.00     0.338 C 
ATOM      7  O   UNL A   1      34.014  28.520  24.272  1.00  0.00    -0.246 OA
BRANCH   6   8
ATOM      8  C   UNL A   1      33.915  26.219  24.749  1.00  0.00     0.071 A 
ATOM      9  C   UNL A   1      33.525  25.622  23.545  1.00  0.00     0.037 A 
ATOM     10  C   UNL A   1      34.000  24.337  23.242  1.00  0.00     0.013 A 
ATOM     11  C   UNL A   1      34.657  23.574  24.212  1.00  0.00     0.001 A 
ATOM     12  C   UNL A   1      34.564  25.439  25.726  1.00  0.00     0.016 A 
ATOM     13  C   UNL A   1      34.897  24.110  25.473  1.00  0.00     0.001 A 
BRANCH   9  14
ATOM     14  C   UNL A   1      32.671  26.308  22.559  1.00  0.00     0.194 C 
ATOM     15  O   UNL A   1      33.140  26.406  21.427  1.00  0.00    -0.289 OA
BRANCH  14  16
ATOM     16  C   UNL A   1      31.276  26.830  22.867  1.00  0.00     0.026 A 
ATOM     17  C   UNL A   1      30.297  24.830  24.227  1.00  0.00     0.045 C 
ATOM     18  C   UNL A   1      30.233  26.177  23.565  1.00  0.00    -0.040 A 
ATOM     19  C   UNL A   1      28.965  26.802  23.641  1.00  0.00     0.008 A 
ATOM     20  C   UNL A   1      28.721  28.076  23.123  1.00  0.00    -0.044 A 
ATOM     21  C   UNL A   1      31.018  28.131  22.375  1.00  0.00     0.016 A 
ATOM     22  C   UNL A   1      29.760  28.755  22.488  1.00  0.00    -0.044 A 
ATOM     23  C   UNL A   1      27.326  28.645  23.202  1.00  0.00     0.036 C 
ATOM     24  C   UNL A   1      29.576  30.162  21.966  1.00  0.00     0.036 C 
ATOM     25  C   UNL A   1      27.279  30.160  23.030  1.00  0.00     0.005 C 
ATOM     26  C   UNL A   1      28.115  30.592  21.832  1.00  0.00     0.005 C 
ENDBRANCH  14  16
ENDBRANCH   9  14
ENDBRANCH   6   8
ENDBRANCH   5   6
ENDBRANCH   4   5
ENDBRANCH   3   4
ENDBRANCH   2   3
ENDBRANCH   1   2
BRANCH   1  27
ATOM     27  C   UNL A   1      34.807  32.314  29.820  1.00  0.00     0.261 C 
BRANCH  27  28
ATOM     28  O   UNL A   1      36.216  32.071  29.944  1.00  0.00    -0.460 OA
BRANCH  28  29
ATOM     29  C   UNL A   1      36.548  30.952  30.639  1.00  0.00     0.338 C 
ATOM     30  O   UNL A   1      35.853  30.350  31.445  1.00  0.00    -0.246 OA
BRANCH  29  31
ATOM     31  C   UNL A   1      37.835  30.439  30.141  1.00  0.00     0.060 A 
ATOM     32  C   UNL A   1      38.065  30.324  28.775  1.00  0.00     0.016 A 
ATOM     33  C   UNL A   1      38.838  30.105  31.063  1.00  0.00     0.016 A 
ATOM     34  C   UNL A   1      39.315  29.887  28.339  1.00  0.00     0.010 A 
ATOM     35  C   UNL A   1      40.080  29.647  30.617  1.00  0.00     0.010 A 
ATOM     36  C   UNL A   1      40.334  29.541  29.246  1.00  0.00    -0.014 A 
BRANCH  36  37
ATOM     37  C   UNL A   1      41.683  29.166  28.739  1.00  0.00     0.031 A 
ATOM     38  C   UNL A   1      42.810  30.161  28.681  1.00  0.00     0.074 A 
ATOM     39  C   UNL A   1      41.891  27.895  28.347  1.00  0.00     0.049 A 
ATOM     40  N   UNL A   1      44.053  29.972  28.312  1.00  0.00    -0.248 NA
ATOM     41  C   UNL A   1      42.510  31.540  29.094  1.00  0.00     0.031 C 
ATOM     42  C   UNL A   1      40.875  26.841  28.351  1.00  0.00     0.029 A 
ATOM     43  N   UNL A   1      43.019  27.267  27.884  1.00  0.00    -0.354 N 
ATOM     44  C   UNL A   1      44.688  31.201  28.454  1.00  0.00     0.074 A 
ATOM     45  C   UNL A   1      43.681  32.138  28.910  1.00  0.00     0.031 C 
ATOM     46  C   UNL A   1      41.434  25.690  27.948  1.00  0.00     0.029 A 
ATOM     47  C   UNL A   1      42.833  25.932  27.610  1.00  0.00     0.049 A 
ATOM     48  H   UNL A   1      43.881  27.726  27.760  1.00  0.00     0.167 HD
ATOM     49  C   UNL A   1      45.991  31.511  28.241  1.00  0.00     0.037 A 
ATOM     50  C   UNL A   1      43.685  25.004  27.131  1.00  0.00     0.037 A 
ATOM     51  C   UNL A   1      46.986  30.574  27.775  1.00  0.00     0.049 A 
ATOM     52  C   UNL A   1      45.108  25.392  26.841  1.00  0.00     0.074 A 
ATOM     53  C   UNL A   1      48.335  30.795  27.548  1.00  0.00     0.029 A 
ATOM     54  N   UNL A   1      46.746  29.245  27.454  1.00  0.00    -0.354 N 
ATOM     55  N   UNL A   1      45.700  26.548  27.020  1.00  0.00    -0.248 NA
ATOM     56  C   UNL A   1      45.980  24.349  26.284  1.00  0.00     0.031 C 
ATOM     57  C   UNL A   1      48.896  29.620  27.040  1.00  0.00     0.029 A 
ATOM     58  C   UNL A   1      47.913  28.645  27.006  1.00  0.00     0.049 A 
ATOM     59  H   UNL A   1      45.873  28.795  27.533  1.00  0.00     0.167 HD
ATOM     60  C   UNL A   1      47.018  26.368  26.617  1.00  0.00     0.074 A 
ATOM     61  C   UNL A   1      47.142  24.984  26.206  1.00  0.00     0.031 C 
ATOM     62  C   UNL A   1      48.032  27.267  26.590  1.00  0.00     0.037 A 
BRANCH  49  63
ATOM     63  C   UNL A   1      46.435  32.927  28.509  1.00  0.00     0.058 A 
ATOM     64  C   UNL A   1      46.944  33.313  29.759  1.00  0.00     0.135 A 
ATOM     65  C   UNL A   1      46.432  33.887  27.482  1.00  0.00     0.135 A 
ATOM     66  F   UNL A   1      46.965  32.439  30.778  1.00  0.00    -0.206 F 
ATOM     67  C   UNL A   1      47.419  34.601  29.988  1.00  0.00     0.059 A 
ATOM     68  C   UNL A   1      46.928  35.173  27.680  1.00  0.00     0.059 A 
ATOM     69  F   UNL A   1      45.962  33.573  26.265  1.00  0.00    -0.206 F 
ATOM     70  C   UNL A   1      47.412  35.523  28.939  1.00  0.00     0.060 A 
BRANCH  70  71
ATOM     71  S   UNL A   1      48.058  37.181  29.249  1.00  0.00     0.124 S 
ATOM     72  O   UNL A   1      47.441  37.501  30.532  1.00  0.00    -0.237 OA
ATOM     73  O   UNL A   1      49.499  36.952  29.277  1.00  0.00    -0.237 OA
ATOM     74  O   UNL A   1      47.571  37.956  28.111  1.00  0.00    -0.744 OA
ENDBRANCH  70  71
ENDBRANCH  49  63
BRANCH  50  75
ATOM     75  C   UNL A   1      43.211  23.612  26.917  1.00  0.00     0.058 A 
ATOM     76  C   UNL A   1      42.963  23.126  25.625  1.00  0.00     0.135 A 
ATOM     77  C   UNL A   1      43.025  22.730  27.994  1.00  0.00     0.135 A 
ATOM     78  F   UNL A   1      43.118  23.932  24.564  1.00  0.00    -0.206 F 
ATOM     79  C   UNL A   1      42.540  21.819  25.407  1.00  0.00     0.059 A 
ATOM     80  C   UNL A   1      42.633  21.410  27.799  1.00  0.00     0.059 A 
ATOM     81  F   UNL A   1      43.261  23.142  29.250  1.00  0.00    -0.206 F 
ATOM     82  C   UNL A   1      42.387  20.966  26.502  1.00  0.00     0.060 A 
BRANCH  82  83
ATOM     83  S   UNL A   1      41.895  19.256  26.198  1.00  0.00     0.124 S 
ATOM     84  O   UNL A   1      42.317  18.603  27.432  1.00  0.00    -0.237 OA
ATOM     85  O   UNL A   1      40.455  19.385  26.003  1.00  0.00    -0.237 OA
ATOM     86  O   UNL A   1      42.654  18.894  25.004  1.00  0.00    -0.744 OA
ENDBRANCH  82  83
ENDBRANCH  50  75
BRANCH  62  87
ATOM     87  C   UNL A   1      49.378  26.786  26.114  1.00  0.00     0.058 A 
ATOM     88  C   UNL A   1      49.820  27.013  24.801  1.00  0.00     0.135 A 
ATOM     89  C   UNL A   1      50.257  26.135  26.995  1.00  0.00     0.135 A 
ATOM     90  F   UNL A   1      49.019  27.623  23.914  1.00  0.00    -0.206 F 
ATOM     91  C   UNL A   1      51.074  26.588  24.371  1.00  0.00     0.059 A 
ATOM     92  C   UNL A   1      51.528  25.730  26.596  1.00  0.00     0.059 A 
ATOM     93  F   UNL A   1      49.892  25.899  28.265  1.00  0.00    -0.206 F 
ATOM     94  C   UNL A   1      51.923  25.951  25.278  1.00  0.00     0.060 A 
BRANCH  94  95
ATOM     95  S   UNL A   1      53.557  25.431  24.710  1.00  0.00     0.124 S 
ATOM     96  O   UNL A   1      54.431  26.292  25.498  1.00  0.00    -0.237 OA
ATOM     97  O   UNL A   1      53.571  24.015  25.066  1.00  0.00    -0.237 OA
ATOM     98  O   UNL A   1      53.526  25.712  23.277  1.00  0.00    -0.744 OA
ENDBRANCH  94  95
ENDBRANCH  62  87
ENDBRANCH  36  37
ENDBRANCH  29  31
ENDBRANCH  28  29
ENDBRANCH  27  28
ENDBRANCH   1  27
TORSDOF 19
ENDMDL
MODEL 2
REMARK VINA RESULT:     -11.8      6.474     11.740
REMARK SMILES Cc1cc2c(cc1C(=O)c1ccccc1C(=O)OCCOCCOC(=O)c1ccc(-c3c4nc(c(-c5c(F)cc(S(=O)(=O)[O-])cc5F)c5ccc([nH]5)c(-c5c(F)cc(S(=O)(=O)[O-])cc5F)c5nc(c(-c6c(F)cc(S(=O)(=O)[O-])cc6F)c6ccc3[nH]6)C=C5)C=C4)cc1)CCCC2
REMARK SMILES IDX 22 1 21 2 20 3 19 4 18 5 16 6 17 7 15 8 10 9 11 10 12 11
REMARK SMILES IDX 14 12 13 13 8 14 9 15 7 16 1 17 2 18 3 19 4 20 6 21 5 22
REMARK SMILES IDX 96 23 93 24 95 25 94 26 23 27 24 28 25 29 26 30 27 31 28 32
REMARK SMILES IDX 92 33 29 34 91 35 30 36 31 37 32 38 85 39 33 40 90 41 84 42
REMARK SMILES IDX 86 43 34 44 89 45 83 46 82 47 35 49 69 50 48 51 68 52 49 53
REMARK SMILES IDX 52 54 67 55 87 56 50 57 51 58 66 60 88 61 53 62 36 63 37 64
REMARK SMILES IDX 46 65 38 66 39 67 45 68 47 69 40 70 41 71 42 72 43 73 44 74
REMARK SMILES IDX 70 75 71 76 80 77 72 78 73 79 79 80 81 81 74 82 75 83 76 84
REMARK SMILES IDX 77 85 78 86 54 87 55 88 64 89 56 90 57 91 63 92 65 93 58 94
REMARK SMILES IDX 59 95 60 96 61 97 62 98
REMARK H PARENT 86 48 52 59
REMARK Flexibility Score: inf
ROOT
ATOM      1  C   UNL A   1      39.685  21.809  26.055  1.00  0.00     0.202 C 
ENDROOT
BRANCH   1   2
ATOM      2  O   UNL A   1      38.636  22.697  26.437  1.00  0.00    -0.374 OA
BRANCH   2   3
ATOM      3  C   UNL A   1      37.694  23.093  25.441  1.00  0.00     0.202 C 
BRANCH   3   4
ATOM      4  C   UNL A   1      37.126  22.010  24.522  1.00  0.00     0.261 C 
BRANCH   4   5
ATOM      5  O   UNL A   1      36.311  21.079  25.246  1.00  0.00    -0.460 OA
BRANCH   5   6
ATOM      6  C   UNL A   1      35.151  21.596  25.710  1.00  0.00     0.338 C 
ATOM      7  O   UNL A   1      35.016  22.300  26.701  1.00  0.00    -0.246 OA
BRANCH   6   8
ATOM      8  C   UNL A   1      34.037  21.423  24.750  1.00  0.00     0.071 A 
ATOM      9  C   UNL A   1      33.562  22.394  23.861  1.00  0.00     0.037 A 
ATOM     10  C   UNL A   1      32.715  21.996  22.815  1.00  0.00     0.013 A 
ATOM     11  C   UNL A   1      32.172  20.708  22.790  1.00  0.00     0.001 A 
ATOM     12  C   UNL A   1      33.473  20.132  24.726  1.00  0.00     0.016 A 
ATOM     13  C   UNL A   1      32.516  19.789  23.776  1.00  0.00     0.001 A 
BRANCH   9  14
ATOM     14  C   UNL A   1      33.950  23.812  23.952  1.00  0.00     0.194 C 
ATOM     15  O   UNL A   1      34.839  24.169  23.181  1.00  0.00    -0.289 OA
BRANCH  14  16
ATOM     16  C   UNL A   1      33.289  24.811  24.888  1.00  0.00     0.026 A 
ATOM     17  C   UNL A   1      31.556  23.277  26.092  1.00  0.00     0.045 C 
ATOM     18  C   UNL A   1      32.227  24.588  25.797  1.00  0.00    -0.040 A 
ATOM     19  C   UNL A   1      31.681  25.690  26.495  1.00  0.00     0.008 A 
ATOM     20  C   UNL A   1      32.198  26.984  26.385  1.00  0.00    -0.044 A 
ATOM     21  C   UNL A   1      33.818  26.122  24.812  1.00  0.00     0.016 A 
ATOM     22  C   UNL A   1      33.285  27.204  25.539  1.00  0.00    -0.044 A 
ATOM     23  C   UNL A   1      31.521  28.110  27.126  1.00  0.00     0.036 C 
ATOM     24  C   UNL A   1      33.930  28.566  25.429  1.00  0.00     0.036 C 
ATOM     25  C   UNL A   1      32.406  29.341  27.296  1.00  0.00     0.005 C 
ATOM     26  C   UNL A   1      33.076  29.709  25.977  1.00  0.00     0.005 C 
ENDBRANCH  14  16
ENDBRANCH   9  14
ENDBRANCH   6   8
ENDBRANCH   5   6
ENDBRANCH   4   5
ENDBRANCH   3   4
ENDBRANCH   2   3
ENDBRANCH   1   2
BRANCH   1  27
ATOM     27  C   UNL A   1      41.136  22.293  26.186  1.00  0.00     0.261 C 
BRANCH  27  28
ATOM     28  O   UNL A   1      41.298  23.355  27.139  1.00  0.00    -0.460 OA
BRANCH  28  29
ATOM     29  C   UNL A   1      41.539  24.578  26.601  1.00  0.00     0.338 C 
ATOM     30  O   UNL A   1      41.760  24.838  25.427  1.00  0.00    -0.246 OA
BRANCH  29  31
ATOM     31  C   UNL A   1      41.312  25.610  27.627  1.00  0.00     0.060 A 
ATOM     32  C   UNL A   1      40.156  25.591  28.399  1.00  0.00     0.016 A 
ATOM     33  C   UNL A   1      42.296  26.586  27.841  1.00  0.00     0.016 A 
ATOM     34  C   UNL A   1      40.000  26.549  29.400  1.00  0.00     0.010 A 
ATOM     35  C   UNL A   1      42.121  27.557  28.831  1.00  0.00     0.010 A 
ATOM     36  C   UNL A   1      40.972  27.543  29.627  1.00  0.00    -0.014 A 
BRANCH  36  37
ATOM     37  C   UNL A   1      40.810  28.491  30.763  1.00  0.00     0.031 A 
ATOM     38  C   UNL A   1      41.698  28.431  31.975  1.00  0.00     0.074 A 
ATOM     39  C   UNL A   1      39.855  29.436  30.679  1.00  0.00     0.049 A 
ATOM     40  N   UNL A   1      41.713  29.219  33.022  1.00  0.00    -0.248 NA
ATOM     41  C   UNL A   1      42.702  27.357  32.020  1.00  0.00     0.031 C 
ATOM     42  C   UNL A   1      38.927  29.592  29.557  1.00  0.00     0.029 A 
ATOM     43  N   UNL A   1      39.510  30.450  31.538  1.00  0.00    -0.354 N 
ATOM     44  C   UNL A   1      42.728  28.746  33.847  1.00  0.00     0.074 A 
ATOM     45  C   UNL A   1      43.283  27.578  33.193  1.00  0.00     0.031 C 
ATOM     46  C   UNL A   1      38.146  30.659  29.777  1.00  0.00     0.029 A 
ATOM     47  C   UNL A   1      38.479  31.235  31.076  1.00  0.00     0.049 A 
ATOM     48  H   UNL A   1      39.957  30.601  32.402  1.00  0.00     0.167 HD
ATOM     49  C   UNL A   1      43.164  29.251  35.028  1.00  0.00     0.037 A 
ATOM     50  C   UNL A   1      37.863  32.296  31.634  1.00  0.00     0.037 A 
ATOM     51  C   UNL A   1      42.598  30.409  35.678  1.00  0.00     0.049 A 
ATOM     52  C   UNL A   1      38.325  32.793  32.976  1.00  0.00     0.074 A 
ATOM     53  C   UNL A   1      42.988  31.002  36.868  1.00  0.00     0.029 A 
ATOM     54  N   UNL A   1      41.519  31.143  35.208  1.00  0.00    -0.354 N 
ATOM     55  N   UNL A   1      39.312  32.358  33.720  1.00  0.00    -0.248 NA
ATOM     56  C   UNL A   1      37.590  33.927  33.552  1.00  0.00     0.031 C 
ATOM     57  C   UNL A   1      42.113  32.058  37.143  1.00  0.00     0.029 A 
ATOM     58  C   UNL A   1      41.214  32.164  36.096  1.00  0.00     0.049 A 
ATOM     59  H   UNL A   1      41.039  30.965  34.366  1.00  0.00     0.167 HD
ATOM     60  C   UNL A   1      39.330  33.176  34.844  1.00  0.00     0.074 A 
ATOM     61  C   UNL A   1      38.268  34.147  34.670  1.00  0.00     0.031 C 
ATOM     62  C   UNL A   1      40.151  33.126  35.922  1.00  0.00     0.037 A 
BRANCH  49  63
ATOM     63  C   UNL A   1      44.319  28.561  35.709  1.00  0.00     0.058 A 
ATOM     64  C   UNL A   1      45.648  28.949  35.474  1.00  0.00     0.135 A 
ATOM     65  C   UNL A   1      44.092  27.560  36.670  1.00  0.00     0.135 A 
ATOM     66  F   UNL A   1      45.924  29.895  34.563  1.00  0.00    -0.206 F 
ATOM     67  C   UNL A   1      46.710  28.360  36.154  1.00  0.00     0.059 A 
ATOM     68  C   UNL A   1      45.137  26.977  37.381  1.00  0.00     0.059 A 
ATOM     69  F   UNL A   1      42.842  27.153  36.939  1.00  0.00    -0.206 F 
ATOM     70  C   UNL A   1      46.444  27.379  37.110  1.00  0.00     0.060 A 
BRANCH  70  71
ATOM     71  S   UNL A   1      47.836  26.647  38.001  1.00  0.00     0.124 S 
ATOM     72  O   UNL A   1      47.223  26.322  39.285  1.00  0.00    -0.237 OA
ATOM     73  O   UNL A   1      48.179  25.509  37.155  1.00  0.00    -0.237 OA
ATOM     74  O   UNL A   1      48.824  27.721  38.034  1.00  0.00    -0.744 OA
ENDBRANCH  70  71
ENDBRANCH  49  63
BRANCH  50  75
ATOM     75  C   UNL A   1      36.752  32.966  30.909  1.00  0.00     0.058 A 
ATOM     76  C   UNL A   1      35.420  32.795  31.314  1.00  0.00     0.135 A 
ATOM     77  C   UNL A   1      37.000  33.812  29.816  1.00  0.00     0.135 A 
ATOM     78  F   UNL A   1      35.131  31.990  32.347  1.00  0.00    -0.206 F 
ATOM     79  C   UNL A   1      34.373  33.434  30.658  1.00  0.00     0.059 A 
ATOM     80  C   UNL A   1      35.973  34.485  29.164  1.00  0.00     0.059 A 
ATOM     81  F   UNL A   1      38.259  34.019  29.397  1.00  0.00    -0.206 F 
ATOM     82  C   UNL A   1      34.661  34.284  29.589  1.00  0.00     0.060 A 
BRANCH  82  83
ATOM     83  S   UNL A   1      33.296  35.151  28.787  1.00  0.00     0.124 S 
ATOM     84  O   UNL A   1      33.999  36.204  28.063  1.00  0.00    -0.237 OA
ATOM     85  O   UNL A   1      32.706  34.096  27.969  1.00  0.00    -0.237 OA
ATOM     86  O   UNL A   1      32.475  35.599  29.909  1.00  0.00    -0.744 OA
ENDBRANCH  82  83
ENDBRANCH  50  75
BRANCH  62  87
ATOM     87  C   UNL A   1      39.951  34.160  36.999  1.00  0.00     0.058 A 
ATOM     88  C   UNL A   1      40.444  35.468  36.867  1.00  0.00     0.135 A 
ATOM     89  C   UNL A   1      39.215  33.856  38.156  1.00  0.00     0.135 A 
ATOM     90  F   UNL A   1      41.162  35.813  35.787  1.00  0.00    -0.206 F 
ATOM     91  C   UNL A   1      40.238  36.428  37.854  1.00  0.00     0.059 A 
ATOM     92  C   UNL A   1      38.967  34.808  39.141  1.00  0.00     0.059 A 
ATOM     93  F   UNL A   1      38.710  32.624  38.332  1.00  0.00    -0.206 F 
ATOM     94  C   UNL A   1      39.494  36.089  38.985  1.00  0.00     0.060 A 
BRANCH  94  95
ATOM     95  S   UNL A   1      39.213  37.355  40.243  1.00  0.00     0.124 S 
ATOM     96  O   UNL A   1      38.494  36.602  41.265  1.00  0.00    -0.237 OA
ATOM     97  O   UNL A   1      40.573  37.755  40.588  1.00  0.00    -0.237 OA
ATOM     98  O   UNL A   1      38.426  38.365  39.541  1.00  0.00    -0.744 OA
ENDBRANCH  94  95
ENDBRANCH  62  87
ENDBRANCH  36  37
ENDBRANCH  29  31
ENDBRANCH  28  29
ENDBRANCH  27  28
ENDBRANCH   1  27
TORSDOF 19
ENDMDL
MODEL 3
REMARK VINA RESULT:     -11.8      0.894      3.517
REMARK SMILES Cc1cc2c(cc1C(=O)c1ccccc1C(=O)OCCOCCOC(=O)c1ccc(-c3c4nc(c(-c5c(F)cc(S(=O)(=O)[O-])cc5F)c5ccc([nH]5)c(-c5c(F)cc(S(=O)(=O)[O-])cc5F)c5nc(c(-c6c(F)cc(S(=O)(=O)[O-])cc6F)c6ccc3[nH]6)C=C5)C=C4)cc1)CCCC2
REMARK SMILES IDX 22 1 21 2 20 3 19 4 18 5 16 6 17 7 15 8 10 9 11 10 12 11
REMARK SMILES IDX 14 12 13 13 8 14 9 15 7 16 1 17 2 18 3 19 4 20 6 21 5 22
REMARK SMILES IDX 96 23 93 24 95 25 94 26 23 27 24 28 25 29 26 30 27 31 28 32
REMARK SMILES IDX 92 33 29 34 91 35 30 36 31 37 32 38 85 39 33 40 90 41 84 42
REMARK SMILES IDX 86 43 34 44 89 45 83 46 82 47 35 49 69 50 48 51 68 52 49 53
REMARK SMILES IDX 52 54 67 55 87 56 50 57 51 58 66 60 88 61 53 62 36 63 37 64
REMARK SMILES IDX 46 65 38 66 39 67 45 68 47 69 40 70 41 71 42 72 43 73 44 74
REMARK SMILES IDX 70 75 71 76 80 77 72 78 73 79 79 80 81 81 74 82 75 83 76 84
REMARK SMILES IDX 77 85 78 86 54 87 55 88 64 89 56 90 57 91 63 92 65 93 58 94
REMARK SMILES IDX 59 95 60 96 61 97 62 98
REMARK H PARENT 86 48 52 59
REMARK Flexibility Score: inf
ROOT
ATOM      1  C   UNL A   1      34.791  32.488  28.837  1.00  0.00     0.202 C 
ENDROOT
BRANCH   1   2
ATOM      2  O   UNL A   1      34.742  31.280  28.079  1.00  0.00    -0.374 OA
BRANCH   2   3
ATOM      3  C   UNL A   1      33.491  30.889  27.515  1.00  0.00     0.202 C 
BRANCH   3   4
ATOM      4  C   UNL A   1      33.330  29.436  27.068  1.00  0.00     0.261 C 
BRANCH   4   5
ATOM      5  O   UNL A   1      32.091  29.230  26.376  1.00  0.00    -0.460 OA
BRANCH   5   6
ATOM      6  C   UNL A   1      32.219  29.069  25.040  1.00  0.00     0.338 C 
ATOM      7  O   UNL A   1      33.209  29.326  24.370  1.00  0.00    -0.246 OA
BRANCH   6   8
ATOM      8  C   UNL A   1      31.092  28.306  24.457  1.00  0.00     0.071 A 
ATOM      9  C   UNL A   1      30.764  26.977  24.747  1.00  0.00     0.037 A 
ATOM     10  C   UNL A   1      29.507  26.490  24.357  1.00  0.00     0.013 A 
ATOM     11  C   UNL A   1      28.690  27.234  23.501  1.00  0.00     0.001 A 
ATOM     12  C   UNL A   1      30.270  29.043  23.583  1.00  0.00     0.016 A 
ATOM     13  C   UNL A   1      29.095  28.495  23.074  1.00  0.00     0.001 A 
BRANCH   9  14
ATOM     14  C   UNL A   1      31.669  26.078  25.485  1.00  0.00     0.194 C 
ATOM     15  O   UNL A   1      31.407  25.924  26.676  1.00  0.00    -0.289 OA
BRANCH  14  16
ATOM     16  C   UNL A   1      32.830  25.335  24.844  1.00  0.00     0.026 A 
ATOM     17  C   UNL A   1      32.641  26.169  22.379  1.00  0.00     0.045 C 
ATOM     18  C   UNL A   1      33.236  25.349  23.489  1.00  0.00    -0.040 A 
ATOM     19  C   UNL A   1      34.281  24.488  23.078  1.00  0.00     0.008 A 
ATOM     20  C   UNL A   1      34.986  23.679  23.973  1.00  0.00    -0.044 A 
ATOM     21  C   UNL A   1      33.575  24.531  25.740  1.00  0.00     0.016 A 
ATOM     22  C   UNL A   1      34.636  23.704  25.323  1.00  0.00    -0.044 A 
ATOM     23  C   UNL A   1      36.051  22.752  23.441  1.00  0.00     0.036 C 
ATOM     24  C   UNL A   1      35.404  22.902  26.348  1.00  0.00     0.036 C 
ATOM     25  C   UNL A   1      37.030  22.278  24.511  1.00  0.00     0.005 C 
ATOM     26  C   UNL A   1      36.283  21.803  25.751  1.00  0.00     0.005 C 
ENDBRANCH  14  16
ENDBRANCH   9  14
ENDBRANCH   6   8
ENDBRANCH   5   6
ENDBRANCH   4   5
ENDBRANCH   3   4
ENDBRANCH   2   3
ENDBRANCH   1   2
BRANCH   1  27
ATOM     27  C   UNL A   1      35.130  32.400  30.330  1.00  0.00     0.261 C 
BRANCH  27  28
ATOM     28  O   UNL A   1      36.511  32.103  30.584  1.00  0.00    -0.460 OA
BRANCH  28  29
ATOM     29  C   UNL A   1      36.755  30.845  31.035  1.00  0.00     0.338 C 
ATOM     30  O   UNL A   1      36.001  30.133  31.681  1.00  0.00    -0.246 OA
BRANCH  29  31
ATOM     31  C   UNL A   1      38.027  30.367  30.467  1.00  0.00     0.060 A 
ATOM     32  C   UNL A   1      38.221  30.352  29.090  1.00  0.00     0.016 A 
ATOM     33  C   UNL A   1      39.053  29.966  31.335  1.00  0.00     0.016 A 
ATOM     34  C   UNL A   1      39.458  29.946  28.590  1.00  0.00     0.010 A 
ATOM     35  C   UNL A   1      40.282  29.540  30.824  1.00  0.00     0.010 A 
ATOM     36  C   UNL A   1      40.499  29.533  29.443  1.00  0.00    -0.014 A 
BRANCH  36  37
ATOM     37  C   UNL A   1      41.832  29.195  28.874  1.00  0.00     0.031 A 
ATOM     38  C   UNL A   1      42.934  30.215  28.781  1.00  0.00     0.074 A 
ATOM     39  C   UNL A   1      42.051  27.934  28.457  1.00  0.00     0.049 A 
ATOM     40  N   UNL A   1      44.164  30.058  28.357  1.00  0.00    -0.248 NA
ATOM     41  C   UNL A   1      42.622  31.582  29.225  1.00  0.00     0.031 C 
ATOM     42  C   UNL A   1      41.059  26.857  28.490  1.00  0.00     0.029 A 
ATOM     43  N   UNL A   1      43.172  27.336  27.938  1.00  0.00    -0.354 N 
ATOM     44  C   UNL A   1      44.778  31.299  28.489  1.00  0.00     0.074 A 
ATOM     45  C   UNL A   1      43.772  32.208  28.999  1.00  0.00     0.031 C 
ATOM     46  C   UNL A   1      41.625  25.724  28.049  1.00  0.00     0.029 A 
ATOM     47  C   UNL A   1      43.002  26.001  27.654  1.00  0.00     0.049 A 
ATOM     48  H   UNL A   1      44.018  27.816  27.784  1.00  0.00     0.167 HD
ATOM     49  C   UNL A   1      46.064  31.640  28.225  1.00  0.00     0.037 A 
ATOM     50  C   UNL A   1      43.853  25.098  27.128  1.00  0.00     0.037 A 
ATOM     51  C   UNL A   1      47.058  30.731  27.705  1.00  0.00     0.049 A 
ATOM     52  C   UNL A   1      45.254  25.521  26.783  1.00  0.00     0.074 A 
ATOM     53  C   UNL A   1      48.391  30.985  27.424  1.00  0.00     0.029 A 
ATOM     54  N   UNL A   1      46.833  29.402  27.377  1.00  0.00    -0.354 N 
ATOM     55  N   UNL A   1      45.827  26.688  26.952  1.00  0.00    -0.248 NA
ATOM     56  C   UNL A   1      46.124  24.504  26.176  1.00  0.00     0.031 C 
ATOM     57  C   UNL A   1      48.955  29.828  26.876  1.00  0.00     0.029 A 
ATOM     58  C   UNL A   1      47.993  28.833  26.871  1.00  0.00     0.049 A 
ATOM     59  H   UNL A   1      45.974  28.931  27.486  1.00  0.00     0.167 HD
ATOM     60  C   UNL A   1      47.131  26.541  26.491  1.00  0.00     0.074 A 
ATOM     61  C   UNL A   1      47.267  25.166  26.057  1.00  0.00     0.031 C 
ATOM     62  C   UNL A   1      48.123  27.463  26.433  1.00  0.00     0.037 A 
BRANCH  49  63
ATOM     63  C   UNL A   1      46.488  33.062  28.492  1.00  0.00     0.058 A 
ATOM     64  C   UNL A   1      46.373  34.059  27.511  1.00  0.00     0.135 A 
ATOM     65  C   UNL A   1      46.933  33.451  29.767  1.00  0.00     0.135 A 
ATOM     66  F   UNL A   1      45.959  33.744  26.273  1.00  0.00    -0.206 F 
ATOM     67  C   UNL A   1      46.697  35.386  27.777  1.00  0.00     0.059 A 
ATOM     68  C   UNL A   1      47.237  34.777  30.064  1.00  0.00     0.059 A 
ATOM     69  F   UNL A   1      47.058  32.542  30.746  1.00  0.00    -0.206 F 
ATOM     70  C   UNL A   1      47.123  35.737  29.059  1.00  0.00     0.060 A 
BRANCH  70  71
ATOM     71  S   UNL A   1      47.514  37.469  29.392  1.00  0.00     0.124 S 
ATOM     72  O   UNL A   1      46.457  38.155  28.656  1.00  0.00    -0.237 OA
ATOM     73  O   UNL A   1      47.420  37.533  30.846  1.00  0.00    -0.237 OA
ATOM     74  O   UNL A   1      48.859  37.627  28.846  1.00  0.00    -0.744 OA
ENDBRANCH  70  71
ENDBRANCH  49  63
BRANCH  50  75
ATOM     75  C   UNL A   1      43.400  23.698  26.916  1.00  0.00     0.058 A 
ATOM     76  C   UNL A   1      43.267  22.812  27.994  1.00  0.00     0.135 A 
ATOM     77  C   UNL A   1      43.063  23.227  25.637  1.00  0.00     0.135 A 
ATOM     78  F   UNL A   1      43.585  23.213  29.235  1.00  0.00    -0.206 F 
ATOM     79  C   UNL A   1      42.824  21.507  27.814  1.00  0.00     0.059 A 
ATOM     80  C   UNL A   1      42.588  21.936  25.435  1.00  0.00     0.059 A 
ATOM     81  F   UNL A   1      43.161  24.039  24.572  1.00  0.00    -0.206 F 
ATOM     82  C   UNL A   1      42.478  21.081  26.530  1.00  0.00     0.060 A 
BRANCH  82  83
ATOM     83  S   UNL A   1      41.847  19.402  26.320  1.00  0.00     0.124 S 
ATOM     84  O   UNL A   1      42.587  18.953  25.147  1.00  0.00    -0.237 OA
ATOM     85  O   UNL A   1      42.218  18.779  27.587  1.00  0.00    -0.237 OA
ATOM     86  O   UNL A   1      40.414  19.603  26.123  1.00  0.00    -0.744 OA
ENDBRANCH  82  83
ENDBRANCH  50  75
BRANCH  62  87
ATOM     87  C   UNL A   1      49.458  27.018  25.894  1.00  0.00     0.058 A 
ATOM     88  C   UNL A   1      49.778  27.132  24.532  1.00  0.00     0.135 A 
ATOM     89  C   UNL A   1      50.447  26.517  26.757  1.00  0.00     0.135 A 
ATOM     90  F   UNL A   1      48.869  27.595  23.660  1.00  0.00    -0.206 F 
ATOM     91  C   UNL A   1      51.021  26.741  24.041  1.00  0.00     0.059 A 
ATOM     92  C   UNL A   1      51.707  26.151  26.294  1.00  0.00     0.059 A 
ATOM     93  F   UNL A   1      50.200  26.395  28.071  1.00  0.00    -0.206 F 
ATOM     94  C   UNL A   1      51.981  26.256  24.931  1.00  0.00     0.060 A 
BRANCH  94  95
ATOM     95  S   UNL A   1      53.597  25.779  24.280  1.00  0.00     0.124 S 
ATOM     96  O   UNL A   1      53.657  24.367  24.643  1.00  0.00    -0.237 OA
ATOM     97  O   UNL A   1      53.452  26.063  22.855  1.00  0.00    -0.237 OA
ATOM     98  O   UNL A   1      54.524  26.650  24.997  1.00  0.00    -0.744 OA
ENDBRANCH  94  95
ENDBRANCH  62  87
ENDBRANCH  36  37
ENDBRANCH  29  31
ENDBRANCH  28  29
ENDBRANCH  27  28
ENDBRANCH   1  27
TORSDOF 19
ENDMDL
