MODEL 1
REMARK VINA RESULT:     -12.0      0.000      0.000
REMARK SMILES Cc1ccc(N2C(=O)C[C@H](Sc3ccccc3C(=O)OCCOCCOC(=O)c3ccc(-c4c5nc(c(-c6c(F)cc(S(=O)(=O)[O-])cc6F)c6ccc([nH]6)c(-c6c(F)cc(S(=O)(=O)[O-])cc6F)c6nc(c(-c7c(F)cc(S(=O)(=O)[O-])cc7F)c7ccc4[nH]7)C=C6)C=C5)cc3)C2=O)cc1
REMARK SMILES IDX 23 1 22 2 21 3 20 4 18 5 19 6 17 7 12 8 13 9 14 10 16 11
REMARK SMILES IDX 15 12 11 13 10 14 6 15 7 16 95 17 8 18 9 19 96 20 5 21 1 22
REMARK SMILES IDX 2 23 3 24 98 25 4 26 97 27 24 28 25 29 26 30 27 31 28 32
REMARK SMILES IDX 29 33 30 34 94 35 31 36 93 37 32 38 33 39 34 40 87 41 35 42
REMARK SMILES IDX 92 43 86 44 88 45 36 46 91 47 85 48 84 49 37 51 71 52 50 53
REMARK SMILES IDX 70 54 51 55 54 56 69 57 89 58 52 59 53 60 68 62 90 63 55 64
REMARK SMILES IDX 38 65 39 66 48 67 40 68 41 69 47 70 49 71 42 72 43 73 44 74
REMARK SMILES IDX 45 75 46 76 72 77 73 78 82 79 74 80 75 81 81 82 83 83 76 84
REMARK SMILES IDX 77 85 78 86 79 87 80 88 56 89 57 90 66 91 58 92 59 93 65 94
REMARK SMILES IDX 67 95 60 96 61 97 62 98 63 99 64 100
REMARK H PARENT 88 50 54 61
REMARK Flexibility Score: inf
ROOT
ATOM      1  O   UNL A   1      32.299  28.629  27.597  1.00  0.00    -0.374 OA
ENDROOT
BRANCH   1   2
ATOM      2  C   UNL A   1      31.295  27.645  27.493  1.00  0.00     0.202 C 
BRANCH   2   3
ATOM      3  C   UNL A   1      31.712  26.924  26.277  1.00  0.00     0.261 C 
BRANCH   3   4
ATOM      4  O   UNL A   1      30.583  26.399  25.527  1.00  0.00    -0.460 OA
BRANCH   4   5
ATOM      5  C   UNL A   1      30.260  26.788  24.256  1.00  0.00     0.339 C 
ATOM      6  O   UNL A   1      29.169  26.915  23.768  1.00  0.00    -0.246 OA
BRANCH   5   7
ATOM      7  C   UNL A   1      31.527  27.087  23.547  1.00  0.00     0.073 A 
ATOM      8  C   UNL A   1      32.261  26.112  22.843  1.00  0.00     0.023 A 
ATOM      9  C   UNL A   1      33.364  26.557  22.092  1.00  0.00     0.016 A 
ATOM     10  C   UNL A   1      33.722  27.909  22.040  1.00  0.00     0.001 A 
ATOM     11  C   UNL A   1      31.955  28.430  23.560  1.00  0.00     0.017 A 
ATOM     12  C   UNL A   1      33.034  28.844  22.796  1.00  0.00     0.001 A 
BRANCH   8  13
ATOM     13  S   UNL A   1      32.091  24.327  23.006  1.00  0.00    -0.111 SA
BRANCH  13  14
ATOM     14  C   UNL A   1      32.888  23.853  24.573  1.00  0.00     0.151 C 
ATOM     15  N   UNL A   1      34.848  22.896  25.374  1.00  0.00    -0.250 N 
ATOM     16  C   UNL A   1      33.830  22.067  25.791  1.00  0.00     0.235 C 
ATOM     17  C   UNL A   1      34.386  23.969  24.648  1.00  0.00     0.247 C 
ATOM     18  O   UNL A   1      33.894  21.121  26.562  1.00  0.00    -0.274 OA
ATOM     19  C   UNL A   1      32.605  22.421  24.992  1.00  0.00     0.126 C 
ATOM     20  O   UNL A   1      35.045  24.940  24.296  1.00  0.00    -0.273 OA
BRANCH  15  21
ATOM     21  C   UNL A   1      36.216  22.660  25.624  1.00  0.00     0.052 A 
ATOM     22  C   UNL A   1      40.427  22.040  26.325  1.00  0.00     0.044 C 
ATOM     23  C   UNL A   1      38.971  22.278  26.053  1.00  0.00    -0.051 A 
ATOM     24  C   UNL A   1      38.194  21.279  25.451  1.00  0.00     0.005 A 
ATOM     25  C   UNL A   1      38.360  23.472  26.440  1.00  0.00     0.005 A 
ATOM     26  C   UNL A   1      36.835  21.487  25.196  1.00  0.00     0.027 A 
ATOM     27  C   UNL A   1      36.984  23.644  26.266  1.00  0.00     0.027 A 
ENDBRANCH  15  21
ENDBRANCH  13  14
ENDBRANCH   8  13
ENDBRANCH   5   7
ENDBRANCH   4   5
ENDBRANCH   3   4
ENDBRANCH   2   3
ENDBRANCH   1   2
BRANCH   1  28
ATOM     28  C   UNL A   1      31.977  29.751  26.845  1.00  0.00     0.202 C 
BRANCH  28  29
ATOM     29  C   UNL A   1      33.219  30.598  26.657  1.00  0.00     0.261 C 
BRANCH  29  30
ATOM     30  O   UNL A   1      34.027  30.588  27.865  1.00  0.00    -0.460 OA
BRANCH  30  31
ATOM     31  C   UNL A   1      35.264  31.175  27.828  1.00  0.00     0.338 C 
ATOM     32  O   UNL A   1      35.445  32.356  27.578  1.00  0.00    -0.246 OA
BRANCH  31  33
ATOM     33  C   UNL A   1      36.337  30.264  28.331  1.00  0.00     0.060 A 
ATOM     34  C   UNL A   1      36.277  29.657  29.603  1.00  0.00     0.016 A 
ATOM     35  C   UNL A   1      37.489  30.124  27.570  1.00  0.00     0.016 A 
ATOM     36  C   UNL A   1      37.434  29.098  30.186  1.00  0.00     0.010 A 
ATOM     37  C   UNL A   1      38.631  29.614  28.165  1.00  0.00     0.010 A 
ATOM     38  C   UNL A   1      38.643  29.164  29.500  1.00  0.00    -0.014 A 
BRANCH  38  39
ATOM     39  C   UNL A   1      39.982  28.804  30.015  1.00  0.00     0.031 A 
ATOM     40  C   UNL A   1      40.540  27.521  29.544  1.00  0.00     0.074 A 
ATOM     41  C   UNL A   1      40.814  29.687  30.636  1.00  0.00     0.049 A 
ATOM     42  N   UNL A   1      41.649  27.032  29.968  1.00  0.00    -0.248 NA
ATOM     43  C   UNL A   1      39.875  26.636  28.587  1.00  0.00     0.031 C 
ATOM     44  C   UNL A   1      42.283  29.732  30.673  1.00  0.00     0.029 A 
ATOM     45  N   UNL A   1      40.510  30.853  31.339  1.00  0.00    -0.354 N 
ATOM     46  C   UNL A   1      42.026  26.046  29.092  1.00  0.00     0.074 A 
ATOM     47  C   UNL A   1      40.818  25.709  28.389  1.00  0.00     0.031 C 
ATOM     48  C   UNL A   1      42.688  30.642  31.588  1.00  0.00     0.029 A 
ATOM     49  C   UNL A   1      41.498  31.114  32.287  1.00  0.00     0.049 A 
ATOM     50  H   UNL A   1      39.714  31.411  31.188  1.00  0.00     0.167 HD
ATOM     51  C   UNL A   1      43.359  25.771  28.992  1.00  0.00     0.037 A 
ATOM     52  C   UNL A   1      41.171  31.058  33.608  1.00  0.00     0.037 A 
ATOM     53  C   UNL A   1      44.106  26.480  30.054  1.00  0.00     0.049 A 
ATOM     54  C   UNL A   1      41.853  29.854  34.205  1.00  0.00     0.074 A 
ATOM     55  C   UNL A   1      45.023  27.517  30.104  1.00  0.00     0.029 A 
ATOM     56  N   UNL A   1      43.686  26.308  31.367  1.00  0.00    -0.354 N 
ATOM     57  N   UNL A   1      42.560  29.034  33.478  1.00  0.00    -0.248 NA
ATOM     58  C   UNL A   1      41.815  29.443  35.599  1.00  0.00     0.031 C 
ATOM     59  C   UNL A   1      45.105  27.975  31.467  1.00  0.00     0.029 A 
ATOM     60  C   UNL A   1      44.264  27.198  32.249  1.00  0.00     0.049 A 
ATOM     61  H   UNL A   1      43.040  25.619  31.641  1.00  0.00     0.167 HD
ATOM     62  C   UNL A   1      43.078  28.037  34.222  1.00  0.00     0.074 A 
ATOM     63  C   UNL A   1      42.534  28.302  35.551  1.00  0.00     0.031 C 
ATOM     64  C   UNL A   1      43.905  27.100  33.668  1.00  0.00     0.037 A 
BRANCH  51  65
ATOM     65  C   UNL A   1      44.021  24.985  27.869  1.00  0.00     0.058 A 
ATOM     66  C   UNL A   1      43.937  25.455  26.539  1.00  0.00     0.135 A 
ATOM     67  C   UNL A   1      44.693  23.745  27.995  1.00  0.00     0.135 A 
ATOM     68  F   UNL A   1      43.321  26.611  26.248  1.00  0.00    -0.206 F 
ATOM     69  C   UNL A   1      44.465  24.763  25.443  1.00  0.00     0.059 A 
ATOM     70  C   UNL A   1      45.262  23.054  26.920  1.00  0.00     0.059 A 
ATOM     71  F   UNL A   1      44.806  23.097  29.155  1.00  0.00    -0.206 F 
ATOM     72  C   UNL A   1      45.134  23.565  25.642  1.00  0.00     0.060 A 
BRANCH  72  73
ATOM     73  S   UNL A   1      45.820  22.686  24.227  1.00  0.00     0.124 S 
ATOM     74  O   UNL A   1      46.417  21.514  24.859  1.00  0.00    -0.237 OA
ATOM     75  O   UNL A   1      44.633  22.437  23.415  1.00  0.00    -0.237 OA
ATOM     76  O   UNL A   1      46.771  23.638  23.659  1.00  0.00    -0.744 OA
ENDBRANCH  72  73
ENDBRANCH  51  65
BRANCH  52  77
ATOM     77  C   UNL A   1      39.789  31.600  33.887  1.00  0.00     0.058 A 
ATOM     78  C   UNL A   1      39.591  33.004  33.875  1.00  0.00     0.135 A 
ATOM     79  C   UNL A   1      38.639  30.817  33.692  1.00  0.00     0.135 A 
ATOM     80  F   UNL A   1      40.646  33.828  33.993  1.00  0.00    -0.206 F 
ATOM     81  C   UNL A   1      38.349  33.593  33.582  1.00  0.00     0.059 A 
ATOM     82  C   UNL A   1      37.398  31.385  33.356  1.00  0.00     0.059 A 
ATOM     83  F   UNL A   1      38.737  29.481  33.681  1.00  0.00    -0.206 F 
ATOM     84  C   UNL A   1      37.268  32.773  33.263  1.00  0.00     0.060 A 
BRANCH  84  85
ATOM     85  S   UNL A   1      35.812  33.501  32.439  1.00  0.00     0.124 S 
ATOM     86  O   UNL A   1      36.106  34.927  32.489  1.00  0.00    -0.237 OA
ATOM     87  O   UNL A   1      35.861  32.892  31.111  1.00  0.00    -0.237 OA
ATOM     88  O   UNL A   1      34.705  33.045  33.271  1.00  0.00    -0.744 OA
ENDBRANCH  84  85
ENDBRANCH  52  77
BRANCH  64  89
ATOM     89  C   UNL A   1      44.414  25.947  34.468  1.00  0.00     0.058 A 
ATOM     90  C   UNL A   1      43.565  24.947  34.955  1.00  0.00     0.135 A 
ATOM     91  C   UNL A   1      45.781  25.832  34.800  1.00  0.00     0.135 A 
ATOM     92  F   UNL A   1      42.233  25.040  34.816  1.00  0.00    -0.206 F 
ATOM     93  C   UNL A   1      44.062  23.822  35.600  1.00  0.00     0.059 A 
ATOM     94  C   UNL A   1      46.286  24.762  35.513  1.00  0.00     0.059 A 
ATOM     95  F   UNL A   1      46.697  26.727  34.407  1.00  0.00    -0.206 F 
ATOM     96  C   UNL A   1      45.427  23.736  35.860  1.00  0.00     0.060 A 
BRANCH  96  97
ATOM     97  S   UNL A   1      46.079  22.268  36.657  1.00  0.00     0.124 S 
ATOM     98  O   UNL A   1      45.407  21.197  35.930  1.00  0.00    -0.237 OA
ATOM     99  O   UNL A   1      47.508  22.413  36.397  1.00  0.00    -0.237 OA
ATOM    100  O   UNL A   1      45.671  22.428  38.049  1.00  0.00    -0.744 OA
ENDBRANCH  96  97
ENDBRANCH  64  89
ENDBRANCH  38  39
ENDBRANCH  31  33
ENDBRANCH  30  31
ENDBRANCH  29  30
ENDBRANCH  28  29
ENDBRANCH   1  28
TORSDOF 20
ENDMDL
MODEL 2
REMARK VINA RESULT:     -11.8      1.628      4.289
REMARK SMILES Cc1ccc(N2C(=O)C[C@H](Sc3ccccc3C(=O)OCCOCCOC(=O)c3ccc(-c4c5nc(c(-c6c(F)cc(S(=O)(=O)[O-])cc6F)c6ccc([nH]6)c(-c6c(F)cc(S(=O)(=O)[O-])cc6F)c6nc(c(-c7c(F)cc(S(=O)(=O)[O-])cc7F)c7ccc4[nH]7)C=C6)C=C5)cc3)C2=O)cc1
REMARK SMILES IDX 23 1 22 2 21 3 20 4 18 5 19 6 17 7 12 8 13 9 14 10 16 11
REMARK SMILES IDX 15 12 11 13 10 14 6 15 7 16 95 17 8 18 9 19 96 20 5 21 1 22
REMARK SMILES IDX 2 23 3 24 98 25 4 26 97 27 24 28 25 29 26 30 27 31 28 32
REMARK SMILES IDX 29 33 30 34 94 35 31 36 93 37 32 38 33 39 34 40 87 41 35 42
REMARK SMILES IDX 92 43 86 44 88 45 36 46 91 47 85 48 84 49 37 51 71 52 50 53
REMARK SMILES IDX 70 54 51 55 54 56 69 57 89 58 52 59 53 60 68 62 90 63 55 64
REMARK SMILES IDX 38 65 39 66 48 67 40 68 41 69 47 70 49 71 42 72 43 73 44 74
REMARK SMILES IDX 45 75 46 76 72 77 73 78 82 79 74 80 75 81 81 82 83 83 76 84
REMARK SMILES IDX 77 85 78 86 79 87 80 88 56 89 57 90 66 91 58 92 59 93 65 94
REMARK SMILES IDX 67 95 60 96 61 97 62 98 63 99 64 100
REMARK H PARENT 88 50 54 61
REMARK Flexibility Score: inf
ROOT
ATOM      1  O   UNL A   1      34.085  27.439  26.341  1.00  0.00    -0.374 OA
ENDROOT
BRANCH   1   2
ATOM      2  C   UNL A   1      33.996  26.515  25.280  1.00  0.00     0.202 C 
BRANCH   2   3
ATOM      3  C   UNL A   1      34.848  25.418  25.770  1.00  0.00     0.261 C 
BRANCH   3   4
ATOM      4  O   UNL A   1      34.266  24.108  25.524  1.00  0.00    -0.460 OA
BRANCH   4   5
ATOM      5  C   UNL A   1      34.297  23.472  24.313  1.00  0.00     0.339 C 
ATOM      6  O   UNL A   1      34.661  23.903  23.251  1.00  0.00    -0.246 OA
BRANCH   5   7
ATOM      7  C   UNL A   1      33.826  22.084  24.528  1.00  0.00     0.073 A 
ATOM      8  C   UNL A   1      32.462  21.733  24.577  1.00  0.00     0.023 A 
ATOM      9  C   UNL A   1      32.152  20.363  24.639  1.00  0.00     0.016 A 
ATOM     10  C   UNL A   1      33.151  19.382  24.648  1.00  0.00     0.001 A 
ATOM     11  C   UNL A   1      34.820  21.089  24.632  1.00  0.00     0.017 A 
ATOM     12  C   UNL A   1      34.487  19.746  24.673  1.00  0.00     0.001 A 
BRANCH   8  13
ATOM     13  S   UNL A   1      31.081  22.862  24.828  1.00  0.00    -0.111 SA
BRANCH  13  14
ATOM     14  C   UNL A   1      31.555  24.460  24.095  1.00  0.00     0.151 C 
ATOM     15  N   UNL A   1      30.614  26.471  23.409  1.00  0.00    -0.250 N 
ATOM     16  C   UNL A   1      31.199  25.928  22.285  1.00  0.00     0.235 C 
ATOM     17  C   UNL A   1      30.771  25.673  24.518  1.00  0.00     0.247 C 
ATOM     18  O   UNL A   1      31.357  26.448  21.190  1.00  0.00    -0.274 OA
ATOM     19  C   UNL A   1      31.482  24.481  22.579  1.00  0.00     0.126 C 
ATOM     20  O   UNL A   1      30.498  25.979  25.672  1.00  0.00    -0.273 OA
BRANCH  15  21
ATOM     21  C   UNL A   1      29.900  27.687  23.422  1.00  0.00     0.052 A 
ATOM     22  C   UNL A   1      27.675  31.381  23.350  1.00  0.00     0.044 C 
ATOM     23  C   UNL A   1      28.447  30.096  23.339  1.00  0.00    -0.051 A 
ATOM     24  C   UNL A   1      29.822  30.096  23.614  1.00  0.00     0.005 A 
ATOM     25  C   UNL A   1      27.802  28.879  23.104  1.00  0.00     0.005 A 
ATOM     26  C   UNL A   1      30.552  28.904  23.610  1.00  0.00     0.027 A 
ATOM     27  C   UNL A   1      28.516  27.680  23.189  1.00  0.00     0.027 A 
ENDBRANCH  15  21
ENDBRANCH  13  14
ENDBRANCH   8  13
ENDBRANCH   5   7
ENDBRANCH   4   5
ENDBRANCH   3   4
ENDBRANCH   2   3
ENDBRANCH   1   2
BRANCH   1  28
ATOM     28  C   UNL A   1      32.897  28.142  26.490  1.00  0.00     0.202 C 
BRANCH  28  29
ATOM     29  C   UNL A   1      33.140  29.603  26.174  1.00  0.00     0.261 C 
BRANCH  29  30
ATOM     30  O   UNL A   1      33.183  30.386  27.397  1.00  0.00    -0.460 OA
BRANCH  30  31
ATOM     31  C   UNL A   1      34.287  31.162  27.637  1.00  0.00     0.338 C 
ATOM     32  O   UNL A   1      34.275  32.382  27.613  1.00  0.00    -0.246 OA
BRANCH  31  33
ATOM     33  C   UNL A   1      35.445  30.357  28.136  1.00  0.00     0.060 A 
ATOM     34  C   UNL A   1      35.458  29.768  29.416  1.00  0.00     0.016 A 
ATOM     35  C   UNL A   1      36.592  30.308  27.357  1.00  0.00     0.016 A 
ATOM     36  C   UNL A   1      36.670  29.324  29.988  1.00  0.00     0.010 A 
ATOM     37  C   UNL A   1      37.784  29.911  27.940  1.00  0.00     0.010 A 
ATOM     38  C   UNL A   1      37.857  29.486  29.281  1.00  0.00    -0.014 A 
BRANCH  38  39
ATOM     39  C   UNL A   1      39.230  29.253  29.778  1.00  0.00     0.031 A 
ATOM     40  C   UNL A   1      39.881  28.001  29.343  1.00  0.00     0.074 A 
ATOM     41  C   UNL A   1      40.001  30.224  30.346  1.00  0.00     0.049 A 
ATOM     42  N   UNL A   1      41.034  27.620  29.760  1.00  0.00    -0.248 NA
ATOM     43  C   UNL A   1      39.270  27.029  28.436  1.00  0.00     0.031 C 
ATOM     44  C   UNL A   1      41.462  30.388  30.348  1.00  0.00     0.029 A 
ATOM     45  N   UNL A   1      39.618  31.389  31.012  1.00  0.00    -0.354 N 
ATOM     46  C   UNL A   1      41.471  26.633  28.914  1.00  0.00     0.074 A 
ATOM     47  C   UNL A   1      40.280  26.174  28.252  1.00  0.00     0.031 C 
ATOM     48  C   UNL A   1      41.810  31.362  31.218  1.00  0.00     0.029 A 
ATOM     49  C   UNL A   1      40.600  31.765  31.926  1.00  0.00     0.049 A 
ATOM     50  H   UNL A   1      38.776  31.876  30.857  1.00  0.00     0.167 HD
ATOM     51  C   UNL A   1      42.819  26.461  28.793  1.00  0.00     0.037 A 
ATOM     52  C   UNL A   1      40.305  31.736  33.255  1.00  0.00     0.037 A 
ATOM     53  C   UNL A   1      43.528  27.270  29.811  1.00  0.00     0.049 A 
ATOM     54  C   UNL A   1      41.094  30.615  33.881  1.00  0.00     0.074 A 
ATOM     55  C   UNL A   1      44.360  28.377  29.801  1.00  0.00     0.029 A 
ATOM     56  N   UNL A   1      43.150  27.117  31.139  1.00  0.00    -0.354 N 
ATOM     57  N   UNL A   1      41.850  29.826  33.170  1.00  0.00    -0.248 NA
ATOM     58  C   UNL A   1      41.117  30.257  35.291  1.00  0.00     0.031 C 
ATOM     59  C   UNL A   1      44.431  28.894  31.142  1.00  0.00     0.029 A 
ATOM     60  C   UNL A   1      43.671  28.084  31.973  1.00  0.00     0.049 A 
ATOM     61  H   UNL A   1      42.566  26.389  31.453  1.00  0.00     0.167 HD
ATOM     62  C   UNL A   1      42.461  28.902  33.940  1.00  0.00     0.074 A 
ATOM     63  C   UNL A   1      41.924  29.176  35.269  1.00  0.00     0.031 C 
ATOM     64  C   UNL A   1      43.350  28.014  33.403  1.00  0.00     0.037 A 
BRANCH  51  65
ATOM     65  C   UNL A   1      43.520  25.687  27.686  1.00  0.00     0.058 A 
ATOM     66  C   UNL A   1      44.421  24.650  28.017  1.00  0.00     0.135 A 
ATOM     67  C   UNL A   1      43.417  25.932  26.295  1.00  0.00     0.135 A 
ATOM     68  F   UNL A   1      44.641  24.301  29.293  1.00  0.00    -0.206 F 
ATOM     69  C   UNL A   1      45.151  23.931  27.063  1.00  0.00     0.059 A 
ATOM     70  C   UNL A   1      44.107  25.201  25.322  1.00  0.00     0.059 A 
ATOM     71  F   UNL A   1      42.681  26.921  25.787  1.00  0.00    -0.206 F 
ATOM     72  C   UNL A   1      44.983  24.206  25.715  1.00  0.00     0.060 A 
BRANCH  72  73
ATOM     73  S   UNL A   1      45.917  23.269  24.493  1.00  0.00     0.124 S 
ATOM     74  O   UNL A   1      46.406  22.144  25.284  1.00  0.00    -0.237 OA
ATOM     75  O   UNL A   1      44.895  22.954  23.500  1.00  0.00    -0.237 OA
ATOM     76  O   UNL A   1      46.944  24.210  24.051  1.00  0.00    -0.744 OA
ENDBRANCH  72  73
ENDBRANCH  51  65
BRANCH  52  77
ATOM     77  C   UNL A   1      38.889  32.177  33.545  1.00  0.00     0.058 A 
ATOM     78  C   UNL A   1      38.571  33.555  33.454  1.00  0.00     0.135 A 
ATOM     79  C   UNL A   1      37.806  31.289  33.436  1.00  0.00     0.135 A 
ATOM     80  F   UNL A   1      39.555  34.471  33.486  1.00  0.00    -0.206 F 
ATOM     81  C   UNL A   1      37.276  34.018  33.165  1.00  0.00     0.059 A 
ATOM     82  C   UNL A   1      36.512  31.728  33.106  1.00  0.00     0.059 A 
ATOM     83  F   UNL A   1      38.018  29.967  33.503  1.00  0.00    -0.206 F 
ATOM     84  C   UNL A   1      36.261  33.091  32.932  1.00  0.00     0.060 A 
BRANCH  84  85
ATOM     85  S   UNL A   1      34.727  33.641  32.113  1.00  0.00     0.124 S 
ATOM     86  O   UNL A   1      35.016  35.036  31.813  1.00  0.00    -0.237 OA
ATOM     87  O   UNL A   1      34.647  32.749  30.957  1.00  0.00    -0.237 OA
ATOM     88  O   UNL A   1      33.710  33.401  33.131  1.00  0.00    -0.744 OA
ENDBRANCH  84  85
ENDBRANCH  52  77
BRANCH  64  89
ATOM     89  C   UNL A   1      43.965  26.938  34.233  1.00  0.00     0.058 A 
ATOM     90  C   UNL A   1      43.231  25.837  34.690  1.00  0.00     0.135 A 
ATOM     91  C   UNL A   1      45.319  27.000  34.627  1.00  0.00     0.135 A 
ATOM     92  F   UNL A   1      41.905  25.758  34.491  1.00  0.00    -0.206 F 
ATOM     93  C   UNL A   1      43.838  24.787  35.365  1.00  0.00     0.059 A 
ATOM     94  C   UNL A   1      45.925  26.006  35.371  1.00  0.00     0.059 A 
ATOM     95  F   UNL A   1      46.129  28.005  34.268  1.00  0.00    -0.206 F 
ATOM     96  C   UNL A   1      45.190  24.878  35.687  1.00  0.00     0.060 A 
BRANCH  96  97
ATOM     97  S   UNL A   1      45.988  23.508  36.524  1.00  0.00     0.124 S 
ATOM     98  O   UNL A   1      47.050  23.151  35.589  1.00  0.00    -0.237 OA
ATOM     99  O   UNL A   1      46.422  24.146  37.764  1.00  0.00    -0.237 OA
ATOM    100  O   UNL A   1      44.920  22.524  36.660  1.00  0.00    -0.744 OA
ENDBRANCH  96  97
ENDBRANCH  64  89
ENDBRANCH  38  39
ENDBRANCH  31  33
ENDBRANCH  30  31
ENDBRANCH  29  30
ENDBRANCH  28  29
ENDBRANCH   1  28
TORSDOF 20
ENDMDL
MODEL 3
REMARK VINA RESULT:     -10.8      3.681     10.275
REMARK SMILES Cc1ccc(N2C(=O)C[C@H](Sc3ccccc3C(=O)OCCOCCOC(=O)c3ccc(-c4c5nc(c(-c6c(F)cc(S(=O)(=O)[O-])cc6F)c6ccc([nH]6)c(-c6c(F)cc(S(=O)(=O)[O-])cc6F)c6nc(c(-c7c(F)cc(S(=O)(=O)[O-])cc7F)c7ccc4[nH]7)C=C6)C=C5)cc3)C2=O)cc1
REMARK SMILES IDX 23 1 22 2 21 3 20 4 18 5 19 6 17 7 12 8 13 9 14 10 16 11
REMARK SMILES IDX 15 12 11 13 10 14 6 15 7 16 95 17 8 18 9 19 96 20 5 21 1 22
REMARK SMILES IDX 2 23 3 24 98 25 4 26 97 27 24 28 25 29 26 30 27 31 28 32
REMARK SMILES IDX 29 33 30 34 94 35 31 36 93 37 32 38 33 39 34 40 87 41 35 42
REMARK SMILES IDX 92 43 86 44 88 45 36 46 91 47 85 48 84 49 37 51 71 52 50 53
REMARK SMILES IDX 70 54 51 55 54 56 69 57 89 58 52 59 53 60 68 62 90 63 55 64
REMARK SMILES IDX 38 65 39 66 48 67 40 68 41 69 47 70 49 71 42 72 43 73 44 74
REMARK SMILES IDX 45 75 46 76 72 77 73 78 82 79 74 80 75 81 81 82 83 83 76 84
REMARK SMILES IDX 77 85 78 86 79 87 80 88 56 89 57 90 66 91 58 92 59 93 65 94
REMARK SMILES IDX 67 95 60 96 61 97 62 98 63 99 64 100
REMARK H PARENT 88 50 54 61
REMARK Flexibility Score: inf
ROOT
ATOM      1  O   UNL A   1      44.515  23.957  26.080  1.00  0.00    -0.374 OA
ENDROOT
BRANCH   1   2
ATOM      2  C   UNL A   1      44.765  22.662  25.582  1.00  0.00     0.202 C 
BRANCH   2   3
ATOM      3  C   UNL A   1      43.409  22.088  25.556  1.00  0.00     0.261 C 
BRANCH   3   4
ATOM      4  O   UNL A   1      42.824  21.980  26.882  1.00  0.00    -0.460 OA
BRANCH   4   5
ATOM      5  C   UNL A   1      41.495  21.751  27.117  1.00  0.00     0.339 C 
ATOM      6  O   UNL A   1      40.926  20.698  27.223  1.00  0.00    -0.246 OA
BRANCH   5   7
ATOM      7  C   UNL A   1      40.838  23.071  27.271  1.00  0.00     0.073 A 
ATOM      8  C   UNL A   1      39.515  23.323  26.856  1.00  0.00     0.023 A 
ATOM      9  C   UNL A   1      38.962  24.571  27.193  1.00  0.00     0.016 A 
ATOM     10  C   UNL A   1      39.689  25.527  27.914  1.00  0.00     0.001 A 
ATOM     11  C   UNL A   1      41.587  24.078  27.913  1.00  0.00     0.017 A 
ATOM     12  C   UNL A   1      41.012  25.292  28.250  1.00  0.00     0.001 A 
BRANCH   8  13
ATOM     13  S   UNL A   1      38.546  22.317  25.719  1.00  0.00    -0.111 SA
BRANCH  13  14
ATOM     14  C   UNL A   1      37.105  23.311  25.217  1.00  0.00     0.151 C 
ATOM     15  N   UNL A   1      34.784  23.229  25.198  1.00  0.00    -0.250 N 
ATOM     16  C   UNL A   1      35.164  23.350  23.879  1.00  0.00     0.235 C 
ATOM     17  C   UNL A   1      35.860  23.195  26.053  1.00  0.00     0.247 C 
ATOM     18  O   UNL A   1      34.455  23.547  22.904  1.00  0.00    -0.274 OA
ATOM     19  C   UNL A   1      36.631  23.027  23.803  1.00  0.00     0.126 C 
ATOM     20  O   UNL A   1      35.814  23.255  27.276  1.00  0.00    -0.273 OA
BRANCH  15  21
ATOM     21  C   UNL A   1      33.446  23.113  25.631  1.00  0.00     0.052 A 
ATOM     22  C   UNL A   1      29.322  22.734  26.836  1.00  0.00     0.044 C 
ATOM     23  C   UNL A   1      30.745  22.870  26.382  1.00  0.00    -0.051 A 
ATOM     24  C   UNL A   1      31.465  24.040  26.662  1.00  0.00     0.005 A 
ATOM     25  C   UNL A   1      31.386  21.821  25.721  1.00  0.00     0.005 A 
ATOM     26  C   UNL A   1      32.793  24.178  26.248  1.00  0.00     0.027 A 
ATOM     27  C   UNL A   1      32.739  21.925  25.388  1.00  0.00     0.027 A 
ENDBRANCH  15  21
ENDBRANCH  13  14
ENDBRANCH   8  13
ENDBRANCH   5   7
ENDBRANCH   4   5
ENDBRANCH   3   4
ENDBRANCH   2   3
ENDBRANCH   1   2
BRANCH   1  28
ATOM     28  C   UNL A   1      43.967  24.772  25.097  1.00  0.00     0.202 C 
BRANCH  28  29
ATOM     29  C   UNL A   1      44.311  26.216  25.399  1.00  0.00     0.261 C 
BRANCH  29  30
ATOM     30  O   UNL A   1      43.275  26.822  26.218  1.00  0.00    -0.460 OA
BRANCH  30  31
ATOM     31  C   UNL A   1      42.642  27.943  25.747  1.00  0.00     0.338 C 
ATOM     32  O   UNL A   1      42.336  28.105  24.577  1.00  0.00    -0.246 OA
BRANCH  31  33
ATOM     33  C   UNL A   1      42.184  28.839  26.853  1.00  0.00     0.060 A 
ATOM     34  C   UNL A   1      43.073  29.661  27.575  1.00  0.00     0.016 A 
ATOM     35  C   UNL A   1      40.861  28.752  27.262  1.00  0.00     0.016 A 
ATOM     36  C   UNL A   1      42.689  30.219  28.813  1.00  0.00     0.010 A 
ATOM     37  C   UNL A   1      40.504  29.265  28.498  1.00  0.00     0.010 A 
ATOM     38  C   UNL A   1      41.425  29.938  29.324  1.00  0.00    -0.014 A 
BRANCH  38  39
ATOM     39  C   UNL A   1      40.912  30.274  30.670  1.00  0.00     0.031 A 
ATOM     40  C   UNL A   1      40.140  31.528  30.781  1.00  0.00     0.074 A 
ATOM     41  C   UNL A   1      40.862  29.385  31.702  1.00  0.00     0.049 A 
ATOM     42  N   UNL A   1      39.705  31.996  31.895  1.00  0.00    -0.248 NA
ATOM     43  C   UNL A   1      39.827  32.405  29.652  1.00  0.00     0.031 C 
ATOM     44  C   UNL A   1      39.921  29.299  32.828  1.00  0.00     0.029 A 
ATOM     45  N   UNL A   1      41.636  28.248  31.936  1.00  0.00    -0.354 N 
ATOM     46  C   UNL A   1      38.762  32.947  31.601  1.00  0.00     0.074 A 
ATOM     47  C   UNL A   1      39.020  33.298  30.231  1.00  0.00     0.031 C 
ATOM     48  C   UNL A   1      40.375  28.404  33.734  1.00  0.00     0.029 A 
ATOM     49  C   UNL A   1      41.703  27.985  33.303  1.00  0.00     0.049 A 
ATOM     50  H   UNL A   1      42.070  27.708  31.236  1.00  0.00     0.167 HD
ATOM     51  C   UNL A   1      37.795  33.182  32.535  1.00  0.00     0.037 A 
ATOM     52  C   UNL A   1      42.907  28.086  33.931  1.00  0.00     0.037 A 
ATOM     53  C   UNL A   1      38.125  32.480  33.796  1.00  0.00     0.049 A 
ATOM     54  C   UNL A   1      42.856  29.286  34.842  1.00  0.00     0.074 A 
ATOM     55  C   UNL A   1      37.597  31.420  34.514  1.00  0.00     0.029 A 
ATOM     56  N   UNL A   1      39.380  32.700  34.350  1.00  0.00    -0.354 N 
ATOM     57  N   UNL A   1      41.812  30.066  34.894  1.00  0.00    -0.248 NA
ATOM     58  C   UNL A   1      43.911  29.736  35.737  1.00  0.00     0.031 C 
ATOM     59  C   UNL A   1      38.582  30.997  35.475  1.00  0.00     0.029 A 
ATOM     60  C   UNL A   1      39.694  31.818  35.364  1.00  0.00     0.049 A 
ATOM     61  H   UNL A   1      39.985  33.415  34.049  1.00  0.00     0.167 HD
ATOM     62  C   UNL A   1      41.989  31.068  35.778  1.00  0.00     0.074 A 
ATOM     63  C   UNL A   1      43.354  30.854  36.248  1.00  0.00     0.031 C 
ATOM     64  C   UNL A   1      40.990  31.966  36.034  1.00  0.00     0.037 A 
BRANCH  51  65
ATOM     65  C   UNL A   1      36.485  33.918  32.291  1.00  0.00     0.058 A 
ATOM     66  C   UNL A   1      36.037  34.880  33.223  1.00  0.00     0.135 A 
ATOM     67  C   UNL A   1      35.587  33.700  31.218  1.00  0.00     0.135 A 
ATOM     68  F   UNL A   1      36.767  35.194  34.304  1.00  0.00    -0.206 F 
ATOM     69  C   UNL A   1      34.817  35.557  33.105  1.00  0.00     0.059 A 
ATOM     70  C   UNL A   1      34.381  34.392  31.059  1.00  0.00     0.059 A 
ATOM     71  F   UNL A   1      35.791  32.776  30.279  1.00  0.00    -0.206 F 
ATOM     72  C   UNL A   1      33.997  35.313  32.014  1.00  0.00     0.060 A 
BRANCH  72  73
ATOM     73  S   UNL A   1      32.434  36.196  31.864  1.00  0.00     0.124 S 
ATOM     74  O   UNL A   1      32.357  36.434  30.426  1.00  0.00    -0.237 OA
ATOM     75  O   UNL A   1      31.482  35.229  32.401  1.00  0.00    -0.237 OA
ATOM     76  O   UNL A   1      32.634  37.390  32.681  1.00  0.00    -0.744 OA
ENDBRANCH  72  73
ENDBRANCH  51  65
BRANCH  52  77
ATOM     77  C   UNL A   1      44.051  27.591  33.078  1.00  0.00     0.058 A 
ATOM     78  C   UNL A   1      45.012  28.525  32.615  1.00  0.00     0.135 A 
ATOM     79  C   UNL A   1      44.468  26.250  33.114  1.00  0.00     0.135 A 
ATOM     80  F   UNL A   1      44.718  29.837  32.606  1.00  0.00    -0.206 F 
ATOM     81  C   UNL A   1      46.335  28.165  32.309  1.00  0.00     0.059 A 
ATOM     82  C   UNL A   1      45.797  25.874  32.852  1.00  0.00     0.059 A 
ATOM     83  F   UNL A   1      43.625  25.302  33.546  1.00  0.00    -0.206 F 
ATOM     84  C   UNL A   1      46.736  26.841  32.489  1.00  0.00     0.060 A 
BRANCH  84  85
ATOM     85  S   UNL A   1      48.518  26.454  32.552  1.00  0.00     0.124 S 
ATOM     86  O   UNL A   1      48.637  25.737  33.814  1.00  0.00    -0.237 OA
ATOM     87  O   UNL A   1      48.711  25.649  31.347  1.00  0.00    -0.237 OA
ATOM     88  O   UNL A   1      49.140  27.772  32.503  1.00  0.00    -0.744 OA
ENDBRANCH  84  85
ENDBRANCH  52  77
BRANCH  64  89
ATOM     89  C   UNL A   1      41.208  33.125  36.948  1.00  0.00     0.058 A 
ATOM     90  C   UNL A   1      40.456  33.306  38.114  1.00  0.00     0.135 A 
ATOM     91  C   UNL A   1      42.168  34.118  36.656  1.00  0.00     0.135 A 
ATOM     92  F   UNL A   1      39.426  32.497  38.407  1.00  0.00    -0.206 F 
ATOM     93  C   UNL A   1      40.743  34.324  39.014  1.00  0.00     0.059 A 
ATOM     94  C   UNL A   1      42.413  35.187  37.496  1.00  0.00     0.059 A 
ATOM     95  F   UNL A   1      42.945  34.071  35.565  1.00  0.00    -0.206 F 
ATOM     96  C   UNL A   1      41.735  35.250  38.699  1.00  0.00     0.060 A 
BRANCH  96  97
ATOM     97  S   UNL A   1      42.135  36.543  39.874  1.00  0.00     0.124 S 
ATOM     98  O   UNL A   1      43.437  36.114  40.374  1.00  0.00    -0.237 OA
ATOM     99  O   UNL A   1      42.142  37.721  39.010  1.00  0.00    -0.237 OA
ATOM    100  O   UNL A   1      41.043  36.475  40.839  1.00  0.00    -0.744 OA
ENDBRANCH  96  97
ENDBRANCH  64  89
ENDBRANCH  38  39
ENDBRANCH  31  33
ENDBRANCH  30  31
ENDBRANCH  29  30
ENDBRANCH  28  29
ENDBRANCH   1  28
TORSDOF 20
ENDMDL
