MODEL 1
REMARK VINA RESULT:     -10.0      0.000      0.000
REMARK SMILES C=CCN(CC(=O)OCCOCCOC(=O)c1ccc(-c2c3nc(c(-c4c(F)cc(S(=O)(=O)[O-])cc4F)c4ccc([nH]4)c(-c4c(F)cc(S(=O)(=O)[O-])cc4F)c4nc(c(-c5c(F)cc(S(=O)(=O)[O-])cc5F)c5ccc2[nH]5)C=C4)C=C3)cc1)C(=O)[C@@H]1[C@H](C)[C@H](C)O[C@@H]1C
REMARK SMILES IDX 11 1 10 2 9 3 8 4 6 5 7 6 5 7 4 8 3 9 2 10 1 11 83 12 84 13
REMARK SMILES IDX 85 14 86 15 91 16 87 17 88 18 90 19 92 20 89 21 12 22 13 23
REMARK SMILES IDX 14 24 15 25 16 26 17 27 18 28 82 29 19 30 81 31 20 32 21 33
REMARK SMILES IDX 22 34 75 35 23 36 80 37 74 38 76 39 24 40 79 41 73 42 72 43
REMARK SMILES IDX 25 45 59 46 38 47 58 48 39 49 42 50 57 51 77 52 40 53 41 54
REMARK SMILES IDX 56 56 78 57 43 58 26 59 27 60 36 61 28 62 29 63 35 64 37 65
REMARK SMILES IDX 30 66 31 67 32 68 33 69 34 70 60 71 61 72 70 73 62 74 63 75
REMARK SMILES IDX 69 76 71 77 64 78 65 79 66 80 67 81 68 82 44 83 45 84 54 85
REMARK SMILES IDX 46 86 47 87 53 88 55 89 48 90 49 91 50 92 51 93 52 94
REMARK H PARENT 76 44 42 55
REMARK Flexibility Score: inf
ROOT
ATOM      1  O   UNL A   1      33.266  29.876  26.274  1.00  0.00    -0.374 OA
ENDROOT
BRANCH   1   2
ATOM      2  C   UNL A   1      32.074  30.005  25.497  1.00  0.00     0.202 C 
BRANCH   2   3
ATOM      3  C   UNL A   1      32.056  29.108  24.237  1.00  0.00     0.261 C 
BRANCH   3   4
ATOM      4  O   UNL A   1      33.396  29.032  23.657  1.00  0.00    -0.462 OA
BRANCH   4   5
ATOM      5  C   UNL A   1      33.649  27.880  22.970  1.00  0.00     0.325 C 
ATOM      6  O   UNL A   1      34.040  27.866  21.805  1.00  0.00    -0.250 OA
BRANCH   5   7
ATOM      7  C   UNL A   1      33.640  26.578  23.835  1.00  0.00     0.242 C 
BRANCH   7   8
ATOM      8  N   UNL A   1      33.216  25.239  23.369  1.00  0.00    -0.328 N 
BRANCH   8   9
ATOM      9  C   UNL A   1      31.898  25.223  22.718  1.00  0.00     0.147 C 
BRANCH   9  10
ATOM     10  C   UNL A   1      30.799  25.063  23.736  1.00  0.00    -0.014 C 
ATOM     11  C   UNL A   1      29.891  26.017  23.994  1.00  0.00     0.006 C 
ENDBRANCH   9  10
ENDBRANCH   8   9
BRANCH   8  12
ATOM     12  C   UNL A   1      33.886  24.015  23.430  1.00  0.00     0.229 C 
ATOM     13  O   UNL A   1      34.245  23.474  22.370  1.00  0.00    -0.274 OA
BRANCH  12  14
ATOM     14  C   UNL A   1      34.167  23.155  24.690  1.00  0.00     0.113 C 
ATOM     15  C   UNL A   1      35.594  23.006  25.176  1.00  0.00     0.030 C 
ATOM     16  C   UNL A   1      33.457  21.869  25.077  1.00  0.00     0.128 C 
ATOM     17  C   UNL A   1      36.602  23.282  24.122  1.00  0.00     0.011 C 
ATOM     18  C   UNL A   1      35.696  21.601  25.768  1.00  0.00     0.119 C 
ATOM     19  O   UNL A   1      34.356  21.126  25.932  1.00  0.00    -0.374 OA
ATOM     20  C   UNL A   1      32.960  20.930  24.001  1.00  0.00     0.039 C 
ATOM     21  C   UNL A   1      36.487  20.565  24.967  1.00  0.00     0.039 C 
ENDBRANCH  12  14
ENDBRANCH   8  12
ENDBRANCH   7   8
ENDBRANCH   5   7
ENDBRANCH   4   5
ENDBRANCH   3   4
ENDBRANCH   2   3
ENDBRANCH   1   2
BRANCH   1  22
ATOM     22  C   UNL A   1      33.704  30.838  27.245  1.00  0.00     0.202 C 
BRANCH  22  23
ATOM     23  C   UNL A   1      32.951  32.145  27.605  1.00  0.00     0.261 C 
BRANCH  23  24
ATOM     24  O   UNL A   1      33.752  33.312  27.496  1.00  0.00    -0.460 OA
BRANCH  24  25
ATOM     25  C   UNL A   1      33.559  34.167  28.517  1.00  0.00     0.338 C 
ATOM     26  O   UNL A   1      32.560  34.820  28.749  1.00  0.00    -0.246 OA
BRANCH  25  27
ATOM     27  C   UNL A   1      34.649  33.955  29.477  1.00  0.00     0.060 A 
ATOM     28  C   UNL A   1      35.923  34.281  29.012  1.00  0.00     0.016 A 
ATOM     29  C   UNL A   1      34.447  33.447  30.765  1.00  0.00     0.016 A 
ATOM     30  C   UNL A   1      37.025  33.985  29.792  1.00  0.00     0.010 A 
ATOM     31  C   UNL A   1      35.561  33.151  31.552  1.00  0.00     0.010 A 
ATOM     32  C   UNL A   1      36.849  33.358  31.033  1.00  0.00    -0.014 A 
BRANCH  32  33
ATOM     33  C   UNL A   1      38.042  32.729  31.633  1.00  0.00     0.031 A 
ATOM     34  C   UNL A   1      38.491  33.220  32.984  1.00  0.00     0.074 A 
ATOM     35  C   UNL A   1      38.591  31.648  31.056  1.00  0.00     0.049 A 
ATOM     36  N   UNL A   1      39.397  32.725  33.783  1.00  0.00    -0.248 NA
ATOM     37  C   UNL A   1      37.819  34.422  33.512  1.00  0.00     0.031 C 
ATOM     38  C   UNL A   1      38.186  31.083  29.768  1.00  0.00     0.029 A 
ATOM     39  N   UNL A   1      39.585  30.813  31.491  1.00  0.00    -0.354 N 
ATOM     40  C   UNL A   1      39.399  33.548  34.905  1.00  0.00     0.074 A 
ATOM     41  C   UNL A   1      38.430  34.593  34.674  1.00  0.00     0.031 C 
ATOM     42  C   UNL A   1      38.923  29.987  29.520  1.00  0.00     0.029 A 
ATOM     43  C   UNL A   1      39.857  29.782  30.625  1.00  0.00     0.049 A 
ATOM     44  H   UNL A   1      40.062  30.941  32.344  1.00  0.00     0.167 HD
ATOM     45  C   UNL A   1      40.138  33.427  36.031  1.00  0.00     0.037 A 
ATOM     46  C   UNL A   1      40.761  28.789  30.722  1.00  0.00     0.037 A 
ATOM     47  C   UNL A   1      41.088  32.368  36.244  1.00  0.00     0.049 A 
ATOM     48  C   UNL A   1      41.594  28.700  31.975  1.00  0.00     0.074 A 
ATOM     49  C   UNL A   1      41.884  32.135  37.349  1.00  0.00     0.029 A 
ATOM     50  N   UNL A   1      41.367  31.367  35.325  1.00  0.00    -0.354 N 
ATOM     51  N   UNL A   1      41.563  29.466  33.041  1.00  0.00    -0.248 NA
ATOM     52  C   UNL A   1      42.574  27.610  32.045  1.00  0.00     0.031 C 
ATOM     53  C   UNL A   1      42.680  31.016  37.080  1.00  0.00     0.029 A 
ATOM     54  C   UNL A   1      42.344  30.526  35.827  1.00  0.00     0.049 A 
ATOM     55  H   UNL A   1      40.935  31.269  34.446  1.00  0.00     0.167 HD
ATOM     56  C   UNL A   1      42.508  28.941  33.915  1.00  0.00     0.074 A 
ATOM     57  C   UNL A   1      43.076  27.779  33.260  1.00  0.00     0.031 C 
ATOM     58  C   UNL A   1      42.882  29.377  35.143  1.00  0.00     0.037 A 
BRANCH  45  59
ATOM     59  C   UNL A   1      39.969  34.467  37.102  1.00  0.00     0.058 A 
ATOM     60  C   UNL A   1      40.567  35.733  37.008  1.00  0.00     0.135 A 
ATOM     61  C   UNL A   1      39.151  34.210  38.213  1.00  0.00     0.135 A 
ATOM     62  F   UNL A   1      41.381  36.022  35.979  1.00  0.00    -0.206 F 
ATOM     63  C   UNL A   1      40.360  36.709  37.978  1.00  0.00     0.059 A 
ATOM     64  C   UNL A   1      38.913  35.178  39.185  1.00  0.00     0.059 A 
ATOM     65  F   UNL A   1      38.566  33.011  38.359  1.00  0.00    -0.206 F 
ATOM     66  C   UNL A   1      39.525  36.424  39.060  1.00  0.00     0.060 A 
BRANCH  66  67
ATOM     67  S   UNL A   1      39.228  37.715  40.289  1.00  0.00     0.124 S 
ATOM     68  O   UNL A   1      40.564  38.281  40.446  1.00  0.00    -0.237 OA
ATOM     69  O   UNL A   1      38.254  38.569  39.615  1.00  0.00    -0.237 OA
ATOM     70  O   UNL A   1      38.718  36.978  41.440  1.00  0.00    -0.744 OA
ENDBRANCH  66  67
ENDBRANCH  45  59
BRANCH  46  71
ATOM     71  C   UNL A   1      40.937  27.823  29.605  1.00  0.00     0.058 A 
ATOM     72  C   UNL A   1      40.026  26.781  29.378  1.00  0.00     0.135 A 
ATOM     73  C   UNL A   1      42.045  27.917  28.746  1.00  0.00     0.135 A 
ATOM     74  F   UNL A   1      38.953  26.643  30.172  1.00  0.00    -0.206 F 
ATOM     75  C   UNL A   1      40.218  25.854  28.358  1.00  0.00     0.059 A 
ATOM     76  C   UNL A   1      42.244  27.020  27.704  1.00  0.00     0.059 A 
ATOM     77  F   UNL A   1      42.939  28.905  28.908  1.00  0.00    -0.206 F 
ATOM     78  C   UNL A   1      41.334  25.979  27.528  1.00  0.00     0.060 A 
BRANCH  78  79
ATOM     79  S   UNL A   1      41.570  24.785  26.193  1.00  0.00     0.124 S 
ATOM     80  O   UNL A   1      41.853  25.661  25.063  1.00  0.00    -0.237 OA
ATOM     81  O   UNL A   1      42.692  23.991  26.684  1.00  0.00    -0.237 OA
ATOM     82  O   UNL A   1      40.290  24.083  26.144  1.00  0.00    -0.744 OA
ENDBRANCH  78  79
ENDBRANCH  46  71
BRANCH  58  83
ATOM     83  C   UNL A   1      43.938  28.585  35.856  1.00  0.00     0.058 A 
ATOM     84  C   UNL A   1      45.299  28.904  35.731  1.00  0.00     0.135 A 
ATOM     85  C   UNL A   1      43.582  27.528  36.707  1.00  0.00     0.135 A 
ATOM     86  F   UNL A   1      45.687  29.905  34.926  1.00  0.00    -0.206 F 
ATOM     87  C   UNL A   1      46.275  28.181  36.406  1.00  0.00     0.059 A 
ATOM     88  C   UNL A   1      44.540  26.808  37.412  1.00  0.00     0.059 A 
ATOM     89  F   UNL A   1      42.292  27.195  36.871  1.00  0.00    -0.206 F 
ATOM     90  C   UNL A   1      45.885  27.133  37.242  1.00  0.00     0.060 A 
BRANCH  90  91
ATOM     91  S   UNL A   1      47.160  26.214  38.128  1.00  0.00     0.124 S 
ATOM     92  O   UNL A   1      48.378  26.745  37.523  1.00  0.00    -0.237 OA
ATOM     93  O   UNL A   1      46.922  26.600  39.515  1.00  0.00    -0.237 OA
ATOM     94  O   UNL A   1      46.856  24.822  37.810  1.00  0.00    -0.744 OA
ENDBRANCH  90  91
ENDBRANCH  58  83
ENDBRANCH  32  33
ENDBRANCH  25  27
ENDBRANCH  24  25
ENDBRANCH  23  24
ENDBRANCH  22  23
ENDBRANCH   1  22
TORSDOF 22
ENDMDL
MODEL 2
REMARK VINA RESULT:      -9.9      2.628      4.167
REMARK SMILES C=CCN(CC(=O)OCCOCCOC(=O)c1ccc(-c2c3nc(c(-c4c(F)cc(S(=O)(=O)[O-])cc4F)c4ccc([nH]4)c(-c4c(F)cc(S(=O)(=O)[O-])cc4F)c4nc(c(-c5c(F)cc(S(=O)(=O)[O-])cc5F)c5ccc2[nH]5)C=C4)C=C3)cc1)C(=O)[C@@H]1[C@H](C)[C@H](C)O[C@@H]1C
REMARK SMILES IDX 11 1 10 2 9 3 8 4 6 5 7 6 5 7 4 8 3 9 2 10 1 11 83 12 84 13
REMARK SMILES IDX 85 14 86 15 91 16 87 17 88 18 90 19 92 20 89 21 12 22 13 23
REMARK SMILES IDX 14 24 15 25 16 26 17 27 18 28 82 29 19 30 81 31 20 32 21 33
REMARK SMILES IDX 22 34 75 35 23 36 80 37 74 38 76 39 24 40 79 41 73 42 72 43
REMARK SMILES IDX 25 45 59 46 38 47 58 48 39 49 42 50 57 51 77 52 40 53 41 54
REMARK SMILES IDX 56 56 78 57 43 58 26 59 27 60 36 61 28 62 29 63 35 64 37 65
REMARK SMILES IDX 30 66 31 67 32 68 33 69 34 70 60 71 61 72 70 73 62 74 63 75
REMARK SMILES IDX 69 76 71 77 64 78 65 79 66 80 67 81 68 82 44 83 45 84 54 85
REMARK SMILES IDX 46 86 47 87 53 88 55 89 48 90 49 91 50 92 51 93 52 94
REMARK H PARENT 76 44 42 55
REMARK Flexibility Score: inf
ROOT
ATOM      1  O   UNL A   1      32.052  29.344  24.209  1.00  0.00    -0.374 OA
ENDROOT
BRANCH   1   2
ATOM      2  C   UNL A   1      32.950  28.520  23.464  1.00  0.00     0.202 C 
BRANCH   2   3
ATOM      3  C   UNL A   1      32.684  27.005  23.629  1.00  0.00     0.261 C 
BRANCH   3   4
ATOM      4  O   UNL A   1      33.876  26.341  24.152  1.00  0.00    -0.462 OA
BRANCH   4   5
ATOM      5  C   UNL A   1      33.778  25.947  25.455  1.00  0.00     0.325 C 
ATOM      6  O   UNL A   1      32.983  26.444  26.249  1.00  0.00    -0.250 OA
BRANCH   5   7
ATOM      7  C   UNL A   1      34.577  24.652  25.817  1.00  0.00     0.242 C 
BRANCH   7   8
ATOM      8  N   UNL A   1      35.127  23.681  24.845  1.00  0.00    -0.328 N 
BRANCH   8   9
ATOM      9  C   UNL A   1      36.572  23.821  24.614  1.00  0.00     0.147 C 
BRANCH   9  10
ATOM     10  C   UNL A   1      37.357  23.207  25.744  1.00  0.00    -0.014 C 
ATOM     11  C   UNL A   1      38.314  23.864  26.417  1.00  0.00     0.006 C 
ENDBRANCH   9  10
ENDBRANCH   8   9
BRANCH   8  12
ATOM     12  C   UNL A   1      34.490  22.652  24.149  1.00  0.00     0.229 C 
ATOM     13  O   UNL A   1      34.574  22.626  22.908  1.00  0.00    -0.274 OA
BRANCH  12  14
ATOM     14  C   UNL A   1      33.574  21.544  24.731  1.00  0.00     0.113 C 
ATOM     15  C   UNL A   1      34.206  20.328  25.376  1.00  0.00     0.030 C 
ATOM     16  C   UNL A   1      32.256  21.069  24.145  1.00  0.00     0.128 C 
ATOM     17  C   UNL A   1      35.605  20.096  24.937  1.00  0.00     0.011 C 
ATOM     18  C   UNL A   1      33.271  19.157  25.079  1.00  0.00     0.119 C 
ATOM     19  O   UNL A   1      32.038  19.721  24.620  1.00  0.00    -0.374 OA
ATOM     20  C   UNL A   1      32.055  21.069  22.646  1.00  0.00     0.039 C 
ATOM     21  C   UNL A   1      33.748  18.127  24.053  1.00  0.00     0.039 C 
ENDBRANCH  12  14
ENDBRANCH   8  12
ENDBRANCH   7   8
ENDBRANCH   5   7
ENDBRANCH   4   5
ENDBRANCH   3   4
ENDBRANCH   2   3
ENDBRANCH   1   2
BRANCH   1  22
ATOM     22  C   UNL A   1      32.292  29.787  25.552  1.00  0.00     0.202 C 
BRANCH  22  23
ATOM     23  C   UNL A   1      33.653  29.699  26.290  1.00  0.00     0.261 C 
BRANCH  23  24
ATOM     24  O   UNL A   1      33.593  30.106  27.648  1.00  0.00    -0.460 OA
BRANCH  24  25
ATOM     25  C   UNL A   1      34.494  31.061  27.941  1.00  0.00     0.338 C 
ATOM     26  O   UNL A   1      34.268  32.224  28.214  1.00  0.00    -0.246 OA
BRANCH  25  27
ATOM     27  C   UNL A   1      35.780  30.393  28.172  1.00  0.00     0.060 A 
ATOM     28  C   UNL A   1      35.855  29.633  29.338  1.00  0.00     0.016 A 
ATOM     29  C   UNL A   1      36.872  30.513  27.304  1.00  0.00     0.016 A 
ATOM     30  C   UNL A   1      37.066  29.082  29.712  1.00  0.00     0.010 A 
ATOM     31  C   UNL A   1      38.094  29.954  27.682  1.00  0.00     0.010 A 
ATOM     32  C   UNL A   1      38.201  29.299  28.920  1.00  0.00    -0.014 A 
BRANCH  32  33
ATOM     33  C   UNL A   1      39.509  29.026  29.547  1.00  0.00     0.031 A 
ATOM     34  C   UNL A   1      39.859  29.782  30.801  1.00  0.00     0.074 A 
ATOM     35  C   UNL A   1      40.272  28.017  29.094  1.00  0.00     0.049 A 
ATOM     36  N   UNL A   1      40.860  29.606  31.620  1.00  0.00    -0.248 NA
ATOM     37  C   UNL A   1      38.950  30.875  31.195  1.00  0.00     0.031 C 
ATOM     38  C   UNL A   1      39.982  27.208  27.910  1.00  0.00     0.029 A 
ATOM     39  N   UNL A   1      41.428  27.481  29.593  1.00  0.00    -0.354 N 
ATOM     40  C   UNL A   1      40.699  30.556  32.623  1.00  0.00     0.074 A 
ATOM     41  C   UNL A   1      39.524  31.330  32.298  1.00  0.00     0.031 C 
ATOM     42  C   UNL A   1      40.936  26.270  27.777  1.00  0.00     0.029 A 
ATOM     43  C   UNL A   1      41.905  26.422  28.859  1.00  0.00     0.049 A 
ATOM     44  H   UNL A   1      41.877  27.823  30.401  1.00  0.00     0.167 HD
ATOM     45  C   UNL A   1      41.461  30.751  33.723  1.00  0.00     0.037 A 
ATOM     46  C   UNL A   1      43.004  25.667  29.049  1.00  0.00     0.037 A 
ATOM     47  C   UNL A   1      42.619  29.957  34.034  1.00  0.00     0.049 A 
ATOM     48  C   UNL A   1      43.853  25.929  30.266  1.00  0.00     0.074 A 
ATOM     49  C   UNL A   1      43.461  30.052  35.126  1.00  0.00     0.029 A 
ATOM     50  N   UNL A   1      43.097  28.921  33.244  1.00  0.00    -0.354 N 
ATOM     51  N   UNL A   1      43.670  26.810  31.222  1.00  0.00    -0.248 NA
ATOM     52  C   UNL A   1      45.046  25.093  30.438  1.00  0.00     0.031 C 
ATOM     53  C   UNL A   1      44.476  29.102  34.973  1.00  0.00     0.029 A 
ATOM     54  C   UNL A   1      44.238  28.385  33.810  1.00  0.00     0.049 A 
ATOM     55  H   UNL A   1      42.685  28.614  32.404  1.00  0.00     0.167 HD
ATOM     56  C   UNL A   1      44.717  26.623  32.117  1.00  0.00     0.074 A 
ATOM     57  C   UNL A   1      45.515  25.530  31.598  1.00  0.00     0.031 C 
ATOM     58  C   UNL A   1      45.003  27.294  33.261  1.00  0.00     0.037 A 
BRANCH  45  59
ATOM     59  C   UNL A   1      41.085  31.868  34.655  1.00  0.00     0.058 A 
ATOM     60  C   UNL A   1      40.214  31.670  35.738  1.00  0.00     0.135 A 
ATOM     61  C   UNL A   1      41.648  33.144  34.492  1.00  0.00     0.135 A 
ATOM     62  F   UNL A   1      39.627  30.477  35.924  1.00  0.00    -0.206 F 
ATOM     63  C   UNL A   1      39.915  32.698  36.628  1.00  0.00     0.059 A 
ATOM     64  C   UNL A   1      41.380  34.180  35.381  1.00  0.00     0.059 A 
ATOM     65  F   UNL A   1      42.476  33.390  33.464  1.00  0.00    -0.206 F 
ATOM     66  C   UNL A   1      40.509  33.948  36.444  1.00  0.00     0.060 A 
BRANCH  66  67
ATOM     67  S   UNL A   1      40.148  35.260  37.633  1.00  0.00     0.124 S 
ATOM     68  O   UNL A   1      41.392  35.315  38.395  1.00  0.00    -0.237 OA
ATOM     69  O   UNL A   1      39.887  36.404  36.764  1.00  0.00    -0.237 OA
ATOM     70  O   UNL A   1      38.989  34.752  38.359  1.00  0.00    -0.744 OA
ENDBRANCH  66  67
ENDBRANCH  45  59
BRANCH  46  71
ATOM     71  C   UNL A   1      43.371  24.616  28.062  1.00  0.00     0.058 A 
ATOM     72  C   UNL A   1      42.906  23.298  28.178  1.00  0.00     0.135 A 
ATOM     73  C   UNL A   1      44.218  24.914  26.981  1.00  0.00     0.135 A 
ATOM     74  F   UNL A   1      42.098  22.959  29.194  1.00  0.00    -0.206 F 
ATOM     75  C   UNL A   1      43.287  22.308  27.277  1.00  0.00     0.059 A 
ATOM     76  C   UNL A   1      44.590  23.950  26.052  1.00  0.00     0.059 A 
ATOM     77  F   UNL A   1      44.678  26.164  26.812  1.00  0.00    -0.206 F 
ATOM     78  C   UNL A   1      44.134  22.644  26.218  1.00  0.00     0.060 A 
BRANCH  78  79
ATOM     79  S   UNL A   1      44.610  21.361  25.039  1.00  0.00     0.124 S 
ATOM     80  O   UNL A   1      45.967  21.052  25.474  1.00  0.00    -0.237 OA
ATOM     81  O   UNL A   1      43.609  20.328  25.285  1.00  0.00    -0.237 OA
ATOM     82  O   UNL A   1      44.498  22.036  23.749  1.00  0.00    -0.744 OA
ENDBRANCH  78  79
ENDBRANCH  46  71
BRANCH  58  83
ATOM     83  C   UNL A   1      46.215  26.850  34.027  1.00  0.00     0.058 A 
ATOM     84  C   UNL A   1      46.133  25.850  35.008  1.00  0.00     0.135 A 
ATOM     85  C   UNL A   1      47.476  27.397  33.743  1.00  0.00     0.135 A 
ATOM     86  F   UNL A   1      44.948  25.299  35.315  1.00  0.00    -0.206 F 
ATOM     87  C   UNL A   1      47.260  25.427  35.703  1.00  0.00     0.059 A 
ATOM     88  C   UNL A   1      48.620  26.970  34.409  1.00  0.00     0.059 A 
ATOM     89  F   UNL A   1      47.606  28.346  32.803  1.00  0.00    -0.206 F 
ATOM     90  C   UNL A   1      48.498  25.996  35.397  1.00  0.00     0.060 A 
BRANCH  90  91
ATOM     91  S   UNL A   1      49.956  25.425  36.294  1.00  0.00     0.124 S 
ATOM     92  O   UNL A   1      50.332  24.246  35.521  1.00  0.00    -0.237 OA
ATOM     93  O   UNL A   1      50.858  26.567  36.188  1.00  0.00    -0.237 OA
ATOM     94  O   UNL A   1      49.445  25.161  37.637  1.00  0.00    -0.744 OA
ENDBRANCH  90  91
ENDBRANCH  58  83
ENDBRANCH  32  33
ENDBRANCH  25  27
ENDBRANCH  24  25
ENDBRANCH  23  24
ENDBRANCH  22  23
ENDBRANCH   1  22
TORSDOF 22
ENDMDL
MODEL 3
REMARK VINA RESULT:      -9.8      2.673      4.009
REMARK SMILES C=CCN(CC(=O)OCCOCCOC(=O)c1ccc(-c2c3nc(c(-c4c(F)cc(S(=O)(=O)[O-])cc4F)c4ccc([nH]4)c(-c4c(F)cc(S(=O)(=O)[O-])cc4F)c4nc(c(-c5c(F)cc(S(=O)(=O)[O-])cc5F)c5ccc2[nH]5)C=C4)C=C3)cc1)C(=O)[C@@H]1[C@H](C)[C@H](C)O[C@@H]1C
REMARK SMILES IDX 11 1 10 2 9 3 8 4 6 5 7 6 5 7 4 8 3 9 2 10 1 11 83 12 84 13
REMARK SMILES IDX 85 14 86 15 91 16 87 17 88 18 90 19 92 20 89 21 12 22 13 23
REMARK SMILES IDX 14 24 15 25 16 26 17 27 18 28 82 29 19 30 81 31 20 32 21 33
REMARK SMILES IDX 22 34 75 35 23 36 80 37 74 38 76 39 24 40 79 41 73 42 72 43
REMARK SMILES IDX 25 45 59 46 38 47 58 48 39 49 42 50 57 51 77 52 40 53 41 54
REMARK SMILES IDX 56 56 78 57 43 58 26 59 27 60 36 61 28 62 29 63 35 64 37 65
REMARK SMILES IDX 30 66 31 67 32 68 33 69 34 70 60 71 61 72 70 73 62 74 63 75
REMARK SMILES IDX 69 76 71 77 64 78 65 79 66 80 67 81 68 82 44 83 45 84 54 85
REMARK SMILES IDX 46 86 47 87 53 88 55 89 48 90 49 91 50 92 51 93 52 94
REMARK H PARENT 76 44 42 55
REMARK Flexibility Score: inf
ROOT
ATOM      1  O   UNL A   1      31.939  28.063  23.885  1.00  0.00    -0.374 OA
ENDROOT
BRANCH   1   2
ATOM      2  C   UNL A   1      30.614  27.598  24.144  1.00  0.00     0.202 C 
BRANCH   2   3
ATOM      3  C   UNL A   1      30.440  26.076  23.930  1.00  0.00     0.261 C 
BRANCH   3   4
ATOM      4  O   UNL A   1      30.061  25.434  25.188  1.00  0.00    -0.462 OA
BRANCH   4   5
ATOM      5  C   UNL A   1      30.997  24.574  25.688  1.00  0.00     0.325 C 
ATOM      6  O   UNL A   1      31.405  24.625  26.845  1.00  0.00    -0.250 OA
BRANCH   5   7
ATOM      7  C   UNL A   1      31.345  23.364  24.761  1.00  0.00     0.242 C 
BRANCH   7   8
ATOM      8  N   UNL A   1      32.630  23.164  24.054  1.00  0.00    -0.328 N 
BRANCH   8   9
ATOM      9  C   UNL A   1      32.741  21.864  23.375  1.00  0.00     0.147 C 
BRANCH   9  10
ATOM     10  C   UNL A   1      32.513  20.733  24.343  1.00  0.00    -0.014 C 
ATOM     11  C   UNL A   1      32.543  19.440  23.983  1.00  0.00     0.006 C 
ENDBRANCH   9  10
ENDBRANCH   8   9
BRANCH   8  12
ATOM     12  C   UNL A   1      33.720  24.024  23.916  1.00  0.00     0.229 C 
ATOM     13  O   UNL A   1      33.749  24.805  22.948  1.00  0.00    -0.274 OA
BRANCH  12  14
ATOM     14  C   UNL A   1      35.002  24.072  24.789  1.00  0.00     0.113 C 
ATOM     15  C   UNL A   1      36.332  23.705  24.165  1.00  0.00     0.030 C 
ATOM     16  C   UNL A   1      35.105  23.685  26.254  1.00  0.00     0.128 C 
ATOM     17  C   UNL A   1      36.195  22.870  22.945  1.00  0.00     0.011 C 
ATOM     18  C   UNL A   1      37.150  23.041  25.271  1.00  0.00     0.119 C 
ATOM     19  O   UNL A   1      36.484  23.331  26.505  1.00  0.00    -0.374 OA
ATOM     20  C   UNL A   1      34.236  22.577  26.803  1.00  0.00     0.039 C 
ATOM     21  C   UNL A   1      37.357  21.528  25.172  1.00  0.00     0.039 C 
ENDBRANCH  12  14
ENDBRANCH   8  12
ENDBRANCH   7   8
ENDBRANCH   5   7
ENDBRANCH   4   5
ENDBRANCH   3   4
ENDBRANCH   2   3
ENDBRANCH   1   2
BRANCH   1  22
ATOM     22  C   UNL A   1      33.091  27.686  24.653  1.00  0.00     0.202 C 
BRANCH  22  23
ATOM     23  C   UNL A   1      33.241  27.878  26.186  1.00  0.00     0.261 C 
BRANCH  23  24
ATOM     24  O   UNL A   1      34.551  28.246  26.588  1.00  0.00    -0.460 OA
BRANCH  24  25
ATOM     25  C   UNL A   1      34.625  29.528  26.991  1.00  0.00     0.338 C 
ATOM     26  O   UNL A   1      33.772  30.386  26.871  1.00  0.00    -0.246 OA
BRANCH  25  27
ATOM     27  C   UNL A   1      35.793  29.643  27.873  1.00  0.00     0.060 A 
ATOM     28  C   UNL A   1      36.964  30.079  27.254  1.00  0.00     0.016 A 
ATOM     29  C   UNL A   1      35.759  29.325  29.235  1.00  0.00     0.016 A 
ATOM     30  C   UNL A   1      38.147  30.084  27.969  1.00  0.00     0.010 A 
ATOM     31  C   UNL A   1      36.954  29.333  29.957  1.00  0.00     0.010 A 
ATOM     32  C   UNL A   1      38.155  29.647  29.300  1.00  0.00    -0.014 A 
BRANCH  32  33
ATOM     33  C   UNL A   1      39.471  29.313  29.880  1.00  0.00     0.031 A 
ATOM     34  C   UNL A   1      39.881  30.018  31.146  1.00  0.00     0.074 A 
ATOM     35  C   UNL A   1      40.186  28.294  29.376  1.00  0.00     0.049 A 
ATOM     36  N   UNL A   1      40.899  29.784  31.930  1.00  0.00    -0.248 NA
ATOM     37  C   UNL A   1      39.021  31.127  31.598  1.00  0.00     0.031 C 
ATOM     38  C   UNL A   1      39.835  27.531  28.176  1.00  0.00     0.029 A 
ATOM     39  N   UNL A   1      41.337  27.705  29.824  1.00  0.00    -0.354 N 
ATOM     40  C   UNL A   1      40.798  30.707  32.964  1.00  0.00     0.074 A 
ATOM     41  C   UNL A   1      39.640  31.529  32.697  1.00  0.00     0.031 C 
ATOM     42  C   UNL A   1      40.753  26.567  27.988  1.00  0.00     0.029 A 
ATOM     43  C   UNL A   1      41.757  26.654  29.046  1.00  0.00     0.049 A 
ATOM     44  H   UNL A   1      41.819  28.007  30.629  1.00  0.00     0.167 HD
ATOM     45  C   UNL A   1      41.597  30.844  34.047  1.00  0.00     0.037 A 
ATOM     46  C   UNL A   1      42.836  25.858  29.180  1.00  0.00     0.037 A 
ATOM     47  C   UNL A   1      42.736  30.003  34.300  1.00  0.00     0.049 A 
ATOM     48  C   UNL A   1      43.726  26.055  30.379  1.00  0.00     0.074 A 
ATOM     49  C   UNL A   1      43.611  30.037  35.369  1.00  0.00     0.029 A 
ATOM     50  N   UNL A   1      43.156  28.977  33.465  1.00  0.00    -0.354 N 
ATOM     51  N   UNL A   1      43.600  26.911  31.366  1.00  0.00    -0.248 NA
ATOM     52  C   UNL A   1      44.895  25.175  30.491  1.00  0.00     0.031 C 
ATOM     53  C   UNL A   1      44.589  29.060  35.158  1.00  0.00     0.029 A 
ATOM     54  C   UNL A   1      44.295  28.386  33.982  1.00  0.00     0.049 A 
ATOM     55  H   UNL A   1      42.710  28.709  32.629  1.00  0.00     0.167 HD
ATOM     56  C   UNL A   1      44.665  26.663  32.224  1.00  0.00     0.074 A 
ATOM     57  C   UNL A   1      45.411  25.561  31.649  1.00  0.00     0.031 C 
ATOM     58  C   UNL A   1      45.006  27.288  33.379  1.00  0.00     0.037 A 
BRANCH  45  59
ATOM     59  C   UNL A   1      41.285  31.943  35.022  1.00  0.00     0.058 A 
ATOM     60  C   UNL A   1      41.887  33.208  34.931  1.00  0.00     0.135 A 
ATOM     61  C   UNL A   1      40.327  31.745  36.029  1.00  0.00     0.135 A 
ATOM     62  F   UNL A   1      42.829  33.444  34.004  1.00  0.00    -0.206 F 
ATOM     63  C   UNL A   1      41.550  34.238  35.806  1.00  0.00     0.059 A 
ATOM     64  C   UNL A   1      39.959  32.766  36.900  1.00  0.00     0.059 A 
ATOM     65  F   UNL A   1      39.730  30.550  36.167  1.00  0.00    -0.206 F 
ATOM     66  C   UNL A   1      40.580  34.008  36.783  1.00  0.00     0.060 A 
BRANCH  66  67
ATOM     67  S   UNL A   1      40.120  35.367  37.881  1.00  0.00     0.124 S 
ATOM     68  O   UNL A   1      38.863  34.879  38.440  1.00  0.00    -0.237 OA
ATOM     69  O   UNL A   1      41.248  35.415  38.806  1.00  0.00    -0.237 OA
ATOM     70  O   UNL A   1      40.004  36.509  36.980  1.00  0.00    -0.744 OA
ENDBRANCH  66  67
ENDBRANCH  45  59
BRANCH  46  71
ATOM     71  C   UNL A   1      43.138  24.826  28.152  1.00  0.00     0.058 A 
ATOM     72  C   UNL A   1      42.775  23.483  28.323  1.00  0.00     0.135 A 
ATOM     73  C   UNL A   1      43.821  25.171  26.973  1.00  0.00     0.135 A 
ATOM     74  F   UNL A   1      42.125  23.100  29.432  1.00  0.00    -0.206 F 
ATOM     75  C   UNL A   1      43.099  22.513  27.378  1.00  0.00     0.059 A 
ATOM     76  C   UNL A   1      44.132  24.226  26.002  1.00  0.00     0.059 A 
ATOM     77  F   UNL A   1      44.178  26.445  26.750  1.00  0.00    -0.206 F 
ATOM     78  C   UNL A   1      43.782  22.895  26.221  1.00  0.00     0.060 A 
BRANCH  78  79
ATOM     79  S   UNL A   1      44.184  21.638  24.988  1.00  0.00     0.124 S 
ATOM     80  O   UNL A   1      43.130  20.656  25.215  1.00  0.00    -0.237 OA
ATOM     81  O   UNL A   1      44.098  22.390  23.741  1.00  0.00    -0.237 OA
ATOM     82  O   UNL A   1      45.531  21.219  25.366  1.00  0.00    -0.744 OA
ENDBRANCH  78  79
ENDBRANCH  46  71
BRANCH  58  83
ATOM     83  C   UNL A   1      46.224  26.781  34.095  1.00  0.00     0.058 A 
ATOM     84  C   UNL A   1      46.138  25.747  35.039  1.00  0.00     0.135 A 
ATOM     85  C   UNL A   1      47.492  27.304  33.799  1.00  0.00     0.135 A 
ATOM     86  F   UNL A   1      44.946  25.218  35.356  1.00  0.00    -0.206 F 
ATOM     87  C   UNL A   1      47.269  25.267  35.688  1.00  0.00     0.059 A 
ATOM     88  C   UNL A   1      48.640  26.820  34.417  1.00  0.00     0.059 A 
ATOM     89  F   UNL A   1      47.626  28.285  32.892  1.00  0.00    -0.206 F 
ATOM     90  C   UNL A   1      48.515  25.812  35.372  1.00  0.00     0.060 A 
BRANCH  90  91
ATOM     91  S   UNL A   1      49.978  25.167  36.208  1.00  0.00     0.124 S 
ATOM     92  O   UNL A   1      50.468  24.197  35.233  1.00  0.00    -0.237 OA
ATOM     93  O   UNL A   1      50.797  26.363  36.378  1.00  0.00    -0.237 OA
ATOM     94  O   UNL A   1      49.441  24.602  37.442  1.00  0.00    -0.744 OA
ENDBRANCH  90  91
ENDBRANCH  58  83
ENDBRANCH  32  33
ENDBRANCH  25  27
ENDBRANCH  24  25
ENDBRANCH  23  24
ENDBRANCH  22  23
ENDBRANCH   1  22
TORSDOF 22
ENDMDL
