MODEL 1
REMARK VINA RESULT:     -10.7      0.000      0.000
REMARK SMILES C[C@H]1CC[C@@](NC(=O)C(F)(F)F)(C(=O)OCCOCCOC(=O)c2ccc(-c3c4nc(c(-c5c(F)cc(S(=O)(=O)[O-])cc5F)c5ccc([nH]5)c(-c5c(F)cc(S(=O)(=O)[O-])cc5F)c5nc(c(-c6c(F)cc(S(=O)(=O)[O-])cc6F)c6ccc3[nH]6)C=C5)C=C4)cc2)CC1
REMARK SMILES IDX 19 1 18 2 17 3 16 4 15 5 13 6 14 7 5 8 1 9 2 10 91 11 3 12
REMARK SMILES IDX 90 13 4 14 6 15 7 16 8 18 9 19 10 20 11 21 12 22 20 23 21 24
REMARK SMILES IDX 22 25 23 26 24 27 25 28 89 29 26 30 88 31 27 32 28 33 29 34
REMARK SMILES IDX 82 35 30 36 87 37 81 38 83 39 31 40 86 41 80 42 79 43 32 45
REMARK SMILES IDX 66 46 45 47 65 48 46 49 49 50 64 51 84 52 47 53 48 54 63 56
REMARK SMILES IDX 85 57 50 58 33 59 34 60 43 61 35 62 36 63 42 64 44 65 37 66
REMARK SMILES IDX 38 67 39 68 40 69 41 70 67 71 68 72 77 73 69 74 70 75 76 76
REMARK SMILES IDX 78 77 71 78 72 79 73 80 74 81 75 82 51 83 52 84 61 85 53 86
REMARK SMILES IDX 54 87 60 88 62 89 55 90 56 91 57 92 58 93 59 94
REMARK H PARENT 6 17 83 44 49 55
REMARK Flexibility Score: inf
ROOT
ATOM      1  C   UNL A   1      39.435  21.608  26.168  1.00  0.00     0.202 C 
ENDROOT
BRANCH   1   2
ATOM      2  O   UNL A   1      38.353  22.449  25.773  1.00  0.00    -0.374 OA
BRANCH   2   3
ATOM      3  C   UNL A   1      37.528  21.984  24.707  1.00  0.00     0.202 C 
BRANCH   3   4
ATOM      4  C   UNL A   1      36.739  20.698  24.969  1.00  0.00     0.261 C 
BRANCH   4   5
ATOM      5  O   UNL A   1      35.546  20.889  25.759  1.00  0.00    -0.461 OA
BRANCH   5   6
ATOM      6  C   UNL A   1      34.422  21.216  25.058  1.00  0.00     0.331 C 
ATOM      7  O   UNL A   1      34.427  21.725  23.941  1.00  0.00    -0.249 OA
BRANCH   6   8
ATOM      8  C   UNL A   1      33.116  21.015  25.880  1.00  0.00     0.138 C 
ATOM      9  C   UNL A   1      31.936  25.266  26.406  1.00  0.00     0.007 C 
ATOM     10  C   UNL A   1      31.955  23.743  26.551  1.00  0.00    -0.014 C 
ATOM     11  C   UNL A   1      33.310  23.285  27.083  1.00  0.00     0.006 C 
ATOM     12  C   UNL A   1      31.619  23.048  25.223  1.00  0.00     0.006 C 
ATOM     13  C   UNL A   1      33.340  21.770  27.224  1.00  0.00     0.041 C 
ATOM     14  C   UNL A   1      31.805  21.523  25.240  1.00  0.00     0.041 C 
BRANCH   8  15
ATOM     15  N   UNL A   1      32.961  19.580  26.271  1.00  0.00    -0.332 N 
ATOM     16  C   UNL A   1      32.783  18.424  25.551  1.00  0.00     0.326 C 
ATOM     17  H   UNL A   1      32.996  19.434  27.244  1.00  0.00     0.164 HD
ATOM     18  O   UNL A   1      32.330  17.472  26.200  1.00  0.00    -0.265 OA
BRANCH  16  19
ATOM     19  C   UNL A   1      33.179  18.297  24.064  1.00  0.00     0.471 C 
ATOM     20  F   UNL A   1      34.522  18.417  23.877  1.00  0.00    -0.162 F 
ATOM     21  F   UNL A   1      32.820  17.092  23.538  1.00  0.00    -0.162 F 
ATOM     22  F   UNL A   1      32.593  19.236  23.274  1.00  0.00    -0.162 F 
ENDBRANCH  16  19
ENDBRANCH   8  15
ENDBRANCH   6   8
ENDBRANCH   5   6
ENDBRANCH   4   5
ENDBRANCH   3   4
ENDBRANCH   2   3
ENDBRANCH   1   2
BRANCH   1  23
ATOM     23  C   UNL A   1      40.623  22.313  26.833  1.00  0.00     0.261 C 
BRANCH  23  24
ATOM     24  O   UNL A   1      40.230  23.539  27.475  1.00  0.00    -0.460 OA
BRANCH  24  25
ATOM     25  C   UNL A   1      40.924  24.625  27.051  1.00  0.00     0.338 C 
ATOM     26  O   UNL A   1      41.608  24.714  26.047  1.00  0.00    -0.246 OA
BRANCH  25  27
ATOM     27  C   UNL A   1      40.650  25.781  27.920  1.00  0.00     0.060 A 
ATOM     28  C   UNL A   1      41.628  26.779  28.026  1.00  0.00     0.016 A 
ATOM     29  C   UNL A   1      39.526  25.796  28.747  1.00  0.00     0.016 A 
ATOM     30  C   UNL A   1      41.502  27.774  28.996  1.00  0.00     0.010 A 
ATOM     31  C   UNL A   1      39.405  26.794  29.722  1.00  0.00     0.010 A 
ATOM     32  C   UNL A   1      40.411  27.766  29.875  1.00  0.00    -0.014 A 
BRANCH  32  33
ATOM     33  C   UNL A   1      40.389  28.698  31.030  1.00  0.00     0.031 A 
ATOM     34  C   UNL A   1      39.416  29.848  31.036  1.00  0.00     0.074 A 
ATOM     35  C   UNL A   1      41.212  28.507  32.078  1.00  0.00     0.049 A 
ATOM     36  N   UNL A   1      39.235  30.774  31.942  1.00  0.00    -0.248 NA
ATOM     37  C   UNL A   1      38.528  29.966  29.869  1.00  0.00     0.031 C 
ATOM     38  C   UNL A   1      42.181  27.419  32.200  1.00  0.00     0.029 A 
ATOM     39  N   UNL A   1      41.367  29.229  33.234  1.00  0.00    -0.354 N 
ATOM     40  C   UNL A   1      38.215  31.585  31.458  1.00  0.00     0.074 A 
ATOM     41  C   UNL A   1      37.833  31.056  30.166  1.00  0.00     0.031 C 
ATOM     42  C   UNL A   1      42.840  27.551  33.364  1.00  0.00     0.029 A 
ATOM     43  C   UNL A   1      42.356  28.745  34.057  1.00  0.00     0.049 A 
ATOM     44  H   UNL A   1      40.822  30.018  33.454  1.00  0.00     0.167 HD
ATOM     45  C   UNL A   1      37.644  32.667  32.040  1.00  0.00     0.037 A 
ATOM     46  C   UNL A   1      42.831  29.221  35.225  1.00  0.00     0.037 A 
ATOM     47  C   UNL A   1      38.025  33.194  33.324  1.00  0.00     0.049 A 
ATOM     48  C   UNL A   1      42.221  30.460  35.823  1.00  0.00     0.074 A 
ATOM     49  C   UNL A   1      37.481  34.265  34.011  1.00  0.00     0.029 A 
ATOM     50  N   UNL A   1      39.054  32.697  34.110  1.00  0.00    -0.354 N 
ATOM     51  N   UNL A   1      41.230  31.193  35.372  1.00  0.00    -0.248 NA
ATOM     52  C   UNL A   1      42.792  30.938  37.091  1.00  0.00     0.031 C 
ATOM     53  C   UNL A   1      38.209  34.443  35.194  1.00  0.00     0.029 A 
ATOM     54  C   UNL A   1      39.181  33.458  35.261  1.00  0.00     0.049 A 
ATOM     55  H   UNL A   1      39.612  31.919  33.883  1.00  0.00     0.167 HD
ATOM     56  C   UNL A   1      41.052  32.209  36.305  1.00  0.00     0.074 A 
ATOM     57  C   UNL A   1      42.026  31.990  37.354  1.00  0.00     0.031 C 
ATOM     58  C   UNL A   1      40.162  33.232  36.293  1.00  0.00     0.037 A 
BRANCH  45  59
ATOM     59  C   UNL A   1      36.552  33.368  31.282  1.00  0.00     0.058 A 
ATOM     60  C   UNL A   1      36.817  34.087  30.106  1.00  0.00     0.135 A 
ATOM     61  C   UNL A   1      35.219  33.288  31.716  1.00  0.00     0.135 A 
ATOM     62  F   UNL A   1      38.076  34.207  29.657  1.00  0.00    -0.206 F 
ATOM     63  C   UNL A   1      35.801  34.720  29.397  1.00  0.00     0.059 A 
ATOM     64  C   UNL A   1      34.184  33.896  31.012  1.00  0.00     0.059 A 
ATOM     65  F   UNL A   1      34.913  32.615  32.836  1.00  0.00    -0.206 F 
ATOM     66  C   UNL A   1      34.487  34.621  29.860  1.00  0.00     0.060 A 
BRANCH  66  67
ATOM     67  S   UNL A   1      33.176  35.444  28.929  1.00  0.00     0.124 S 
ATOM     68  O   UNL A   1      33.931  36.461  28.203  1.00  0.00    -0.237 OA
ATOM     69  O   UNL A   1      32.637  34.357  28.117  1.00  0.00    -0.237 OA
ATOM     70  O   UNL A   1      32.285  35.947  29.969  1.00  0.00    -0.744 OA
ENDBRANCH  66  67
ENDBRANCH  45  59
BRANCH  46  71
ATOM     71  C   UNL A   1      43.962  28.531  35.897  1.00  0.00     0.058 A 
ATOM     72  C   UNL A   1      43.740  27.475  36.792  1.00  0.00     0.135 A 
ATOM     73  C   UNL A   1      45.290  28.914  35.651  1.00  0.00     0.135 A 
ATOM     74  F   UNL A   1      42.486  27.082  37.068  1.00  0.00    -0.206 F 
ATOM     75  C   UNL A   1      44.794  26.827  37.427  1.00  0.00     0.059 A 
ATOM     76  C   UNL A   1      46.361  28.267  36.258  1.00  0.00     0.059 A 
ATOM     77  F   UNL A   1      45.553  29.914  34.796  1.00  0.00    -0.206 F 
ATOM     78  C   UNL A   1      46.102  27.229  37.152  1.00  0.00     0.060 A 
BRANCH  78  79
ATOM     79  S   UNL A   1      47.468  26.349  37.939  1.00  0.00     0.124 S 
ATOM     80  O   UNL A   1      48.449  26.306  36.861  1.00  0.00    -0.237 OA
ATOM     81  O   UNL A   1      47.792  27.223  39.063  1.00  0.00    -0.237 OA
ATOM     82  O   UNL A   1      46.873  25.067  38.304  1.00  0.00    -0.744 OA
ENDBRANCH  78  79
ENDBRANCH  46  71
BRANCH  58  83
ATOM     83  C   UNL A   1      40.193  34.188  37.452  1.00  0.00     0.058 A 
ATOM     84  C   UNL A   1      39.452  33.948  38.619  1.00  0.00     0.135 A 
ATOM     85  C   UNL A   1      41.011  35.330  37.416  1.00  0.00     0.135 A 
ATOM     86  F   UNL A   1      38.651  32.875  38.702  1.00  0.00    -0.206 F 
ATOM     87  C   UNL A   1      39.505  34.818  39.704  1.00  0.00     0.059 A 
ATOM     88  C   UNL A   1      41.094  36.201  38.498  1.00  0.00     0.059 A 
ATOM     89  F   UNL A   1      41.747  35.599  36.326  1.00  0.00    -0.206 F 
ATOM     90  C   UNL A   1      40.329  35.942  39.633  1.00  0.00     0.060 A 
BRANCH  90  91
ATOM     91  S   UNL A   1      40.416  37.047  41.060  1.00  0.00     0.124 S 
ATOM     92  O   UNL A   1      41.155  36.232  42.018  1.00  0.00    -0.237 OA
ATOM     93  O   UNL A   1      41.132  38.200  40.524  1.00  0.00    -0.237 OA
ATOM     94  O   UNL A   1      39.013  37.285  41.388  1.00  0.00    -0.744 OA
ENDBRANCH  90  91
ENDBRANCH  58  83
ENDBRANCH  32  33
ENDBRANCH  25  27
ENDBRANCH  24  25
ENDBRANCH  23  24
ENDBRANCH   1  23
TORSDOF 19
ENDMDL
MODEL 2
REMARK VINA RESULT:     -10.7      7.388     12.199
REMARK SMILES C[C@H]1CC[C@@](NC(=O)C(F)(F)F)(C(=O)OCCOCCOC(=O)c2ccc(-c3c4nc(c(-c5c(F)cc(S(=O)(=O)[O-])cc5F)c5ccc([nH]5)c(-c5c(F)cc(S(=O)(=O)[O-])cc5F)c5nc(c(-c6c(F)cc(S(=O)(=O)[O-])cc6F)c6ccc3[nH]6)C=C5)C=C4)cc2)CC1
REMARK SMILES IDX 19 1 18 2 17 3 16 4 15 5 13 6 14 7 5 8 1 9 2 10 91 11 3 12
REMARK SMILES IDX 90 13 4 14 6 15 7 16 8 18 9 19 10 20 11 21 12 22 20 23 21 24
REMARK SMILES IDX 22 25 23 26 24 27 25 28 89 29 26 30 88 31 27 32 28 33 29 34
REMARK SMILES IDX 82 35 30 36 87 37 81 38 83 39 31 40 86 41 80 42 79 43 32 45
REMARK SMILES IDX 66 46 45 47 65 48 46 49 49 50 64 51 84 52 47 53 48 54 63 56
REMARK SMILES IDX 85 57 50 58 33 59 34 60 43 61 35 62 36 63 42 64 44 65 37 66
REMARK SMILES IDX 38 67 39 68 40 69 41 70 67 71 68 72 77 73 69 74 70 75 76 76
REMARK SMILES IDX 78 77 71 78 72 79 73 80 74 81 75 82 51 83 52 84 61 85 53 86
REMARK SMILES IDX 54 87 60 88 62 89 55 90 56 91 57 92 58 93 59 94
REMARK H PARENT 6 17 83 44 49 55
REMARK Flexibility Score: inf
ROOT
ATOM      1  C   UNL A   1      33.898  30.720  26.988  1.00  0.00     0.202 C 
ENDROOT
BRANCH   1   2
ATOM      2  O   UNL A   1      32.541  30.382  27.268  1.00  0.00    -0.374 OA
BRANCH   2   3
ATOM      3  C   UNL A   1      32.217  28.995  27.320  1.00  0.00     0.202 C 
BRANCH   3   4
ATOM      4  C   UNL A   1      32.871  28.104  26.261  1.00  0.00     0.261 C 
BRANCH   4   5
ATOM      5  O   UNL A   1      31.965  27.639  25.238  1.00  0.00    -0.461 OA
BRANCH   5   6
ATOM      6  C   UNL A   1      32.156  28.170  23.996  1.00  0.00     0.331 C 
ATOM      7  O   UNL A   1      33.008  29.011  23.728  1.00  0.00    -0.249 OA
BRANCH   6   8
ATOM      8  C   UNL A   1      31.082  27.711  22.968  1.00  0.00     0.138 C 
ATOM      9  C   UNL A   1      30.914  23.390  23.984  1.00  0.00     0.007 C 
ATOM     10  C   UNL A   1      30.674  24.713  23.255  1.00  0.00    -0.014 C 
ATOM     11  C   UNL A   1      32.004  25.311  22.805  1.00  0.00     0.006 C 
ATOM     12  C   UNL A   1      29.891  25.702  24.130  1.00  0.00     0.006 C 
ATOM     13  C   UNL A   1      31.774  26.632  22.084  1.00  0.00     0.041 C 
ATOM     14  C   UNL A   1      29.776  27.117  23.542  1.00  0.00     0.041 C 
BRANCH   8  15
ATOM     15  N   UNL A   1      30.754  28.824  22.024  1.00  0.00    -0.332 N 
ATOM     16  C   UNL A   1      29.869  29.872  22.078  1.00  0.00     0.326 C 
ATOM     17  H   UNL A   1      31.284  28.801  21.194  1.00  0.00     0.164 HD
ATOM     18  O   UNL A   1      29.600  30.382  20.982  1.00  0.00    -0.265 OA
BRANCH  16  19
ATOM     19  C   UNL A   1      29.302  30.419  23.405  1.00  0.00     0.471 C 
ATOM     20  F   UNL A   1      28.155  29.787  23.775  1.00  0.00    -0.162 F 
ATOM     21  F   UNL A   1      30.178  30.270  24.438  1.00  0.00    -0.162 F 
ATOM     22  F   UNL A   1      29.011  31.747  23.354  1.00  0.00    -0.162 F 
ENDBRANCH  16  19
ENDBRANCH   8  15
ENDBRANCH   6   8
ENDBRANCH   5   6
ENDBRANCH   4   5
ENDBRANCH   3   4
ENDBRANCH   2   3
ENDBRANCH   1   2
BRANCH   1  23
ATOM     23  C   UNL A   1      34.640  31.481  28.093  1.00  0.00     0.261 C 
BRANCH  23  24
ATOM     24  O   UNL A   1      35.492  30.614  28.865  1.00  0.00    -0.460 OA
BRANCH  24  25
ATOM     25  C   UNL A   1      36.605  31.225  29.342  1.00  0.00     0.338 C 
ATOM     26  O   UNL A   1      36.659  32.264  29.977  1.00  0.00    -0.246 OA
BRANCH  25  27
ATOM     27  C   UNL A   1      37.793  30.390  29.100  1.00  0.00     0.060 A 
ATOM     28  C   UNL A   1      38.705  30.212  30.148  1.00  0.00     0.016 A 
ATOM     29  C   UNL A   1      38.089  29.935  27.814  1.00  0.00     0.016 A 
ATOM     30  C   UNL A   1      39.940  29.613  29.900  1.00  0.00     0.010 A 
ATOM     31  C   UNL A   1      39.332  29.338  27.568  1.00  0.00     0.010 A 
ATOM     32  C   UNL A   1      40.277  29.208  28.601  1.00  0.00    -0.014 A 
BRANCH  32  33
ATOM     33  C   UNL A   1      41.663  28.766  28.305  1.00  0.00     0.031 A 
ATOM     34  C   UNL A   1      42.779  29.777  28.302  1.00  0.00     0.074 A 
ATOM     35  C   UNL A   1      41.930  27.469  28.065  1.00  0.00     0.049 A 
ATOM     36  N   UNL A   1      44.055  29.602  28.069  1.00  0.00    -0.248 NA
ATOM     37  C   UNL A   1      42.409  31.168  28.607  1.00  0.00     0.031 C 
ATOM     38  C   UNL A   1      40.939  26.393  28.063  1.00  0.00     0.029 A 
ATOM     39  N   UNL A   1      43.113  26.840  27.772  1.00  0.00    -0.354 N 
ATOM     40  C   UNL A   1      44.640  30.856  28.198  1.00  0.00     0.074 A 
ATOM     41  C   UNL A   1      43.577  31.788  28.506  1.00  0.00     0.031 C 
ATOM     42  C   UNL A   1      41.556  25.235  27.768  1.00  0.00     0.029 A 
ATOM     43  C   UNL A   1      42.977  25.492  27.540  1.00  0.00     0.049 A 
ATOM     44  H   UNL A   1      43.977  27.309  27.731  1.00  0.00     0.167 HD
ATOM     45  C   UNL A   1      45.946  31.197  28.078  1.00  0.00     0.037 A 
ATOM     46  C   UNL A   1      43.891  24.574  27.167  1.00  0.00     0.037 A 
ATOM     47  C   UNL A   1      47.003  30.271  27.769  1.00  0.00     0.049 A 
ATOM     48  C   UNL A   1      45.326  24.989  26.981  1.00  0.00     0.074 A 
ATOM     49  C   UNL A   1      48.361  30.517  27.662  1.00  0.00     0.029 A 
ATOM     50  N   UNL A   1      46.821  28.921  27.508  1.00  0.00    -0.354 N 
ATOM     51  N   UNL A   1      45.871  26.172  27.145  1.00  0.00    -0.248 NA
ATOM     52  C   UNL A   1      46.272  23.946  26.559  1.00  0.00     0.031 C 
ATOM     53  C   UNL A   1      48.995  29.324  27.292  1.00  0.00     0.029 A 
ATOM     54  C   UNL A   1      48.036  28.327  27.209  1.00  0.00     0.049 A 
ATOM     55  H   UNL A   1      45.955  28.453  27.531  1.00  0.00     0.167 HD
ATOM     56  C   UNL A   1      47.222  26.011  26.860  1.00  0.00     0.074 A 
ATOM     57  C   UNL A   1      47.417  24.614  26.527  1.00  0.00     0.031 C 
ATOM     58  C   UNL A   1      48.213  26.937  26.872  1.00  0.00     0.037 A 
BRANCH  45  59
ATOM     59  C   UNL A   1      46.305  32.645  28.264  1.00  0.00     0.058 A 
ATOM     60  C   UNL A   1      46.244  33.561  27.202  1.00  0.00     0.135 A 
ATOM     61  C   UNL A   1      46.678  33.129  29.528  1.00  0.00     0.135 A 
ATOM     62  F   UNL A   1      45.908  33.146  25.970  1.00  0.00    -0.206 F 
ATOM     63  C   UNL A   1      46.560  34.904  27.382  1.00  0.00     0.059 A 
ATOM     64  C   UNL A   1      46.978  34.472  29.735  1.00  0.00     0.059 A 
ATOM     65  F   UNL A   1      46.754  32.294  30.575  1.00  0.00    -0.206 F 
ATOM     66  C   UNL A   1      46.929  35.349  28.653  1.00  0.00     0.060 A 
BRANCH  66  67
ATOM     67  S   UNL A   1      47.333  37.096  28.875  1.00  0.00     0.124 S 
ATOM     68  O   UNL A   1      46.170  37.571  29.618  1.00  0.00    -0.237 OA
ATOM     69  O   UNL A   1      48.583  37.036  29.627  1.00  0.00    -0.237 OA
ATOM     70  O   UNL A   1      47.452  37.594  27.509  1.00  0.00    -0.744 OA
ENDBRANCH  66  67
ENDBRANCH  45  59
BRANCH  46  71
ATOM     71  C   UNL A   1      43.470  23.170  26.925  1.00  0.00     0.058 A 
ATOM     72  C   UNL A   1      43.378  22.653  25.625  1.00  0.00     0.135 A 
ATOM     73  C   UNL A   1      43.156  22.316  27.993  1.00  0.00     0.135 A 
ATOM     74  F   UNL A   1      43.657  23.436  24.570  1.00  0.00    -0.206 F 
ATOM     75  C   UNL A   1      42.982  21.341  25.390  1.00  0.00     0.059 A 
ATOM     76  C   UNL A   1      42.778  20.994  27.785  1.00  0.00     0.059 A 
ATOM     77  F   UNL A   1      43.237  22.762  29.256  1.00  0.00    -0.206 F 
ATOM     78  C   UNL A   1      42.686  20.518  26.479  1.00  0.00     0.060 A 
BRANCH  78  79
ATOM     79  S   UNL A   1      42.223  18.799  26.170  1.00  0.00     0.124 S 
ATOM     80  O   UNL A   1      43.184  18.417  25.142  1.00  0.00    -0.237 OA
ATOM     81  O   UNL A   1      42.413  18.188  27.482  1.00  0.00    -0.237 OA
ATOM     82  O   UNL A   1      40.835  18.902  25.731  1.00  0.00    -0.744 OA
ENDBRANCH  78  79
ENDBRANCH  46  71
BRANCH  58  83
ATOM     83  C   UNL A   1      49.599  26.471  26.522  1.00  0.00     0.058 A 
ATOM     84  C   UNL A   1      50.073  26.510  25.202  1.00  0.00     0.135 A 
ATOM     85  C   UNL A   1      50.479  26.028  27.523  1.00  0.00     0.135 A 
ATOM     86  F   UNL A   1      49.269  26.920  24.208  1.00  0.00    -0.206 F 
ATOM     87  C   UNL A   1      51.366  26.107  24.883  1.00  0.00     0.059 A 
ATOM     88  C   UNL A   1      51.783  25.641  27.229  1.00  0.00     0.059 A 
ATOM     89  F   UNL A   1      50.077  25.981  28.803  1.00  0.00    -0.206 F 
ATOM     90  C   UNL A   1      52.214  25.674  25.904  1.00  0.00     0.060 A 
BRANCH  90  91
ATOM     91  S   UNL A   1      53.900  25.185  25.483  1.00  0.00     0.124 S 
ATOM     92  O   UNL A   1      53.782  23.732  25.438  1.00  0.00    -0.237 OA
ATOM     93  O   UNL A   1      54.109  25.844  24.198  1.00  0.00    -0.237 OA
ATOM     94  O   UNL A   1      54.692  25.717  26.588  1.00  0.00    -0.744 OA
ENDBRANCH  90  91
ENDBRANCH  58  83
ENDBRANCH  32  33
ENDBRANCH  25  27
ENDBRANCH  24  25
ENDBRANCH  23  24
ENDBRANCH   1  23
TORSDOF 19
ENDMDL
MODEL 3
REMARK VINA RESULT:     -10.7      0.967      8.370
REMARK SMILES C[C@H]1CC[C@@](NC(=O)C(F)(F)F)(C(=O)OCCOCCOC(=O)c2ccc(-c3c4nc(c(-c5c(F)cc(S(=O)(=O)[O-])cc5F)c5ccc([nH]5)c(-c5c(F)cc(S(=O)(=O)[O-])cc5F)c5nc(c(-c6c(F)cc(S(=O)(=O)[O-])cc6F)c6ccc3[nH]6)C=C5)C=C4)cc2)CC1
REMARK SMILES IDX 19 1 18 2 17 3 16 4 15 5 13 6 14 7 5 8 1 9 2 10 91 11 3 12
REMARK SMILES IDX 90 13 4 14 6 15 7 16 8 18 9 19 10 20 11 21 12 22 20 23 21 24
REMARK SMILES IDX 22 25 23 26 24 27 25 28 89 29 26 30 88 31 27 32 28 33 29 34
REMARK SMILES IDX 82 35 30 36 87 37 81 38 83 39 31 40 86 41 80 42 79 43 32 45
REMARK SMILES IDX 66 46 45 47 65 48 46 49 49 50 64 51 84 52 47 53 48 54 63 56
REMARK SMILES IDX 85 57 50 58 33 59 34 60 43 61 35 62 36 63 42 64 44 65 37 66
REMARK SMILES IDX 38 67 39 68 40 69 41 70 67 71 68 72 77 73 69 74 70 75 76 76
REMARK SMILES IDX 78 77 71 78 72 79 73 80 74 81 75 82 51 83 52 84 61 85 53 86
REMARK SMILES IDX 54 87 60 88 62 89 55 90 56 91 57 92 58 93 59 94
REMARK H PARENT 6 17 83 44 49 55
REMARK Flexibility Score: inf
ROOT
ATOM      1  C   UNL A   1      39.535  21.734  26.501  1.00  0.00     0.202 C 
ENDROOT
BRANCH   1   2
ATOM      2  O   UNL A   1      38.592  21.830  25.435  1.00  0.00    -0.374 OA
BRANCH   2   3
ATOM      3  C   UNL A   1      37.345  22.458  25.729  1.00  0.00     0.202 C 
BRANCH   3   4
ATOM      4  C   UNL A   1      36.181  22.127  24.791  1.00  0.00     0.261 C 
BRANCH   4   5
ATOM      5  O   UNL A   1      35.457  20.930  25.148  1.00  0.00    -0.461 OA
BRANCH   5   6
ATOM      6  C   UNL A   1      34.369  21.117  25.949  1.00  0.00     0.331 C 
ATOM      7  O   UNL A   1      34.422  21.537  27.101  1.00  0.00    -0.249 OA
BRANCH   6   8
ATOM      8  C   UNL A   1      33.048  20.603  25.307  1.00  0.00     0.138 C 
ATOM      9  C   UNL A   1      31.843  24.268  23.104  1.00  0.00     0.007 C 
ATOM     10  C   UNL A   1      31.793  22.863  23.709  1.00  0.00    -0.014 C 
ATOM     11  C   UNL A   1      31.967  22.940  25.223  1.00  0.00     0.006 C 
ATOM     12  C   UNL A   1      32.847  21.942  23.077  1.00  0.00     0.006 C 
ATOM     13  C   UNL A   1      31.925  21.545  25.832  1.00  0.00     0.041 C 
ATOM     14  C   UNL A   1      32.988  20.574  23.764  1.00  0.00     0.041 C 
BRANCH   8  15
ATOM     15  N   UNL A   1      32.696  19.253  25.848  1.00  0.00    -0.332 N 
ATOM     16  C   UNL A   1      32.854  17.977  25.365  1.00  0.00     0.326 C 
ATOM     17  H   UNL A   1      32.265  19.287  26.732  1.00  0.00     0.164 HD
ATOM     18  O   UNL A   1      32.127  17.128  25.897  1.00  0.00    -0.265 OA
BRANCH  16  19
ATOM     19  C   UNL A   1      33.901  17.614  24.291  1.00  0.00     0.471 C 
ATOM     20  F   UNL A   1      35.109  18.192  24.533  1.00  0.00    -0.162 F 
ATOM     21  F   UNL A   1      34.120  16.271  24.220  1.00  0.00    -0.162 F 
ATOM     22  F   UNL A   1      33.534  17.996  23.038  1.00  0.00    -0.162 F 
ENDBRANCH  16  19
ENDBRANCH   8  15
ENDBRANCH   6   8
ENDBRANCH   5   6
ENDBRANCH   4   5
ENDBRANCH   3   4
ENDBRANCH   2   3
ENDBRANCH   1   2
BRANCH   1  23
ATOM     23  C   UNL A   1      40.939  22.273  26.203  1.00  0.00     0.261 C 
BRANCH  23  24
ATOM     24  O   UNL A   1      40.962  23.711  26.139  1.00  0.00    -0.460 OA
BRANCH  24  25
ATOM     25  C   UNL A   1      42.020  24.270  26.778  1.00  0.00     0.338 C 
ATOM     26  O   UNL A   1      43.192  23.955  26.672  1.00  0.00    -0.246 OA
BRANCH  25  27
ATOM     27  C   UNL A   1      41.587  25.437  27.563  1.00  0.00     0.060 A 
ATOM     28  C   UNL A   1      42.442  26.544  27.634  1.00  0.00     0.016 A 
ATOM     29  C   UNL A   1      40.439  25.373  28.355  1.00  0.00     0.016 A 
ATOM     30  C   UNL A   1      42.171  27.575  28.534  1.00  0.00     0.010 A 
ATOM     31  C   UNL A   1      40.172  26.407  29.260  1.00  0.00     0.010 A 
ATOM     32  C   UNL A   1      41.056  27.495  29.381  1.00  0.00    -0.014 A 
BRANCH  32  33
ATOM     33  C   UNL A   1      40.890  28.486  30.473  1.00  0.00     0.031 A 
ATOM     34  C   UNL A   1      41.775  28.405  31.689  1.00  0.00     0.074 A 
ATOM     35  C   UNL A   1      39.974  29.466  30.372  1.00  0.00     0.049 A 
ATOM     36  N   UNL A   1      41.794  29.167  32.752  1.00  0.00    -0.248 NA
ATOM     37  C   UNL A   1      42.774  27.324  31.706  1.00  0.00     0.031 C 
ATOM     38  C   UNL A   1      39.075  29.664  29.236  1.00  0.00     0.029 A 
ATOM     39  N   UNL A   1      39.646  30.476  31.242  1.00  0.00    -0.354 N 
ATOM     40  C   UNL A   1      42.802  28.662  33.564  1.00  0.00     0.074 A 
ATOM     41  C   UNL A   1      43.356  27.512  32.883  1.00  0.00     0.031 C 
ATOM     42  C   UNL A   1      38.286  30.724  29.484  1.00  0.00     0.029 A 
ATOM     43  C   UNL A   1      38.610  31.265  30.804  1.00  0.00     0.049 A 
ATOM     44  H   UNL A   1      40.109  30.620  32.098  1.00  0.00     0.167 HD
ATOM     45  C   UNL A   1      43.231  29.120  34.765  1.00  0.00     0.037 A 
ATOM     46  C   UNL A   1      37.980  32.293  31.407  1.00  0.00     0.037 A 
ATOM     47  C   UNL A   1      42.679  30.263  35.444  1.00  0.00     0.049 A 
ATOM     48  C   UNL A   1      38.436  32.746  32.768  1.00  0.00     0.074 A 
ATOM     49  C   UNL A   1      43.072  30.823  36.647  1.00  0.00     0.029 A 
ATOM     50  N   UNL A   1      41.608  31.014  34.984  1.00  0.00    -0.354 N 
ATOM     51  N   UNL A   1      39.417  32.282  33.507  1.00  0.00    -0.248 NA
ATOM     52  C   UNL A   1      37.701  33.862  33.380  1.00  0.00     0.031 C 
ATOM     53  C   UNL A   1      42.210  31.888  36.937  1.00  0.00     0.029 A 
ATOM     54  C   UNL A   1      41.306  32.015  35.894  1.00  0.00     0.049 A 
ATOM     55  H   UNL A   1      41.133  30.860  34.137  1.00  0.00     0.167 HD
ATOM     56  C   UNL A   1      39.424  33.057  34.661  1.00  0.00     0.074 A 
ATOM     57  C   UNL A   1      38.359  34.030  34.519  1.00  0.00     0.031 C 
ATOM     58  C   UNL A   1      40.238  32.971  35.742  1.00  0.00     0.037 A 
BRANCH  45  59
ATOM     59  C   UNL A   1      44.348  28.370  35.436  1.00  0.00     0.058 A 
ATOM     60  C   UNL A   1      44.095  27.312  36.323  1.00  0.00     0.135 A 
ATOM     61  C   UNL A   1      45.687  28.686  35.156  1.00  0.00     0.135 A 
ATOM     62  F   UNL A   1      42.833  26.979  36.636  1.00  0.00    -0.206 F 
ATOM     63  C   UNL A   1      45.132  26.608  36.929  1.00  0.00     0.059 A 
ATOM     64  C   UNL A   1      46.739  27.982  35.734  1.00  0.00     0.059 A 
ATOM     65  F   UNL A   1      45.982  29.690  34.316  1.00  0.00    -0.206 F 
ATOM     66  C   UNL A   1      46.451  26.953  36.629  1.00  0.00     0.060 A 
BRANCH  66  67
ATOM     67  S   UNL A   1      47.788  26.029  37.418  1.00  0.00     0.124 S 
ATOM     68  O   UNL A   1      48.826  26.089  36.392  1.00  0.00    -0.237 OA
ATOM     69  O   UNL A   1      48.044  26.813  38.622  1.00  0.00    -0.237 OA
ATOM     70  O   UNL A   1      47.204  24.711  37.644  1.00  0.00    -0.744 OA
ENDBRANCH  66  67
ENDBRANCH  45  59
BRANCH  46  71
ATOM     71  C   UNL A   1      36.834  32.954  30.732  1.00  0.00     0.058 A 
ATOM     72  C   UNL A   1      35.510  32.615  31.049  1.00  0.00     0.135 A 
ATOM     73  C   UNL A   1      37.042  33.945  29.760  1.00  0.00     0.135 A 
ATOM     74  F   UNL A   1      35.262  31.665  31.964  1.00  0.00    -0.206 F 
ATOM     75  C   UNL A   1      34.432  33.227  30.419  1.00  0.00     0.059 A 
ATOM     76  C   UNL A   1      35.980  34.586  29.132  1.00  0.00     0.059 A 
ATOM     77  F   UNL A   1      38.290  34.309  29.428  1.00  0.00    -0.206 F 
ATOM     78  C   UNL A   1      34.678  34.214  29.463  1.00  0.00     0.060 A 
BRANCH  78  79
ATOM     79  S   UNL A   1      33.273  35.043  28.686  1.00  0.00     0.124 S 
ATOM     80  O   UNL A   1      33.940  36.066  27.890  1.00  0.00    -0.237 OA
ATOM     81  O   UNL A   1      32.649  33.957  27.937  1.00  0.00    -0.237 OA
ATOM     82  O   UNL A   1      32.503  35.532  29.826  1.00  0.00    -0.744 OA
ENDBRANCH  78  79
ENDBRANCH  46  71
BRANCH  58  83
ATOM     83  C   UNL A   1      40.016  33.957  36.855  1.00  0.00     0.058 A 
ATOM     84  C   UNL A   1      40.706  35.178  36.898  1.00  0.00     0.135 A 
ATOM     85  C   UNL A   1      39.069  33.701  37.860  1.00  0.00     0.135 A 
ATOM     86  F   UNL A   1      41.626  35.467  35.965  1.00  0.00    -0.206 F 
ATOM     87  C   UNL A   1      40.479  36.105  37.911  1.00  0.00     0.059 A 
ATOM     88  C   UNL A   1      38.811  34.623  38.870  1.00  0.00     0.059 A 
ATOM     89  F   UNL A   1      38.375  32.552  37.857  1.00  0.00    -0.206 F 
ATOM     90  C   UNL A   1      39.529  35.818  38.893  1.00  0.00     0.060 A 
BRANCH  90  91
ATOM     91  S   UNL A   1      39.218  37.041  40.184  1.00  0.00     0.124 S 
ATOM     92  O   UNL A   1      38.449  36.262  41.148  1.00  0.00    -0.237 OA
ATOM     93  O   UNL A   1      40.566  37.411  40.601  1.00  0.00    -0.237 OA
ATOM     94  O   UNL A   1      38.475  38.087  39.487  1.00  0.00    -0.744 OA
ENDBRANCH  90  91
ENDBRANCH  58  83
ENDBRANCH  32  33
ENDBRANCH  25  27
ENDBRANCH  24  25
ENDBRANCH  23  24
ENDBRANCH   1  23
TORSDOF 19
ENDMDL
