MODEL 1
REMARK VINA RESULT:     -11.5      0.000      0.000
REMARK SMILES N#Cc1ccc2c(c1)C=C(C(=O)OCCOCCOC(=O)c1ccc(-c3c4nc(c(-c5c(F)cc(S(=O)(=O)[O-])cc5F)c5ccc([nH]5)c(-c5c(F)cc(S(=O)(=O)[O-])cc5F)c5nc(c(-c6c(F)cc(S(=O)(=O)[O-])cc6F)c6ccc3[nH]6)C=C5)C=C4)cc1)[C@@H](C(F)(F)F)O2
REMARK SMILES IDX 17 1 16 2 15 3 14 4 13 5 11 6 12 7 10 8 3 9 4 10 8 11 5 12
REMARK SMILES IDX 7 13 6 14 9 15 93 16 88 17 2 18 1 19 89 20 90 21 91 22 92 23
REMARK SMILES IDX 18 24 19 25 20 26 21 27 22 28 23 29 87 30 24 31 86 32 25 33
REMARK SMILES IDX 26 34 27 35 80 36 28 37 85 38 79 39 81 40 29 41 84 42 78 43
REMARK SMILES IDX 77 44 30 46 64 47 43 48 63 49 44 50 47 51 62 52 82 53 45 54
REMARK SMILES IDX 46 55 61 57 83 58 48 59 31 60 32 61 41 62 33 63 34 64 40 65
REMARK SMILES IDX 42 66 35 67 36 68 37 69 38 70 39 71 65 72 66 73 75 74 67 75
REMARK SMILES IDX 68 76 74 77 76 78 69 79 70 80 71 81 72 82 73 83 49 84 50 85
REMARK SMILES IDX 59 86 51 87 52 88 58 89 60 90 53 91 54 92 55 93 56 94 57 95
REMARK H PARENT 81 45 47 56
REMARK Flexibility Score: inf
ROOT
ATOM      1  C   UNL A   1      38.754  21.824  25.754  1.00  0.00     0.202 C 
ENDROOT
BRANCH   1   2
ATOM      2  O   UNL A   1      37.348  22.061  25.752  1.00  0.00    -0.374 OA
BRANCH   2   3
ATOM      3  C   UNL A   1      36.862  23.344  26.135  1.00  0.00     0.202 C 
BRANCH   3   4
ATOM      4  C   UNL A   1      35.445  23.753  25.723  1.00  0.00     0.261 C 
BRANCH   4   5
ATOM      5  O   UNL A   1      34.435  22.981  26.384  1.00  0.00    -0.460 OA
BRANCH   5   6
ATOM      6  C   UNL A   1      33.193  23.137  25.869  1.00  0.00     0.338 C 
ATOM      7  O   UNL A   1      32.479  24.124  25.960  1.00  0.00    -0.246 OA
BRANCH   6   8
ATOM      8  C   UNL A   1      32.855  21.978  25.023  1.00  0.00     0.087 C 
ATOM      9  C   UNL A   1      33.195  17.230  24.403  1.00  0.00     0.053 A 
ATOM     10  C   UNL A   1      32.807  17.384  23.069  1.00  0.00     0.023 A 
ATOM     11  C   UNL A   1      33.221  18.342  25.249  1.00  0.00     0.031 A 
ATOM     12  C   UNL A   1      32.427  18.642  22.590  1.00  0.00     0.048 A 
ATOM     13  C   UNL A   1      32.884  19.607  24.754  1.00  0.00     0.019 A 
ATOM     14  C   UNL A   1      32.467  19.753  23.432  1.00  0.00     0.128 A 
ATOM     15  C   UNL A   1      33.045  20.780  25.589  1.00  0.00     0.027 C 
ATOM     16  O   UNL A   1      32.082  20.944  22.887  1.00  0.00    -0.475 OA
ATOM     17  C   UNL A   1      32.367  22.176  23.613  1.00  0.00     0.316 C 
BRANCH   9  18
ATOM     18  C   UNL A   1      33.592  15.946  24.901  1.00  0.00     0.099 C 
ATOM     19  N   UNL A   1      33.910  14.907  25.313  1.00  0.00    -0.192 NA
ENDBRANCH   9  18
BRANCH  17  20
ATOM     20  C   UNL A   1      33.333  23.024  22.772  1.00  0.00     0.430 C 
ATOM     21  F   UNL A   1      33.222  24.338  23.078  1.00  0.00    -0.167 F 
ATOM     22  F   UNL A   1      34.622  22.676  22.985  1.00  0.00    -0.167 F 
ATOM     23  F   UNL A   1      33.088  22.892  21.449  1.00  0.00    -0.167 F 
ENDBRANCH  17  20
ENDBRANCH   6   8
ENDBRANCH   5   6
ENDBRANCH   4   5
ENDBRANCH   3   4
ENDBRANCH   2   3
ENDBRANCH   1   2
BRANCH   1  24
ATOM     24  C   UNL A   1      39.650  22.549  26.767  1.00  0.00     0.261 C 
BRANCH  24  25
ATOM     25  O   UNL A   1      39.826  23.945  26.493  1.00  0.00    -0.460 OA
BRANCH  25  26
ATOM     26  C   UNL A   1      41.033  24.446  26.870  1.00  0.00     0.338 C 
ATOM     27  O   UNL A   1      42.121  24.191  26.385  1.00  0.00    -0.246 OA
BRANCH  26  28
ATOM     28  C   UNL A   1      40.815  25.527  27.850  1.00  0.00     0.060 A 
ATOM     29  C   UNL A   1      39.638  25.587  28.594  1.00  0.00     0.016 A 
ATOM     30  C   UNL A   1      41.831  26.472  28.040  1.00  0.00     0.016 A 
ATOM     31  C   UNL A   1      39.487  26.595  29.548  1.00  0.00     0.010 A 
ATOM     32  C   UNL A   1      41.678  27.477  28.995  1.00  0.00     0.010 A 
ATOM     33  C   UNL A   1      40.511  27.537  29.769  1.00  0.00    -0.014 A 
BRANCH  33  34
ATOM     34  C   UNL A   1      40.396  28.506  30.888  1.00  0.00     0.031 A 
ATOM     35  C   UNL A   1      41.287  28.421  32.092  1.00  0.00     0.074 A 
ATOM     36  C   UNL A   1      39.465  29.476  30.802  1.00  0.00     0.049 A 
ATOM     37  N   UNL A   1      41.362  29.236  33.114  1.00  0.00    -0.248 NA
ATOM     38  C   UNL A   1      42.208  27.278  32.163  1.00  0.00     0.031 C 
ATOM     39  C   UNL A   1      38.519  29.633  29.695  1.00  0.00     0.029 A 
ATOM     40  N   UNL A   1      39.169  30.518  31.642  1.00  0.00    -0.354 N 
ATOM     41  C   UNL A   1      42.352  28.718  33.941  1.00  0.00     0.074 A 
ATOM     42  C   UNL A   1      42.806  27.488  33.329  1.00  0.00     0.031 C 
ATOM     43  C   UNL A   1      37.780  30.732  29.902  1.00  0.00     0.029 A 
ATOM     44  C   UNL A   1      38.168  31.336  31.174  1.00  0.00     0.049 A 
ATOM     45  H   UNL A   1      39.630  30.667  32.500  1.00  0.00     0.167 HD
ATOM     46  C   UNL A   1      42.847  29.239  35.090  1.00  0.00     0.037 A 
ATOM     47  C   UNL A   1      37.621  32.447  31.705  1.00  0.00     0.037 A 
ATOM     48  C   UNL A   1      42.371  30.458  35.699  1.00  0.00     0.049 A 
ATOM     49  C   UNL A   1      38.150  32.970  33.012  1.00  0.00     0.074 A 
ATOM     50  C   UNL A   1      42.829  31.078  36.849  1.00  0.00     0.029 A 
ATOM     51  N   UNL A   1      41.323  31.232  35.222  1.00  0.00    -0.354 N 
ATOM     52  N   UNL A   1      39.135  32.510  33.745  1.00  0.00    -0.248 NA
ATOM     53  C   UNL A   1      37.497  34.166  33.562  1.00  0.00     0.031 C 
ATOM     54  C   UNL A   1      42.018  32.188  37.103  1.00  0.00     0.029 A 
ATOM     55  C   UNL A   1      41.097  32.303  36.074  1.00  0.00     0.049 A 
ATOM     56  H   UNL A   1      40.813  31.048  34.400  1.00  0.00     0.167 HD
ATOM     57  C   UNL A   1      39.234  33.370  34.834  1.00  0.00     0.074 A 
ATOM     58  C   UNL A   1      38.222  34.391  34.650  1.00  0.00     0.031 C 
ATOM     59  C   UNL A   1      40.085  33.316  35.889  1.00  0.00     0.037 A 
BRANCH  46  60
ATOM     60  C   UNL A   1      43.968  28.499  35.773  1.00  0.00     0.058 A 
ATOM     61  C   UNL A   1      43.714  27.436  36.656  1.00  0.00     0.135 A 
ATOM     62  C   UNL A   1      45.309  28.806  35.492  1.00  0.00     0.135 A 
ATOM     63  F   UNL A   1      42.453  27.102  36.970  1.00  0.00    -0.206 F 
ATOM     64  C   UNL A   1      44.749  26.725  37.257  1.00  0.00     0.059 A 
ATOM     65  C   UNL A   1      46.360  28.088  36.056  1.00  0.00     0.059 A 
ATOM     66  F   UNL A   1      45.612  29.809  34.652  1.00  0.00    -0.206 F 
ATOM     67  C   UNL A   1      46.069  27.056  36.948  1.00  0.00     0.060 A 
BRANCH  67  68
ATOM     68  S   UNL A   1      47.395  26.120  37.739  1.00  0.00     0.124 S 
ATOM     69  O   UNL A   1      47.822  27.047  38.782  1.00  0.00    -0.237 OA
ATOM     70  O   UNL A   1      46.695  24.925  38.199  1.00  0.00    -0.237 OA
ATOM     71  O   UNL A   1      48.354  25.908  36.659  1.00  0.00    -0.744 OA
ENDBRANCH  67  68
ENDBRANCH  46  60
BRANCH  47  72
ATOM     72  C   UNL A   1      36.531  33.150  30.977  1.00  0.00     0.058 A 
ATOM     73  C   UNL A   1      35.204  33.094  31.429  1.00  0.00     0.135 A 
ATOM     74  C   UNL A   1      36.799  33.927  29.837  1.00  0.00     0.135 A 
ATOM     75  F   UNL A   1      34.895  32.360  32.508  1.00  0.00    -0.206 F 
ATOM     76  C   UNL A   1      34.183  33.776  30.778  1.00  0.00     0.059 A 
ATOM     77  C   UNL A   1      35.799  34.644  29.187  1.00  0.00     0.059 A 
ATOM     78  F   UNL A   1      38.054  34.026  29.371  1.00  0.00    -0.206 F 
ATOM     79  C   UNL A   1      34.493  34.557  29.663  1.00  0.00     0.060 A 
BRANCH  79  80
ATOM     80  S   UNL A   1      33.166  35.489  28.869  1.00  0.00     0.124 S 
ATOM     81  O   UNL A   1      33.917  36.431  28.047  1.00  0.00    -0.237 OA
ATOM     82  O   UNL A   1      32.451  34.441  28.148  1.00  0.00    -0.237 OA
ATOM     83  O   UNL A   1      32.443  36.073  29.995  1.00  0.00    -0.744 OA
ENDBRANCH  79  80
ENDBRANCH  47  72
BRANCH  59  84
ATOM     84  C   UNL A   1      39.976  34.395  36.935  1.00  0.00     0.058 A 
ATOM     85  C   UNL A   1      40.757  35.561  36.878  1.00  0.00     0.135 A 
ATOM     86  C   UNL A   1      39.024  34.297  37.965  1.00  0.00     0.135 A 
ATOM     87  F   UNL A   1      41.685  35.705  35.919  1.00  0.00    -0.206 F 
ATOM     88  C   UNL A   1      40.611  36.581  37.813  1.00  0.00     0.059 A 
ATOM     89  C   UNL A   1      38.839  35.320  38.890  1.00  0.00     0.059 A 
ATOM     90  F   UNL A   1      38.244  33.209  38.064  1.00  0.00    -0.206 F 
ATOM     91  C   UNL A   1      39.643  36.455  38.810  1.00  0.00     0.060 A 
BRANCH  91  92
ATOM     92  S   UNL A   1      39.441  37.808  39.988  1.00  0.00     0.124 S 
ATOM     93  O   UNL A   1      38.192  38.411  39.535  1.00  0.00    -0.237 OA
ATOM     94  O   UNL A   1      39.379  37.101  41.263  1.00  0.00    -0.237 OA
ATOM     95  O   UNL A   1      40.636  38.621  39.784  1.00  0.00    -0.744 OA
ENDBRANCH  91  92
ENDBRANCH  59  84
ENDBRANCH  33  34
ENDBRANCH  26  28
ENDBRANCH  25  26
ENDBRANCH  24  25
ENDBRANCH   1  24
TORSDOF 19
ENDMDL
MODEL 2
REMARK VINA RESULT:     -11.4      7.079     12.452
REMARK SMILES N#Cc1ccc2c(c1)C=C(C(=O)OCCOCCOC(=O)c1ccc(-c3c4nc(c(-c5c(F)cc(S(=O)(=O)[O-])cc5F)c5ccc([nH]5)c(-c5c(F)cc(S(=O)(=O)[O-])cc5F)c5nc(c(-c6c(F)cc(S(=O)(=O)[O-])cc6F)c6ccc3[nH]6)C=C5)C=C4)cc1)[C@@H](C(F)(F)F)O2
REMARK SMILES IDX 17 1 16 2 15 3 14 4 13 5 11 6 12 7 10 8 3 9 4 10 8 11 5 12
REMARK SMILES IDX 7 13 6 14 9 15 93 16 88 17 2 18 1 19 89 20 90 21 91 22 92 23
REMARK SMILES IDX 18 24 19 25 20 26 21 27 22 28 23 29 87 30 24 31 86 32 25 33
REMARK SMILES IDX 26 34 27 35 80 36 28 37 85 38 79 39 81 40 29 41 84 42 78 43
REMARK SMILES IDX 77 44 30 46 64 47 43 48 63 49 44 50 47 51 62 52 82 53 45 54
REMARK SMILES IDX 46 55 61 57 83 58 48 59 31 60 32 61 41 62 33 63 34 64 40 65
REMARK SMILES IDX 42 66 35 67 36 68 37 69 38 70 39 71 65 72 66 73 75 74 67 75
REMARK SMILES IDX 68 76 74 77 76 78 69 79 70 80 71 81 72 82 73 83 49 84 50 85
REMARK SMILES IDX 59 86 51 87 52 88 58 89 60 90 53 91 54 92 55 93 56 94 57 95
REMARK H PARENT 81 45 47 56
REMARK Flexibility Score: inf
ROOT
ATOM      1  C   UNL A   1      34.549  32.276  28.234  1.00  0.00     0.202 C 
ENDROOT
BRANCH   1   2
ATOM      2  O   UNL A   1      34.784  31.227  27.298  1.00  0.00    -0.374 OA
BRANCH   2   3
ATOM      3  C   UNL A   1      33.778  30.237  27.101  1.00  0.00     0.202 C 
BRANCH   3   4
ATOM      4  C   UNL A   1      33.833  29.364  25.844  1.00  0.00     0.261 C 
BRANCH   4   5
ATOM      5  O   UNL A   1      33.167  28.107  26.017  1.00  0.00    -0.460 OA
BRANCH   5   6
ATOM      6  C   UNL A   1      33.051  27.381  24.881  1.00  0.00     0.338 C 
ATOM      7  O   UNL A   1      33.865  26.593  24.427  1.00  0.00    -0.246 OA
BRANCH   6   8
ATOM      8  C   UNL A   1      31.699  27.553  24.315  1.00  0.00     0.087 C 
ATOM      9  C   UNL A   1      28.484  30.601  22.467  1.00  0.00     0.053 A 
ATOM     10  C   UNL A   1      27.480  29.649  22.663  1.00  0.00     0.023 A 
ATOM     11  C   UNL A   1      29.812  30.277  22.758  1.00  0.00     0.031 A 
ATOM     12  C   UNL A   1      27.807  28.371  23.127  1.00  0.00     0.048 A 
ATOM     13  C   UNL A   1      30.130  29.012  23.266  1.00  0.00     0.019 A 
ATOM     14  C   UNL A   1      29.131  28.053  23.430  1.00  0.00     0.128 A 
ATOM     15  C   UNL A   1      31.481  28.721  23.698  1.00  0.00     0.027 C 
ATOM     16  O   UNL A   1      29.365  26.785  23.879  1.00  0.00    -0.475 OA
ATOM     17  C   UNL A   1      30.659  26.478  24.477  1.00  0.00     0.316 C 
BRANCH   9  18
ATOM     18  C   UNL A   1      28.158  31.915  21.998  1.00  0.00     0.099 C 
ATOM     19  N   UNL A   1      27.901  32.985  21.623  1.00  0.00    -0.192 NA
ENDBRANCH   9  18
BRANCH  17  20
ATOM     20  C   UNL A   1      30.437  26.092  25.948  1.00  0.00     0.430 C 
ATOM     21  F   UNL A   1      29.236  25.491  26.118  1.00  0.00    -0.167 F 
ATOM     22  F   UNL A   1      31.378  25.227  26.387  1.00  0.00    -0.167 F 
ATOM     23  F   UNL A   1      30.469  27.176  26.756  1.00  0.00    -0.167 F 
ENDBRANCH  17  20
ENDBRANCH   6   8
ENDBRANCH   5   6
ENDBRANCH   4   5
ENDBRANCH   3   4
ENDBRANCH   2   3
ENDBRANCH   1   2
BRANCH   1  24
ATOM     24  C   UNL A   1      35.015  32.122  29.688  1.00  0.00     0.261 C 
BRANCH  24  25
ATOM     25  O   UNL A   1      35.607  30.848  29.978  1.00  0.00    -0.460 OA
BRANCH  25  26
ATOM     26  C   UNL A   1      36.544  30.873  30.963  1.00  0.00     0.338 C 
ATOM     27  O   UNL A   1      36.367  31.124  32.142  1.00  0.00    -0.246 OA
BRANCH  26  28
ATOM     28  C   UNL A   1      37.811  30.344  30.427  1.00  0.00     0.060 A 
ATOM     29  C   UNL A   1      38.046  30.310  29.054  1.00  0.00     0.016 A 
ATOM     30  C   UNL A   1      38.789  29.907  31.331  1.00  0.00     0.016 A 
ATOM     31  C   UNL A   1      39.277  29.849  28.585  1.00  0.00     0.010 A 
ATOM     32  C   UNL A   1      40.019  29.447  30.859  1.00  0.00     0.010 A 
ATOM     33  C   UNL A   1      40.280  29.430  29.483  1.00  0.00    -0.014 A 
BRANCH  33  34
ATOM     34  C   UNL A   1      41.632  29.088  28.975  1.00  0.00     0.031 A 
ATOM     35  C   UNL A   1      42.740  30.099  28.953  1.00  0.00     0.074 A 
ATOM     36  C   UNL A   1      41.850  27.835  28.528  1.00  0.00     0.049 A 
ATOM     37  N   UNL A   1      43.993  29.933  28.613  1.00  0.00    -0.248 NA
ATOM     38  C   UNL A   1      42.402  31.470  29.359  1.00  0.00     0.031 C 
ATOM     39  C   UNL A   1      40.836  26.780  28.469  1.00  0.00     0.029 A 
ATOM     40  N   UNL A   1      42.987  27.231  28.058  1.00  0.00    -0.354 N 
ATOM     41  C   UNL A   1      44.601  31.171  28.783  1.00  0.00     0.074 A 
ATOM     42  C   UNL A   1      43.564  32.091  29.200  1.00  0.00     0.031 C 
ATOM     43  C   UNL A   1      41.407  25.648  28.033  1.00  0.00     0.029 A 
ATOM     44  C   UNL A   1      42.815  25.904  27.742  1.00  0.00     0.049 A 
ATOM     45  H   UNL A   1      43.846  27.703  27.956  1.00  0.00     0.167 HD
ATOM     46  C   UNL A   1      45.907  31.497  28.627  1.00  0.00     0.037 A 
ATOM     47  C   UNL A   1      43.689  24.993  27.271  1.00  0.00     0.037 A 
ATOM     48  C   UNL A   1      46.927  30.574  28.193  1.00  0.00     0.049 A 
ATOM     49  C   UNL A   1      45.121  25.398  27.052  1.00  0.00     0.074 A 
ATOM     50  C   UNL A   1      48.282  30.806  28.031  1.00  0.00     0.029 A 
ATOM     51  N   UNL A   1      46.706  29.251  27.835  1.00  0.00    -0.354 N 
ATOM     52  N   UNL A   1      45.695  26.553  27.286  1.00  0.00    -0.248 NA
ATOM     53  C   UNL A   1      46.025  24.375  26.507  1.00  0.00     0.031 C 
ATOM     54  C   UNL A   1      48.868  29.646  27.515  1.00  0.00     0.029 A 
ATOM     55  C   UNL A   1      47.893  28.666  27.419  1.00  0.00     0.049 A 
ATOM     56  H   UNL A   1      45.835  28.794  27.869  1.00  0.00     0.167 HD
ATOM     57  C   UNL A   1      47.032  26.392  26.937  1.00  0.00     0.074 A 
ATOM     58  C   UNL A   1      47.183  25.020  26.496  1.00  0.00     0.031 C 
ATOM     59  C   UNL A   1      48.039  27.300  26.977  1.00  0.00     0.037 A 
BRANCH  46  60
ATOM     60  C   UNL A   1      46.320  32.914  28.931  1.00  0.00     0.058 A 
ATOM     61  C   UNL A   1      46.755  33.293  30.212  1.00  0.00     0.135 A 
ATOM     62  C   UNL A   1      46.348  33.888  27.919  1.00  0.00     0.135 A 
ATOM     63  F   UNL A   1      46.742  32.407  31.221  1.00  0.00    -0.206 F 
ATOM     64  C   UNL A   1      47.175  34.591  30.484  1.00  0.00     0.059 A 
ATOM     65  C   UNL A   1      46.795  35.184  28.162  1.00  0.00     0.059 A 
ATOM     66  F   UNL A   1      45.948  33.582  26.674  1.00  0.00    -0.206 F 
ATOM     67  C   UNL A   1      47.194  35.529  29.452  1.00  0.00     0.060 A 
BRANCH  67  68
ATOM     68  S   UNL A   1      47.744  37.207  29.829  1.00  0.00     0.124 S 
ATOM     69  O   UNL A   1      48.558  36.986  31.020  1.00  0.00    -0.237 OA
ATOM     70  O   UNL A   1      48.474  37.571  28.619  1.00  0.00    -0.237 OA
ATOM     71  O   UNL A   1      46.497  37.934  30.050  1.00  0.00    -0.744 OA
ENDBRANCH  67  68
ENDBRANCH  46  60
BRANCH  47  72
ATOM     72  C   UNL A   1      43.232  23.602  27.009  1.00  0.00     0.058 A 
ATOM     73  C   UNL A   1      42.971  23.159  25.704  1.00  0.00     0.135 A 
ATOM     74  C   UNL A   1      43.085  22.674  28.054  1.00  0.00     0.135 A 
ATOM     75  F   UNL A   1      43.089  24.008  24.673  1.00  0.00    -0.206 F 
ATOM     76  C   UNL A   1      42.578  21.852  25.443  1.00  0.00     0.059 A 
ATOM     77  C   UNL A   1      42.724  21.352  27.815  1.00  0.00     0.059 A 
ATOM     78  F   UNL A   1      43.336  23.043  29.321  1.00  0.00    -0.206 F 
ATOM     79  C   UNL A   1      42.467  20.953  26.506  1.00  0.00     0.060 A 
BRANCH  79  80
ATOM     80  S   UNL A   1      42.019  19.241  26.142  1.00  0.00     0.124 S 
ATOM     81  O   UNL A   1      42.850  18.961  24.977  1.00  0.00    -0.237 OA
ATOM     82  O   UNL A   1      42.399  18.562  27.376  1.00  0.00    -0.237 OA
ATOM     83  O   UNL A   1      40.584  19.314  25.889  1.00  0.00    -0.744 OA
ENDBRANCH  79  80
ENDBRANCH  47  72
BRANCH  59  84
ATOM     84  C   UNL A   1      49.409  26.848  26.542  1.00  0.00     0.058 A 
ATOM     85  C   UNL A   1      50.293  26.212  27.429  1.00  0.00     0.135 A 
ATOM     86  C   UNL A   1      49.814  26.984  25.203  1.00  0.00     0.135 A 
ATOM     87  F   UNL A   1      49.961  26.060  28.720  1.00  0.00    -0.206 F 
ATOM     88  C   UNL A   1      51.534  25.743  27.009  1.00  0.00     0.059 A 
ATOM     89  C   UNL A   1      51.036  26.493  24.754  1.00  0.00     0.059 A 
ATOM     90  F   UNL A   1      49.007  27.576  24.309  1.00  0.00    -0.206 F 
ATOM     91  C   UNL A   1      51.893  25.881  25.667  1.00  0.00     0.060 A 
BRANCH  91  92
ATOM     92  S   UNL A   1      53.490  25.229  25.133  1.00  0.00     0.124 S 
ATOM     93  O   UNL A   1      53.297  23.793  25.310  1.00  0.00    -0.237 OA
ATOM     94  O   UNL A   1      53.567  25.693  23.752  1.00  0.00    -0.237 OA
ATOM     95  O   UNL A   1      54.438  25.849  26.053  1.00  0.00    -0.744 OA
ENDBRANCH  91  92
ENDBRANCH  59  84
ENDBRANCH  33  34
ENDBRANCH  26  28
ENDBRANCH  25  26
ENDBRANCH  24  25
ENDBRANCH   1  24
TORSDOF 19
ENDMDL
MODEL 3
REMARK VINA RESULT:     -11.3      6.650     11.963
REMARK SMILES N#Cc1ccc2c(c1)C=C(C(=O)OCCOCCOC(=O)c1ccc(-c3c4nc(c(-c5c(F)cc(S(=O)(=O)[O-])cc5F)c5ccc([nH]5)c(-c5c(F)cc(S(=O)(=O)[O-])cc5F)c5nc(c(-c6c(F)cc(S(=O)(=O)[O-])cc6F)c6ccc3[nH]6)C=C5)C=C4)cc1)[C@@H](C(F)(F)F)O2
REMARK SMILES IDX 17 1 16 2 15 3 14 4 13 5 11 6 12 7 10 8 3 9 4 10 8 11 5 12
REMARK SMILES IDX 7 13 6 14 9 15 93 16 88 17 2 18 1 19 89 20 90 21 91 22 92 23
REMARK SMILES IDX 18 24 19 25 20 26 21 27 22 28 23 29 87 30 24 31 86 32 25 33
REMARK SMILES IDX 26 34 27 35 80 36 28 37 85 38 79 39 81 40 29 41 84 42 78 43
REMARK SMILES IDX 77 44 30 46 64 47 43 48 63 49 44 50 47 51 62 52 82 53 45 54
REMARK SMILES IDX 46 55 61 57 83 58 48 59 31 60 32 61 41 62 33 63 34 64 40 65
REMARK SMILES IDX 42 66 35 67 36 68 37 69 38 70 39 71 65 72 66 73 75 74 67 75
REMARK SMILES IDX 68 76 74 77 76 78 69 79 70 80 71 81 72 82 73 83 49 84 50 85
REMARK SMILES IDX 59 86 51 87 52 88 58 89 60 90 53 91 54 92 55 93 56 94 57 95
REMARK H PARENT 81 45 47 56
REMARK Flexibility Score: inf
ROOT
ATOM      1  C   UNL A   1      34.428  32.451  28.574  1.00  0.00     0.202 C 
ENDROOT
BRANCH   1   2
ATOM      2  O   UNL A   1      34.273  31.636  27.415  1.00  0.00    -0.374 OA
BRANCH   2   3
ATOM      3  C   UNL A   1      33.130  30.791  27.311  1.00  0.00     0.202 C 
BRANCH   3   4
ATOM      4  C   UNL A   1      32.971  29.909  26.069  1.00  0.00     0.261 C 
BRANCH   4   5
ATOM      5  O   UNL A   1      33.822  28.756  26.100  1.00  0.00    -0.460 OA
BRANCH   5   6
ATOM      6  C   UNL A   1      33.627  27.897  25.073  1.00  0.00     0.338 C 
ATOM      7  O   UNL A   1      33.747  28.137  23.882  1.00  0.00    -0.246 OA
BRANCH   6   8
ATOM      8  C   UNL A   1      33.390  26.539  25.598  1.00  0.00     0.087 C 
ATOM      9  C   UNL A   1      34.838  21.963  25.687  1.00  0.00     0.053 A 
ATOM     10  C   UNL A   1      33.603  21.591  26.227  1.00  0.00     0.023 A 
ATOM     11  C   UNL A   1      35.120  23.315  25.473  1.00  0.00     0.031 A 
ATOM     12  C   UNL A   1      32.665  22.569  26.571  1.00  0.00     0.048 A 
ATOM     13  C   UNL A   1      34.162  24.288  25.776  1.00  0.00     0.019 A 
ATOM     14  C   UNL A   1      32.943  23.917  26.344  1.00  0.00     0.128 A 
ATOM     15  C   UNL A   1      34.397  25.674  25.426  1.00  0.00     0.027 C 
ATOM     16  O   UNL A   1      31.975  24.808  26.707  1.00  0.00    -0.475 OA
ATOM     17  C   UNL A   1      32.076  26.187  26.243  1.00  0.00     0.316 C 
BRANCH   9  18
ATOM     18  C   UNL A   1      35.803  20.968  25.325  1.00  0.00     0.099 C 
ATOM     19  N   UNL A   1      36.584  20.156  25.041  1.00  0.00    -0.192 NA
ENDBRANCH   9  18
BRANCH  17  20
ATOM     20  C   UNL A   1      30.877  26.484  25.331  1.00  0.00     0.430 C 
ATOM     21  F   UNL A   1      30.644  27.815  25.249  1.00  0.00    -0.167 F 
ATOM     22  F   UNL A   1      31.084  26.041  24.070  1.00  0.00    -0.167 F 
ATOM     23  F   UNL A   1      29.747  25.899  25.790  1.00  0.00    -0.167 F 
ENDBRANCH  17  20
ENDBRANCH   6   8
ENDBRANCH   5   6
ENDBRANCH   4   5
ENDBRANCH   3   4
ENDBRANCH   2   3
ENDBRANCH   1   2
BRANCH   1  24
ATOM     24  C   UNL A   1      35.267  31.948  29.756  1.00  0.00     0.261 C 
BRANCH  24  25
ATOM     25  O   UNL A   1      35.870  30.666  29.538  1.00  0.00    -0.460 OA
BRANCH  25  26
ATOM     26  C   UNL A   1      36.601  30.200  30.586  1.00  0.00     0.338 C 
ATOM     27  O   UNL A   1      36.182  29.834  31.670  1.00  0.00    -0.246 OA
BRANCH  26  28
ATOM     28  C   UNL A   1      37.995  30.007  30.147  1.00  0.00     0.060 A 
ATOM     29  C   UNL A   1      39.017  29.829  31.077  1.00  0.00     0.016 A 
ATOM     30  C   UNL A   1      38.263  29.972  28.772  1.00  0.00     0.016 A 
ATOM     31  C   UNL A   1      40.317  29.599  30.623  1.00  0.00     0.010 A 
ATOM     32  C   UNL A   1      39.564  29.740  28.322  1.00  0.00     0.010 A 
ATOM     33  C   UNL A   1      40.599  29.535  29.244  1.00  0.00    -0.014 A 
BRANCH  33  34
ATOM     34  C   UNL A   1      41.953  29.140  28.783  1.00  0.00     0.031 A 
ATOM     35  C   UNL A   1      43.094  30.114  28.777  1.00  0.00     0.074 A 
ATOM     36  C   UNL A   1      42.142  27.873  28.364  1.00  0.00     0.049 A 
ATOM     37  N   UNL A   1      44.351  29.900  28.477  1.00  0.00    -0.248 NA
ATOM     38  C   UNL A   1      42.791  31.502  29.149  1.00  0.00     0.031 C 
ATOM     39  C   UNL A   1      41.096  26.850  28.292  1.00  0.00     0.029 A 
ATOM     40  N   UNL A   1      43.272  27.223  27.938  1.00  0.00    -0.354 N 
ATOM     41  C   UNL A   1      44.994  31.120  28.645  1.00  0.00     0.074 A 
ATOM     42  C   UNL A   1      43.977  32.082  29.015  1.00  0.00     0.031 C 
ATOM     43  C   UNL A   1      41.641  25.693  27.893  1.00  0.00     0.029 A 
ATOM     44  C   UNL A   1      43.065  25.897  27.639  1.00  0.00     0.049 A 
ATOM     45  H   UNL A   1      44.149  27.665  27.854  1.00  0.00     0.167 HD
ATOM     46  C   UNL A   1      46.314  31.401  28.522  1.00  0.00     0.037 A 
ATOM     47  C   UNL A   1      43.922  24.950  27.211  1.00  0.00     0.037 A 
ATOM     48  C   UNL A   1      47.316  30.437  28.134  1.00  0.00     0.049 A 
ATOM     49  C   UNL A   1      45.372  25.304  27.027  1.00  0.00     0.074 A 
ATOM     50  C   UNL A   1      48.682  30.622  28.009  1.00  0.00     0.029 A 
ATOM     51  N   UNL A   1      47.061  29.116  27.792  1.00  0.00    -0.354 N 
ATOM     52  N   UNL A   1      45.977  26.444  27.259  1.00  0.00    -0.248 NA
ATOM     53  C   UNL A   1      46.257  24.243  26.527  1.00  0.00     0.031 C 
ATOM     54  C   UNL A   1      49.244  29.435  27.530  1.00  0.00     0.029 A 
ATOM     55  C   UNL A   1      48.240  28.486  27.422  1.00  0.00     0.049 A 
ATOM     56  H   UNL A   1      46.174  28.689  27.808  1.00  0.00     0.167 HD
ATOM     57  C   UNL A   1      47.318  26.232  26.953  1.00  0.00     0.074 A 
ATOM     58  C   UNL A   1      47.436  24.849  26.539  1.00  0.00     0.031 C 
ATOM     59  C   UNL A   1      48.353  27.108  27.008  1.00  0.00     0.037 A 
BRANCH  46  60
ATOM     60  C   UNL A   1      46.765  32.809  28.814  1.00  0.00     0.058 A 
ATOM     61  C   UNL A   1      47.196  33.190  30.096  1.00  0.00     0.135 A 
ATOM     62  C   UNL A   1      46.833  33.769  27.792  1.00  0.00     0.135 A 
ATOM     63  F   UNL A   1      47.146  32.318  31.115  1.00  0.00    -0.206 F 
ATOM     64  C   UNL A   1      47.651  34.479  30.358  1.00  0.00     0.059 A 
ATOM     65  C   UNL A   1      47.315  35.055  28.024  1.00  0.00     0.059 A 
ATOM     66  F   UNL A   1      46.439  33.461  26.546  1.00  0.00    -0.206 F 
ATOM     67  C   UNL A   1      47.710  35.404  29.315  1.00  0.00     0.060 A 
BRANCH  67  68
ATOM     68  S   UNL A   1      48.304  37.069  29.679  1.00  0.00     0.124 S 
ATOM     69  O   UNL A   1      47.064  37.839  29.621  1.00  0.00    -0.237 OA
ATOM     70  O   UNL A   1      48.887  36.905  31.006  1.00  0.00    -0.237 OA
ATOM     71  O   UNL A   1      49.255  37.336  28.604  1.00  0.00    -0.744 OA
ENDBRANCH  67  68
ENDBRANCH  46  60
BRANCH  47  72
ATOM     72  C   UNL A   1      43.426  23.570  26.959  1.00  0.00     0.058 A 
ATOM     73  C   UNL A   1      43.204  23.108  25.653  1.00  0.00     0.135 A 
ATOM     74  C   UNL A   1      43.205  22.671  28.016  1.00  0.00     0.135 A 
ATOM     75  F   UNL A   1      43.393  23.930  24.610  1.00  0.00    -0.206 F 
ATOM     76  C   UNL A   1      42.774  21.810  25.403  1.00  0.00     0.059 A 
ATOM     77  C   UNL A   1      42.806  21.358  27.789  1.00  0.00     0.059 A 
ATOM     78  F   UNL A   1      43.417  23.059  29.283  1.00  0.00    -0.206 F 
ATOM     79  C   UNL A   1      42.589  20.939  26.478  1.00  0.00     0.060 A 
BRANCH  79  80
ATOM     80  S   UNL A   1      42.096  19.236  26.132  1.00  0.00     0.124 S 
ATOM     81  O   UNL A   1      42.916  18.923  24.967  1.00  0.00    -0.237 OA
ATOM     82  O   UNL A   1      42.461  18.558  27.371  1.00  0.00    -0.237 OA
ATOM     83  O   UNL A   1      40.662  19.344  25.882  1.00  0.00    -0.744 OA
ENDBRANCH  79  80
ENDBRANCH  47  72
BRANCH  59  84
ATOM     84  C   UNL A   1      49.719  26.603  26.622  1.00  0.00     0.058 A 
ATOM     85  C   UNL A   1      50.612  26.086  27.574  1.00  0.00     0.135 A 
ATOM     86  C   UNL A   1      50.112  26.566  25.272  1.00  0.00     0.135 A 
ATOM     87  F   UNL A   1      50.292  26.101  28.877  1.00  0.00    -0.206 F 
ATOM     88  C   UNL A   1      51.850  25.567  27.206  1.00  0.00     0.059 A 
ATOM     89  C   UNL A   1      51.330  26.021  24.878  1.00  0.00     0.059 A 
ATOM     90  F   UNL A   1      49.296  27.039  24.317  1.00  0.00    -0.206 F 
ATOM     91  C   UNL A   1      52.196  25.531  25.854  1.00  0.00     0.060 A 
BRANCH  91  92
ATOM     92  S   UNL A   1      53.788  24.816  25.393  1.00  0.00     0.124 S 
ATOM     93  O   UNL A   1      54.548  24.963  26.631  1.00  0.00    -0.237 OA
ATOM     94  O   UNL A   1      53.421  23.451  25.034  1.00  0.00    -0.237 OA
ATOM     95  O   UNL A   1      54.233  25.655  24.285  1.00  0.00    -0.744 OA
ENDBRANCH  91  92
ENDBRANCH  59  84
ENDBRANCH  33  34
ENDBRANCH  26  28
ENDBRANCH  25  26
ENDBRANCH  24  25
ENDBRANCH   1  24
TORSDOF 19
ENDMDL
