MODEL 1
REMARK VINA RESULT:     -10.9      0.000      0.000
REMARK SMILES C[NH2+][C@@]1(C(=O)OCCOCCOC(=O)c2ccc(-c3c4nc(c(-c5c(F)cc(S(=O)(=O)[O-])cc5F)c5ccc([nH]5)c(-c5c(F)cc(S(=O)(=O)[O-])cc5F)c5nc(c(-c6c(F)cc(S(=O)(=O)[O-])cc6F)c6ccc3[nH]6)C=C5)C=C4)cc2)CC[C@H](Sc2nccc(=O)[nH]2)C1
REMARK SMILES IDX 10 1 9 2 8 3 7 4 6 5 4 6 5 7 3 8 81 9 92 10 82 11 83 12 2 13
REMARK SMILES IDX 1 14 84 17 85 18 86 19 91 20 87 21 89 22 88 24 90 25 11 26
REMARK SMILES IDX 12 27 13 28 14 29 15 30 16 31 80 32 17 33 79 34 18 35 19 36
REMARK SMILES IDX 20 37 73 38 21 39 78 40 72 41 74 42 22 43 77 44 71 45 70 46
REMARK SMILES IDX 23 48 57 49 36 50 56 51 37 52 40 53 55 54 75 55 38 56 39 57
REMARK SMILES IDX 54 59 76 60 41 61 24 62 25 63 34 64 26 65 27 66 33 67 35 68
REMARK SMILES IDX 28 69 29 70 30 71 31 72 32 73 58 74 59 75 68 76 60 77 61 78
REMARK SMILES IDX 67 79 69 80 62 81 63 82 64 83 65 84 66 85 42 86 43 87 52 88
REMARK SMILES IDX 44 89 45 90 51 91 53 92 46 93 47 94 48 95 49 96 50 97
REMARK H PARENT 2 15 2 16 91 23 74 47 40 58
REMARK Flexibility Score: inf
ROOT
ATOM      1  C   UNL A   1      38.946  21.936  25.822  1.00  0.00     0.202 C 
ENDROOT
BRANCH   1   2
ATOM      2  O   UNL A   1      37.535  22.138  25.830  1.00  0.00    -0.374 OA
BRANCH   2   3
ATOM      3  C   UNL A   1      36.965  22.767  24.678  1.00  0.00     0.202 C 
BRANCH   3   4
ATOM      4  C   UNL A   1      35.866  23.796  24.952  1.00  0.00     0.261 C 
BRANCH   4   5
ATOM      5  O   UNL A   1      34.869  23.747  23.917  1.00  0.00    -0.459 OA
BRANCH   5   6
ATOM      6  C   UNL A   1      33.681  24.335  24.196  1.00  0.00     0.368 C 
ATOM      7  O   UNL A   1      33.550  25.374  24.840  1.00  0.00    -0.245 OA
BRANCH   6   8
ATOM      8  C   UNL A   1      32.465  23.568  23.591  1.00  0.00     0.195 C 
ATOM      9  C   UNL A   1      31.421  23.427  24.705  1.00  0.00     0.082 C 
ATOM     10  C   UNL A   1      32.676  22.098  23.178  1.00  0.00     0.096 C 
ATOM     11  C   UNL A   1      31.904  22.217  25.497  1.00  0.00     0.022 C 
ATOM     12  C   UNL A   1      32.432  21.241  24.441  1.00  0.00     0.062 C 
BRANCH   8  13
ATOM     13  N   UNL A   1      31.893  24.383  22.480  1.00  0.00    -0.335 N 
ATOM     14  C   UNL A   1      32.880  24.785  21.480  1.00  0.00     0.331 C 
ATOM     15  H   UNL A   1      31.171  23.833  22.016  1.00  0.00     0.347 HD
ATOM     16  H   UNL A   1      31.524  25.238  22.896  1.00  0.00     0.347 HD
ENDBRANCH   8  13
BRANCH  12  17
ATOM     17  S   UNL A   1      33.960  20.375  24.904  1.00  0.00    -0.084 SA
BRANCH  17  18
ATOM     18  C   UNL A   1      33.489  18.708  24.917  1.00  0.00     0.168 A 
ATOM     19  N   UNL A   1      32.654  18.185  25.749  1.00  0.00    -0.233 NA
ATOM     20  N   UNL A   1      34.117  18.023  23.928  1.00  0.00    -0.301 N 
ATOM     21  C   UNL A   1      32.451  16.831  25.618  1.00  0.00     0.120 A 
ATOM     22  C   UNL A   1      33.867  16.710  23.684  1.00  0.00     0.251 A 
ATOM     23  H   UNL A   1      34.775  18.493  23.368  1.00  0.00     0.172 HD
ATOM     24  C   UNL A   1      32.995  16.058  24.670  1.00  0.00     0.091 A 
ATOM     25  O   UNL A   1      34.296  16.125  22.702  1.00  0.00    -0.269 OA
ENDBRANCH  17  18
ENDBRANCH  12  17
ENDBRANCH   6   8
ENDBRANCH   5   6
ENDBRANCH   4   5
ENDBRANCH   3   4
ENDBRANCH   2   3
ENDBRANCH   1   2
BRANCH   1  26
ATOM     26  C   UNL A   1      39.792  22.895  26.673  1.00  0.00     0.261 C 
BRANCH  26  27
ATOM     27  O   UNL A   1      39.324  24.251  26.618  1.00  0.00    -0.460 OA
BRANCH  27  28
ATOM     28  C   UNL A   1      40.300  25.176  26.437  1.00  0.00     0.338 C 
ATOM     29  O   UNL A   1      40.894  25.427  25.403  1.00  0.00    -0.246 OA
BRANCH  28  30
ATOM     30  C   UNL A   1      40.435  26.004  27.651  1.00  0.00     0.060 A 
ATOM     31  C   UNL A   1      39.435  25.886  28.623  1.00  0.00     0.016 A 
ATOM     32  C   UNL A   1      41.470  26.928  27.804  1.00  0.00     0.016 A 
ATOM     33  C   UNL A   1      39.444  26.718  29.741  1.00  0.00     0.010 A 
ATOM     34  C   UNL A   1      41.468  27.773  28.922  1.00  0.00     0.010 A 
ATOM     35  C   UNL A   1      40.442  27.690  29.882  1.00  0.00    -0.014 A 
BRANCH  35  36
ATOM     36  C   UNL A   1      40.309  28.726  30.938  1.00  0.00     0.031 A 
ATOM     37  C   UNL A   1      41.199  28.637  32.150  1.00  0.00     0.074 A 
ATOM     38  C   UNL A   1      39.448  29.751  30.805  1.00  0.00     0.049 A 
ATOM     39  N   UNL A   1      41.247  29.407  33.205  1.00  0.00    -0.248 NA
ATOM     40  C   UNL A   1      42.168  27.528  32.171  1.00  0.00     0.031 C 
ATOM     41  C   UNL A   1      38.557  29.969  29.664  1.00  0.00     0.029 A 
ATOM     42  N   UNL A   1      39.176  30.803  31.646  1.00  0.00    -0.354 N 
ATOM     43  C   UNL A   1      42.237  28.869  34.021  1.00  0.00     0.074 A 
ATOM     44  C   UNL A   1      42.742  27.690  33.354  1.00  0.00     0.031 C 
ATOM     45  C   UNL A   1      37.826  31.076  29.884  1.00  0.00     0.029 A 
ATOM     46  C   UNL A   1      38.176  31.629  31.193  1.00  0.00     0.049 A 
ATOM     47  H   UNL A   1      39.654  30.951  32.493  1.00  0.00     0.167 HD
ATOM     48  C   UNL A   1      42.695  29.325  35.210  1.00  0.00     0.037 A 
ATOM     49  C   UNL A   1      37.595  32.696  31.776  1.00  0.00     0.037 A 
ATOM     50  C   UNL A   1      42.196  30.505  35.864  1.00  0.00     0.049 A 
ATOM     51  C   UNL A   1      38.080  33.153  33.128  1.00  0.00     0.074 A 
ATOM     52  C   UNL A   1      42.609  31.064  37.061  1.00  0.00     0.029 A 
ATOM     53  N   UNL A   1      41.170  31.304  35.382  1.00  0.00    -0.354 N 
ATOM     54  N   UNL A   1      39.036  32.653  33.876  1.00  0.00    -0.248 NA
ATOM     55  C   UNL A   1      37.413  34.325  33.715  1.00  0.00     0.031 C 
ATOM     56  C   UNL A   1      41.802  32.176  37.324  1.00  0.00     0.029 A 
ATOM     57  C   UNL A   1      40.921  32.340  36.266  1.00  0.00     0.049 A 
ATOM     58  H   UNL A   1      40.689  31.156  34.536  1.00  0.00     0.167 HD
ATOM     59  C   UNL A   1      39.104  33.463  35.005  1.00  0.00     0.074 A 
ATOM     60  C   UNL A   1      38.099  34.493  34.838  1.00  0.00     0.031 C 
ATOM     61  C   UNL A   1      39.925  33.365  36.080  1.00  0.00     0.037 A 
BRANCH  48  62
ATOM     62  C   UNL A   1      43.777  28.531  35.887  1.00  0.00     0.058 A 
ATOM     63  C   UNL A   1      43.481  27.468  36.756  1.00  0.00     0.135 A 
ATOM     64  C   UNL A   1      45.130  28.823  35.648  1.00  0.00     0.135 A 
ATOM     65  F   UNL A   1      42.205  27.159  37.037  1.00  0.00    -0.206 F 
ATOM     66  C   UNL A   1      44.487  26.743  37.387  1.00  0.00     0.059 A 
ATOM     67  C   UNL A   1      46.152  28.093  36.245  1.00  0.00     0.059 A 
ATOM     68  F   UNL A   1      45.468  29.831  34.829  1.00  0.00    -0.206 F 
ATOM     69  C   UNL A   1      45.820  27.064  37.125  1.00  0.00     0.060 A 
BRANCH  69  70
ATOM     70  S   UNL A   1      47.115  26.112  37.949  1.00  0.00     0.124 S 
ATOM     71  O   UNL A   1      48.244  27.033  37.877  1.00  0.00    -0.237 OA
ATOM     72  O   UNL A   1      46.551  25.904  39.279  1.00  0.00    -0.237 OA
ATOM     73  O   UNL A   1      47.230  24.912  37.126  1.00  0.00    -0.744 OA
ENDBRANCH  69  70
ENDBRANCH  48  62
BRANCH  49  74
ATOM     74  C   UNL A   1      36.482  33.407  31.089  1.00  0.00     0.058 A 
ATOM     75  C   UNL A   1      35.159  33.299  31.543  1.00  0.00     0.135 A 
ATOM     76  C   UNL A   1      36.721  34.211  29.961  1.00  0.00     0.135 A 
ATOM     77  F   UNL A   1      34.877  32.535  32.609  1.00  0.00    -0.206 F 
ATOM     78  C   UNL A   1      34.110  33.949  30.898  1.00  0.00     0.059 A 
ATOM     79  C   UNL A   1      35.692  34.889  29.315  1.00  0.00     0.059 A 
ATOM     80  F   UNL A   1      37.968  34.359  29.490  1.00  0.00    -0.206 F 
ATOM     81  C   UNL A   1      34.389  34.745  29.786  1.00  0.00     0.060 A 
BRANCH  81  82
ATOM     82  S   UNL A   1      33.028  35.625  28.987  1.00  0.00     0.124 S 
ATOM     83  O   UNL A   1      33.744  36.627  28.206  1.00  0.00    -0.237 OA
ATOM     84  O   UNL A   1      32.380  34.562  28.226  1.00  0.00    -0.237 OA
ATOM     85  O   UNL A   1      32.255  36.138  30.115  1.00  0.00    -0.744 OA
ENDBRANCH  81  82
ENDBRANCH  49  74
BRANCH  61  86
ATOM     86  C   UNL A   1      39.806  34.420  37.146  1.00  0.00     0.058 A 
ATOM     87  C   UNL A   1      39.017  34.230  38.291  1.00  0.00     0.135 A 
ATOM     88  C   UNL A   1      40.542  35.613  37.049  1.00  0.00     0.135 A 
ATOM     89  F   UNL A   1      38.289  33.111  38.432  1.00  0.00    -0.206 F 
ATOM     90  C   UNL A   1      38.944  35.194  39.292  1.00  0.00     0.059 A 
ATOM     91  C   UNL A   1      40.506  36.577  38.051  1.00  0.00     0.059 A 
ATOM     92  F   UNL A   1      41.322  35.840  35.981  1.00  0.00    -0.206 F 
ATOM     93  C   UNL A   1      39.695  36.364  39.164  1.00  0.00     0.060 A 
BRANCH  93  94
ATOM     94  S   UNL A   1      39.620  37.591  40.486  1.00  0.00     0.124 S 
ATOM     95  O   UNL A   1      39.029  36.818  41.573  1.00  0.00    -0.237 OA
ATOM     96  O   UNL A   1      41.024  37.954  40.656  1.00  0.00    -0.237 OA
ATOM     97  O   UNL A   1      38.772  38.641  39.928  1.00  0.00    -0.744 OA
ENDBRANCH  93  94
ENDBRANCH  61  86
ENDBRANCH  35  36
ENDBRANCH  28  30
ENDBRANCH  27  28
ENDBRANCH  26  27
ENDBRANCH   1  26
TORSDOF 20
ENDMDL
MODEL 2
REMARK VINA RESULT:     -10.5      3.049      9.389
REMARK SMILES C[NH2+][C@@]1(C(=O)OCCOCCOC(=O)c2ccc(-c3c4nc(c(-c5c(F)cc(S(=O)(=O)[O-])cc5F)c5ccc([nH]5)c(-c5c(F)cc(S(=O)(=O)[O-])cc5F)c5nc(c(-c6c(F)cc(S(=O)(=O)[O-])cc6F)c6ccc3[nH]6)C=C5)C=C4)cc2)CC[C@H](Sc2nccc(=O)[nH]2)C1
REMARK SMILES IDX 10 1 9 2 8 3 7 4 6 5 4 6 5 7 3 8 81 9 92 10 82 11 83 12 2 13
REMARK SMILES IDX 1 14 84 17 85 18 86 19 91 20 87 21 89 22 88 24 90 25 11 26
REMARK SMILES IDX 12 27 13 28 14 29 15 30 16 31 80 32 17 33 79 34 18 35 19 36
REMARK SMILES IDX 20 37 73 38 21 39 78 40 72 41 74 42 22 43 77 44 71 45 70 46
REMARK SMILES IDX 23 48 57 49 36 50 56 51 37 52 40 53 55 54 75 55 38 56 39 57
REMARK SMILES IDX 54 59 76 60 41 61 24 62 25 63 34 64 26 65 27 66 33 67 35 68
REMARK SMILES IDX 28 69 29 70 30 71 31 72 32 73 58 74 59 75 68 76 60 77 61 78
REMARK SMILES IDX 67 79 69 80 62 81 63 82 64 83 65 84 66 85 42 86 43 87 52 88
REMARK SMILES IDX 44 89 45 90 51 91 53 92 46 93 47 94 48 95 49 96 50 97
REMARK H PARENT 2 15 2 16 91 23 74 47 40 58
REMARK Flexibility Score: inf
ROOT
ATOM      1  C   UNL A   1      34.052  31.064  27.250  1.00  0.00     0.202 C 
ENDROOT
BRANCH   1   2
ATOM      2  O   UNL A   1      33.344  30.184  26.379  1.00  0.00    -0.374 OA
BRANCH   2   3
ATOM      3  C   UNL A   1      32.880  28.953  26.942  1.00  0.00     0.202 C 
BRANCH   3   4
ATOM      4  C   UNL A   1      33.298  27.679  26.204  1.00  0.00     0.261 C 
BRANCH   4   5
ATOM      5  O   UNL A   1      32.139  26.911  25.839  1.00  0.00    -0.459 OA
BRANCH   5   6
ATOM      6  C   UNL A   1      32.290  26.041  24.813  1.00  0.00     0.368 C 
ATOM      7  O   UNL A   1      33.357  25.526  24.484  1.00  0.00    -0.245 OA
BRANCH   6   8
ATOM      8  C   UNL A   1      30.949  25.724  24.080  1.00  0.00     0.195 C 
ATOM      9  C   UNL A   1      31.273  25.582  22.588  1.00  0.00     0.082 C 
ATOM     10  C   UNL A   1      29.866  26.821  24.058  1.00  0.00     0.096 C 
ATOM     11  C   UNL A   1      31.307  27.023  22.090  1.00  0.00     0.022 C 
ATOM     12  C   UNL A   1      30.174  27.726  22.844  1.00  0.00     0.062 C 
BRANCH   8  13
ATOM     13  N   UNL A   1      30.420  24.428  24.595  1.00  0.00    -0.335 N 
ATOM     14  C   UNL A   1      30.899  23.264  23.853  1.00  0.00     0.331 C 
ATOM     15  H   UNL A   1      30.706  24.328  25.569  1.00  0.00     0.347 HD
ATOM     16  H   UNL A   1      29.407  24.455  24.488  1.00  0.00     0.347 HD
ENDBRANCH   8  13
BRANCH  12  17
ATOM     17  S   UNL A   1      30.567  29.406  23.410  1.00  0.00    -0.084 SA
BRANCH  17  18
ATOM     18  C   UNL A   1      29.520  30.407  22.460  1.00  0.00     0.168 A 
ATOM     19  N   UNL A   1      28.845  30.004  21.437  1.00  0.00    -0.233 NA
ATOM     20  N   UNL A   1      29.502  31.676  22.937  1.00  0.00    -0.301 N 
ATOM     21  C   UNL A   1      28.107  30.969  20.792  1.00  0.00     0.120 A 
ATOM     22  C   UNL A   1      28.706  32.640  22.406  1.00  0.00     0.251 A 
ATOM     23  H   UNL A   1      30.086  31.907  23.695  1.00  0.00     0.172 HD
ATOM     24  C   UNL A   1      27.996  32.244  21.183  1.00  0.00     0.091 A 
ATOM     25  O   UNL A   1      28.556  33.736  22.923  1.00  0.00    -0.269 OA
ENDBRANCH  17  18
ENDBRANCH  12  17
ENDBRANCH   6   8
ENDBRANCH   5   6
ENDBRANCH   4   5
ENDBRANCH   3   4
ENDBRANCH   2   3
ENDBRANCH   1   2
BRANCH   1  26
ATOM     26  C   UNL A   1      33.223  32.112  28.006  1.00  0.00     0.261 C 
BRANCH  26  27
ATOM     27  O   UNL A   1      33.539  33.459  27.620  1.00  0.00    -0.460 OA
BRANCH  27  28
ATOM     28  C   UNL A   1      33.506  34.357  28.636  1.00  0.00     0.338 C 
ATOM     29  O   UNL A   1      32.651  35.199  28.847  1.00  0.00    -0.246 OA
BRANCH  28  30
ATOM     30  C   UNL A   1      34.581  34.059  29.602  1.00  0.00     0.060 A 
ATOM     31  C   UNL A   1      35.901  34.210  29.160  1.00  0.00     0.016 A 
ATOM     32  C   UNL A   1      34.312  33.573  30.883  1.00  0.00     0.016 A 
ATOM     33  C   UNL A   1      36.962  33.841  29.985  1.00  0.00     0.010 A 
ATOM     34  C   UNL A   1      35.381  33.189  31.703  1.00  0.00     0.010 A 
ATOM     35  C   UNL A   1      36.709  33.298  31.250  1.00  0.00    -0.014 A 
BRANCH  35  36
ATOM     36  C   UNL A   1      37.822  32.685  32.018  1.00  0.00     0.031 A 
ATOM     37  C   UNL A   1      38.534  31.495  31.429  1.00  0.00     0.074 A 
ATOM     38  C   UNL A   1      38.226  33.201  33.194  1.00  0.00     0.049 A 
ATOM     39  N   UNL A   1      39.513  30.783  31.922  1.00  0.00    -0.248 NA
ATOM     40  C   UNL A   1      38.079  31.051  30.100  1.00  0.00     0.031 C 
ATOM     41  C   UNL A   1      37.643  34.370  33.852  1.00  0.00     0.029 A 
ATOM     42  N   UNL A   1      39.223  32.799  34.049  1.00  0.00    -0.354 N 
ATOM     43  C   UNL A   1      39.780  29.801  30.974  1.00  0.00     0.074 A 
ATOM     44  C   UNL A   1      38.840  29.988  29.892  1.00  0.00     0.031 C 
ATOM     45  C   UNL A   1      38.281  34.581  35.016  1.00  0.00     0.029 A 
ATOM     46  C   UNL A   1      39.299  33.546  35.199  1.00  0.00     0.049 A 
ATOM     47  H   UNL A   1      39.826  32.046  33.855  1.00  0.00     0.167 HD
ATOM     48  C   UNL A   1      40.733  28.839  30.997  1.00  0.00     0.037 A 
ATOM     49  C   UNL A   1      40.085  33.399  36.285  1.00  0.00     0.037 A 
ATOM     50  C   UNL A   1      41.672  28.664  32.072  1.00  0.00     0.049 A 
ATOM     51  C   UNL A   1      41.100  32.285  36.315  1.00  0.00     0.074 A 
ATOM     52  C   UNL A   1      42.692  27.734  32.179  1.00  0.00     0.029 A 
ATOM     53  N   UNL A   1      41.705  29.430  33.228  1.00  0.00    -0.354 N 
ATOM     54  N   UNL A   1      41.362  31.380  35.400  1.00  0.00    -0.248 NA
ATOM     55  C   UNL A   1      41.933  32.174  37.521  1.00  0.00     0.031 C 
ATOM     56  C   UNL A   1      43.311  27.908  33.421  1.00  0.00     0.029 A 
ATOM     57  C   UNL A   1      42.713  28.981  34.065  1.00  0.00     0.049 A 
ATOM     58  H   UNL A   1      41.101  30.181  33.425  1.00  0.00     0.167 HD
ATOM     59  C   UNL A   1      42.406  30.613  35.907  1.00  0.00     0.074 A 
ATOM     60  C   UNL A   1      42.735  31.165  37.205  1.00  0.00     0.031 C 
ATOM     61  C   UNL A   1      43.036  29.549  35.350  1.00  0.00     0.037 A 
BRANCH  48  62
ATOM     62  C   UNL A   1      40.789  27.892  29.831  1.00  0.00     0.058 A 
ATOM     63  C   UNL A   1      41.815  27.959  28.873  1.00  0.00     0.135 A 
ATOM     64  C   UNL A   1      39.817  26.891  29.679  1.00  0.00     0.135 A 
ATOM     65  F   UNL A   1      42.759  28.910  28.958  1.00  0.00    -0.206 F 
ATOM     66  C   UNL A   1      41.857  27.086  27.791  1.00  0.00     0.059 A 
ATOM     67  C   UNL A   1      39.855  25.989  28.620  1.00  0.00     0.059 A 
ATOM     68  F   UNL A   1      38.813  26.785  30.564  1.00  0.00    -0.206 F 
ATOM     69  C   UNL A   1      40.871  26.104  27.673  1.00  0.00     0.060 A 
BRANCH  69  70
ATOM     70  S   UNL A   1      40.941  24.977  26.264  1.00  0.00     0.124 S 
ATOM     71  O   UNL A   1      42.121  24.181  26.587  1.00  0.00    -0.237 OA
ATOM     72  O   UNL A   1      39.661  24.280  26.358  1.00  0.00    -0.237 OA
ATOM     73  O   UNL A   1      41.081  25.872  25.120  1.00  0.00    -0.744 OA
ENDBRANCH  69  70
ENDBRANCH  48  62
BRANCH  49  74
ATOM     74  C   UNL A   1      39.942  34.327  37.439  1.00  0.00     0.058 A 
ATOM     75  C   UNL A   1      39.128  34.005  38.535  1.00  0.00     0.135 A 
ATOM     76  C   UNL A   1      40.619  35.557  37.470  1.00  0.00     0.135 A 
ATOM     77  F   UNL A   1      38.451  32.847  38.549  1.00  0.00    -0.206 F 
ATOM     78  C   UNL A   1      38.976  34.873  39.613  1.00  0.00     0.059 A 
ATOM     79  C   UNL A   1      40.502  36.431  38.547  1.00  0.00     0.059 A 
ATOM     80  F   UNL A   1      41.420  35.912  36.453  1.00  0.00    -0.206 F 
ATOM     81  C   UNL A   1      39.672  36.083  39.610  1.00  0.00     0.060 A 
BRANCH  81  82
ATOM     82  S   UNL A   1      39.510  37.180  41.037  1.00  0.00     0.124 S 
ATOM     83  O   UNL A   1      38.832  36.317  41.997  1.00  0.00    -0.237 OA
ATOM     84  O   UNL A   1      40.902  37.500  41.336  1.00  0.00    -0.237 OA
ATOM     85  O   UNL A   1      38.719  38.290  40.516  1.00  0.00    -0.744 OA
ENDBRANCH  81  82
ENDBRANCH  49  74
BRANCH  61  86
ATOM     86  C   UNL A   1      44.176  28.933  36.115  1.00  0.00     0.058 A 
ATOM     87  C   UNL A   1      45.472  29.469  36.071  1.00  0.00     0.135 A 
ATOM     88  C   UNL A   1      43.952  27.828  36.951  1.00  0.00     0.135 A 
ATOM     89  F   UNL A   1      45.742  30.523  35.284  1.00  0.00    -0.206 F 
ATOM     90  C   UNL A   1      46.512  28.918  36.813  1.00  0.00     0.059 A 
ATOM     91  C   UNL A   1      44.970  27.278  37.724  1.00  0.00     0.059 A 
ATOM     92  F   UNL A   1      42.729  27.283  37.040  1.00  0.00    -0.206 F 
ATOM     93  C   UNL A   1      46.250  27.824  37.639  1.00  0.00     0.060 A 
BRANCH  93  94
ATOM     94  S   UNL A   1      47.599  27.139  38.625  1.00  0.00     0.124 S 
ATOM     95  O   UNL A   1      47.371  27.773  39.919  1.00  0.00    -0.237 OA
ATOM     96  O   UNL A   1      47.333  25.705  38.566  1.00  0.00    -0.237 OA
ATOM     97  O   UNL A   1      48.797  27.577  37.913  1.00  0.00    -0.744 OA
ENDBRANCH  93  94
ENDBRANCH  61  86
ENDBRANCH  35  36
ENDBRANCH  28  30
ENDBRANCH  27  28
ENDBRANCH  26  27
ENDBRANCH   1  26
TORSDOF 20
ENDMDL
MODEL 3
REMARK VINA RESULT:     -10.5      5.606      7.918
REMARK SMILES C[NH2+][C@@]1(C(=O)OCCOCCOC(=O)c2ccc(-c3c4nc(c(-c5c(F)cc(S(=O)(=O)[O-])cc5F)c5ccc([nH]5)c(-c5c(F)cc(S(=O)(=O)[O-])cc5F)c5nc(c(-c6c(F)cc(S(=O)(=O)[O-])cc6F)c6ccc3[nH]6)C=C5)C=C4)cc2)CC[C@H](Sc2nccc(=O)[nH]2)C1
REMARK SMILES IDX 10 1 9 2 8 3 7 4 6 5 4 6 5 7 3 8 81 9 92 10 82 11 83 12 2 13
REMARK SMILES IDX 1 14 84 17 85 18 86 19 91 20 87 21 89 22 88 24 90 25 11 26
REMARK SMILES IDX 12 27 13 28 14 29 15 30 16 31 80 32 17 33 79 34 18 35 19 36
REMARK SMILES IDX 20 37 73 38 21 39 78 40 72 41 74 42 22 43 77 44 71 45 70 46
REMARK SMILES IDX 23 48 57 49 36 50 56 51 37 52 40 53 55 54 75 55 38 56 39 57
REMARK SMILES IDX 54 59 76 60 41 61 24 62 25 63 34 64 26 65 27 66 33 67 35 68
REMARK SMILES IDX 28 69 29 70 30 71 31 72 32 73 58 74 59 75 68 76 60 77 61 78
REMARK SMILES IDX 67 79 69 80 62 81 63 82 64 83 65 84 66 85 42 86 43 87 52 88
REMARK SMILES IDX 44 89 45 90 51 91 53 92 46 93 47 94 48 95 49 96 50 97
REMARK H PARENT 2 15 2 16 91 23 74 47 40 58
REMARK Flexibility Score: inf
ROOT
ATOM      1  C   UNL A   1      36.005  21.728  25.689  1.00  0.00     0.202 C 
ENDROOT
BRANCH   1   2
ATOM      2  O   UNL A   1      35.796  23.055  26.167  1.00  0.00    -0.374 OA
BRANCH   2   3
ATOM      3  C   UNL A   1      34.484  23.602  26.002  1.00  0.00     0.202 C 
BRANCH   3   4
ATOM      4  C   UNL A   1      34.418  25.032  25.462  1.00  0.00     0.261 C 
BRANCH   4   5
ATOM      5  O   UNL A   1      33.310  25.172  24.555  1.00  0.00    -0.459 OA
BRANCH   5   6
ATOM      6  C   UNL A   1      32.290  25.962  24.966  1.00  0.00     0.368 C 
ATOM      7  O   UNL A   1      32.398  26.872  25.786  1.00  0.00    -0.245 OA
BRANCH   6   8
ATOM      8  C   UNL A   1      30.937  25.621  24.270  1.00  0.00     0.195 C 
ATOM      9  C   UNL A   1      31.224  25.473  22.771  1.00  0.00     0.082 C 
ATOM     10  C   UNL A   1      29.837  26.701  24.269  1.00  0.00     0.096 C 
ATOM     11  C   UNL A   1      31.224  26.912  22.264  1.00  0.00     0.022 C 
ATOM     12  C   UNL A   1      30.099  27.602  23.042  1.00  0.00     0.062 C 
BRANCH   8  13
ATOM     13  N   UNL A   1      30.441  24.320  24.807  1.00  0.00    -0.335 N 
ATOM     14  C   UNL A   1      31.142  23.158  24.264  1.00  0.00     0.331 C 
ATOM     15  H   UNL A   1      30.560  24.323  25.820  1.00  0.00     0.347 HD
ATOM     16  H   UNL A   1      29.463  24.235  24.530  1.00  0.00     0.347 HD
ENDBRANCH   8  13
BRANCH  12  17
ATOM     17  S   UNL A   1      30.481  29.292  23.588  1.00  0.00    -0.084 SA
BRANCH  17  18
ATOM     18  C   UNL A   1      29.482  30.278  22.572  1.00  0.00     0.168 A 
ATOM     19  N   UNL A   1      28.830  29.853  21.544  1.00  0.00    -0.233 NA
ATOM     20  N   UNL A   1      29.474  31.563  23.006  1.00  0.00    -0.301 N 
ATOM     21  C   UNL A   1      28.131  30.808  20.844  1.00  0.00     0.120 A 
ATOM     22  C   UNL A   1      28.712  32.522  22.419  1.00  0.00     0.251 A 
ATOM     23  H   UNL A   1      30.039  31.809  23.773  1.00  0.00     0.172 HD
ATOM     24  C   UNL A   1      28.032  32.097  21.188  1.00  0.00     0.091 A 
ATOM     25  O   UNL A   1      28.567  33.638  22.894  1.00  0.00    -0.269 OA
ENDBRANCH  17  18
ENDBRANCH  12  17
ENDBRANCH   6   8
ENDBRANCH   5   6
ENDBRANCH   4   5
ENDBRANCH   3   4
ENDBRANCH   2   3
ENDBRANCH   1   2
BRANCH   1  26
ATOM     26  C   UNL A   1      37.441  21.344  25.303  1.00  0.00     0.261 C 
BRANCH  26  27
ATOM     27  O   UNL A   1      38.380  22.409  25.516  1.00  0.00    -0.460 OA
BRANCH  27  28
ATOM     28  C   UNL A   1      39.284  22.173  26.499  1.00  0.00     0.338 C 
ATOM     29  O   UNL A   1      39.833  21.115  26.756  1.00  0.00    -0.246 OA
BRANCH  28  30
ATOM     30  C   UNL A   1      39.678  23.445  27.133  1.00  0.00     0.060 A 
ATOM     31  C   UNL A   1      39.100  24.618  26.632  1.00  0.00     0.016 A 
ATOM     32  C   UNL A   1      40.645  23.503  28.138  1.00  0.00     0.016 A 
ATOM     33  C   UNL A   1      39.510  25.860  27.111  1.00  0.00     0.010 A 
ATOM     34  C   UNL A   1      41.065  24.755  28.606  1.00  0.00     0.010 A 
ATOM     35  C   UNL A   1      40.519  25.939  28.078  1.00  0.00    -0.014 A 
BRANCH  35  36
ATOM     36  C   UNL A   1      41.119  27.259  28.402  1.00  0.00     0.031 A 
ATOM     37  C   UNL A   1      42.598  27.449  28.191  1.00  0.00     0.074 A 
ATOM     38  C   UNL A   1      40.360  28.284  28.831  1.00  0.00     0.049 A 
ATOM     39  N   UNL A   1      43.345  28.496  28.424  1.00  0.00    -0.248 NA
ATOM     40  C   UNL A   1      43.334  26.298  27.639  1.00  0.00     0.031 C 
ATOM     41  C   UNL A   1      38.913  28.238  29.042  1.00  0.00     0.029 A 
ATOM     42  N   UNL A   1      40.706  29.568  29.176  1.00  0.00    -0.354 N 
ATOM     43  C   UNL A   1      44.636  28.128  28.063  1.00  0.00     0.074 A 
ATOM     44  C   UNL A   1      44.579  26.751  27.626  1.00  0.00     0.031 C 
ATOM     45  C   UNL A   1      38.498  29.434  29.495  1.00  0.00     0.029 A 
ATOM     46  C   UNL A   1      39.653  30.321  29.633  1.00  0.00     0.049 A 
ATOM     47  H   UNL A   1      41.624  29.915  29.101  1.00  0.00     0.167 HD
ATOM     48  C   UNL A   1      45.766  28.874  28.080  1.00  0.00     0.037 A 
ATOM     49  C   UNL A   1      39.627  31.574  30.128  1.00  0.00     0.037 A 
ATOM     50  C   UNL A   1      45.815  30.248  28.506  1.00  0.00     0.049 A 
ATOM     51  C   UNL A   1      40.906  32.369  30.192  1.00  0.00     0.074 A 
ATOM     52  C   UNL A   1      46.906  31.099  28.539  1.00  0.00     0.029 A 
ATOM     53  N   UNL A   1      44.729  30.969  28.980  1.00  0.00    -0.354 N 
ATOM     54  N   UNL A   1      42.116  32.019  29.822  1.00  0.00    -0.248 NA
ATOM     55  C   UNL A   1      40.818  33.732  30.735  1.00  0.00     0.031 C 
ATOM     56  C   UNL A   1      46.489  32.321  29.075  1.00  0.00     0.029 A 
ATOM     57  C   UNL A   1      45.127  32.249  29.327  1.00  0.00     0.049 A 
ATOM     58  H   UNL A   1      43.812  30.623  29.058  1.00  0.00     0.167 HD
ATOM     59  C   UNL A   1      42.925  33.126  30.060  1.00  0.00     0.074 A 
ATOM     60  C   UNL A   1      42.066  34.161  30.597  1.00  0.00     0.031 C 
ATOM     61  C   UNL A   1      44.257  33.273  29.851  1.00  0.00     0.037 A 
BRANCH  48  62
ATOM     62  C   UNL A   1      47.041  28.211  27.642  1.00  0.00     0.058 A 
ATOM     63  C   UNL A   1      47.483  28.266  26.310  1.00  0.00     0.135 A 
ATOM     64  C   UNL A   1      47.844  27.528  28.570  1.00  0.00     0.135 A 
ATOM     65  F   UNL A   1      46.746  28.888  25.377  1.00  0.00    -0.206 F 
ATOM     66  C   UNL A   1      48.661  27.642  25.908  1.00  0.00     0.059 A 
ATOM     67  C   UNL A   1      49.039  26.921  28.196  1.00  0.00     0.059 A 
ATOM     68  F   UNL A   1      47.465  27.442  29.855  1.00  0.00    -0.206 F 
ATOM     69  C   UNL A   1      49.431  26.971  26.860  1.00  0.00     0.060 A 
BRANCH  69  70
ATOM     70  S   UNL A   1      50.957  26.169  26.324  1.00  0.00     0.124 S 
ATOM     71  O   UNL A   1      50.879  24.894  27.029  1.00  0.00    -0.237 OA
ATOM     72  O   UNL A   1      50.784  26.104  24.876  1.00  0.00    -0.237 OA
ATOM     73  O   UNL A   1      52.000  27.079  26.787  1.00  0.00    -0.744 OA
ENDBRANCH  69  70
ENDBRANCH  48  62
BRANCH  49  74
ATOM     74  C   UNL A   1      38.345  32.160  30.607  1.00  0.00     0.058 A 
ATOM     75  C   UNL A   1      37.908  31.971  31.927  1.00  0.00     0.135 A 
ATOM     76  C   UNL A   1      37.530  32.922  29.753  1.00  0.00     0.135 A 
ATOM     77  F   UNL A   1      38.644  31.241  32.778  1.00  0.00    -0.206 F 
ATOM     78  C   UNL A   1      36.703  32.501  32.380  1.00  0.00     0.059 A 
ATOM     79  C   UNL A   1      36.334  33.483  30.191  1.00  0.00     0.059 A 
ATOM     80  F   UNL A   1      37.904  33.144  28.484  1.00  0.00    -0.206 F 
ATOM     81  C   UNL A   1      35.925  33.260  31.504  1.00  0.00     0.060 A 
BRANCH  81  82
ATOM     82  S   UNL A   1      34.390  33.988  32.117  1.00  0.00     0.124 S 
ATOM     83  O   UNL A   1      33.806  32.872  32.851  1.00  0.00    -0.237 OA
ATOM     84  O   UNL A   1      34.879  35.100  32.926  1.00  0.00    -0.237 OA
ATOM     85  O   UNL A   1      33.692  34.374  30.894  1.00  0.00    -0.744 OA
ENDBRANCH  81  82
ENDBRANCH  49  74
BRANCH  61  86
ATOM     86  C   UNL A   1      44.868  34.612  30.162  1.00  0.00     0.058 A 
ATOM     87  C   UNL A   1      44.928  35.638  29.207  1.00  0.00     0.135 A 
ATOM     88  C   UNL A   1      45.345  34.891  31.453  1.00  0.00     0.135 A 
ATOM     89  F   UNL A   1      44.491  35.424  27.955  1.00  0.00    -0.206 F 
ATOM     90  C   UNL A   1      45.458  36.887  29.514  1.00  0.00     0.059 A 
ATOM     91  C   UNL A   1      45.853  36.141  31.791  1.00  0.00     0.059 A 
ATOM     92  F   UNL A   1      45.301  33.949  32.408  1.00  0.00    -0.206 F 
ATOM     93  C   UNL A   1      45.916  37.130  30.810  1.00  0.00     0.060 A 
BRANCH  93  94
ATOM     94  S   UNL A   1      46.570  38.766  31.207  1.00  0.00     0.124 S 
ATOM     95  O   UNL A   1      46.044  38.975  32.552  1.00  0.00    -0.237 OA
ATOM     96  O   UNL A   1      48.012  38.557  31.115  1.00  0.00    -0.237 OA
ATOM     97  O   UNL A   1      46.000  39.621  30.169  1.00  0.00    -0.744 OA
ENDBRANCH  93  94
ENDBRANCH  61  86
ENDBRANCH  35  36
ENDBRANCH  28  30
ENDBRANCH  27  28
ENDBRANCH  26  27
ENDBRANCH   1  26
TORSDOF 20
ENDMDL
