MODEL 1
REMARK VINA RESULT:     -11.7      0.000      0.000
REMARK SMILES Cc1nc2scc(-c3cccs3)c2c(=O)n1CC(=O)OCCOCCOC(=O)c1ccc(-c2c3nc(c(-c4c(F)cc(S(=O)(=O)[O-])cc4F)c4ccc([nH]4)c(-c4c(F)cc(S(=O)(=O)[O-])cc4F)c4nc(c(-c5c(F)cc(S(=O)(=O)[O-])cc5F)c5ccc2[nH]5)C=C4)C=C3)cc1
REMARK SMILES IDX 24 1 23 2 22 3 21 4 20 5 18 6 19 7 17 8 16 9 1 10 2 11 3 12
REMARK SMILES IDX 4 13 14 14 5 15 13 16 15 17 6 18 7 19 8 20 9 21 12 22 10 23
REMARK SMILES IDX 11 24 25 25 26 26 27 27 28 28 29 29 30 30 94 31 31 32 93 33
REMARK SMILES IDX 32 34 33 35 34 36 87 37 35 38 92 39 86 40 88 41 36 42 91 43
REMARK SMILES IDX 85 44 84 45 37 47 71 48 50 49 70 50 51 51 54 52 69 53 89 54
REMARK SMILES IDX 52 55 53 56 68 58 90 59 55 60 38 61 39 62 48 63 40 64 41 65
REMARK SMILES IDX 47 66 49 67 42 68 43 69 44 70 45 71 46 72 72 73 73 74 82 75
REMARK SMILES IDX 74 76 75 77 81 78 83 79 76 80 77 81 78 82 79 83 80 84 56 85
REMARK SMILES IDX 57 86 66 87 58 88 59 89 65 90 67 91 60 92 61 93 62 94 63 95
REMARK SMILES IDX 64 96
REMARK H PARENT 88 46 54 57
REMARK Flexibility Score: inf
ROOT
ATOM      1  C   UNL A   1      42.436  19.218  26.092  1.00  0.00     0.202 C 
ENDROOT
BRANCH   1   2
ATOM      2  O   UNL A   1      41.742  20.439  25.866  1.00  0.00    -0.374 OA
BRANCH   2   3
ATOM      3  C   UNL A   1      40.355  20.485  26.178  1.00  0.00     0.202 C 
BRANCH   3   4
ATOM      4  C   UNL A   1      39.685  21.865  26.192  1.00  0.00     0.261 C 
BRANCH   4   5
ATOM      5  O   UNL A   1      38.314  21.856  25.730  1.00  0.00    -0.462 OA
BRANCH   5   6
ATOM      6  C   UNL A   1      37.643  23.031  25.885  1.00  0.00     0.326 C 
ATOM      7  O   UNL A   1      38.076  24.128  25.544  1.00  0.00    -0.250 OA
BRANCH   6   8
ATOM      8  C   UNL A   1      36.217  22.886  26.425  1.00  0.00     0.249 C 
BRANCH   8   9
ATOM      9  N   UNL A   1      35.127  22.558  25.499  1.00  0.00    -0.285 N 
ATOM     10  C   UNL A   1      34.695  25.005  25.039  1.00  0.00     0.088 C 
ATOM     11  C   UNL A   1      34.412  23.532  24.816  1.00  0.00     0.110 A 
ATOM     12  N   UNL A   1      33.481  23.281  23.948  1.00  0.00    -0.224 NA
ATOM     13  C   UNL A   1      33.203  21.975  23.736  1.00  0.00     0.131 A 
ATOM     14  C   UNL A   1      34.932  21.189  25.217  1.00  0.00     0.263 A 
ATOM     15  S   UNL A   1      31.962  21.513  22.663  1.00  0.00    -0.123 S 
ATOM     16  C   UNL A   1      33.831  20.896  24.317  1.00  0.00     0.085 A 
ATOM     17  O   UNL A   1      35.672  20.311  25.653  1.00  0.00    -0.268 OA
ATOM     18  C   UNL A   1      32.181  19.860  23.032  1.00  0.00     0.077 A 
ATOM     19  C   UNL A   1      33.218  19.661  23.919  1.00  0.00     0.017 A 
BRANCH  19  20
ATOM     20  C   UNL A   1      33.529  18.281  24.395  1.00  0.00     0.036 A 
ATOM     21  C   UNL A   1      34.654  17.581  24.015  1.00  0.00     0.020 A 
ATOM     22  S   UNL A   1      32.625  17.450  25.574  1.00  0.00    -0.144 S 
ATOM     23  C   UNL A   1      34.724  16.300  24.635  1.00  0.00     0.012 A 
ATOM     24  C   UNL A   1      33.702  16.116  25.541  1.00  0.00     0.065 A 
ENDBRANCH  19  20
ENDBRANCH   8   9
ENDBRANCH   6   8
ENDBRANCH   5   6
ENDBRANCH   4   5
ENDBRANCH   3   4
ENDBRANCH   2   3
ENDBRANCH   1   2
BRANCH   1  25
ATOM     25  C   UNL A   1      43.746  18.989  25.351  1.00  0.00     0.261 C 
BRANCH  25  26
ATOM     26  O   UNL A   1      44.111  20.014  24.419  1.00  0.00    -0.460 OA
BRANCH  26  27
ATOM     27  C   UNL A   1      45.279  20.633  24.744  1.00  0.00     0.338 C 
ATOM     28  O   UNL A   1      46.345  20.087  24.943  1.00  0.00    -0.246 OA
BRANCH  27  29
ATOM     29  C   UNL A   1      45.048  22.061  25.033  1.00  0.00     0.060 A 
ATOM     30  C   UNL A   1      45.591  22.534  26.227  1.00  0.00     0.016 A 
ATOM     31  C   UNL A   1      44.153  22.842  24.291  1.00  0.00     0.016 A 
ATOM     32  C   UNL A   1      45.100  23.708  26.764  1.00  0.00     0.010 A 
ATOM     33  C   UNL A   1      43.659  24.021  24.832  1.00  0.00     0.010 A 
ATOM     34  C   UNL A   1      44.087  24.411  26.096  1.00  0.00    -0.014 A 
BRANCH  34  35
ATOM     35  C   UNL A   1      43.673  25.677  26.682  1.00  0.00     0.031 A 
ATOM     36  C   UNL A   1      44.691  26.729  26.458  1.00  0.00     0.074 A 
ATOM     37  C   UNL A   1      42.529  25.904  27.356  1.00  0.00     0.049 A 
ATOM     38  N   UNL A   1      45.587  27.124  27.299  1.00  0.00    -0.248 NA
ATOM     39  C   UNL A   1      44.903  27.206  25.084  1.00  0.00     0.031 C 
ATOM     40  C   UNL A   1      41.341  25.058  27.464  1.00  0.00     0.029 A 
ATOM     41  N   UNL A   1      42.180  27.009  28.076  1.00  0.00    -0.354 N 
ATOM     42  C   UNL A   1      46.322  28.096  26.632  1.00  0.00     0.074 A 
ATOM     43  C   UNL A   1      46.011  27.935  25.237  1.00  0.00     0.031 C 
ATOM     44  C   UNL A   1      40.334  25.767  28.032  1.00  0.00     0.029 A 
ATOM     45  C   UNL A   1      40.843  27.059  28.463  1.00  0.00     0.049 A 
ATOM     46  H   UNL A   1      42.825  27.717  28.306  1.00  0.00     0.167 HD
ATOM     47  C   UNL A   1      46.893  29.118  27.327  1.00  0.00     0.037 A 
ATOM     48  C   UNL A   1      40.215  28.097  29.084  1.00  0.00     0.037 A 
ATOM     49  C   UNL A   1      47.008  28.773  28.727  1.00  0.00     0.049 A 
ATOM     50  C   UNL A   1      41.274  28.888  29.763  1.00  0.00     0.074 A 
ATOM     51  C   UNL A   1      47.653  27.781  29.443  1.00  0.00     0.029 A 
ATOM     52  N   UNL A   1      46.066  29.296  29.579  1.00  0.00    -0.354 N 
ATOM     53  N   UNL A   1      41.970  28.447  30.776  1.00  0.00    -0.248 NA
ATOM     54  C   UNL A   1      41.864  30.000  29.036  1.00  0.00     0.031 C 
ATOM     55  C   UNL A   1      46.772  27.461  30.518  1.00  0.00     0.029 A 
ATOM     56  C   UNL A   1      45.671  28.315  30.447  1.00  0.00     0.049 A 
ATOM     57  H   UNL A   1      45.731  30.223  29.566  1.00  0.00     0.167 HD
ATOM     58  C   UNL A   1      43.256  28.916  30.549  1.00  0.00     0.074 A 
ATOM     59  C   UNL A   1      43.108  29.939  29.516  1.00  0.00     0.031 C 
ATOM     60  C   UNL A   1      44.342  28.235  31.017  1.00  0.00     0.037 A 
BRANCH  47  61
ATOM     61  C   UNL A   1      46.902  30.559  26.846  1.00  0.00     0.058 A 
ATOM     62  C   UNL A   1      48.103  31.295  26.949  1.00  0.00     0.135 A 
ATOM     63  C   UNL A   1      45.749  31.332  26.580  1.00  0.00     0.135 A 
ATOM     64  F   UNL A   1      49.271  30.673  27.172  1.00  0.00    -0.206 F 
ATOM     65  C   UNL A   1      48.135  32.689  26.918  1.00  0.00     0.059 A 
ATOM     66  C   UNL A   1      45.766  32.719  26.501  1.00  0.00     0.059 A 
ATOM     67  F   UNL A   1      44.527  30.808  26.458  1.00  0.00    -0.206 F 
ATOM     68  C   UNL A   1      46.954  33.393  26.715  1.00  0.00     0.060 A 
BRANCH  68  69
ATOM     69  S   UNL A   1      46.972  35.189  26.771  1.00  0.00     0.124 S 
ATOM     70  O   UNL A   1      48.036  35.498  25.822  1.00  0.00    -0.237 OA
ATOM     71  O   UNL A   1      45.615  35.512  26.343  1.00  0.00    -0.237 OA
ATOM     72  O   UNL A   1      47.268  35.478  28.171  1.00  0.00    -0.744 OA
ENDBRANCH  68  69
ENDBRANCH  47  61
BRANCH  48  73
ATOM     73  C   UNL A   1      38.854  28.662  28.843  1.00  0.00     0.058 A 
ATOM     74  C   UNL A   1      37.912  28.763  29.889  1.00  0.00     0.135 A 
ATOM     75  C   UNL A   1      38.558  29.397  27.681  1.00  0.00     0.135 A 
ATOM     76  F   UNL A   1      38.108  28.104  31.042  1.00  0.00    -0.206 F 
ATOM     77  C   UNL A   1      36.792  29.602  29.816  1.00  0.00     0.059 A 
ATOM     78  C   UNL A   1      37.444  30.235  27.581  1.00  0.00     0.059 A 
ATOM     79  F   UNL A   1      39.396  29.400  26.634  1.00  0.00    -0.206 F 
ATOM     80  C   UNL A   1      36.581  30.358  28.665  1.00  0.00     0.060 A 
BRANCH  80  81
ATOM     81  S   UNL A   1      35.247  31.583  28.634  1.00  0.00     0.124 S 
ATOM     82  O   UNL A   1      34.120  30.792  28.152  1.00  0.00    -0.237 OA
ATOM     83  O   UNL A   1      35.180  32.002  30.029  1.00  0.00    -0.237 OA
ATOM     84  O   UNL A   1      35.739  32.596  27.704  1.00  0.00    -0.744 OA
ENDBRANCH  80  81
ENDBRANCH  48  73
BRANCH  60  85
ATOM     85  C   UNL A   1      44.127  27.174  32.067  1.00  0.00     0.058 A 
ATOM     86  C   UNL A   1      44.076  25.790  31.814  1.00  0.00     0.135 A 
ATOM     87  C   UNL A   1      44.147  27.578  33.411  1.00  0.00     0.135 A 
ATOM     88  F   UNL A   1      44.137  25.315  30.562  1.00  0.00    -0.206 F 
ATOM     89  C   UNL A   1      44.030  24.857  32.853  1.00  0.00     0.059 A 
ATOM     90  C   UNL A   1      44.135  26.665  34.460  1.00  0.00     0.059 A 
ATOM     91  F   UNL A   1      44.244  28.883  33.718  1.00  0.00    -0.206 F 
ATOM     92  C   UNL A   1      44.073  25.304  34.175  1.00  0.00     0.060 A 
BRANCH  92  93
ATOM     93  S   UNL A   1      44.124  24.095  35.517  1.00  0.00     0.124 S 
ATOM     94  O   UNL A   1      42.901  24.398  36.253  1.00  0.00    -0.237 OA
ATOM     95  O   UNL A   1      44.132  22.825  34.796  1.00  0.00    -0.237 OA
ATOM     96  O   UNL A   1      45.367  24.411  36.216  1.00  0.00    -0.744 OA
ENDBRANCH  92  93
ENDBRANCH  60  85
ENDBRANCH  34  35
ENDBRANCH  27  29
ENDBRANCH  26  27
ENDBRANCH  25  26
ENDBRANCH   1  25
TORSDOF 19
ENDMDL
MODEL 2
REMARK VINA RESULT:     -11.7      1.443      2.985
REMARK SMILES Cc1nc2scc(-c3cccs3)c2c(=O)n1CC(=O)OCCOCCOC(=O)c1ccc(-c2c3nc(c(-c4c(F)cc(S(=O)(=O)[O-])cc4F)c4ccc([nH]4)c(-c4c(F)cc(S(=O)(=O)[O-])cc4F)c4nc(c(-c5c(F)cc(S(=O)(=O)[O-])cc5F)c5ccc2[nH]5)C=C4)C=C3)cc1
REMARK SMILES IDX 24 1 23 2 22 3 21 4 20 5 18 6 19 7 17 8 16 9 1 10 2 11 3 12
REMARK SMILES IDX 4 13 14 14 5 15 13 16 15 17 6 18 7 19 8 20 9 21 12 22 10 23
REMARK SMILES IDX 11 24 25 25 26 26 27 27 28 28 29 29 30 30 94 31 31 32 93 33
REMARK SMILES IDX 32 34 33 35 34 36 87 37 35 38 92 39 86 40 88 41 36 42 91 43
REMARK SMILES IDX 85 44 84 45 37 47 71 48 50 49 70 50 51 51 54 52 69 53 89 54
REMARK SMILES IDX 52 55 53 56 68 58 90 59 55 60 38 61 39 62 48 63 40 64 41 65
REMARK SMILES IDX 47 66 49 67 42 68 43 69 44 70 45 71 46 72 72 73 73 74 82 75
REMARK SMILES IDX 74 76 75 77 81 78 83 79 76 80 77 81 78 82 79 83 80 84 56 85
REMARK SMILES IDX 57 86 66 87 58 88 59 89 65 90 67 91 60 92 61 93 62 94 63 95
REMARK SMILES IDX 64 96
REMARK H PARENT 88 46 54 57
REMARK Flexibility Score: inf
ROOT
ATOM      1  C   UNL A   1      42.317  19.642  26.397  1.00  0.00     0.202 C 
ENDROOT
BRANCH   1   2
ATOM      2  O   UNL A   1      41.372  20.495  25.762  1.00  0.00    -0.374 OA
BRANCH   2   3
ATOM      3  C   UNL A   1      40.123  20.703  26.409  1.00  0.00     0.202 C 
BRANCH   3   4
ATOM      4  C   UNL A   1      39.507  22.105  26.310  1.00  0.00     0.261 C 
BRANCH   4   5
ATOM      5  O   UNL A   1      38.382  22.189  25.406  1.00  0.00    -0.462 OA
BRANCH   5   6
ATOM      6  C   UNL A   1      37.527  23.224  25.638  1.00  0.00     0.326 C 
ATOM      7  O   UNL A   1      37.657  24.041  26.546  1.00  0.00    -0.250 OA
BRANCH   6   8
ATOM      8  C   UNL A   1      36.418  23.384  24.594  1.00  0.00     0.249 C 
BRANCH   8   9
ATOM      9  N   UNL A   1      35.020  23.194  24.996  1.00  0.00    -0.285 N 
ATOM     10  C   UNL A   1      35.261  20.681  24.884  1.00  0.00     0.088 C 
ATOM     11  C   UNL A   1      34.458  21.936  25.163  1.00  0.00     0.110 A 
ATOM     12  N   UNL A   1      33.243  21.728  25.571  1.00  0.00    -0.224 NA
ATOM     13  C   UNL A   1      32.502  22.830  25.819  1.00  0.00     0.131 A 
ATOM     14  C   UNL A   1      34.305  24.358  25.351  1.00  0.00     0.263 A 
ATOM     15  S   UNL A   1      30.874  22.692  26.305  1.00  0.00    -0.123 S 
ATOM     16  C   UNL A   1      32.917  24.139  25.720  1.00  0.00     0.085 A 
ATOM     17  O   UNL A   1      34.828  25.468  25.401  1.00  0.00    -0.268 OA
ATOM     18  C   UNL A   1      30.669  24.387  26.298  1.00  0.00     0.077 A 
ATOM     19  C   UNL A   1      31.838  25.048  25.980  1.00  0.00     0.017 A 
BRANCH  19  20
ATOM     20  C   UNL A   1      31.840  26.537  25.879  1.00  0.00     0.036 A 
ATOM     21  C   UNL A   1      31.870  27.374  26.975  1.00  0.00     0.020 A 
ATOM     22  S   UNL A   1      31.956  27.396  24.414  1.00  0.00    -0.144 S 
ATOM     23  C   UNL A   1      31.896  28.749  26.600  1.00  0.00     0.012 A 
ATOM     24  C   UNL A   1      31.985  28.902  25.234  1.00  0.00     0.065 A 
ENDBRANCH  19  20
ENDBRANCH   8   9
ENDBRANCH   6   8
ENDBRANCH   5   6
ENDBRANCH   4   5
ENDBRANCH   3   4
ENDBRANCH   2   3
ENDBRANCH   1   2
BRANCH   1  25
ATOM     25  C   UNL A   1      43.462  19.090  25.559  1.00  0.00     0.261 C 
BRANCH  25  26
ATOM     26  O   UNL A   1      43.982  19.982  24.565  1.00  0.00    -0.460 OA
BRANCH  26  27
ATOM     27  C   UNL A   1      45.131  20.598  24.955  1.00  0.00     0.338 C 
ATOM     28  O   UNL A   1      46.180  20.047  25.225  1.00  0.00    -0.246 OA
BRANCH  27  29
ATOM     29  C   UNL A   1      44.892  22.030  25.215  1.00  0.00     0.060 A 
ATOM     30  C   UNL A   1      45.538  22.561  26.332  1.00  0.00     0.016 A 
ATOM     31  C   UNL A   1      43.908  22.761  24.539  1.00  0.00     0.016 A 
ATOM     32  C   UNL A   1      45.072  23.742  26.873  1.00  0.00     0.010 A 
ATOM     33  C   UNL A   1      43.438  23.948  25.084  1.00  0.00     0.010 A 
ATOM     34  C   UNL A   1      43.978  24.395  26.285  1.00  0.00    -0.014 A 
BRANCH  34  35
ATOM     35  C   UNL A   1      43.591  25.673  26.864  1.00  0.00     0.031 A 
ATOM     36  C   UNL A   1      44.612  26.713  26.598  1.00  0.00     0.074 A 
ATOM     37  C   UNL A   1      42.467  25.919  27.564  1.00  0.00     0.049 A 
ATOM     38  N   UNL A   1      45.533  27.112  27.410  1.00  0.00    -0.248 NA
ATOM     39  C   UNL A   1      44.791  27.170  25.213  1.00  0.00     0.031 C 
ATOM     40  C   UNL A   1      41.276  25.085  27.716  1.00  0.00     0.029 A 
ATOM     41  N   UNL A   1      42.147  27.037  28.279  1.00  0.00    -0.354 N 
ATOM     42  C   UNL A   1      46.259  28.067  26.711  1.00  0.00     0.074 A 
ATOM     43  C   UNL A   1      45.909  27.891  25.327  1.00  0.00     0.031 C 
ATOM     44  C   UNL A   1      40.290  25.811  28.300  1.00  0.00     0.029 A 
ATOM     45  C   UNL A   1      40.821  27.105  28.700  1.00  0.00     0.049 A 
ATOM     46  H   UNL A   1      42.804  27.743  28.482  1.00  0.00     0.167 HD
ATOM     47  C   UNL A   1      46.856  29.094  27.376  1.00  0.00     0.037 A 
ATOM     48  C   UNL A   1      40.218  28.156  29.323  1.00  0.00     0.037 A 
ATOM     49  C   UNL A   1      47.006  28.767  28.778  1.00  0.00     0.049 A 
ATOM     50  C   UNL A   1      41.302  28.946  29.963  1.00  0.00     0.074 A 
ATOM     51  C   UNL A   1      47.661  27.780  29.490  1.00  0.00     0.029 A 
ATOM     52  N   UNL A   1      46.091  29.310  29.646  1.00  0.00    -0.354 N 
ATOM     53  N   UNL A   1      42.020  28.514  30.962  1.00  0.00    -0.248 NA
ATOM     54  C   UNL A   1      41.882  30.043  29.205  1.00  0.00     0.031 C 
ATOM     55  C   UNL A   1      46.806  27.482  30.592  1.00  0.00     0.029 A 
ATOM     56  C   UNL A   1      45.711  28.344  30.538  1.00  0.00     0.049 A 
ATOM     57  H   UNL A   1      45.764  30.239  29.630  1.00  0.00     0.167 HD
ATOM     58  C   UNL A   1      43.304  28.968  30.696  1.00  0.00     0.074 A 
ATOM     59  C   UNL A   1      43.137  29.978  29.653  1.00  0.00     0.031 C 
ATOM     60  C   UNL A   1      44.396  28.284  31.145  1.00  0.00     0.037 A 
BRANCH  47  61
ATOM     61  C   UNL A   1      46.864  30.528  26.876  1.00  0.00     0.058 A 
ATOM     62  C   UNL A   1      48.075  31.253  26.930  1.00  0.00     0.135 A 
ATOM     63  C   UNL A   1      45.711  31.310  26.635  1.00  0.00     0.135 A 
ATOM     64  F   UNL A   1      49.244  30.622  27.126  1.00  0.00    -0.206 F 
ATOM     65  C   UNL A   1      48.121  32.646  26.880  1.00  0.00     0.059 A 
ATOM     66  C   UNL A   1      45.741  32.696  26.536  1.00  0.00     0.059 A 
ATOM     67  F   UNL A   1      44.481  30.797  26.558  1.00  0.00    -0.206 F 
ATOM     68  C   UNL A   1      46.941  33.359  26.704  1.00  0.00     0.060 A 
BRANCH  68  69
ATOM     69  S   UNL A   1      46.979  35.156  26.734  1.00  0.00     0.124 S 
ATOM     70  O   UNL A   1      46.702  35.429  28.140  1.00  0.00    -0.237 OA
ATOM     71  O   UNL A   1      48.339  35.431  26.281  1.00  0.00    -0.237 OA
ATOM     72  O   UNL A   1      45.924  35.530  25.796  1.00  0.00    -0.744 OA
ENDBRANCH  68  69
ENDBRANCH  47  61
BRANCH  48  73
ATOM     73  C   UNL A   1      38.856  28.729  29.110  1.00  0.00     0.058 A 
ATOM     74  C   UNL A   1      37.974  28.932  30.193  1.00  0.00     0.135 A 
ATOM     75  C   UNL A   1      38.511  29.379  27.911  1.00  0.00     0.135 A 
ATOM     76  F   UNL A   1      38.221  28.360  31.382  1.00  0.00    -0.206 F 
ATOM     77  C   UNL A   1      36.867  29.787  30.113  1.00  0.00     0.059 A 
ATOM     78  C   UNL A   1      37.407  30.230  27.804  1.00  0.00     0.059 A 
ATOM     79  F   UNL A   1      39.291  29.282  26.825  1.00  0.00    -0.206 F 
ATOM     80  C   UNL A   1      36.607  30.455  28.918  1.00  0.00     0.060 A 
BRANCH  80  81
ATOM     81  S   UNL A   1      35.294  31.702  28.862  1.00  0.00     0.124 S 
ATOM     82  O   UNL A   1      34.963  31.859  30.274  1.00  0.00    -0.237 OA
ATOM     83  O   UNL A   1      35.969  32.833  28.236  1.00  0.00    -0.237 OA
ATOM     84  O   UNL A   1      34.260  31.067  28.047  1.00  0.00    -0.744 OA
ENDBRANCH  80  81
ENDBRANCH  48  73
BRANCH  60  85
ATOM     85  C   UNL A   1      44.200  27.239  32.214  1.00  0.00     0.058 A 
ATOM     86  C   UNL A   1      44.121  25.853  31.981  1.00  0.00     0.135 A 
ATOM     87  C   UNL A   1      44.270  27.660  33.551  1.00  0.00     0.135 A 
ATOM     88  F   UNL A   1      44.134  25.361  30.733  1.00  0.00    -0.206 F 
ATOM     89  C   UNL A   1      44.095  24.934  33.032  1.00  0.00     0.059 A 
ATOM     90  C   UNL A   1      44.278  26.760  34.612  1.00  0.00     0.059 A 
ATOM     91  F   UNL A   1      44.395  28.966  33.838  1.00  0.00    -0.206 F 
ATOM     92  C   UNL A   1      44.188  25.397  34.346  1.00  0.00     0.060 A 
BRANCH  92  93
ATOM     93  S   UNL A   1      44.265  24.203  35.701  1.00  0.00     0.124 S 
ATOM     94  O   UNL A   1      42.879  23.757  35.800  1.00  0.00    -0.237 OA
ATOM     95  O   UNL A   1      45.215  23.216  35.197  1.00  0.00    -0.237 OA
ATOM     96  O   UNL A   1      44.747  24.996  36.829  1.00  0.00    -0.744 OA
ENDBRANCH  92  93
ENDBRANCH  60  85
ENDBRANCH  34  35
ENDBRANCH  27  29
ENDBRANCH  26  27
ENDBRANCH  25  26
ENDBRANCH   1  25
TORSDOF 19
ENDMDL
MODEL 3
REMARK VINA RESULT:     -11.3      2.805      9.431
REMARK SMILES Cc1nc2scc(-c3cccs3)c2c(=O)n1CC(=O)OCCOCCOC(=O)c1ccc(-c2c3nc(c(-c4c(F)cc(S(=O)(=O)[O-])cc4F)c4ccc([nH]4)c(-c4c(F)cc(S(=O)(=O)[O-])cc4F)c4nc(c(-c5c(F)cc(S(=O)(=O)[O-])cc5F)c5ccc2[nH]5)C=C4)C=C3)cc1
REMARK SMILES IDX 24 1 23 2 22 3 21 4 20 5 18 6 19 7 17 8 16 9 1 10 2 11 3 12
REMARK SMILES IDX 4 13 14 14 5 15 13 16 15 17 6 18 7 19 8 20 9 21 12 22 10 23
REMARK SMILES IDX 11 24 25 25 26 26 27 27 28 28 29 29 30 30 94 31 31 32 93 33
REMARK SMILES IDX 32 34 33 35 34 36 87 37 35 38 92 39 86 40 88 41 36 42 91 43
REMARK SMILES IDX 85 44 84 45 37 47 71 48 50 49 70 50 51 51 54 52 69 53 89 54
REMARK SMILES IDX 52 55 53 56 68 58 90 59 55 60 38 61 39 62 48 63 40 64 41 65
REMARK SMILES IDX 47 66 49 67 42 68 43 69 44 70 45 71 46 72 72 73 73 74 82 75
REMARK SMILES IDX 74 76 75 77 81 78 83 79 76 80 77 81 78 82 79 83 80 84 56 85
REMARK SMILES IDX 57 86 66 87 58 88 59 89 65 90 67 91 60 92 61 93 62 94 63 95
REMARK SMILES IDX 64 96
REMARK H PARENT 88 46 54 57
REMARK Flexibility Score: inf
ROOT
ATOM      1  C   UNL A   1      33.051  30.416  27.294  1.00  0.00     0.202 C 
ENDROOT
BRANCH   1   2
ATOM      2  O   UNL A   1      32.034  30.315  26.304  1.00  0.00    -0.374 OA
BRANCH   2   3
ATOM      3  C   UNL A   1      32.070  29.199  25.423  1.00  0.00     0.202 C 
BRANCH   3   4
ATOM      4  C   UNL A   1      33.125  29.219  24.310  1.00  0.00     0.261 C 
BRANCH   4   5
ATOM      5  O   UNL A   1      32.586  28.990  22.987  1.00  0.00    -0.462 OA
BRANCH   5   6
ATOM      6  C   UNL A   1      33.207  28.014  22.268  1.00  0.00     0.326 C 
ATOM      7  O   UNL A   1      34.362  28.083  21.857  1.00  0.00    -0.250 OA
BRANCH   6   8
ATOM      8  C   UNL A   1      32.390  26.731  22.094  1.00  0.00     0.249 C 
BRANCH   8   9
ATOM      9  N   UNL A   1      32.114  25.889  23.263  1.00  0.00    -0.285 N 
ATOM     10  C   UNL A   1      29.810  26.893  23.525  1.00  0.00     0.088 C 
ATOM     11  C   UNL A   1      30.902  25.927  23.939  1.00  0.00     0.110 A 
ATOM     12  N   UNL A   1      30.601  25.159  24.941  1.00  0.00    -0.224 NA
ATOM     13  C   UNL A   1      31.561  24.294  25.336  1.00  0.00     0.131 A 
ATOM     14  C   UNL A   1      33.091  24.922  23.585  1.00  0.00     0.263 A 
ATOM     15  S   UNL A   1      31.311  23.270  26.676  1.00  0.00    -0.123 S 
ATOM     16  C   UNL A   1      32.800  24.122  24.762  1.00  0.00     0.085 A 
ATOM     17  O   UNL A   1      34.087  24.730  22.893  1.00  0.00    -0.268 OA
ATOM     18  C   UNL A   1      32.897  22.647  26.568  1.00  0.00     0.077 A 
ATOM     19  C   UNL A   1      33.587  23.173  25.496  1.00  0.00     0.017 A 
BRANCH  19  20
ATOM     20  C   UNL A   1      35.009  22.780  25.269  1.00  0.00     0.036 A 
ATOM     21  C   UNL A   1      35.383  21.630  24.607  1.00  0.00     0.020 A 
ATOM     22  S   UNL A   1      36.346  23.760  25.657  1.00  0.00    -0.144 S 
ATOM     23  C   UNL A   1      36.799  21.508  24.501  1.00  0.00     0.012 A 
ATOM     24  C   UNL A   1      37.444  22.620  24.996  1.00  0.00     0.065 A 
ENDBRANCH  19  20
ENDBRANCH   8   9
ENDBRANCH   6   8
ENDBRANCH   5   6
ENDBRANCH   4   5
ENDBRANCH   3   4
ENDBRANCH   2   3
ENDBRANCH   1   2
BRANCH   1  25
ATOM     25  C   UNL A   1      33.578  31.801  27.644  1.00  0.00     0.261 C 
BRANCH  25  26
ATOM     26  O   UNL A   1      35.004  31.942  27.611  1.00  0.00    -0.460 OA
BRANCH  26  27
ATOM     27  C   UNL A   1      35.532  32.266  28.822  1.00  0.00     0.338 C 
ATOM     28  O   UNL A   1      35.297  33.274  29.457  1.00  0.00    -0.246 OA
BRANCH  27  29
ATOM     29  C   UNL A   1      36.606  31.323  29.190  1.00  0.00     0.060 A 
ATOM     30  C   UNL A   1      37.830  31.900  29.530  1.00  0.00     0.016 A 
ATOM     31  C   UNL A   1      36.493  29.942  28.991  1.00  0.00     0.016 A 
ATOM     32  C   UNL A   1      38.968  31.119  29.494  1.00  0.00     0.010 A 
ATOM     33  C   UNL A   1      37.638  29.158  28.954  1.00  0.00     0.010 A 
ATOM     34  C   UNL A   1      38.875  29.766  29.139  1.00  0.00    -0.014 A 
BRANCH  34  35
ATOM     35  C   UNL A   1      40.103  28.988  29.196  1.00  0.00     0.031 A 
ATOM     36  C   UNL A   1      40.570  28.826  30.592  1.00  0.00     0.074 A 
ATOM     37  C   UNL A   1      40.766  28.472  28.143  1.00  0.00     0.049 A 
ATOM     38  N   UNL A   1      41.487  29.518  31.181  1.00  0.00    -0.248 NA
ATOM     39  C   UNL A   1      39.767  27.995  31.500  1.00  0.00     0.031 C 
ATOM     40  C   UNL A   1      40.329  28.344  26.754  1.00  0.00     0.029 A 
ATOM     41  N   UNL A   1      42.005  27.901  28.125  1.00  0.00    -0.354 N 
ATOM     42  C   UNL A   1      41.551  29.025  32.478  1.00  0.00     0.074 A 
ATOM     43  C   UNL A   1      40.340  28.274  32.673  1.00  0.00     0.031 C 
ATOM     44  C   UNL A   1      41.201  27.554  26.079  1.00  0.00     0.029 A 
ATOM     45  C   UNL A   1      42.331  27.243  26.940  1.00  0.00     0.049 A 
ATOM     46  H   UNL A   1      42.622  27.949  28.891  1.00  0.00     0.167 HD
ATOM     47  C   UNL A   1      42.728  29.050  33.162  1.00  0.00     0.037 A 
ATOM     48  C   UNL A   1      43.447  26.498  26.705  1.00  0.00     0.037 A 
ATOM     49  C   UNL A   1      43.635  30.008  32.568  1.00  0.00     0.049 A 
ATOM     50  C   UNL A   1      44.476  26.960  27.673  1.00  0.00     0.074 A 
ATOM     51  C   UNL A   1      43.611  31.371  32.342  1.00  0.00     0.029 A 
ATOM     52  N   UNL A   1      44.621  29.511  31.751  1.00  0.00    -0.354 N 
ATOM     53  N   UNL A   1      45.022  28.144  27.640  1.00  0.00    -0.248 NA
ATOM     54  C   UNL A   1      44.575  26.261  28.944  1.00  0.00     0.031 C 
ATOM     55  C   UNL A   1      44.266  31.556  31.088  1.00  0.00     0.029 A 
ATOM     56  C   UNL A   1      44.715  30.311  30.645  1.00  0.00     0.049 A 
ATOM     57  H   UNL A   1      45.168  28.712  31.932  1.00  0.00     0.167 HD
ATOM     58  C   UNL A   1      45.137  28.516  28.972  1.00  0.00     0.074 A 
ATOM     59  C   UNL A   1      44.932  27.281  29.727  1.00  0.00     0.031 C 
ATOM     60  C   UNL A   1      45.109  29.830  29.337  1.00  0.00     0.037 A 
BRANCH  47  61
ATOM     61  C   UNL A   1      43.217  27.907  34.036  1.00  0.00     0.058 A 
ATOM     62  C   UNL A   1      43.530  28.180  35.386  1.00  0.00     0.135 A 
ATOM     63  C   UNL A   1      43.674  26.659  33.557  1.00  0.00     0.135 A 
ATOM     64  F   UNL A   1      43.128  29.321  35.967  1.00  0.00    -0.206 F 
ATOM     65  C   UNL A   1      44.338  27.342  36.154  1.00  0.00     0.059 A 
ATOM     66  C   UNL A   1      44.443  25.788  34.320  1.00  0.00     0.059 A 
ATOM     67  F   UNL A   1      43.476  26.237  32.306  1.00  0.00    -0.206 F 
ATOM     68  C   UNL A   1      44.807  26.156  35.601  1.00  0.00     0.060 A 
BRANCH  68  69
ATOM     69  S   UNL A   1      45.927  25.118  36.551  1.00  0.00     0.124 S 
ATOM     70  O   UNL A   1      45.018  24.094  37.053  1.00  0.00    -0.237 OA
ATOM     71  O   UNL A   1      46.874  24.690  35.526  1.00  0.00    -0.237 OA
ATOM     72  O   UNL A   1      46.466  26.035  37.551  1.00  0.00    -0.744 OA
ENDBRANCH  68  69
ENDBRANCH  47  61
BRANCH  48  73
ATOM     73  C   UNL A   1      43.584  25.200  25.981  1.00  0.00     0.058 A 
ATOM     74  C   UNL A   1      44.715  24.927  25.182  1.00  0.00     0.135 A 
ATOM     75  C   UNL A   1      42.781  24.090  26.302  1.00  0.00     0.135 A 
ATOM     76  F   UNL A   1      45.548  25.919  24.828  1.00  0.00    -0.206 F 
ATOM     77  C   UNL A   1      45.070  23.627  24.796  1.00  0.00     0.059 A 
ATOM     78  C   UNL A   1      43.110  22.786  25.922  1.00  0.00     0.059 A 
ATOM     79  F   UNL A   1      41.697  24.225  27.079  1.00  0.00    -0.206 F 
ATOM     80  C   UNL A   1      44.273  22.557  25.196  1.00  0.00     0.060 A 
BRANCH  80  81
ATOM     81  S   UNL A   1      44.822  20.863  24.864  1.00  0.00     0.124 S 
ATOM     82  O   UNL A   1      43.901  20.079  25.678  1.00  0.00    -0.237 OA
ATOM     83  O   UNL A   1      44.644  20.758  23.420  1.00  0.00    -0.237 OA
ATOM     84  O   UNL A   1      46.211  20.863  25.320  1.00  0.00    -0.744 OA
ENDBRANCH  80  81
ENDBRANCH  48  73
BRANCH  60  85
ATOM     85  C   UNL A   1      45.300  30.877  28.269  1.00  0.00     0.058 A 
ATOM     86  C   UNL A   1      44.291  31.340  27.405  1.00  0.00     0.135 A 
ATOM     87  C   UNL A   1      46.526  31.560  28.244  1.00  0.00     0.135 A 
ATOM     88  F   UNL A   1      43.064  30.798  27.424  1.00  0.00    -0.206 F 
ATOM     89  C   UNL A   1      44.501  32.421  26.545  1.00  0.00     0.059 A 
ATOM     90  C   UNL A   1      46.746  32.659  27.420  1.00  0.00     0.059 A 
ATOM     91  F   UNL A   1      47.514  31.197  29.079  1.00  0.00    -0.206 F 
ATOM     92  C   UNL A   1      45.729  33.083  26.569  1.00  0.00     0.060 A 
BRANCH  92  93
ATOM     93  S   UNL A   1      45.965  34.549  25.538  1.00  0.00     0.124 S 
ATOM     94  O   UNL A   1      47.403  34.525  25.292  1.00  0.00    -0.237 OA
ATOM     95  O   UNL A   1      45.119  34.260  24.383  1.00  0.00    -0.237 OA
ATOM     96  O   UNL A   1      45.495  35.643  26.384  1.00  0.00    -0.744 OA
ENDBRANCH  92  93
ENDBRANCH  60  85
ENDBRANCH  34  35
ENDBRANCH  27  29
ENDBRANCH  26  27
ENDBRANCH  25  26
ENDBRANCH   1  25
TORSDOF 19
ENDMDL
