MODEL 1
REMARK VINA RESULT:     -11.4      0.000      0.000
REMARK SMILES CC(C)CCc1cc2c(cc1Cl)C=C(C(=O)OCCOCCOC(=O)c1ccc(-c3c4nc(c(-c5c(F)cc(S(=O)(=O)[O-])cc5F)c5ccc([nH]5)c(-c5c(F)cc(S(=O)(=O)[O-])cc5F)c5nc(c(-c6c(F)cc(S(=O)(=O)[O-])cc6F)c6ccc3[nH]6)C=C5)C=C4)cc1)[C@@H](C(F)(F)F)O2
REMARK SMILES IDX 20 1 19 2 18 3 17 4 15 5 16 6 14 7 6 8 7 9 11 10 8 11 10 12
REMARK SMILES IDX 12 13 9 14 97 15 13 16 92 17 5 18 4 19 2 20 1 21 3 22 93 23
REMARK SMILES IDX 94 24 95 25 96 26 21 27 22 28 23 29 24 30 25 31 26 32 27 33
REMARK SMILES IDX 91 34 28 35 90 36 29 37 30 38 31 39 84 40 32 41 89 42 83 43
REMARK SMILES IDX 85 44 33 45 88 46 82 47 81 48 34 50 68 51 47 52 67 53 48 54
REMARK SMILES IDX 51 55 66 56 86 57 49 58 50 59 65 61 87 62 52 63 35 64 36 65
REMARK SMILES IDX 45 66 37 67 38 68 44 69 46 70 39 71 40 72 41 73 42 74 43 75
REMARK SMILES IDX 69 76 70 77 79 78 71 79 72 80 78 81 80 82 73 83 74 84 75 85
REMARK SMILES IDX 76 86 77 87 53 88 54 89 63 90 55 91 56 92 62 93 64 94 57 95
REMARK SMILES IDX 58 96 59 97 60 98 61 99
REMARK H PARENT 85 49 51 60
REMARK Flexibility Score: inf
ROOT
ATOM      1  O   UNL A   1      38.900  21.187  26.163  1.00  0.00    -0.374 OA
ENDROOT
BRANCH   1   2
ATOM      2  C   UNL A   1      38.120  22.078  25.369  1.00  0.00     0.202 C 
BRANCH   2   3
ATOM      3  C   UNL A   1      36.611  22.140  25.630  1.00  0.00     0.261 C 
BRANCH   3   4
ATOM      4  O   UNL A   1      36.164  23.469  25.929  1.00  0.00    -0.460 OA
BRANCH   4   5
ATOM      5  C   UNL A   1      34.834  23.567  26.170  1.00  0.00     0.338 C 
ATOM      6  O   UNL A   1      34.220  23.082  27.106  1.00  0.00    -0.246 OA
BRANCH   5   7
ATOM      7  C   UNL A   1      34.223  24.499  25.205  1.00  0.00     0.087 C 
ATOM      8  C   UNL A   1      31.491  28.232  23.263  1.00  0.00    -0.026 A 
ATOM      9  C   UNL A   1      32.055  27.048  22.745  1.00  0.00     0.052 A 
ATOM     10  C   UNL A   1      31.858  28.630  24.558  1.00  0.00     0.045 A 
ATOM     11  C   UNL A   1      32.877  26.238  23.531  1.00  0.00     0.128 A 
ATOM     12  C   UNL A   1      32.673  27.812  25.346  1.00  0.00     0.032 A 
ATOM     13  Cl  UNL A   1      31.336  30.115  25.267  1.00  0.00    -0.084 Cl
ATOM     14  C   UNL A   1      33.149  26.599  24.846  1.00  0.00     0.019 A 
ATOM     15  O   UNL A   1      33.362  25.106  22.940  1.00  0.00    -0.475 OA
ATOM     16  C   UNL A   1      33.863  25.685  25.712  1.00  0.00     0.027 C 
ATOM     17  C   UNL A   1      34.019  24.101  23.769  1.00  0.00     0.316 C 
BRANCH   8  18
ATOM     18  C   UNL A   1      30.481  28.978  22.418  1.00  0.00     0.037 C 
BRANCH  18  19
ATOM     19  C   UNL A   1      29.035  28.852  22.935  1.00  0.00     0.008 C 
BRANCH  19  20
ATOM     20  C   UNL A   1      28.034  29.896  22.397  1.00  0.00    -0.017 C 
ATOM     21  C   UNL A   1      27.576  30.881  23.474  1.00  0.00     0.007 C 
ATOM     22  C   UNL A   1      28.669  30.682  21.244  1.00  0.00     0.007 C 
ENDBRANCH  19  20
ENDBRANCH  18  19
ENDBRANCH   8  18
BRANCH  17  23
ATOM     23  C   UNL A   1      33.243  22.783  23.625  1.00  0.00     0.430 C 
ATOM     24  F   UNL A   1      32.212  22.727  24.501  1.00  0.00    -0.167 F 
ATOM     25  F   UNL A   1      32.715  22.644  22.387  1.00  0.00    -0.167 F 
ATOM     26  F   UNL A   1      34.033  21.710  23.855  1.00  0.00    -0.167 F 
ENDBRANCH  17  23
ENDBRANCH   5   7
ENDBRANCH   4   5
ENDBRANCH   3   4
ENDBRANCH   2   3
ENDBRANCH   1   2
BRANCH   1  27
ATOM     27  C   UNL A   1      40.323  21.284  26.091  1.00  0.00     0.202 C 
BRANCH  27  28
ATOM     28  C   UNL A   1      41.042  22.278  27.012  1.00  0.00     0.261 C 
BRANCH  28  29
ATOM     29  O   UNL A   1      40.636  23.638  26.789  1.00  0.00    -0.460 OA
BRANCH  29  30
ATOM     30  C   UNL A   1      41.650  24.541  26.754  1.00  0.00     0.338 C 
ATOM     31  O   UNL A   1      42.570  24.587  25.954  1.00  0.00    -0.246 OA
BRANCH  30  32
ATOM     32  C   UNL A   1      41.361  25.618  27.717  1.00  0.00     0.060 A 
ATOM     33  C   UNL A   1      40.182  25.619  28.464  1.00  0.00     0.016 A 
ATOM     34  C   UNL A   1      42.319  26.625  27.894  1.00  0.00     0.016 A 
ATOM     35  C   UNL A   1      39.974  26.627  29.409  1.00  0.00     0.010 A 
ATOM     36  C   UNL A   1      42.104  27.635  28.828  1.00  0.00     0.010 A 
ATOM     37  C   UNL A   1      40.939  27.632  29.607  1.00  0.00    -0.014 A 
BRANCH  37  38
ATOM     38  C   UNL A   1      40.808  28.596  30.726  1.00  0.00     0.031 A 
ATOM     39  C   UNL A   1      41.676  28.503  31.945  1.00  0.00     0.074 A 
ATOM     40  C   UNL A   1      39.848  29.537  30.644  1.00  0.00     0.049 A 
ATOM     41  N   UNL A   1      41.675  29.261  33.012  1.00  0.00    -0.248 NA
ATOM     42  C   UNL A   1      42.670  27.420  31.975  1.00  0.00     0.031 C 
ATOM     43  C   UNL A   1      38.930  29.699  29.514  1.00  0.00     0.029 A 
ATOM     44  N   UNL A   1      39.479  30.523  31.520  1.00  0.00    -0.354 N 
ATOM     45  C   UNL A   1      42.676  28.762  33.835  1.00  0.00     0.074 A 
ATOM     46  C   UNL A   1      43.235  27.608  33.160  1.00  0.00     0.031 C 
ATOM     47  C   UNL A   1      38.116  30.738  29.758  1.00  0.00     0.029 A 
ATOM     48  C   UNL A   1      38.427  31.287  31.075  1.00  0.00     0.049 A 
ATOM     49  H   UNL A   1      39.924  30.671  32.385  1.00  0.00     0.167 HD
ATOM     50  C   UNL A   1      43.096  29.237  35.033  1.00  0.00     0.037 A 
ATOM     51  C   UNL A   1      37.779  32.311  31.661  1.00  0.00     0.037 A 
ATOM     52  C   UNL A   1      42.510  30.372  35.707  1.00  0.00     0.049 A 
ATOM     53  C   UNL A   1      38.231  32.785  33.014  1.00  0.00     0.074 A 
ATOM     54  C   UNL A   1      42.875  30.935  36.918  1.00  0.00     0.029 A 
ATOM     55  N   UNL A   1      41.431  31.110  35.237  1.00  0.00    -0.354 N 
ATOM     56  N   UNL A   1      39.205  32.327  33.764  1.00  0.00    -0.248 NA
ATOM     57  C   UNL A   1      37.502  33.917  33.596  1.00  0.00     0.031 C 
ATOM     58  C   UNL A   1      41.985  31.976  37.207  1.00  0.00     0.029 A 
ATOM     59  C   UNL A   1      41.106  32.108  36.144  1.00  0.00     0.049 A 
ATOM     60  H   UNL A   1      40.966  30.948  34.385  1.00  0.00     0.167 HD
ATOM     61  C   UNL A   1      39.228  33.140  34.892  1.00  0.00     0.074 A 
ATOM     62  C   UNL A   1      38.176  34.121  34.720  1.00  0.00     0.031 C 
ATOM     63  C   UNL A   1      40.054  33.081  35.969  1.00  0.00     0.037 A 
BRANCH  50  64
ATOM     64  C   UNL A   1      44.245  28.531  35.706  1.00  0.00     0.058 A 
ATOM     65  C   UNL A   1      45.578  28.896  35.458  1.00  0.00     0.135 A 
ATOM     66  C   UNL A   1      44.011  27.528  36.661  1.00  0.00     0.135 A 
ATOM     67  F   UNL A   1      45.862  29.841  34.547  1.00  0.00    -0.206 F 
ATOM     68  C   UNL A   1      46.638  28.279  36.117  1.00  0.00     0.059 A 
ATOM     69  C   UNL A   1      45.054  26.917  37.353  1.00  0.00     0.059 A 
ATOM     70  F   UNL A   1      42.757  27.139  36.940  1.00  0.00    -0.206 F 
ATOM     71  C   UNL A   1      46.364  27.292  37.066  1.00  0.00     0.060 A 
BRANCH  71  72
ATOM     72  S   UNL A   1      47.753  26.514  37.919  1.00  0.00     0.124 S 
ATOM     73  O   UNL A   1      47.143  26.148  39.194  1.00  0.00    -0.237 OA
ATOM     74  O   UNL A   1      48.079  25.403  37.030  1.00  0.00    -0.237 OA
ATOM     75  O   UNL A   1      48.751  27.576  37.987  1.00  0.00    -0.744 OA
ENDBRANCH  71  72
ENDBRANCH  50  64
BRANCH  51  76
ATOM     76  C   UNL A   1      36.659  32.976  30.944  1.00  0.00     0.058 A 
ATOM     77  C   UNL A   1      35.329  32.766  31.336  1.00  0.00     0.135 A 
ATOM     78  C   UNL A   1      36.899  33.869  29.888  1.00  0.00     0.135 A 
ATOM     79  F   UNL A   1      35.051  31.917  32.336  1.00  0.00    -0.206 F 
ATOM     80  C   UNL A   1      34.274  33.414  30.702  1.00  0.00     0.059 A 
ATOM     81  C   UNL A   1      35.863  34.551  29.259  1.00  0.00     0.059 A 
ATOM     82  F   UNL A   1      38.156  34.118  29.488  1.00  0.00    -0.206 F 
ATOM     83  C   UNL A   1      34.553  34.312  29.671  1.00  0.00     0.060 A 
BRANCH  83  84
ATOM     84  S   UNL A   1      33.178  35.199  28.907  1.00  0.00     0.124 S 
ATOM     85  O   UNL A   1      32.276  35.378  30.040  1.00  0.00    -0.237 OA
ATOM     86  O   UNL A   1      33.832  36.406  28.414  1.00  0.00    -0.237 OA
ATOM     87  O   UNL A   1      32.715  34.277  27.873  1.00  0.00    -0.744 OA
ENDBRANCH  83  84
ENDBRANCH  51  76
BRANCH  63  88
ATOM     88  C   UNL A   1      39.881  34.136  37.030  1.00  0.00     0.058 A 
ATOM     89  C   UNL A   1      39.168  33.893  38.215  1.00  0.00     0.135 A 
ATOM     90  C   UNL A   1      40.463  35.405  36.868  1.00  0.00     0.135 A 
ATOM     91  F   UNL A   1      38.587  32.700  38.422  1.00  0.00    -0.206 F 
ATOM     92  C   UNL A   1      39.001  34.882  39.180  1.00  0.00     0.059 A 
ATOM     93  C   UNL A   1      40.338  36.398  37.835  1.00  0.00     0.059 A 
ATOM     94  F   UNL A   1      41.167  35.691  35.761  1.00  0.00    -0.206 F 
ATOM     95  C   UNL A   1      39.590  36.133  38.980  1.00  0.00     0.060 A 
BRANCH  95  96
ATOM     96  S   UNL A   1      39.362  37.406  40.240  1.00  0.00     0.124 S 
ATOM     97  O   UNL A   1      40.742  37.778  40.535  1.00  0.00    -0.237 OA
ATOM     98  O   UNL A   1      38.573  38.408  39.530  1.00  0.00    -0.237 OA
ATOM     99  O   UNL A   1      38.660  36.705  41.310  1.00  0.00    -0.744 OA
ENDBRANCH  95  96
ENDBRANCH  63  88
ENDBRANCH  37  38
ENDBRANCH  30  32
ENDBRANCH  29  30
ENDBRANCH  28  29
ENDBRANCH  27  28
ENDBRANCH   1  27
TORSDOF 21
ENDMDL
MODEL 2
REMARK VINA RESULT:     -11.2      1.317      2.047
REMARK SMILES CC(C)CCc1cc2c(cc1Cl)C=C(C(=O)OCCOCCOC(=O)c1ccc(-c3c4nc(c(-c5c(F)cc(S(=O)(=O)[O-])cc5F)c5ccc([nH]5)c(-c5c(F)cc(S(=O)(=O)[O-])cc5F)c5nc(c(-c6c(F)cc(S(=O)(=O)[O-])cc6F)c6ccc3[nH]6)C=C5)C=C4)cc1)[C@@H](C(F)(F)F)O2
REMARK SMILES IDX 20 1 19 2 18 3 17 4 15 5 16 6 14 7 6 8 7 9 11 10 8 11 10 12
REMARK SMILES IDX 12 13 9 14 97 15 13 16 92 17 5 18 4 19 2 20 1 21 3 22 93 23
REMARK SMILES IDX 94 24 95 25 96 26 21 27 22 28 23 29 24 30 25 31 26 32 27 33
REMARK SMILES IDX 91 34 28 35 90 36 29 37 30 38 31 39 84 40 32 41 89 42 83 43
REMARK SMILES IDX 85 44 33 45 88 46 82 47 81 48 34 50 68 51 47 52 67 53 48 54
REMARK SMILES IDX 51 55 66 56 86 57 49 58 50 59 65 61 87 62 52 63 35 64 36 65
REMARK SMILES IDX 45 66 37 67 38 68 44 69 46 70 39 71 40 72 41 73 42 74 43 75
REMARK SMILES IDX 69 76 70 77 79 78 71 79 72 80 78 81 80 82 73 83 74 84 75 85
REMARK SMILES IDX 76 86 77 87 53 88 54 89 63 90 55 91 56 92 62 93 64 94 57 95
REMARK SMILES IDX 58 96 59 97 60 98 61 99
REMARK H PARENT 85 49 51 60
REMARK Flexibility Score: inf
ROOT
ATOM      1  O   UNL A   1      40.170  21.127  26.143  1.00  0.00    -0.374 OA
ENDROOT
BRANCH   1   2
ATOM      2  C   UNL A   1      39.014  21.961  26.128  1.00  0.00     0.202 C 
BRANCH   2   3
ATOM      3  C   UNL A   1      37.855  21.567  25.206  1.00  0.00     0.261 C 
BRANCH   3   4
ATOM      4  O   UNL A   1      36.594  22.068  25.672  1.00  0.00    -0.460 OA
BRANCH   4   5
ATOM      5  C   UNL A   1      35.517  21.493  25.085  1.00  0.00     0.338 C 
ATOM      6  O   UNL A   1      35.372  20.312  24.813  1.00  0.00    -0.246 OA
BRANCH   5   7
ATOM      7  C   UNL A   1      34.436  22.487  24.951  1.00  0.00     0.087 C 
ATOM      8  C   UNL A   1      31.997  26.786  24.095  1.00  0.00    -0.026 A 
ATOM      9  C   UNL A   1      31.707  25.614  24.822  1.00  0.00     0.052 A 
ATOM     10  C   UNL A   1      33.119  26.781  23.251  1.00  0.00     0.045 A 
ATOM     11  C   UNL A   1      32.563  24.512  24.785  1.00  0.00     0.128 A 
ATOM     12  C   UNL A   1      33.981  25.681  23.223  1.00  0.00     0.032 A 
ATOM     13  Cl  UNL A   1      33.520  28.105  22.217  1.00  0.00    -0.084 Cl
ATOM     14  C   UNL A   1      33.723  24.565  24.020  1.00  0.00     0.019 A 
ATOM     15  O   UNL A   1      32.200  23.431  25.537  1.00  0.00    -0.475 OA
ATOM     16  C   UNL A   1      34.694  23.493  24.106  1.00  0.00     0.027 C 
ATOM     17  C   UNL A   1      33.161  22.351  25.736  1.00  0.00     0.316 C 
BRANCH   8  18
ATOM     18  C   UNL A   1      31.118  28.000  24.304  1.00  0.00     0.037 C 
BRANCH  18  19
ATOM     19  C   UNL A   1      29.786  27.933  23.533  1.00  0.00     0.008 C 
BRANCH  19  20
ATOM     20  C   UNL A   1      29.148  29.292  23.172  1.00  0.00    -0.017 C 
ATOM     21  C   UNL A   1      29.817  29.954  21.967  1.00  0.00     0.007 C 
ATOM     22  C   UNL A   1      27.657  29.104  22.872  1.00  0.00     0.007 C 
ENDBRANCH  19  20
ENDBRANCH  18  19
ENDBRANCH   8  18
BRANCH  17  23
ATOM     23  C   UNL A   1      33.407  22.206  27.245  1.00  0.00     0.430 C 
ATOM     24  F   UNL A   1      32.296  22.518  27.953  1.00  0.00    -0.167 F 
ATOM     25  F   UNL A   1      33.742  20.939  27.579  1.00  0.00    -0.167 F 
ATOM     26  F   UNL A   1      34.403  23.017  27.669  1.00  0.00    -0.167 F 
ENDBRANCH  17  23
ENDBRANCH   5   7
ENDBRANCH   4   5
ENDBRANCH   3   4
ENDBRANCH   2   3
ENDBRANCH   1   2
BRANCH   1  27
ATOM     27  C   UNL A   1      41.370  21.640  26.722  1.00  0.00     0.202 C 
BRANCH  27  28
ATOM     28  C   UNL A   1      42.208  22.641  25.917  1.00  0.00     0.261 C 
BRANCH  28  29
ATOM     29  O   UNL A   1      42.807  23.656  26.739  1.00  0.00    -0.460 OA
BRANCH  29  30
ATOM     30  C   UNL A   1      42.766  24.911  26.223  1.00  0.00     0.338 C 
ATOM     31  O   UNL A   1      42.894  25.233  25.053  1.00  0.00    -0.246 OA
BRANCH  30  32
ATOM     32  C   UNL A   1      42.321  25.844  27.274  1.00  0.00     0.060 A 
ATOM     33  C   UNL A   1      41.396  25.449  28.241  1.00  0.00     0.016 A 
ATOM     34  C   UNL A   1      42.879  27.128  27.301  1.00  0.00     0.016 A 
ATOM     35  C   UNL A   1      41.045  26.344  29.254  1.00  0.00     0.010 A 
ATOM     36  C   UNL A   1      42.519  28.023  28.305  1.00  0.00     0.010 A 
ATOM     37  C   UNL A   1      41.614  27.631  29.301  1.00  0.00    -0.014 A 
BRANCH  37  38
ATOM     38  C   UNL A   1      41.385  28.517  30.467  1.00  0.00     0.031 A 
ATOM     39  C   UNL A   1      42.214  28.404  31.712  1.00  0.00     0.074 A 
ATOM     40  C   UNL A   1      40.373  29.403  30.402  1.00  0.00     0.049 A 
ATOM     41  N   UNL A   1      42.128  29.096  32.819  1.00  0.00    -0.248 NA
ATOM     42  C   UNL A   1      43.270  27.382  31.718  1.00  0.00     0.031 C 
ATOM     43  C   UNL A   1      39.488  29.578  29.248  1.00  0.00     0.029 A 
ATOM     44  N   UNL A   1      39.913  30.313  31.318  1.00  0.00    -0.354 N 
ATOM     45  C   UNL A   1      43.129  28.610  33.651  1.00  0.00     0.074 A 
ATOM     46  C   UNL A   1      43.780  27.532  32.934  1.00  0.00     0.031 C 
ATOM     47  C   UNL A   1      38.603  30.550  29.519  1.00  0.00     0.029 A 
ATOM     48  C   UNL A   1      38.833  31.038  30.876  1.00  0.00     0.049 A 
ATOM     49  H   UNL A   1      40.318  30.435  32.206  1.00  0.00     0.167 HD
ATOM     50  C   UNL A   1      43.476  29.037  34.890  1.00  0.00     0.037 A 
ATOM     51  C   UNL A   1      38.103  31.986  31.494  1.00  0.00     0.037 A 
ATOM     52  C   UNL A   1      42.798  30.094  35.604  1.00  0.00     0.049 A 
ATOM     53  C   UNL A   1      38.477  32.404  32.888  1.00  0.00     0.074 A 
ATOM     54  C   UNL A   1      43.085  30.605  36.858  1.00  0.00     0.029 A 
ATOM     55  N   UNL A   1      41.693  30.793  35.135  1.00  0.00    -0.354 N 
ATOM     56  N   UNL A   1      39.451  31.962  33.648  1.00  0.00    -0.248 NA
ATOM     57  C   UNL A   1      37.660  33.456  33.505  1.00  0.00     0.031 C 
ATOM     58  C   UNL A   1      42.123  31.572  37.170  1.00  0.00     0.029 A 
ATOM     59  C   UNL A   1      41.276  31.715  36.084  1.00  0.00     0.049 A 
ATOM     60  H   UNL A   1      41.269  30.655  34.258  1.00  0.00     0.167 HD
ATOM     61  C   UNL A   1      39.384  32.706  34.821  1.00  0.00     0.074 A 
ATOM     62  C   UNL A   1      38.280  33.632  34.663  1.00  0.00     0.031 C 
ATOM     63  C   UNL A   1      40.173  32.633  35.923  1.00  0.00     0.037 A 
BRANCH  50  64
ATOM     64  C   UNL A   1      44.641  28.362  35.566  1.00  0.00     0.058 A 
ATOM     65  C   UNL A   1      44.467  27.218  36.361  1.00  0.00     0.135 A 
ATOM     66  C   UNL A   1      45.954  28.819  35.361  1.00  0.00     0.135 A 
ATOM     67  F   UNL A   1      43.235  26.742  36.600  1.00  0.00    -0.206 F 
ATOM     68  C   UNL A   1      45.548  26.564  36.944  1.00  0.00     0.059 A 
ATOM     69  C   UNL A   1      47.053  28.165  35.911  1.00  0.00     0.059 A 
ATOM     70  F   UNL A   1      46.181  29.908  34.610  1.00  0.00    -0.206 F 
ATOM     71  C   UNL A   1      46.838  27.044  36.710  1.00  0.00     0.060 A 
BRANCH  71  72
ATOM     72  S   UNL A   1      48.229  26.173  37.466  1.00  0.00     0.124 S 
ATOM     73  O   UNL A   1      48.137  26.625  38.852  1.00  0.00    -0.237 OA
ATOM     74  O   UNL A   1      47.883  24.775  37.230  1.00  0.00    -0.237 OA
ATOM     75  O   UNL A   1      49.385  26.666  36.724  1.00  0.00    -0.744 OA
ENDBRANCH  71  72
ENDBRANCH  50  64
BRANCH  51  76
ATOM     76  C   UNL A   1      36.971  32.624  30.773  1.00  0.00     0.058 A 
ATOM     77  C   UNL A   1      35.644  32.290  31.078  1.00  0.00     0.135 A 
ATOM     78  C   UNL A   1      37.191  33.614  29.802  1.00  0.00     0.135 A 
ATOM     79  F   UNL A   1      35.384  31.347  31.995  1.00  0.00    -0.206 F 
ATOM     80  C   UNL A   1      34.573  32.910  30.442  1.00  0.00     0.059 A 
ATOM     81  C   UNL A   1      36.137  34.269  29.173  1.00  0.00     0.059 A 
ATOM     82  F   UNL A   1      38.443  33.982  29.487  1.00  0.00    -0.206 F 
ATOM     83  C   UNL A   1      34.831  33.905  29.498  1.00  0.00     0.060 A 
BRANCH  83  84
ATOM     84  S   UNL A   1      33.430  34.750  28.734  1.00  0.00     0.124 S 
ATOM     85  O   UNL A   1      33.003  33.772  27.740  1.00  0.00    -0.237 OA
ATOM     86  O   UNL A   1      32.534  34.939  29.870  1.00  0.00    -0.237 OA
ATOM     87  O   UNL A   1      34.023  35.973  28.200  1.00  0.00    -0.744 OA
ENDBRANCH  83  84
ENDBRANCH  51  76
BRANCH  63  88
ATOM     88  C   UNL A   1      39.899  33.612  37.035  1.00  0.00     0.058 A 
ATOM     89  C   UNL A   1      40.525  34.868  37.095  1.00  0.00     0.135 A 
ATOM     90  C   UNL A   1      38.974  33.296  38.044  1.00  0.00     0.135 A 
ATOM     91  F   UNL A   1      41.421  35.221  36.160  1.00  0.00    -0.206 F 
ATOM     92  C   UNL A   1      40.276  35.755  38.138  1.00  0.00     0.059 A 
ATOM     93  C   UNL A   1      38.684  34.183  39.077  1.00  0.00     0.059 A 
ATOM     94  F   UNL A   1      38.335  32.115  38.032  1.00  0.00    -0.206 F 
ATOM     95  C   UNL A   1      39.354  35.403  39.126  1.00  0.00     0.060 A 
BRANCH  95  96
ATOM     96  S   UNL A   1      39.044  36.565  40.472  1.00  0.00     0.124 S 
ATOM     97  O   UNL A   1      40.344  36.602  41.134  1.00  0.00    -0.237 OA
ATOM     98  O   UNL A   1      38.664  37.777  39.753  1.00  0.00    -0.237 OA
ATOM     99  O   UNL A   1      37.971  35.929  41.231  1.00  0.00    -0.744 OA
ENDBRANCH  95  96
ENDBRANCH  63  88
ENDBRANCH  37  38
ENDBRANCH  30  32
ENDBRANCH  29  30
ENDBRANCH  28  29
ENDBRANCH  27  28
ENDBRANCH   1  27
TORSDOF 21
ENDMDL
MODEL 3
REMARK VINA RESULT:     -11.0      0.599      8.091
REMARK SMILES CC(C)CCc1cc2c(cc1Cl)C=C(C(=O)OCCOCCOC(=O)c1ccc(-c3c4nc(c(-c5c(F)cc(S(=O)(=O)[O-])cc5F)c5ccc([nH]5)c(-c5c(F)cc(S(=O)(=O)[O-])cc5F)c5nc(c(-c6c(F)cc(S(=O)(=O)[O-])cc6F)c6ccc3[nH]6)C=C5)C=C4)cc1)[C@@H](C(F)(F)F)O2
REMARK SMILES IDX 20 1 19 2 18 3 17 4 15 5 16 6 14 7 6 8 7 9 11 10 8 11 10 12
REMARK SMILES IDX 12 13 9 14 97 15 13 16 92 17 5 18 4 19 2 20 1 21 3 22 93 23
REMARK SMILES IDX 94 24 95 25 96 26 21 27 22 28 23 29 24 30 25 31 26 32 27 33
REMARK SMILES IDX 91 34 28 35 90 36 29 37 30 38 31 39 84 40 32 41 89 42 83 43
REMARK SMILES IDX 85 44 33 45 88 46 82 47 81 48 34 50 68 51 47 52 67 53 48 54
REMARK SMILES IDX 51 55 66 56 86 57 49 58 50 59 65 61 87 62 52 63 35 64 36 65
REMARK SMILES IDX 45 66 37 67 38 68 44 69 46 70 39 71 40 72 41 73 42 74 43 75
REMARK SMILES IDX 69 76 70 77 79 78 71 79 72 80 78 81 80 82 73 83 74 84 75 85
REMARK SMILES IDX 76 86 77 87 53 88 54 89 63 90 55 91 56 92 62 93 64 94 57 95
REMARK SMILES IDX 58 96 59 97 60 98 61 99
REMARK H PARENT 85 49 51 60
REMARK Flexibility Score: inf
ROOT
ATOM      1  O   UNL A   1      39.080  21.981  25.843  1.00  0.00    -0.374 OA
ENDROOT
BRANCH   1   2
ATOM      2  C   UNL A   1      38.334  23.114  26.278  1.00  0.00     0.202 C 
BRANCH   2   3
ATOM      3  C   UNL A   1      37.144  23.564  25.422  1.00  0.00     0.261 C 
BRANCH   3   4
ATOM      4  O   UNL A   1      36.031  22.664  25.520  1.00  0.00    -0.460 OA
BRANCH   4   5
ATOM      5  C   UNL A   1      34.922  23.210  26.073  1.00  0.00     0.338 C 
ATOM      6  O   UNL A   1      34.510  23.042  27.209  1.00  0.00    -0.246 OA
BRANCH   5   7
ATOM      7  C   UNL A   1      34.337  24.192  25.142  1.00  0.00     0.087 C 
ATOM      8  C   UNL A   1      31.780  28.117  23.347  1.00  0.00    -0.026 A 
ATOM      9  C   UNL A   1      32.249  26.908  22.794  1.00  0.00     0.052 A 
ATOM     10  C   UNL A   1      32.218  28.472  24.632  1.00  0.00     0.045 A 
ATOM     11  C   UNL A   1      33.045  26.036  23.539  1.00  0.00     0.128 A 
ATOM     12  C   UNL A   1      33.007  27.594  25.380  1.00  0.00     0.032 A 
ATOM     13  Cl  UNL A   1      31.817  29.977  25.377  1.00  0.00    -0.084 Cl
ATOM     14  C   UNL A   1      33.386  26.361  24.848  1.00  0.00     0.019 A 
ATOM     15  O   UNL A   1      33.435  24.884  22.918  1.00  0.00    -0.475 OA
ATOM     16  C   UNL A   1      34.072  25.391  25.676  1.00  0.00     0.027 C 
ATOM     17  C   UNL A   1      34.056  23.828  23.710  1.00  0.00     0.316 C 
BRANCH   8  18
ATOM     18  C   UNL A   1      30.790  28.937  22.549  1.00  0.00     0.037 C 
BRANCH  18  19
ATOM     19  C   UNL A   1      29.333  28.461  22.702  1.00  0.00     0.008 C 
BRANCH  19  20
ATOM     20  C   UNL A   1      28.283  29.568  22.935  1.00  0.00    -0.017 C 
ATOM     21  C   UNL A   1      28.218  30.569  21.781  1.00  0.00     0.007 C 
ATOM     22  C   UNL A   1      26.898  28.941  23.128  1.00  0.00     0.007 C 
ENDBRANCH  19  20
ENDBRANCH  18  19
ENDBRANCH   8  18
BRANCH  17  23
ATOM     23  C   UNL A   1      33.194  22.564  23.579  1.00  0.00     0.430 C 
ATOM     24  F   UNL A   1      33.950  21.445  23.679  1.00  0.00    -0.167 F 
ATOM     25  F   UNL A   1      32.257  22.493  24.552  1.00  0.00    -0.167 F 
ATOM     26  F   UNL A   1      32.552  22.518  22.389  1.00  0.00    -0.167 F 
ENDBRANCH  17  23
ENDBRANCH   5   7
ENDBRANCH   4   5
ENDBRANCH   3   4
ENDBRANCH   2   3
ENDBRANCH   1   2
BRANCH   1  27
ATOM     27  C   UNL A   1      40.308  21.681  26.507  1.00  0.00     0.202 C 
BRANCH  27  28
ATOM     28  C   UNL A   1      41.537  22.551  26.215  1.00  0.00     0.261 C 
BRANCH  28  29
ATOM     29  O   UNL A   1      41.711  23.610  27.170  1.00  0.00    -0.460 OA
BRANCH  29  30
ATOM     30  C   UNL A   1      41.892  24.844  26.634  1.00  0.00     0.338 C 
ATOM     31  O   UNL A   1      42.150  25.113  25.472  1.00  0.00    -0.246 OA
BRANCH  30  32
ATOM     32  C   UNL A   1      41.514  25.858  27.634  1.00  0.00     0.060 A 
ATOM     33  C   UNL A   1      40.343  25.729  28.382  1.00  0.00     0.016 A 
ATOM     34  C   UNL A   1      42.380  26.939  27.844  1.00  0.00     0.016 A 
ATOM     35  C   UNL A   1      40.051  26.682  29.361  1.00  0.00     0.010 A 
ATOM     36  C   UNL A   1      42.081  27.894  28.812  1.00  0.00     0.010 A 
ATOM     37  C   UNL A   1      40.924  27.761  29.592  1.00  0.00    -0.014 A 
BRANCH  37  38
ATOM     38  C   UNL A   1      40.715  28.671  30.744  1.00  0.00     0.031 A 
ATOM     39  C   UNL A   1      39.693  29.768  30.700  1.00  0.00     0.074 A 
ATOM     40  C   UNL A   1      41.505  28.520  31.823  1.00  0.00     0.049 A 
ATOM     41  N   UNL A   1      39.401  30.653  31.619  1.00  0.00    -0.248 NA
ATOM     42  C   UNL A   1      38.902  29.893  29.468  1.00  0.00     0.031 C 
ATOM     43  C   UNL A   1      42.549  27.502  31.960  1.00  0.00     0.029 A 
ATOM     44  N   UNL A   1      41.563  29.218  33.001  1.00  0.00    -0.354 N 
ATOM     45  C   UNL A   1      38.379  31.430  31.088  1.00  0.00     0.074 A 
ATOM     46  C   UNL A   1      38.134  30.938  29.747  1.00  0.00     0.031 C 
ATOM     47  C   UNL A   1      43.130  27.630  33.162  1.00  0.00     0.029 A 
ATOM     48  C   UNL A   1      42.529  28.761  33.864  1.00  0.00     0.049 A 
ATOM     49  H   UNL A   1      40.968  29.975  33.209  1.00  0.00     0.167 HD
ATOM     50  C   UNL A   1      37.703  32.448  31.675  1.00  0.00     0.037 A 
ATOM     51  C   UNL A   1      42.897  29.204  35.080  1.00  0.00     0.037 A 
ATOM     52  C   UNL A   1      37.978  32.946  33.003  1.00  0.00     0.049 A 
ATOM     53  C   UNL A   1      42.166  30.368  35.687  1.00  0.00     0.074 A 
ATOM     54  C   UNL A   1      37.339  33.965  33.689  1.00  0.00     0.029 A 
ATOM     55  N   UNL A   1      38.979  32.473  33.842  1.00  0.00    -0.354 N 
ATOM     56  N   UNL A   1      41.175  31.070  35.189  1.00  0.00    -0.248 NA
ATOM     57  C   UNL A   1      42.595  30.796  37.024  1.00  0.00     0.031 C 
ATOM     58  C   UNL A   1      37.987  34.145  34.916  1.00  0.00     0.029 A 
ATOM     59  C   UNL A   1      38.987  33.194  35.027  1.00  0.00     0.049 A 
ATOM     60  H   UNL A   1      39.593  31.735  33.626  1.00  0.00     0.167 HD
ATOM     61  C   UNL A   1      40.840  32.000  36.167  1.00  0.00     0.074 A 
ATOM     62  C   UNL A   1      41.728  31.764  37.287  1.00  0.00     0.031 C 
ATOM     63  C   UNL A   1      39.877  32.956  36.139  1.00  0.00     0.037 A 
BRANCH  50  64
ATOM     64  C   UNL A   1      36.596  33.103  30.890  1.00  0.00     0.058 A 
ATOM     65  C   UNL A   1      35.245  32.870  31.191  1.00  0.00     0.135 A 
ATOM     66  C   UNL A   1      36.887  34.027  29.873  1.00  0.00     0.135 A 
ATOM     67  F   UNL A   1      34.907  31.989  32.145  1.00  0.00    -0.206 F 
ATOM     68  C   UNL A   1      34.222  33.513  30.499  1.00  0.00     0.059 A 
ATOM     69  C   UNL A   1      35.882  34.703  29.187  1.00  0.00     0.059 A 
ATOM     70  F   UNL A   1      38.162  34.290  29.543  1.00  0.00    -0.206 F 
ATOM     71  C   UNL A   1      34.552  34.432  29.500  1.00  0.00     0.060 A 
BRANCH  71  72
ATOM     72  S   UNL A   1      33.211  35.265  28.624  1.00  0.00     0.124 S 
ATOM     73  O   UNL A   1      33.953  36.158  27.737  1.00  0.00    -0.237 OA
ATOM     74  O   UNL A   1      32.526  34.152  27.975  1.00  0.00    -0.237 OA
ATOM     75  O   UNL A   1      32.464  35.924  29.690  1.00  0.00    -0.744 OA
ENDBRANCH  71  72
ENDBRANCH  50  64
BRANCH  51  76
ATOM     76  C   UNL A   1      43.989  28.511  35.813  1.00  0.00     0.058 A 
ATOM     77  C   UNL A   1      43.721  27.390  36.612  1.00  0.00     0.135 A 
ATOM     78  C   UNL A   1      45.325  28.923  35.691  1.00  0.00     0.135 A 
ATOM     79  F   UNL A   1      42.459  26.962  36.764  1.00  0.00    -0.206 F 
ATOM     80  C   UNL A   1      44.737  26.705  37.270  1.00  0.00     0.059 A 
ATOM     81  C   UNL A   1      46.362  28.237  36.314  1.00  0.00     0.059 A 
ATOM     82  F   UNL A   1      45.636  29.979  34.922  1.00  0.00    -0.206 F 
ATOM     83  C   UNL A   1      46.056  27.131  37.105  1.00  0.00     0.060 A 
BRANCH  83  84
ATOM     84  S   UNL A   1      47.370  26.188  37.908  1.00  0.00     0.124 S 
ATOM     85  O   UNL A   1      46.955  26.234  39.305  1.00  0.00    -0.237 OA
ATOM     86  O   UNL A   1      47.257  24.891  37.249  1.00  0.00    -0.237 OA
ATOM     87  O   UNL A   1      48.575  26.947  37.583  1.00  0.00    -0.744 OA
ENDBRANCH  83  84
ENDBRANCH  51  76
BRANCH  63  88
ATOM     88  C   UNL A   1      39.702  33.797  37.378  1.00  0.00     0.058 A 
ATOM     89  C   UNL A   1      40.367  35.022  37.548  1.00  0.00     0.135 A 
ATOM     90  C   UNL A   1      38.834  33.379  38.400  1.00  0.00     0.135 A 
ATOM     91  F   UNL A   1      41.211  35.469  36.605  1.00  0.00    -0.206 F 
ATOM     92  C   UNL A   1      40.209  35.780  38.704  1.00  0.00     0.059 A 
ATOM     93  C   UNL A   1      38.635  34.138  39.549  1.00  0.00     0.059 A 
ATOM     94  F   UNL A   1      38.161  32.222  38.286  1.00  0.00    -0.206 F 
ATOM     95  C   UNL A   1      39.342  35.328  39.701  1.00  0.00     0.060 A 
BRANCH  95  96
ATOM     96  S   UNL A   1      39.151  36.322  41.196  1.00  0.00     0.124 S 
ATOM     97  O   UNL A   1      37.982  35.705  41.813  1.00  0.00    -0.237 OA
ATOM     98  O   UNL A   1      40.421  36.101  41.880  1.00  0.00    -0.237 OA
ATOM     99  O   UNL A   1      38.948  37.674  40.683  1.00  0.00    -0.744 OA
ENDBRANCH  95  96
ENDBRANCH  63  88
ENDBRANCH  37  38
ENDBRANCH  30  32
ENDBRANCH  29  30
ENDBRANCH  28  29
ENDBRANCH  27  28
ENDBRANCH   1  27
TORSDOF 21
ENDMDL
