MODEL 1
REMARK VINA RESULT:     -10.7      0.000      0.000
REMARK SMILES C[C@H](CN(C)C(=O)CCc1nc2ccccc2o1)C(=O)OCCOCCOC(=O)c1ccc(-c2c3nc(c(-c4c(F)cc(S(=O)(=O)[O-])cc4F)c4ccc([nH]4)c(-c4c(F)cc(S(=O)(=O)[O-])cc4F)c4nc(c(-c5c(F)cc(S(=O)(=O)[O-])cc5F)c5ccc2[nH]5)C=C4)C=C3)cc1
REMARK SMILES IDX 22 1 21 2 19 3 20 4 2 5 1 6 3 7 4 8 5 9 6 10 7 11 8 12 9 13
REMARK SMILES IDX 10 14 11 15 18 16 12 17 17 18 13 19 16 20 14 21 15 22 23 23
REMARK SMILES IDX 24 24 25 25 26 26 27 27 28 28 29 29 30 30 31 31 95 32 32 33
REMARK SMILES IDX 94 34 33 35 34 36 35 37 88 38 36 39 93 40 87 41 89 42 37 43
REMARK SMILES IDX 92 44 86 45 85 46 38 48 72 49 51 50 71 51 52 52 55 53 70 54
REMARK SMILES IDX 90 55 53 56 54 57 69 59 91 60 56 61 39 62 40 63 49 64 41 65
REMARK SMILES IDX 42 66 48 67 50 68 43 69 44 70 45 71 46 72 47 73 73 74 74 75
REMARK SMILES IDX 83 76 75 77 76 78 82 79 84 80 77 81 78 82 79 83 80 84 81 85
REMARK SMILES IDX 57 86 58 87 67 88 59 89 60 90 66 91 68 92 61 93 62 94 63 95
REMARK SMILES IDX 64 96 65 97
REMARK H PARENT 89 47 55 58
REMARK Flexibility Score: inf
ROOT
ATOM      1  C   UNL A   1      39.873  21.930  25.979  1.00  0.00     0.261 C 
ENDROOT
BRANCH   1   2
ATOM      2  O   UNL A   1      38.495  21.546  25.778  1.00  0.00    -0.463 OA
BRANCH   2   3
ATOM      3  C   UNL A   1      37.574  22.528  25.670  1.00  0.00     0.310 C 
ATOM      4  O   UNL A   1      37.752  23.692  26.016  1.00  0.00    -0.252 OA
BRANCH   3   5
ATOM      5  C   UNL A   1      36.258  22.060  25.060  1.00  0.00     0.115 C 
ATOM      6  C   UNL A   1      36.143  20.547  25.001  1.00  0.00     0.022 C 
BRANCH   5   7
ATOM      7  C   UNL A   1      35.787  22.797  23.787  1.00  0.00     0.134 C 
BRANCH   7   8
ATOM      8  N   UNL A   1      34.446  23.410  23.749  1.00  0.00    -0.345 N 
ATOM      9  C   UNL A   1      34.400  24.782  24.234  1.00  0.00     0.146 C 
BRANCH   8  10
ATOM     10  C   UNL A   1      33.541  23.025  22.776  1.00  0.00     0.222 C 
ATOM     11  O   UNL A   1      33.706  23.355  21.606  1.00  0.00    -0.275 OA
BRANCH  10  12
ATOM     12  C   UNL A   1      32.303  22.216  23.115  1.00  0.00     0.110 C 
BRANCH  12  13
ATOM     13  C   UNL A   1      32.309  21.678  24.543  1.00  0.00     0.107 C 
BRANCH  13  14
ATOM     14  C   UNL A   1      32.316  20.199  24.510  1.00  0.00     0.195 A 
ATOM     15  N   UNL A   1      32.223  19.387  25.546  1.00  0.00    -0.214 NA
ATOM     16  O   UNL A   1      32.730  19.611  23.345  1.00  0.00    -0.441 OA
ATOM     17  C   UNL A   1      32.736  18.213  25.074  1.00  0.00     0.109 A 
ATOM     18  C   UNL A   1      33.037  18.338  23.727  1.00  0.00     0.154 A 
ATOM     19  C   UNL A   1      33.080  17.039  25.749  1.00  0.00     0.032 A 
ATOM     20  C   UNL A   1      33.655  17.359  22.962  1.00  0.00     0.049 A 
ATOM     21  C   UNL A   1      33.752  16.045  25.025  1.00  0.00     0.003 A 
ATOM     22  C   UNL A   1      34.030  16.203  23.659  1.00  0.00     0.004 A 
ENDBRANCH  13  14
ENDBRANCH  12  13
ENDBRANCH  10  12
ENDBRANCH   8  10
ENDBRANCH   7   8
ENDBRANCH   5   7
ENDBRANCH   3   5
ENDBRANCH   2   3
ENDBRANCH   1   2
BRANCH   1  23
ATOM     23  C   UNL A   1      40.395  21.741  27.421  1.00  0.00     0.202 C 
BRANCH  23  24
ATOM     24  O   UNL A   1      41.816  21.627  27.564  1.00  0.00    -0.374 OA
BRANCH  24  25
ATOM     25  C   UNL A   1      42.574  21.763  26.365  1.00  0.00     0.202 C 
BRANCH  25  26
ATOM     26  C   UNL A   1      43.470  23.007  26.259  1.00  0.00     0.261 C 
BRANCH  26  27
ATOM     27  O   UNL A   1      43.017  24.091  27.091  1.00  0.00    -0.460 OA
BRANCH  27  28
ATOM     28  C   UNL A   1      42.362  25.075  26.437  1.00  0.00     0.338 C 
ATOM     29  O   UNL A   1      42.227  25.168  25.225  1.00  0.00    -0.246 OA
BRANCH  28  30
ATOM     30  C   UNL A   1      41.696  26.009  27.378  1.00  0.00     0.060 A 
ATOM     31  C   UNL A   1      42.245  27.293  27.477  1.00  0.00     0.016 A 
ATOM     32  C   UNL A   1      40.617  25.653  28.195  1.00  0.00     0.016 A 
ATOM     33  C   UNL A   1      41.777  28.192  28.433  1.00  0.00     0.010 A 
ATOM     34  C   UNL A   1      40.135  26.567  29.148  1.00  0.00     0.010 A 
ATOM     35  C   UNL A   1      40.747  27.824  29.309  1.00  0.00    -0.014 A 
BRANCH  35  36
ATOM     36  C   UNL A   1      40.469  28.695  30.486  1.00  0.00     0.031 A 
ATOM     37  C   UNL A   1      41.355  28.580  31.704  1.00  0.00     0.074 A 
ATOM     38  C   UNL A   1      39.520  29.650  30.446  1.00  0.00     0.049 A 
ATOM     39  N   UNL A   1      41.369  29.306  32.794  1.00  0.00    -0.248 NA
ATOM     40  C   UNL A   1      42.359  27.504  31.690  1.00  0.00     0.031 C 
ATOM     41  C   UNL A   1      38.614  29.897  29.326  1.00  0.00     0.029 A 
ATOM     42  N   UNL A   1      39.177  30.609  31.370  1.00  0.00    -0.354 N 
ATOM     43  C   UNL A   1      42.375  28.772  33.594  1.00  0.00     0.074 A 
ATOM     44  C   UNL A   1      42.917  27.634  32.883  1.00  0.00     0.031 C 
ATOM     45  C   UNL A   1      37.832  30.952  29.620  1.00  0.00     0.029 A 
ATOM     46  C   UNL A   1      38.168  31.445  30.955  1.00  0.00     0.049 A 
ATOM     47  H   UNL A   1      39.614  30.690  32.249  1.00  0.00     0.167 HD
ATOM     48  C   UNL A   1      42.826  29.198  34.797  1.00  0.00     0.037 A 
ATOM     49  C   UNL A   1      37.585  32.493  31.574  1.00  0.00     0.037 A 
ATOM     50  C   UNL A   1      42.307  30.341  35.502  1.00  0.00     0.049 A 
ATOM     51  C   UNL A   1      38.071  32.921  32.937  1.00  0.00     0.074 A 
ATOM     52  C   UNL A   1      42.726  30.870  36.710  1.00  0.00     0.029 A 
ATOM     53  N   UNL A   1      41.253  31.129  35.066  1.00  0.00    -0.354 N 
ATOM     54  N   UNL A   1      39.054  32.431  33.656  1.00  0.00    -0.248 NA
ATOM     55  C   UNL A   1      37.374  34.051  33.568  1.00  0.00     0.031 C 
ATOM     56  C   UNL A   1      41.893  31.946  37.031  1.00  0.00     0.029 A 
ATOM     57  C   UNL A   1      40.989  32.123  35.996  1.00  0.00     0.049 A 
ATOM     58  H   UNL A   1      40.764  31.003  34.221  1.00  0.00     0.167 HD
ATOM     59  C   UNL A   1      39.114  33.218  34.805  1.00  0.00     0.074 A 
ATOM     60  C   UNL A   1      38.074  34.218  34.681  1.00  0.00     0.031 C 
ATOM     61  C   UNL A   1      39.959  33.122  35.862  1.00  0.00     0.037 A 
BRANCH  48  62
ATOM     62  C   UNL A   1      43.928  28.403  35.443  1.00  0.00     0.058 A 
ATOM     63  C   UNL A   1      45.283  28.690  35.216  1.00  0.00     0.135 A 
ATOM     64  C   UNL A   1      43.621  27.342  36.310  1.00  0.00     0.135 A 
ATOM     65  F   UNL A   1      45.634  29.684  34.383  1.00  0.00    -0.206 F 
ATOM     66  C   UNL A   1      46.294  27.931  35.796  1.00  0.00     0.059 A 
ATOM     67  C   UNL A   1      44.616  26.588  36.923  1.00  0.00     0.059 A 
ATOM     68  F   UNL A   1      42.341  27.024  36.563  1.00  0.00    -0.206 F 
ATOM     69  C   UNL A   1      45.950  26.878  36.644  1.00  0.00     0.060 A 
BRANCH  69  70
ATOM     70  S   UNL A   1      47.271  25.888  37.375  1.00  0.00     0.124 S 
ATOM     71  O   UNL A   1      46.667  24.559  37.384  1.00  0.00    -0.237 OA
ATOM     72  O   UNL A   1      48.366  26.079  36.428  1.00  0.00    -0.237 OA
ATOM     73  O   UNL A   1      47.467  26.497  38.686  1.00  0.00    -0.744 OA
ENDBRANCH  69  70
ENDBRANCH  48  62
BRANCH  49  74
ATOM     74  C   UNL A   1      36.480  33.236  30.908  1.00  0.00     0.058 A 
ATOM     75  C   UNL A   1      36.722  34.052  29.792  1.00  0.00     0.135 A 
ATOM     76  C   UNL A   1      35.162  33.160  31.386  1.00  0.00     0.135 A 
ATOM     77  F   UNL A   1      37.967  34.170  29.306  1.00  0.00    -0.206 F 
ATOM     78  C   UNL A   1      35.703  34.778  29.184  1.00  0.00     0.059 A 
ATOM     79  C   UNL A   1      34.122  33.857  30.779  1.00  0.00     0.059 A 
ATOM     80  F   UNL A   1      34.875  32.389  32.447  1.00  0.00    -0.206 F 
ATOM     81  C   UNL A   1      34.404  34.672  29.684  1.00  0.00     0.060 A 
BRANCH  81  82
ATOM     82  S   UNL A   1      33.079  35.581  28.859  1.00  0.00     0.124 S 
ATOM     83  O   UNL A   1      32.524  34.559  27.979  1.00  0.00    -0.237 OA
ATOM     84  O   UNL A   1      32.238  35.982  29.983  1.00  0.00    -0.237 OA
ATOM     85  O   UNL A   1      33.784  36.673  28.195  1.00  0.00    -0.744 OA
ENDBRANCH  81  82
ENDBRANCH  49  74
BRANCH  61  86
ATOM     86  C   UNL A   1      39.831  34.152  36.955  1.00  0.00     0.058 A 
ATOM     87  C   UNL A   1      40.417  35.423  36.852  1.00  0.00     0.135 A 
ATOM     88  C   UNL A   1      39.070  33.874  38.104  1.00  0.00     0.135 A 
ATOM     89  F   UNL A   1      41.155  35.741  35.778  1.00  0.00    -0.206 F 
ATOM     90  C   UNL A   1      40.281  36.371  37.863  1.00  0.00     0.059 A 
ATOM     91  C   UNL A   1      38.897  34.817  39.113  1.00  0.00     0.059 A 
ATOM     92  F   UNL A   1      38.475  32.680  38.250  1.00  0.00    -0.206 F 
ATOM     93  C   UNL A   1      39.519  36.058  38.990  1.00  0.00     0.060 A 
BRANCH  93  94
ATOM     94  S   UNL A   1      39.334  37.303  40.286  1.00  0.00     0.124 S 
ATOM     95  O   UNL A   1      38.491  38.293  39.624  1.00  0.00    -0.237 OA
ATOM     96  O   UNL A   1      38.697  36.545  41.360  1.00  0.00    -0.237 OA
ATOM     97  O   UNL A   1      40.706  37.723  40.553  1.00  0.00    -0.744 OA
ENDBRANCH  93  94
ENDBRANCH  61  86
ENDBRANCH  35  36
ENDBRANCH  28  30
ENDBRANCH  27  28
ENDBRANCH  26  27
ENDBRANCH  25  26
ENDBRANCH  24  25
ENDBRANCH  23  24
ENDBRANCH   1  23
TORSDOF 23
ENDMDL
MODEL 2
REMARK VINA RESULT:     -10.1      6.321     12.013
REMARK SMILES C[C@H](CN(C)C(=O)CCc1nc2ccccc2o1)C(=O)OCCOCCOC(=O)c1ccc(-c2c3nc(c(-c4c(F)cc(S(=O)(=O)[O-])cc4F)c4ccc([nH]4)c(-c4c(F)cc(S(=O)(=O)[O-])cc4F)c4nc(c(-c5c(F)cc(S(=O)(=O)[O-])cc5F)c5ccc2[nH]5)C=C4)C=C3)cc1
REMARK SMILES IDX 22 1 21 2 19 3 20 4 2 5 1 6 3 7 4 8 5 9 6 10 7 11 8 12 9 13
REMARK SMILES IDX 10 14 11 15 18 16 12 17 17 18 13 19 16 20 14 21 15 22 23 23
REMARK SMILES IDX 24 24 25 25 26 26 27 27 28 28 29 29 30 30 31 31 95 32 32 33
REMARK SMILES IDX 94 34 33 35 34 36 35 37 88 38 36 39 93 40 87 41 89 42 37 43
REMARK SMILES IDX 92 44 86 45 85 46 38 48 72 49 51 50 71 51 52 52 55 53 70 54
REMARK SMILES IDX 90 55 53 56 54 57 69 59 91 60 56 61 39 62 40 63 49 64 41 65
REMARK SMILES IDX 42 66 48 67 50 68 43 69 44 70 45 71 46 72 47 73 73 74 74 75
REMARK SMILES IDX 83 76 75 77 76 78 82 79 84 80 77 81 78 82 79 83 80 84 81 85
REMARK SMILES IDX 57 86 58 87 67 88 59 89 60 90 66 91 68 92 61 93 62 94 63 95
REMARK SMILES IDX 64 96 65 97
REMARK H PARENT 89 47 55 58
REMARK Flexibility Score: inf
ROOT
ATOM      1  C   UNL A   1      32.857  29.489  25.856  1.00  0.00     0.261 C 
ENDROOT
BRANCH   1   2
ATOM      2  O   UNL A   1      31.928  28.422  25.566  1.00  0.00    -0.463 OA
BRANCH   2   3
ATOM      3  C   UNL A   1      31.183  28.520  24.444  1.00  0.00     0.310 C 
ATOM      4  O   UNL A   1      30.667  29.558  24.038  1.00  0.00    -0.252 OA
BRANCH   3   5
ATOM      5  C   UNL A   1      31.033  27.200  23.698  1.00  0.00     0.115 C 
ATOM      6  C   UNL A   1      29.621  26.645  23.764  1.00  0.00     0.022 C 
BRANCH   5   7
ATOM      7  C   UNL A   1      32.151  26.156  23.910  1.00  0.00     0.134 C 
BRANCH   7   8
ATOM      8  N   UNL A   1      32.457  25.183  22.845  1.00  0.00    -0.345 N 
ATOM      9  C   UNL A   1      32.517  25.757  21.508  1.00  0.00     0.146 C 
BRANCH   8  10
ATOM     10  C   UNL A   1      33.247  24.082  23.125  1.00  0.00     0.222 C 
ATOM     11  O   UNL A   1      34.157  23.759  22.368  1.00  0.00    -0.275 OA
BRANCH  10  12
ATOM     12  C   UNL A   1      33.004  23.219  24.349  1.00  0.00     0.110 C 
BRANCH  12  13
ATOM     13  C   UNL A   1      32.133  21.999  24.061  1.00  0.00     0.107 C 
BRANCH  13  14
ATOM     14  C   UNL A   1      32.797  20.787  24.587  1.00  0.00     0.195 A 
ATOM     15  N   UNL A   1      34.045  20.414  24.370  1.00  0.00    -0.214 NA
ATOM     16  O   UNL A   1      31.985  19.820  25.118  1.00  0.00    -0.441 OA
ATOM     17  C   UNL A   1      34.028  19.078  24.647  1.00  0.00     0.109 A 
ATOM     18  C   UNL A   1      32.777  18.710  25.116  1.00  0.00     0.154 A 
ATOM     19  C   UNL A   1      34.994  18.094  24.423  1.00  0.00     0.032 A 
ATOM     20  C   UNL A   1      32.395  17.408  25.408  1.00  0.00     0.049 A 
ATOM     21  C   UNL A   1      34.632  16.761  24.655  1.00  0.00     0.003 A 
ATOM     22  C   UNL A   1      33.359  16.427  25.141  1.00  0.00     0.004 A 
ENDBRANCH  13  14
ENDBRANCH  12  13
ENDBRANCH  10  12
ENDBRANCH   8  10
ENDBRANCH   7   8
ENDBRANCH   5   7
ENDBRANCH   3   5
ENDBRANCH   2   3
ENDBRANCH   1   2
BRANCH   1  23
ATOM     23  C   UNL A   1      32.730  30.091  27.275  1.00  0.00     0.202 C 
BRANCH  23  24
ATOM     24  O   UNL A   1      33.286  31.399  27.454  1.00  0.00    -0.374 OA
BRANCH  24  25
ATOM     25  C   UNL A   1      34.699  31.455  27.637  1.00  0.00     0.202 C 
BRANCH  25  26
ATOM     26  C   UNL A   1      35.204  31.362  29.085  1.00  0.00     0.261 C 
BRANCH  26  27
ATOM     27  O   UNL A   1      35.768  30.074  29.396  1.00  0.00    -0.460 OA
BRANCH  27  28
ATOM     28  C   UNL A   1      36.587  30.057  30.470  1.00  0.00     0.338 C 
ATOM     29  O   UNL A   1      36.238  29.999  31.642  1.00  0.00    -0.246 OA
BRANCH  28  30
ATOM     30  C   UNL A   1      38.014  29.996  30.069  1.00  0.00     0.060 A 
ATOM     31  C   UNL A   1      38.279  30.028  28.695  1.00  0.00     0.016 A 
ATOM     32  C   UNL A   1      39.071  29.848  30.975  1.00  0.00     0.016 A 
ATOM     33  C   UNL A   1      39.575  29.835  28.219  1.00  0.00     0.010 A 
ATOM     34  C   UNL A   1      40.380  29.671  30.493  1.00  0.00     0.010 A 
ATOM     35  C   UNL A   1      40.632  29.610  29.110  1.00  0.00    -0.014 A 
BRANCH  35  36
ATOM     36  C   UNL A   1      41.934  29.133  28.563  1.00  0.00     0.031 A 
ATOM     37  C   UNL A   1      43.108  30.082  28.542  1.00  0.00     0.074 A 
ATOM     38  C   UNL A   1      42.112  27.851  28.189  1.00  0.00     0.049 A 
ATOM     39  N   UNL A   1      44.356  29.855  28.215  1.00  0.00    -0.248 NA
ATOM     40  C   UNL A   1      42.841  31.472  28.945  1.00  0.00     0.031 C 
ATOM     41  C   UNL A   1      41.078  26.818  28.187  1.00  0.00     0.029 A 
ATOM     42  N   UNL A   1      43.241  27.194  27.759  1.00  0.00    -0.354 N 
ATOM     43  C   UNL A   1      45.017  31.070  28.367  1.00  0.00     0.074 A 
ATOM     44  C   UNL A   1      44.023  32.041  28.772  1.00  0.00     0.031 C 
ATOM     45  C   UNL A   1      41.625  25.652  27.796  1.00  0.00     0.029 A 
ATOM     46  C   UNL A   1      43.042  25.858  27.501  1.00  0.00     0.049 A 
ATOM     47  H   UNL A   1      44.112  27.639  27.646  1.00  0.00     0.167 HD
ATOM     48  C   UNL A   1      46.331  31.353  28.208  1.00  0.00     0.037 A 
ATOM     49  C   UNL A   1      43.903  24.907  27.083  1.00  0.00     0.037 A 
ATOM     50  C   UNL A   1      47.330  30.390  27.826  1.00  0.00     0.049 A 
ATOM     51  C   UNL A   1      45.355  25.256  26.866  1.00  0.00     0.074 A 
ATOM     52  C   UNL A   1      48.693  30.577  27.676  1.00  0.00     0.029 A 
ATOM     53  N   UNL A   1      47.076  29.059  27.528  1.00  0.00    -0.354 N 
ATOM     54  N   UNL A   1      45.969  26.400  27.059  1.00  0.00    -0.248 NA
ATOM     55  C   UNL A   1      46.233  24.180  26.383  1.00  0.00     0.031 C 
ATOM     56  C   UNL A   1      49.256  29.374  27.238  1.00  0.00     0.029 A 
ATOM     57  C   UNL A   1      48.252  28.421  27.168  1.00  0.00     0.049 A 
ATOM     58  H   UNL A   1      46.191  28.631  27.568  1.00  0.00     0.167 HD
ATOM     59  C   UNL A   1      47.309  26.169  26.757  1.00  0.00     0.074 A 
ATOM     60  C   UNL A   1      47.417  24.777  26.374  1.00  0.00     0.031 C 
ATOM     61  C   UNL A   1      48.355  27.032  26.798  1.00  0.00     0.037 A 
BRANCH  48  62
ATOM     62  C   UNL A   1      46.762  32.778  28.426  1.00  0.00     0.058 A 
ATOM     63  C   UNL A   1      47.236  33.229  29.669  1.00  0.00     0.135 A 
ATOM     64  C   UNL A   1      46.708  33.703  27.372  1.00  0.00     0.135 A 
ATOM     65  F   UNL A   1      47.293  32.390  30.716  1.00  0.00    -0.206 F 
ATOM     66  C   UNL A   1      47.605  34.556  29.868  1.00  0.00     0.059 A 
ATOM     67  C   UNL A   1      47.100  35.028  27.540  1.00  0.00     0.059 A 
ATOM     68  F   UNL A   1      46.264  33.326  26.162  1.00  0.00    -0.206 F 
ATOM     69  C   UNL A   1      47.528  35.449  28.798  1.00  0.00     0.060 A 
BRANCH  69  70
ATOM     70  S   UNL A   1      47.992  37.171  29.074  1.00  0.00     0.124 S 
ATOM     71  O   UNL A   1      47.873  37.275  30.525  1.00  0.00    -0.237 OA
ATOM     72  O   UNL A   1      49.352  37.217  28.545  1.00  0.00    -0.237 OA
ATOM     73  O   UNL A   1      46.999  37.918  28.308  1.00  0.00    -0.744 OA
ENDBRANCH  69  70
ENDBRANCH  48  62
BRANCH  49  74
ATOM     74  C   UNL A   1      43.427  23.515  26.855  1.00  0.00     0.058 A 
ATOM     75  C   UNL A   1      43.251  22.623  27.924  1.00  0.00     0.135 A 
ATOM     76  C   UNL A   1      43.157  23.042  25.561  1.00  0.00     0.135 A 
ATOM     77  F   UNL A   1      43.510  23.021  29.179  1.00  0.00    -0.206 F 
ATOM     78  C   UNL A   1      42.841  21.309  27.720  1.00  0.00     0.059 A 
ATOM     79  C   UNL A   1      42.722  21.740  25.334  1.00  0.00     0.059 A 
ATOM     80  F   UNL A   1      43.304  23.856  24.504  1.00  0.00    -0.206 F 
ATOM     81  C   UNL A   1      42.576  20.878  26.419  1.00  0.00     0.060 A 
BRANCH  81  82
ATOM     82  S   UNL A   1      41.999  19.184  26.166  1.00  0.00     0.124 S 
ATOM     83  O   UNL A   1      42.462  18.530  27.384  1.00  0.00    -0.237 OA
ATOM     84  O   UNL A   1      40.555  19.368  26.049  1.00  0.00    -0.237 OA
ATOM     85  O   UNL A   1      42.672  18.781  24.936  1.00  0.00    -0.744 OA
ENDBRANCH  81  82
ENDBRANCH  49  74
BRANCH  61  86
ATOM     86  C   UNL A   1      49.721  26.492  26.465  1.00  0.00     0.058 A 
ATOM     87  C   UNL A   1      50.240  26.532  25.162  1.00  0.00     0.135 A 
ATOM     88  C   UNL A   1      50.542  25.966  27.479  1.00  0.00     0.135 A 
ATOM     89  F   UNL A   1      49.500  27.022  24.156  1.00  0.00    -0.206 F 
ATOM     90  C   UNL A   1      51.510  26.042  24.868  1.00  0.00     0.059 A 
ATOM     91  C   UNL A   1      51.825  25.497  27.212  1.00  0.00     0.059 A 
ATOM     92  F   UNL A   1      50.103  25.915  28.746  1.00  0.00    -0.206 F 
ATOM     93  C   UNL A   1      52.295  25.525  25.901  1.00  0.00     0.060 A 
BRANCH  93  94
ATOM     94  S   UNL A   1      53.948  24.910  25.511  1.00  0.00     0.124 S 
ATOM     95  O   UNL A   1      54.648  25.130  26.773  1.00  0.00    -0.237 OA
ATOM     96  O   UNL A   1      53.690  23.515  25.164  1.00  0.00    -0.237 OA
ATOM     97  O   UNL A   1      54.373  25.756  24.400  1.00  0.00    -0.744 OA
ENDBRANCH  93  94
ENDBRANCH  61  86
ENDBRANCH  35  36
ENDBRANCH  28  30
ENDBRANCH  27  28
ENDBRANCH  26  27
ENDBRANCH  25  26
ENDBRANCH  24  25
ENDBRANCH  23  24
ENDBRANCH   1  23
TORSDOF 23
ENDMDL
MODEL 3
REMARK VINA RESULT:     -10.1      6.264     12.176
REMARK SMILES C[C@H](CN(C)C(=O)CCc1nc2ccccc2o1)C(=O)OCCOCCOC(=O)c1ccc(-c2c3nc(c(-c4c(F)cc(S(=O)(=O)[O-])cc4F)c4ccc([nH]4)c(-c4c(F)cc(S(=O)(=O)[O-])cc4F)c4nc(c(-c5c(F)cc(S(=O)(=O)[O-])cc5F)c5ccc2[nH]5)C=C4)C=C3)cc1
REMARK SMILES IDX 22 1 21 2 19 3 20 4 2 5 1 6 3 7 4 8 5 9 6 10 7 11 8 12 9 13
REMARK SMILES IDX 10 14 11 15 18 16 12 17 17 18 13 19 16 20 14 21 15 22 23 23
REMARK SMILES IDX 24 24 25 25 26 26 27 27 28 28 29 29 30 30 31 31 95 32 32 33
REMARK SMILES IDX 94 34 33 35 34 36 35 37 88 38 36 39 93 40 87 41 89 42 37 43
REMARK SMILES IDX 92 44 86 45 85 46 38 48 72 49 51 50 71 51 52 52 55 53 70 54
REMARK SMILES IDX 90 55 53 56 54 57 69 59 91 60 56 61 39 62 40 63 49 64 41 65
REMARK SMILES IDX 42 66 48 67 50 68 43 69 44 70 45 71 46 72 47 73 73 74 74 75
REMARK SMILES IDX 83 76 75 77 76 78 82 79 84 80 77 81 78 82 79 83 80 84 81 85
REMARK SMILES IDX 57 86 58 87 67 88 59 89 60 90 66 91 68 92 61 93 62 94 63 95
REMARK SMILES IDX 64 96 65 97
REMARK H PARENT 89 47 55 58
REMARK Flexibility Score: inf
ROOT
ATOM      1  C   UNL A   1      34.093  31.385  28.074  1.00  0.00     0.261 C 
ENDROOT
BRANCH   1   2
ATOM      2  O   UNL A   1      33.564  30.832  26.849  1.00  0.00    -0.463 OA
BRANCH   2   3
ATOM      3  C   UNL A   1      32.226  30.852  26.672  1.00  0.00     0.310 C 
ATOM      4  O   UNL A   1      31.524  31.855  26.766  1.00  0.00    -0.252 OA
BRANCH   3   5
ATOM      5  C   UNL A   1      31.639  29.487  26.333  1.00  0.00     0.115 C 
ATOM      6  C   UNL A   1      31.734  28.503  27.486  1.00  0.00     0.022 C 
BRANCH   5   7
ATOM      7  C   UNL A   1      32.003  28.903  24.950  1.00  0.00     0.134 C 
BRANCH   7   8
ATOM      8  N   UNL A   1      30.978  28.195  24.161  1.00  0.00    -0.345 N 
ATOM      9  C   UNL A   1      30.536  28.911  22.973  1.00  0.00     0.146 C 
BRANCH   8  10
ATOM     10  C   UNL A   1      30.959  26.811  24.141  1.00  0.00     0.222 C 
ATOM     11  O   UNL A   1      30.526  26.181  25.100  1.00  0.00    -0.275 OA
BRANCH  10  12
ATOM     12  C   UNL A   1      31.496  26.024  22.960  1.00  0.00     0.110 C 
BRANCH  12  13
ATOM     13  C   UNL A   1      33.003  26.172  22.774  1.00  0.00     0.107 C 
BRANCH  13  14
ATOM     14  C   UNL A   1      33.692  25.038  23.429  1.00  0.00     0.195 A 
ATOM     15  N   UNL A   1      33.823  24.839  24.727  1.00  0.00    -0.214 NA
ATOM     16  O   UNL A   1      34.502  24.269  22.636  1.00  0.00    -0.441 OA
ATOM     17  C   UNL A   1      34.882  23.982  24.808  1.00  0.00     0.109 A 
ATOM     18  C   UNL A   1      35.294  23.619  23.536  1.00  0.00     0.154 A 
ATOM     19  C   UNL A   1      35.618  23.553  25.916  1.00  0.00     0.032 A 
ATOM     20  C   UNL A   1      36.401  22.828  23.260  1.00  0.00     0.049 A 
ATOM     21  C   UNL A   1      36.772  22.796  25.678  1.00  0.00     0.003 A 
ATOM     22  C   UNL A   1      37.152  22.439  24.376  1.00  0.00     0.004 A 
ENDBRANCH  13  14
ENDBRANCH  12  13
ENDBRANCH  10  12
ENDBRANCH   8  10
ENDBRANCH   7   8
ENDBRANCH   5   7
ENDBRANCH   3   5
ENDBRANCH   2   3
ENDBRANCH   1   2
BRANCH   1  23
ATOM     23  C   UNL A   1      35.102  32.540  27.881  1.00  0.00     0.202 C 
BRANCH  23  24
ATOM     24  O   UNL A   1      35.254  33.432  28.992  1.00  0.00    -0.374 OA
BRANCH  24  25
ATOM     25  C   UNL A   1      35.017  32.868  30.279  1.00  0.00     0.202 C 
BRANCH  25  26
ATOM     26  C   UNL A   1      35.812  33.471  31.447  1.00  0.00     0.261 C 
BRANCH  26  27
ATOM     27  O   UNL A   1      37.195  33.073  31.443  1.00  0.00    -0.460 OA
BRANCH  27  28
ATOM     28  C   UNL A   1      37.439  31.858  31.981  1.00  0.00     0.338 C 
ATOM     29  O   UNL A   1      36.876  31.375  32.954  1.00  0.00    -0.246 OA
BRANCH  28  30
ATOM     30  C   UNL A   1      38.416  31.087  31.172  1.00  0.00     0.060 A 
ATOM     31  C   UNL A   1      39.441  30.446  31.876  1.00  0.00     0.016 A 
ATOM     32  C   UNL A   1      38.394  31.030  29.774  1.00  0.00     0.016 A 
ATOM     33  C   UNL A   1      40.482  29.818  31.195  1.00  0.00     0.010 A 
ATOM     34  C   UNL A   1      39.436  30.381  29.089  1.00  0.00     0.010 A 
ATOM     35  C   UNL A   1      40.515  29.816  29.794  1.00  0.00    -0.014 A 
BRANCH  35  36
ATOM     36  C   UNL A   1      41.770  29.388  29.113  1.00  0.00     0.031 A 
ATOM     37  C   UNL A   1      42.916  30.366  29.013  1.00  0.00     0.074 A 
ATOM     38  C   UNL A   1      41.940  28.122  28.685  1.00  0.00     0.049 A 
ATOM     39  N   UNL A   1      44.131  30.179  28.564  1.00  0.00    -0.248 NA
ATOM     40  C   UNL A   1      42.657  31.736  29.483  1.00  0.00     0.031 C 
ATOM     41  C   UNL A   1      40.933  27.063  28.746  1.00  0.00     0.029 A 
ATOM     42  N   UNL A   1      43.038  27.506  28.131  1.00  0.00    -0.354 N 
ATOM     43  C   UNL A   1      44.777  31.405  28.691  1.00  0.00     0.074 A 
ATOM     44  C   UNL A   1      43.805  32.339  29.217  1.00  0.00     0.031 C 
ATOM     45  C   UNL A   1      41.466  25.924  28.269  1.00  0.00     0.029 A 
ATOM     46  C   UNL A   1      42.845  26.173  27.850  1.00  0.00     0.049 A 
ATOM     47  H   UNL A   1      43.885  27.975  27.951  1.00  0.00     0.167 HD
ATOM     48  C   UNL A   1      46.064  31.725  28.420  1.00  0.00     0.037 A 
ATOM     49  C   UNL A   1      43.684  25.257  27.324  1.00  0.00     0.037 A 
ATOM     50  C   UNL A   1      47.044  30.798  27.916  1.00  0.00     0.049 A 
ATOM     51  C   UNL A   1      45.101  25.648  26.983  1.00  0.00     0.074 A 
ATOM     52  C   UNL A   1      48.382  31.024  27.646  1.00  0.00     0.029 A 
ATOM     53  N   UNL A   1      46.792  29.472  27.602  1.00  0.00    -0.354 N 
ATOM     54  N   UNL A   1      45.705  26.800  27.155  1.00  0.00    -0.248 NA
ATOM     55  C   UNL A   1      45.953  24.608  26.387  1.00  0.00     0.031 C 
ATOM     56  C   UNL A   1      48.928  29.849  27.120  1.00  0.00     0.029 A 
ATOM     57  C   UNL A   1      47.943  28.874  27.113  1.00  0.00     0.049 A 
ATOM     58  H   UNL A   1      45.924  29.020  27.710  1.00  0.00     0.167 HD
ATOM     59  C   UNL A   1      47.015  26.611  26.722  1.00  0.00     0.074 A 
ATOM     60  C   UNL A   1      47.117  25.234  26.287  1.00  0.00     0.031 C 
ATOM     61  C   UNL A   1      48.041  27.499  26.693  1.00  0.00     0.037 A 
BRANCH  48  62
ATOM     62  C   UNL A   1      46.482  33.153  28.642  1.00  0.00     0.058 A 
ATOM     63  C   UNL A   1      46.443  34.108  27.613  1.00  0.00     0.135 A 
ATOM     64  C   UNL A   1      46.920  33.574  29.907  1.00  0.00     0.135 A 
ATOM     65  F   UNL A   1      46.048  33.756  26.378  1.00  0.00    -0.206 F 
ATOM     66  C   UNL A   1      46.859  35.419  27.821  1.00  0.00     0.059 A 
ATOM     67  C   UNL A   1      47.313  34.887  30.146  1.00  0.00     0.059 A 
ATOM     68  F   UNL A   1      46.978  32.703  30.928  1.00  0.00    -0.206 F 
ATOM     69  C   UNL A   1      47.298  35.798  29.090  1.00  0.00     0.060 A 
BRANCH  69  70
ATOM     70  S   UNL A   1      47.852  37.497  29.343  1.00  0.00     0.124 S 
ATOM     71  O   UNL A   1      49.303  37.332  29.339  1.00  0.00    -0.237 OA
ATOM     72  O   UNL A   1      47.290  38.185  28.185  1.00  0.00    -0.237 OA
ATOM     73  O   UNL A   1      47.266  37.858  30.630  1.00  0.00    -0.744 OA
ENDBRANCH  69  70
ENDBRANCH  48  62
BRANCH  49  74
ATOM     74  C   UNL A   1      43.219  23.860  27.098  1.00  0.00     0.058 A 
ATOM     75  C   UNL A   1      42.823  23.423  25.825  1.00  0.00     0.135 A 
ATOM     76  C   UNL A   1      43.144  22.940  28.156  1.00  0.00     0.135 A 
ATOM     77  F   UNL A   1      42.862  24.269  24.784  1.00  0.00    -0.206 F 
ATOM     78  C   UNL A   1      42.353  22.131  25.610  1.00  0.00     0.059 A 
ATOM     79  C   UNL A   1      42.701  21.635  27.961  1.00  0.00     0.059 A 
ATOM     80  F   UNL A   1      43.517  23.304  29.393  1.00  0.00    -0.206 F 
ATOM     81  C   UNL A   1      42.299  21.243  26.685  1.00  0.00     0.060 A 
BRANCH  81  82
ATOM     82  S   UNL A   1      41.732  19.553  26.388  1.00  0.00     0.124 S 
ATOM     83  O   UNL A   1      40.289  19.738  26.293  1.00  0.00    -0.237 OA
ATOM     84  O   UNL A   1      42.416  19.216  25.143  1.00  0.00    -0.237 OA
ATOM     85  O   UNL A   1      42.201  18.830  27.566  1.00  0.00    -0.744 OA
ENDBRANCH  81  82
ENDBRANCH  49  74
BRANCH  61  86
ATOM     86  C   UNL A   1      49.382  27.003  26.217  1.00  0.00     0.058 A 
ATOM     87  C   UNL A   1      49.784  27.114  24.877  1.00  0.00     0.135 A 
ATOM     88  C   UNL A   1      50.296  26.446  27.129  1.00  0.00     0.135 A 
ATOM     89  F   UNL A   1      48.951  27.636  23.963  1.00  0.00    -0.206 F 
ATOM     90  C   UNL A   1      51.031  26.664  24.451  1.00  0.00     0.059 A 
ATOM     91  C   UNL A   1      51.559  26.017  26.730  1.00  0.00     0.059 A 
ATOM     92  F   UNL A   1      49.971  26.327  28.426  1.00  0.00    -0.206 F 
ATOM     93  C   UNL A   1      51.911  26.116  25.386  1.00  0.00     0.060 A 
BRANCH  93  94
ATOM     94  S   UNL A   1      53.534  25.553  24.825  1.00  0.00     0.124 S 
ATOM     95  O   UNL A   1      53.516  25.955  23.422  1.00  0.00    -0.237 OA
ATOM     96  O   UNL A   1      54.441  26.304  25.688  1.00  0.00    -0.237 OA
ATOM     97  O   UNL A   1      53.497  24.114  25.067  1.00  0.00    -0.744 OA
ENDBRANCH  93  94
ENDBRANCH  61  86
ENDBRANCH  35  36
ENDBRANCH  28  30
ENDBRANCH  27  28
ENDBRANCH  26  27
ENDBRANCH  25  26
ENDBRANCH  24  25
ENDBRANCH  23  24
ENDBRANCH   1  23
TORSDOF 23
ENDMDL
