MODEL 1
REMARK VINA RESULT:     -10.9      0.000      0.000
REMARK SMILES O=C(OCCOCCOC(=O)[C@@H]1C[C@@H]2CC[C@H]1N2C(=O)c1ccncc1Cl)c1ccc(-c2c3nc(c(-c4c(F)cc(S(=O)(=O)[O-])cc4F)c4ccc([nH]4)c(-c4c(F)cc(S(=O)(=O)[O-])cc4F)c4nc(c(-c5c(F)cc(S(=O)(=O)[O-])cc5F)c5ccc2[nH]5)C=C4)C=C3)cc1
REMARK SMILES IDX 5 1 4 2 3 3 2 4 1 5 28 6 29 7 93 8 30 9 92 10 31 11 32 12
REMARK SMILES IDX 33 13 86 14 34 15 91 16 85 17 87 18 35 19 90 20 84 21 83 22
REMARK SMILES IDX 36 24 70 25 49 26 69 27 50 28 53 29 68 30 88 31 51 32 52 33
REMARK SMILES IDX 67 35 89 36 54 37 37 38 38 39 47 40 39 41 40 42 46 43 48 44
REMARK SMILES IDX 41 45 42 46 43 47 44 48 45 49 71 50 72 51 81 52 73 53 74 54
REMARK SMILES IDX 80 55 82 56 75 57 76 58 77 59 78 60 79 61 55 62 56 63 65 64
REMARK SMILES IDX 57 65 58 66 64 67 66 68 59 69 60 70 61 71 62 72 63 73 6 74
REMARK SMILES IDX 7 75 8 76 9 77 10 78 11 79 12 80 13 81 17 82 14 83 16 84
REMARK SMILES IDX 18 85 15 86 19 87 20 88 21 89 22 90 26 91 23 92 25 93 27 94
REMARK SMILES IDX 24 95
REMARK H PARENT 87 23 53 34
REMARK Flexibility Score: inf
ROOT
ATOM      1  C   UNL A   1      32.079  29.719  25.364  1.00  0.00     0.202 C 
ENDROOT
BRANCH   1   2
ATOM      2  C   UNL A   1      32.214  29.091  26.770  1.00  0.00     0.261 C 
BRANCH   2   3
ATOM      3  O   UNL A   1      33.573  28.987  27.234  1.00  0.00    -0.460 OA
BRANCH   3   4
ATOM      4  C   UNL A   1      34.310  29.987  27.793  1.00  0.00     0.338 C 
ATOM      5  O   UNL A   1      33.800  31.082  28.007  1.00  0.00    -0.246 OA
BRANCH   4   6
ATOM      6  C   UNL A   1      35.745  29.777  28.125  1.00  0.00     0.060 A 
ATOM      7  C   UNL A   1      36.745  30.014  27.193  1.00  0.00     0.016 A 
ATOM      8  C   UNL A   1      36.126  29.389  29.411  1.00  0.00     0.016 A 
ATOM      9  C   UNL A   1      38.062  29.751  27.427  1.00  0.00     0.010 A 
ATOM     10  C   UNL A   1      37.483  29.207  29.706  1.00  0.00     0.010 A 
ATOM     11  C   UNL A   1      38.443  29.378  28.698  1.00  0.00    -0.014 A 
BRANCH  11  12
ATOM     12  C   UNL A   1      39.864  29.078  28.842  1.00  0.00     0.031 A 
ATOM     13  C   UNL A   1      40.730  30.134  29.431  1.00  0.00     0.074 A 
ATOM     14  C   UNL A   1      40.276  27.811  28.651  1.00  0.00     0.049 A 
ATOM     15  N   UNL A   1      42.021  30.153  29.564  1.00  0.00    -0.248 NA
ATOM     16  C   UNL A   1      40.044  31.331  29.954  1.00  0.00     0.031 C 
ATOM     17  C   UNL A   1      39.404  26.684  28.286  1.00  0.00     0.029 A 
ATOM     18  N   UNL A   1      41.511  27.245  28.774  1.00  0.00    -0.354 N 
ATOM     19  C   UNL A   1      42.315  31.393  30.113  1.00  0.00     0.074 A 
ATOM     20  C   UNL A   1      41.065  32.086  30.322  1.00  0.00     0.031 C 
ATOM     21  C   UNL A   1      40.138  25.565  28.215  1.00  0.00     0.029 A 
ATOM     22  C   UNL A   1      41.534  25.920  28.415  1.00  0.00     0.049 A 
ATOM     23  H   UNL A   1      42.304  27.737  29.089  1.00  0.00     0.167 HD
ATOM     24  C   UNL A   1      43.541  31.896  30.371  1.00  0.00     0.037 A 
ATOM     25  C   UNL A   1      42.588  25.116  28.187  1.00  0.00     0.037 A 
ATOM     26  C   UNL A   1      44.737  31.136  30.134  1.00  0.00     0.049 A 
ATOM     27  C   UNL A   1      43.948  25.723  28.381  1.00  0.00     0.074 A 
ATOM     28  C   UNL A   1      46.053  31.523  30.269  1.00  0.00     0.029 A 
ATOM     29  N   UNL A   1      44.745  29.812  29.700  1.00  0.00    -0.354 N 
ATOM     30  N   UNL A   1      44.249  26.937  28.784  1.00  0.00    -0.248 NA
ATOM     31  C   UNL A   1      45.105  24.880  28.076  1.00  0.00     0.031 C 
ATOM     32  C   UNL A   1      46.856  30.449  29.866  1.00  0.00     0.029 A 
ATOM     33  C   UNL A   1      46.042  29.371  29.540  1.00  0.00     0.049 A 
ATOM     34  H   UNL A   1      43.940  29.270  29.533  1.00  0.00     0.167 HD
ATOM     35  C   UNL A   1      45.633  27.007  28.791  1.00  0.00     0.074 A 
ATOM     36  C   UNL A   1      46.107  25.702  28.362  1.00  0.00     0.031 C 
ATOM     37  C   UNL A   1      46.441  28.046  29.118  1.00  0.00     0.037 A 
BRANCH  24  38
ATOM     38  C   UNL A   1      43.607  33.337  30.789  1.00  0.00     0.058 A 
ATOM     39  C   UNL A   1      43.663  34.393  29.866  1.00  0.00     0.135 A 
ATOM     40  C   UNL A   1      43.720  33.658  32.153  1.00  0.00     0.135 A 
ATOM     41  F   UNL A   1      43.601  34.143  28.547  1.00  0.00    -0.206 F 
ATOM     42  C   UNL A   1      43.877  35.707  30.274  1.00  0.00     0.059 A 
ATOM     43  C   UNL A   1      43.905  34.967  32.586  1.00  0.00     0.059 A 
ATOM     44  F   UNL A   1      43.693  32.687  33.079  1.00  0.00    -0.206 F 
ATOM     45  C   UNL A   1      44.008  35.982  31.637  1.00  0.00     0.060 A 
BRANCH  45  46
ATOM     46  S   UNL A   1      44.347  37.679  32.152  1.00  0.00     0.124 S 
ATOM     47  O   UNL A   1      43.930  38.429  30.970  1.00  0.00    -0.237 OA
ATOM     48  O   UNL A   1      43.494  37.825  33.327  1.00  0.00    -0.237 OA
ATOM     49  O   UNL A   1      45.782  37.674  32.418  1.00  0.00    -0.744 OA
ENDBRANCH  45  46
ENDBRANCH  24  38
BRANCH  25  50
ATOM     50  C   UNL A   1      42.369  23.743  27.660  1.00  0.00     0.058 A 
ATOM     51  C   UNL A   1      42.258  23.488  26.288  1.00  0.00     0.135 A 
ATOM     52  C   UNL A   1      42.345  22.636  28.531  1.00  0.00     0.135 A 
ATOM     53  F   UNL A   1      42.271  24.505  25.413  1.00  0.00    -0.206 F 
ATOM     54  C   UNL A   1      42.139  22.189  25.795  1.00  0.00     0.059 A 
ATOM     55  C   UNL A   1      42.257  21.330  28.061  1.00  0.00     0.059 A 
ATOM     56  F   UNL A   1      42.462  22.819  29.855  1.00  0.00    -0.206 F 
ATOM     57  C   UNL A   1      42.150  21.116  26.690  1.00  0.00     0.060 A 
BRANCH  57  58
ATOM     58  S   UNL A   1      42.070  19.434  26.035  1.00  0.00     0.124 S 
ATOM     59  O   UNL A   1      42.557  18.654  27.167  1.00  0.00    -0.237 OA
ATOM     60  O   UNL A   1      40.651  19.293  25.726  1.00  0.00    -0.237 OA
ATOM     61  O   UNL A   1      42.956  19.482  24.875  1.00  0.00    -0.744 OA
ENDBRANCH  57  58
ENDBRANCH  25  50
BRANCH  37  62
ATOM     62  C   UNL A   1      47.916  27.793  29.064  1.00  0.00     0.058 A 
ATOM     63  C   UNL A   1      48.678  28.134  27.938  1.00  0.00     0.135 A 
ATOM     64  C   UNL A   1      48.583  27.312  30.202  1.00  0.00     0.135 A 
ATOM     65  F   UNL A   1      48.077  28.586  26.825  1.00  0.00    -0.206 F 
ATOM     66  C   UNL A   1      50.060  28.012  27.944  1.00  0.00     0.059 A 
ATOM     67  C   UNL A   1      49.965  27.210  30.239  1.00  0.00     0.059 A 
ATOM     68  F   UNL A   1      47.888  26.983  31.304  1.00  0.00    -0.206 F 
ATOM     69  C   UNL A   1      50.695  27.562  29.104  1.00  0.00     0.060 A 
BRANCH  69  70
ATOM     70  S   UNL A   1      52.496  27.498  29.131  1.00  0.00     0.124 S 
ATOM     71  O   UNL A   1      52.740  26.569  30.228  1.00  0.00    -0.237 OA
ATOM     72  O   UNL A   1      52.809  26.999  27.795  1.00  0.00    -0.237 OA
ATOM     73  O   UNL A   1      52.881  28.883  29.382  1.00  0.00    -0.744 OA
ENDBRANCH  69  70
ENDBRANCH  37  62
ENDBRANCH  11  12
ENDBRANCH   4   6
ENDBRANCH   3   4
ENDBRANCH   2   3
ENDBRANCH   1   2
BRANCH   1  74
ATOM     74  O   UNL A   1      32.380  28.974  24.183  1.00  0.00    -0.374 OA
BRANCH  74  75
ATOM     75  C   UNL A   1      31.400  28.828  23.156  1.00  0.00     0.202 C 
BRANCH  75  76
ATOM     76  C   UNL A   1      31.469  27.434  22.536  1.00  0.00     0.261 C 
BRANCH  76  77
ATOM     77  O   UNL A   1      32.523  26.692  23.180  1.00  0.00    -0.463 OA
BRANCH  77  78
ATOM     78  C   UNL A   1      33.216  25.843  22.382  1.00  0.00     0.311 C 
ATOM     79  O   UNL A   1      33.414  25.994  21.182  1.00  0.00    -0.252 OA
BRANCH  78  80
ATOM     80  C   UNL A   1      33.816  24.700  23.158  1.00  0.00     0.124 C 
ATOM     81  C   UNL A   1      34.030  23.374  22.390  1.00  0.00     0.042 C 
ATOM     82  C   UNL A   1      33.014  24.245  24.393  1.00  0.00     0.100 C 
ATOM     83  C   UNL A   1      33.436  22.330  23.360  1.00  0.00     0.086 C 
ATOM     84  C   UNL A   1      31.609  23.718  24.021  1.00  0.00     0.028 C 
ATOM     85  N   UNL A   1      33.659  22.975  24.637  1.00  0.00    -0.332 N 
ATOM     86  C   UNL A   1      31.906  22.408  23.272  1.00  0.00     0.027 C 
BRANCH  85  87
ATOM     87  C   UNL A   1      34.266  22.442  25.737  1.00  0.00     0.256 C 
ATOM     88  O   UNL A   1      33.654  21.900  26.651  1.00  0.00    -0.269 OA
BRANCH  87  89
ATOM     89  C   UNL A   1      35.739  22.450  25.798  1.00  0.00     0.061 A 
ATOM     90  C   UNL A   1      36.353  23.653  26.157  1.00  0.00     0.035 A 
ATOM     91  C   UNL A   1      36.517  21.358  25.417  1.00  0.00     0.072 A 
ATOM     92  C   UNL A   1      37.734  23.712  26.139  1.00  0.00     0.112 A 
ATOM     93  C   UNL A   1      37.895  21.519  25.443  1.00  0.00     0.132 A 
ATOM     94  Cl  UNL A   1      35.867  19.860  24.881  1.00  0.00    -0.082 Cl
ATOM     95  N   UNL A   1      38.519  22.669  25.798  1.00  0.00    -0.263 NA
ENDBRANCH  87  89
ENDBRANCH  85  87
ENDBRANCH  78  80
ENDBRANCH  77  78
ENDBRANCH  76  77
ENDBRANCH  75  76
ENDBRANCH  74  75
ENDBRANCH   1  74
TORSDOF 19
ENDMDL
MODEL 2
REMARK VINA RESULT:     -10.4      2.489      8.845
REMARK SMILES O=C(OCCOCCOC(=O)[C@@H]1C[C@@H]2CC[C@H]1N2C(=O)c1ccncc1Cl)c1ccc(-c2c3nc(c(-c4c(F)cc(S(=O)(=O)[O-])cc4F)c4ccc([nH]4)c(-c4c(F)cc(S(=O)(=O)[O-])cc4F)c4nc(c(-c5c(F)cc(S(=O)(=O)[O-])cc5F)c5ccc2[nH]5)C=C4)C=C3)cc1
REMARK SMILES IDX 5 1 4 2 3 3 2 4 1 5 28 6 29 7 93 8 30 9 92 10 31 11 32 12
REMARK SMILES IDX 33 13 86 14 34 15 91 16 85 17 87 18 35 19 90 20 84 21 83 22
REMARK SMILES IDX 36 24 70 25 49 26 69 27 50 28 53 29 68 30 88 31 51 32 52 33
REMARK SMILES IDX 67 35 89 36 54 37 37 38 38 39 47 40 39 41 40 42 46 43 48 44
REMARK SMILES IDX 41 45 42 46 43 47 44 48 45 49 71 50 72 51 81 52 73 53 74 54
REMARK SMILES IDX 80 55 82 56 75 57 76 58 77 59 78 60 79 61 55 62 56 63 65 64
REMARK SMILES IDX 57 65 58 66 64 67 66 68 59 69 60 70 61 71 62 72 63 73 6 74
REMARK SMILES IDX 7 75 8 76 9 77 10 78 11 79 12 80 13 81 17 82 14 83 16 84
REMARK SMILES IDX 18 85 15 86 19 87 20 88 21 89 22 90 26 91 23 92 25 93 27 94
REMARK SMILES IDX 24 95
REMARK H PARENT 87 23 53 34
REMARK Flexibility Score: inf
ROOT
ATOM      1  C   UNL A   1      34.038  31.383  27.711  1.00  0.00     0.202 C 
ENDROOT
BRANCH   1   2
ATOM      2  C   UNL A   1      35.422  31.298  28.396  1.00  0.00     0.261 C 
BRANCH   2   3
ATOM      3  O   UNL A   1      35.757  29.979  28.868  1.00  0.00    -0.460 OA
BRANCH   3   4
ATOM      4  C   UNL A   1      36.648  29.681  29.856  1.00  0.00     0.338 C 
ATOM      5  O   UNL A   1      36.270  29.591  31.019  1.00  0.00    -0.246 OA
BRANCH   4   6
ATOM      6  C   UNL A   1      38.089  29.490  29.544  1.00  0.00     0.060 A 
ATOM      7  C   UNL A   1      38.568  29.586  28.245  1.00  0.00     0.016 A 
ATOM      8  C   UNL A   1      39.013  29.265  30.567  1.00  0.00     0.016 A 
ATOM      9  C   UNL A   1      39.863  29.331  27.904  1.00  0.00     0.010 A 
ATOM     10  C   UNL A   1      40.367  29.098  30.252  1.00  0.00     0.010 A 
ATOM     11  C   UNL A   1      40.779  29.120  28.912  1.00  0.00    -0.014 A 
BRANCH  11  12
ATOM     12  C   UNL A   1      42.129  28.814  28.450  1.00  0.00     0.031 A 
ATOM     13  C   UNL A   1      42.379  27.444  27.927  1.00  0.00     0.074 A 
ATOM     14  C   UNL A   1      43.005  29.825  28.310  1.00  0.00     0.049 A 
ATOM     15  N   UNL A   1      43.500  26.900  27.561  1.00  0.00    -0.248 NA
ATOM     16  C   UNL A   1      41.200  26.570  27.784  1.00  0.00     0.031 C 
ATOM     17  C   UNL A   1      42.720  31.238  28.606  1.00  0.00     0.029 A 
ATOM     18  N   UNL A   1      44.289  29.838  27.851  1.00  0.00    -0.354 N 
ATOM     19  C   UNL A   1      43.178  25.595  27.219  1.00  0.00     0.074 A 
ATOM     20  C   UNL A   1      41.753  25.436  27.386  1.00  0.00     0.031 C 
ATOM     21  C   UNL A   1      43.803  31.975  28.319  1.00  0.00     0.029 A 
ATOM     22  C   UNL A   1      44.879  31.076  27.935  1.00  0.00     0.049 A 
ATOM     23  H   UNL A   1      44.746  29.041  27.496  1.00  0.00     0.167 HD
ATOM     24  C   UNL A   1      44.033  24.621  26.839  1.00  0.00     0.037 A 
ATOM     25  C   UNL A   1      46.174  31.414  27.802  1.00  0.00     0.037 A 
ATOM     26  C   UNL A   1      45.443  24.864  26.697  1.00  0.00     0.049 A 
ATOM     27  C   UNL A   1      47.128  30.300  27.478  1.00  0.00     0.074 A 
ATOM     28  C   UNL A   1      46.452  23.974  26.396  1.00  0.00     0.029 A 
ATOM     29  N   UNL A   1      46.036  26.115  26.855  1.00  0.00    -0.354 N 
ATOM     30  N   UNL A   1      46.859  29.030  27.271  1.00  0.00    -0.248 NA
ATOM     31  C   UNL A   1      48.549  30.642  27.392  1.00  0.00     0.031 C 
ATOM     32  C   UNL A   1      47.662  24.678  26.426  1.00  0.00     0.029 A 
ATOM     33  C   UNL A   1      47.402  26.020  26.682  1.00  0.00     0.049 A 
ATOM     34  H   UNL A   1      45.551  26.946  27.061  1.00  0.00     0.167 HD
ATOM     35  C   UNL A   1      48.076  28.416  27.019  1.00  0.00     0.074 A 
ATOM     36  C   UNL A   1      49.081  29.464  27.089  1.00  0.00     0.031 C 
ATOM     37  C   UNL A   1      48.345  27.114  26.755  1.00  0.00     0.037 A 
BRANCH  24  38
ATOM     38  C   UNL A   1      43.468  23.237  26.705  1.00  0.00     0.058 A 
ATOM     39  C   UNL A   1      43.143  22.439  27.814  1.00  0.00     0.135 A 
ATOM     40  C   UNL A   1      43.344  22.660  25.429  1.00  0.00     0.135 A 
ATOM     41  F   UNL A   1      43.281  22.923  29.059  1.00  0.00    -0.206 F 
ATOM     42  C   UNL A   1      42.765  21.107  27.666  1.00  0.00     0.059 A 
ATOM     43  C   UNL A   1      42.939  21.340  25.256  1.00  0.00     0.059 A 
ATOM     44  F   UNL A   1      43.659  23.369  24.334  1.00  0.00    -0.206 F 
ATOM     45  C   UNL A   1      42.677  20.564  26.383  1.00  0.00     0.060 A 
BRANCH  45  46
ATOM     46  S   UNL A   1      42.245  18.819  26.206  1.00  0.00     0.124 S 
ATOM     47  O   UNL A   1      42.353  18.353  27.585  1.00  0.00    -0.237 OA
ATOM     48  O   UNL A   1      40.892  18.886  25.664  1.00  0.00    -0.237 OA
ATOM     49  O   UNL A   1      43.260  18.309  25.290  1.00  0.00    -0.744 OA
ENDBRANCH  45  46
ENDBRANCH  24  38
BRANCH  25  50
ATOM     50  C   UNL A   1      46.605  32.809  28.083  1.00  0.00     0.058 A 
ATOM     51  C   UNL A   1      46.546  33.810  27.106  1.00  0.00     0.135 A 
ATOM     52  C   UNL A   1      47.017  33.186  29.375  1.00  0.00     0.135 A 
ATOM     53  F   UNL A   1      46.163  33.507  25.856  1.00  0.00    -0.206 F 
ATOM     54  C   UNL A   1      46.870  35.135  27.399  1.00  0.00     0.059 A 
ATOM     55  C   UNL A   1      47.318  34.506  29.698  1.00  0.00     0.059 A 
ATOM     56  F   UNL A   1      47.080  32.272  30.356  1.00  0.00    -0.206 F 
ATOM     57  C   UNL A   1      47.245  35.473  28.701  1.00  0.00     0.060 A 
BRANCH  57  58
ATOM     58  S   UNL A   1      47.590  37.205  29.086  1.00  0.00     0.124 S 
ATOM     59  O   UNL A   1      46.438  37.874  28.493  1.00  0.00    -0.237 OA
ATOM     60  O   UNL A   1      47.639  37.189  30.544  1.00  0.00    -0.237 OA
ATOM     61  O   UNL A   1      48.870  37.448  28.426  1.00  0.00    -0.744 OA
ENDBRANCH  57  58
ENDBRANCH  25  50
BRANCH  37  62
ATOM     62  C   UNL A   1      49.776  26.764  26.483  1.00  0.00     0.058 A 
ATOM     63  C   UNL A   1      50.595  26.204  27.472  1.00  0.00     0.135 A 
ATOM     64  C   UNL A   1      50.287  26.887  25.181  1.00  0.00     0.135 A 
ATOM     65  F   UNL A   1      50.147  26.081  28.732  1.00  0.00    -0.206 F 
ATOM     66  C   UNL A   1      51.879  25.769  27.178  1.00  0.00     0.059 A 
ATOM     67  C   UNL A   1      51.556  26.432  24.859  1.00  0.00     0.059 A 
ATOM     68  F   UNL A   1      49.529  27.411  24.203  1.00  0.00    -0.206 F 
ATOM     69  C   UNL A   1      52.345  25.875  25.865  1.00  0.00     0.060 A 
BRANCH  69  70
ATOM     70  S   UNL A   1      53.978  25.219  25.475  1.00  0.00     0.124 S 
ATOM     71  O   UNL A   1      53.740  23.781  25.544  1.00  0.00    -0.237 OA
ATOM     72  O   UNL A   1      54.220  25.760  24.141  1.00  0.00    -0.237 OA
ATOM     73  O   UNL A   1      54.825  25.767  26.530  1.00  0.00    -0.744 OA
ENDBRANCH  69  70
ENDBRANCH  37  62
ENDBRANCH  11  12
ENDBRANCH   4   6
ENDBRANCH   3   4
ENDBRANCH   2   3
ENDBRANCH   1   2
BRANCH   1  74
ATOM     74  O   UNL A   1      33.601  30.385  26.789  1.00  0.00    -0.374 OA
BRANCH  74  75
ATOM     75  C   UNL A   1      32.229  30.318  26.400  1.00  0.00     0.202 C 
BRANCH  75  76
ATOM     76  C   UNL A   1      31.809  28.873  26.143  1.00  0.00     0.261 C 
BRANCH  76  77
ATOM     77  O   UNL A   1      31.447  28.735  24.755  1.00  0.00    -0.463 OA
BRANCH  77  78
ATOM     78  C   UNL A   1      32.450  28.371  23.919  1.00  0.00     0.311 C 
ATOM     79  O   UNL A   1      33.378  29.088  23.564  1.00  0.00    -0.252 OA
BRANCH  78  80
ATOM     80  C   UNL A   1      32.359  26.921  23.524  1.00  0.00     0.124 C 
ATOM     81  C   UNL A   1      31.237  26.088  24.187  1.00  0.00     0.042 C 
ATOM     82  C   UNL A   1      33.617  26.077  23.811  1.00  0.00     0.100 C 
ATOM     83  C   UNL A   1      31.991  24.820  24.643  1.00  0.00     0.086 C 
ATOM     84  C   UNL A   1      33.947  26.010  25.320  1.00  0.00     0.028 C 
ATOM     85  N   UNL A   1      33.052  24.754  23.660  1.00  0.00    -0.332 N 
ATOM     86  C   UNL A   1      32.799  25.169  25.901  1.00  0.00     0.027 C 
BRANCH  85  87
ATOM     87  C   UNL A   1      33.396  23.685  22.887  1.00  0.00     0.256 C 
ATOM     88  O   UNL A   1      33.522  23.744  21.668  1.00  0.00    -0.269 OA
BRANCH  87  89
ATOM     89  C   UNL A   1      33.708  22.408  23.555  1.00  0.00     0.061 A 
ATOM     90  C   UNL A   1      32.697  21.444  23.585  1.00  0.00     0.035 A 
ATOM     91  C   UNL A   1      34.907  22.181  24.229  1.00  0.00     0.072 A 
ATOM     92  C   UNL A   1      32.934  20.271  24.279  1.00  0.00     0.112 A 
ATOM     93  C   UNL A   1      35.047  20.967  24.886  1.00  0.00     0.132 A 
ATOM     94  Cl  UNL A   1      36.184  23.328  24.325  1.00  0.00    -0.082 Cl
ATOM     95  N   UNL A   1      34.090  20.008  24.924  1.00  0.00    -0.263 NA
ENDBRANCH  87  89
ENDBRANCH  85  87
ENDBRANCH  78  80
ENDBRANCH  77  78
ENDBRANCH  76  77
ENDBRANCH  75  76
ENDBRANCH  74  75
ENDBRANCH   1  74
TORSDOF 19
ENDMDL
MODEL 3
REMARK VINA RESULT:     -10.4      1.273      2.051
REMARK SMILES O=C(OCCOCCOC(=O)[C@@H]1C[C@@H]2CC[C@H]1N2C(=O)c1ccncc1Cl)c1ccc(-c2c3nc(c(-c4c(F)cc(S(=O)(=O)[O-])cc4F)c4ccc([nH]4)c(-c4c(F)cc(S(=O)(=O)[O-])cc4F)c4nc(c(-c5c(F)cc(S(=O)(=O)[O-])cc5F)c5ccc2[nH]5)C=C4)C=C3)cc1
REMARK SMILES IDX 5 1 4 2 3 3 2 4 1 5 28 6 29 7 93 8 30 9 92 10 31 11 32 12
REMARK SMILES IDX 33 13 86 14 34 15 91 16 85 17 87 18 35 19 90 20 84 21 83 22
REMARK SMILES IDX 36 24 70 25 49 26 69 27 50 28 53 29 68 30 88 31 51 32 52 33
REMARK SMILES IDX 67 35 89 36 54 37 37 38 38 39 47 40 39 41 40 42 46 43 48 44
REMARK SMILES IDX 41 45 42 46 43 47 44 48 45 49 71 50 72 51 81 52 73 53 74 54
REMARK SMILES IDX 80 55 82 56 75 57 76 58 77 59 78 60 79 61 55 62 56 63 65 64
REMARK SMILES IDX 57 65 58 66 64 67 66 68 59 69 60 70 61 71 62 72 63 73 6 74
REMARK SMILES IDX 7 75 8 76 9 77 10 78 11 79 12 80 13 81 17 82 14 83 16 84
REMARK SMILES IDX 18 85 15 86 19 87 20 88 21 89 22 90 26 91 23 92 25 93 27 94
REMARK SMILES IDX 24 95
REMARK H PARENT 87 23 53 34
REMARK Flexibility Score: inf
ROOT
ATOM      1  C   UNL A   1      32.258  30.236  25.645  1.00  0.00     0.202 C 
ENDROOT
BRANCH   1   2
ATOM      2  C   UNL A   1      32.533  31.199  26.823  1.00  0.00     0.261 C 
BRANCH   2   3
ATOM      3  O   UNL A   1      33.808  30.989  27.460  1.00  0.00    -0.460 OA
BRANCH   3   4
ATOM      4  C   UNL A   1      34.282  29.804  27.938  1.00  0.00     0.338 C 
ATOM      5  O   UNL A   1      33.510  28.877  28.163  1.00  0.00    -0.246 OA
BRANCH   4   6
ATOM      6  C   UNL A   1      35.731  29.626  28.220  1.00  0.00     0.060 A 
ATOM      7  C   UNL A   1      36.692  29.856  27.245  1.00  0.00     0.016 A 
ATOM      8  C   UNL A   1      36.167  29.276  29.499  1.00  0.00     0.016 A 
ATOM      9  C   UNL A   1      38.021  29.621  27.435  1.00  0.00     0.010 A 
ATOM     10  C   UNL A   1      37.537  29.123  29.746  1.00  0.00     0.010 A 
ATOM     11  C   UNL A   1      38.455  29.286  28.699  1.00  0.00    -0.014 A 
BRANCH  11  12
ATOM     12  C   UNL A   1      39.886  29.012  28.796  1.00  0.00     0.031 A 
ATOM     13  C   UNL A   1      40.751  30.086  29.353  1.00  0.00     0.074 A 
ATOM     14  C   UNL A   1      40.315  27.753  28.594  1.00  0.00     0.049 A 
ATOM     15  N   UNL A   1      42.046  30.129  29.443  1.00  0.00    -0.248 NA
ATOM     16  C   UNL A   1      40.061  31.271  29.896  1.00  0.00     0.031 C 
ATOM     17  C   UNL A   1      39.452  26.609  28.261  1.00  0.00     0.029 A 
ATOM     18  N   UNL A   1      41.564  27.210  28.677  1.00  0.00    -0.354 N 
ATOM     19  C   UNL A   1      42.334  31.376  29.979  1.00  0.00     0.074 A 
ATOM     20  C   UNL A   1      41.079  32.046  30.229  1.00  0.00     0.031 C 
ATOM     21  C   UNL A   1      40.204  25.503  28.168  1.00  0.00     0.029 A 
ATOM     22  C   UNL A   1      41.599  25.884  28.319  1.00  0.00     0.049 A 
ATOM     23  H   UNL A   1      42.357  27.718  28.963  1.00  0.00     0.167 HD
ATOM     24  C   UNL A   1      43.558  31.903  30.195  1.00  0.00     0.037 A 
ATOM     25  C   UNL A   1      42.660  25.100  28.058  1.00  0.00     0.037 A 
ATOM     26  C   UNL A   1      44.760  31.165  29.920  1.00  0.00     0.049 A 
ATOM     27  C   UNL A   1      44.014  25.732  28.206  1.00  0.00     0.074 A 
ATOM     28  C   UNL A   1      46.073  31.577  30.010  1.00  0.00     0.029 A 
ATOM     29  N   UNL A   1      44.778  29.839  29.489  1.00  0.00    -0.354 N 
ATOM     30  N   UNL A   1      44.306  26.954  28.596  1.00  0.00    -0.248 NA
ATOM     31  C   UNL A   1      45.176  24.910  27.863  1.00  0.00     0.031 C 
ATOM     32  C   UNL A   1      46.881  30.517  29.582  1.00  0.00     0.029 A 
ATOM     33  C   UNL A   1      46.077  29.422  29.286  1.00  0.00     0.049 A 
ATOM     34  H   UNL A   1      43.979  29.282  29.350  1.00  0.00     0.167 HD
ATOM     35  C   UNL A   1      45.688  27.050  28.556  1.00  0.00     0.074 A 
ATOM     36  C   UNL A   1      46.172  25.753  28.114  1.00  0.00     0.031 C 
ATOM     37  C   UNL A   1      46.487  28.104  28.854  1.00  0.00     0.037 A 
BRANCH  24  38
ATOM     38  C   UNL A   1      43.611  33.346  30.608  1.00  0.00     0.058 A 
ATOM     39  C   UNL A   1      43.709  34.396  29.682  1.00  0.00     0.135 A 
ATOM     40  C   UNL A   1      43.669  33.674  31.973  1.00  0.00     0.135 A 
ATOM     41  F   UNL A   1      43.701  34.139  28.363  1.00  0.00    -0.206 F 
ATOM     42  C   UNL A   1      43.910  35.712  30.092  1.00  0.00     0.059 A 
ATOM     43  C   UNL A   1      43.839  34.985  32.406  1.00  0.00     0.059 A 
ATOM     44  F   UNL A   1      43.601  32.708  32.903  1.00  0.00    -0.206 F 
ATOM     45  C   UNL A   1      43.985  35.994  31.457  1.00  0.00     0.060 A 
BRANCH  45  46
ATOM     46  S   UNL A   1      44.307  37.693  31.976  1.00  0.00     0.124 S 
ATOM     47  O   UNL A   1      43.579  37.752  33.241  1.00  0.00    -0.237 OA
ATOM     48  O   UNL A   1      45.762  37.717  32.082  1.00  0.00    -0.237 OA
ATOM     49  O   UNL A   1      43.745  38.492  30.892  1.00  0.00    -0.744 OA
ENDBRANCH  45  46
ENDBRANCH  24  38
BRANCH  25  50
ATOM     50  C   UNL A   1      42.450  23.721  27.542  1.00  0.00     0.058 A 
ATOM     51  C   UNL A   1      42.408  23.446  26.170  1.00  0.00     0.135 A 
ATOM     52  C   UNL A   1      42.363  22.630  28.427  1.00  0.00     0.135 A 
ATOM     53  F   UNL A   1      42.483  24.448  25.281  1.00  0.00    -0.206 F 
ATOM     54  C   UNL A   1      42.297  22.141  25.692  1.00  0.00     0.059 A 
ATOM     55  C   UNL A   1      42.281  21.317  27.973  1.00  0.00     0.059 A 
ATOM     56  F   UNL A   1      42.412  22.832  29.753  1.00  0.00    -0.206 F 
ATOM     57  C   UNL A   1      42.244  21.083  26.602  1.00  0.00     0.060 A 
BRANCH  57  58
ATOM     58  S   UNL A   1      42.175  19.391  25.970  1.00  0.00     0.124 S 
ATOM     59  O   UNL A   1      40.746  19.224  25.732  1.00  0.00    -0.237 OA
ATOM     60  O   UNL A   1      43.015  19.475  24.780  1.00  0.00    -0.237 OA
ATOM     61  O   UNL A   1      42.729  18.599  27.065  1.00  0.00    -0.744 OA
ENDBRANCH  57  58
ENDBRANCH  25  50
BRANCH  37  62
ATOM     62  C   UNL A   1      47.964  27.878  28.751  1.00  0.00     0.058 A 
ATOM     63  C   UNL A   1      48.684  27.256  29.780  1.00  0.00     0.135 A 
ATOM     64  C   UNL A   1      48.634  28.186  27.557  1.00  0.00     0.135 A 
ATOM     65  F   UNL A   1      48.083  26.956  30.942  1.00  0.00    -0.206 F 
ATOM     66  C   UNL A   1      50.026  26.939  29.625  1.00  0.00     0.059 A 
ATOM     67  C   UNL A   1      49.966  27.852  27.370  1.00  0.00     0.059 A 
ATOM     68  F   UNL A   1      47.975  28.776  26.544  1.00  0.00    -0.206 F 
ATOM     69  C   UNL A   1      50.654  27.229  28.411  1.00  0.00     0.060 A 
BRANCH  69  70
ATOM     70  S   UNL A   1      52.371  26.726  28.188  1.00  0.00     0.124 S 
ATOM     71  O   UNL A   1      52.233  25.623  27.243  1.00  0.00    -0.237 OA
ATOM     72  O   UNL A   1      52.984  27.941  27.660  1.00  0.00    -0.237 OA
ATOM     73  O   UNL A   1      52.793  26.352  29.533  1.00  0.00    -0.744 OA
ENDBRANCH  69  70
ENDBRANCH  37  62
ENDBRANCH  11  12
ENDBRANCH   4   6
ENDBRANCH   3   4
ENDBRANCH   2   3
ENDBRANCH   1   2
BRANCH   1  74
ATOM     74  O   UNL A   1      31.067  30.337  24.863  1.00  0.00    -0.374 OA
BRANCH  74  75
ATOM     75  C   UNL A   1      30.637  29.236  24.064  1.00  0.00     0.202 C 
BRANCH  75  76
ATOM     76  C   UNL A   1      31.760  28.761  23.146  1.00  0.00     0.261 C 
BRANCH  76  77
ATOM     77  O   UNL A   1      31.523  27.384  22.797  1.00  0.00    -0.463 OA
BRANCH  77  78
ATOM     78  C   UNL A   1      32.566  26.540  22.991  1.00  0.00     0.311 C 
ATOM     79  O   UNL A   1      33.716  26.727  22.609  1.00  0.00    -0.252 OA
BRANCH  78  80
ATOM     80  C   UNL A   1      32.183  25.349  23.830  1.00  0.00     0.124 C 
ATOM     81  C   UNL A   1      30.670  25.097  24.030  1.00  0.00     0.042 C 
ATOM     82  C   UNL A   1      32.714  25.359  25.276  1.00  0.00     0.100 C 
ATOM     83  C   UNL A   1      30.571  24.866  25.553  1.00  0.00     0.086 C 
ATOM     84  C   UNL A   1      32.171  26.554  26.094  1.00  0.00     0.028 C 
ATOM     85  N   UNL A   1      31.881  24.321  25.840  1.00  0.00    -0.332 N 
ATOM     86  C   UNL A   1      30.677  26.229  26.253  1.00  0.00     0.027 C 
BRANCH  85  87
ATOM     87  C   UNL A   1      32.167  23.169  26.513  1.00  0.00     0.256 C 
ATOM     88  O   UNL A   1      31.856  22.975  27.683  1.00  0.00    -0.269 OA
BRANCH  87  89
ATOM     89  C   UNL A   1      32.819  22.071  25.777  1.00  0.00     0.061 A 
ATOM     90  C   UNL A   1      31.984  21.109  25.202  1.00  0.00     0.035 A 
ATOM     91  C   UNL A   1      34.203  21.911  25.728  1.00  0.00     0.072 A 
ATOM     92  C   UNL A   1      32.572  20.023  24.578  1.00  0.00     0.112 A 
ATOM     93  C   UNL A   1      34.690  20.791  25.069  1.00  0.00     0.132 A 
ATOM     94  Cl  UNL A   1      35.318  22.988  26.468  1.00  0.00    -0.082 Cl
ATOM     95  N   UNL A   1      33.907  19.847  24.493  1.00  0.00    -0.263 NA
ENDBRANCH  87  89
ENDBRANCH  85  87
ENDBRANCH  78  80
ENDBRANCH  77  78
ENDBRANCH  76  77
ENDBRANCH  75  76
ENDBRANCH  74  75
ENDBRANCH   1  74
TORSDOF 19
ENDMDL
