MODEL 1
REMARK VINA RESULT:     -11.1      0.000      0.000
REMARK SMILES Cc1cc2c(c(C)c1Cl)C=C(C(=O)OCCOCCOC(=O)c1ccc(-c3c4nc(c(-c5c(F)cc(S(=O)(=O)[O-])cc5F)c5ccc([nH]5)c(-c5c(F)cc(S(=O)(=O)[O-])cc5F)c5nc(c(-c6c(F)cc(S(=O)(=O)[O-])cc6F)c6ccc3[nH]6)C=C5)C=C4)cc1)[C@@H](C(F)(F)F)O2
REMARK SMILES IDX 18 1 17 2 16 3 15 4 14 5 12 6 13 7 11 8 1 9 2 10 3 11 8 12
REMARK SMILES IDX 4 13 6 14 9 15 5 16 94 17 7 18 10 19 89 20 90 21 91 22 92 23
REMARK SMILES IDX 93 24 19 25 20 26 21 27 22 28 23 29 24 30 88 31 25 32 87 33
REMARK SMILES IDX 26 34 27 35 28 36 81 37 29 38 86 39 80 40 82 41 30 42 85 43
REMARK SMILES IDX 79 44 78 45 31 47 65 48 44 49 64 50 45 51 48 52 63 53 83 54
REMARK SMILES IDX 46 55 47 56 62 58 84 59 49 60 32 61 33 62 42 63 34 64 35 65
REMARK SMILES IDX 41 66 43 67 36 68 37 69 38 70 39 71 40 72 66 73 67 74 76 75
REMARK SMILES IDX 68 76 69 77 75 78 77 79 70 80 71 81 72 82 73 83 74 84 50 85
REMARK SMILES IDX 51 86 60 87 52 88 53 89 59 90 61 91 54 92 55 93 56 94 57 95
REMARK SMILES IDX 58 96
REMARK H PARENT 82 46 48 57
REMARK Flexibility Score: inf
ROOT
ATOM      1  C   UNL A   1      32.145  29.935  25.383  1.00  0.00     0.202 C 
ENDROOT
BRANCH   1   2
ATOM      2  O   UNL A   1      33.320  29.291  24.886  1.00  0.00    -0.374 OA
BRANCH   2   3
ATOM      3  C   UNL A   1      33.339  28.917  23.509  1.00  0.00     0.202 C 
BRANCH   3   4
ATOM      4  C   UNL A   1      33.337  27.415  23.208  1.00  0.00     0.261 C 
BRANCH   4   5
ATOM      5  O   UNL A   1      34.051  26.677  24.212  1.00  0.00    -0.460 OA
BRANCH   5   6
ATOM      6  C   UNL A   1      33.284  25.853  24.958  1.00  0.00     0.338 C 
ATOM      7  O   UNL A   1      32.179  26.096  25.425  1.00  0.00    -0.246 OA
BRANCH   6   8
ATOM      8  C   UNL A   1      33.905  24.517  25.029  1.00  0.00     0.087 C 
ATOM      9  C   UNL A   1      38.046  19.565  24.781  1.00  0.00     0.046 C 
ATOM     10  C   UNL A   1      37.308  20.832  25.121  1.00  0.00    -0.028 A 
ATOM     11  C   UNL A   1      35.944  20.916  24.811  1.00  0.00     0.052 A 
ATOM     12  C   UNL A   1      37.953  21.955  25.675  1.00  0.00     0.047 A 
ATOM     13  C   UNL A   1      35.243  22.105  24.993  1.00  0.00     0.128 A 
ATOM     14  C   UNL A   1      37.246  23.158  25.907  1.00  0.00    -0.021 A 
ATOM     15  Cl  UNL A   1      39.651  21.851  26.031  1.00  0.00    -0.084 Cl
ATOM     16  C   UNL A   1      35.889  23.234  25.505  1.00  0.00     0.022 A 
ATOM     17  O   UNL A   1      33.922  22.064  24.641  1.00  0.00    -0.475 OA
ATOM     18  C   UNL A   1      37.902  24.359  26.547  1.00  0.00     0.047 C 
ATOM     19  C   UNL A   1      35.146  24.489  25.528  1.00  0.00     0.027 C 
ATOM     20  C   UNL A   1      33.172  23.306  24.537  1.00  0.00     0.316 C 
BRANCH  20  21
ATOM     21  C   UNL A   1      32.684  23.455  23.088  1.00  0.00     0.430 C 
ATOM     22  F   UNL A   1      33.590  24.121  22.332  1.00  0.00    -0.167 F 
ATOM     23  F   UNL A   1      32.490  22.254  22.497  1.00  0.00    -0.167 F 
ATOM     24  F   UNL A   1      31.518  24.136  23.017  1.00  0.00    -0.167 F 
ENDBRANCH  20  21
ENDBRANCH   6   8
ENDBRANCH   5   6
ENDBRANCH   4   5
ENDBRANCH   3   4
ENDBRANCH   2   3
ENDBRANCH   1   2
BRANCH   1  25
ATOM     25  C   UNL A   1      32.187  30.463  26.822  1.00  0.00     0.261 C 
BRANCH  25  26
ATOM     26  O   UNL A   1      33.431  30.156  27.477  1.00  0.00    -0.460 OA
BRANCH  26  27
ATOM     27  C   UNL A   1      34.221  31.229  27.717  1.00  0.00     0.338 C 
ATOM     28  O   UNL A   1      33.862  32.393  27.849  1.00  0.00    -0.246 OA
BRANCH  27  29
ATOM     29  C   UNL A   1      35.601  30.796  27.992  1.00  0.00     0.060 A 
ATOM     30  C   UNL A   1      35.831  29.422  28.135  1.00  0.00     0.016 A 
ATOM     31  C   UNL A   1      36.627  31.718  28.211  1.00  0.00     0.016 A 
ATOM     32  C   UNL A   1      37.077  28.965  28.556  1.00  0.00     0.010 A 
ATOM     33  C   UNL A   1      37.873  31.257  28.648  1.00  0.00     0.010 A 
ATOM     34  C   UNL A   1      38.088  29.884  28.863  1.00  0.00    -0.014 A 
BRANCH  34  35
ATOM     35  C   UNL A   1      39.294  29.420  29.589  1.00  0.00     0.031 A 
ATOM     36  C   UNL A   1      39.668  30.110  30.875  1.00  0.00     0.074 A 
ATOM     37  C   UNL A   1      40.017  28.380  29.141  1.00  0.00     0.049 A 
ATOM     38  N   UNL A   1      40.703  29.918  31.649  1.00  0.00    -0.248 NA
ATOM     39  C   UNL A   1      38.744  31.154  31.351  1.00  0.00     0.031 C 
ATOM     40  C   UNL A   1      39.713  27.592  27.948  1.00  0.00     0.029 A 
ATOM     41  N   UNL A   1      41.159  27.809  29.642  1.00  0.00    -0.354 N 
ATOM     42  C   UNL A   1      40.558  30.812  32.702  1.00  0.00     0.074 A 
ATOM     43  C   UNL A   1      39.348  31.567  32.456  1.00  0.00     0.031 C 
ATOM     44  C   UNL A   1      40.653  26.641  27.806  1.00  0.00     0.029 A 
ATOM     45  C   UNL A   1      41.640  26.775  28.875  1.00  0.00     0.049 A 
ATOM     46  H   UNL A   1      41.592  28.111  30.473  1.00  0.00     0.167 HD
ATOM     47  C   UNL A   1      41.355  30.981  33.784  1.00  0.00     0.037 A 
ATOM     48  C   UNL A   1      42.762  26.041  29.012  1.00  0.00     0.037 A 
ATOM     49  C   UNL A   1      42.561  30.233  34.021  1.00  0.00     0.049 A 
ATOM     50  C   UNL A   1      43.686  26.315  30.169  1.00  0.00     0.074 A 
ATOM     51  C   UNL A   1      43.448  30.340  35.077  1.00  0.00     0.029 A 
ATOM     52  N   UNL A   1      43.051  29.239  33.186  1.00  0.00    -0.354 N 
ATOM     53  N   UNL A   1      43.553  27.181  31.146  1.00  0.00    -0.248 NA
ATOM     54  C   UNL A   1      44.918  25.517  30.238  1.00  0.00     0.031 C 
ATOM     55  C   UNL A   1      44.496  29.438  34.861  1.00  0.00     0.029 A 
ATOM     56  C   UNL A   1      44.239  28.739  33.691  1.00  0.00     0.049 A 
ATOM     57  H   UNL A   1      42.618  28.935  32.356  1.00  0.00     0.167 HD
ATOM     58  C   UNL A   1      44.676  27.024  31.951  1.00  0.00     0.074 A 
ATOM     59  C   UNL A   1      45.468  25.966  31.358  1.00  0.00     0.031 C 
ATOM     60  C   UNL A   1      45.021  27.694  33.080  1.00  0.00     0.037 A 
BRANCH  47  61
ATOM     61  C   UNL A   1      40.956  32.033  34.781  1.00  0.00     0.058 A 
ATOM     62  C   UNL A   1      40.078  31.748  35.838  1.00  0.00     0.135 A 
ATOM     63  C   UNL A   1      41.482  33.332  34.695  1.00  0.00     0.135 A 
ATOM     64  F   UNL A   1      39.530  30.528  35.952  1.00  0.00    -0.206 F 
ATOM     65  C   UNL A   1      39.721  32.720  36.767  1.00  0.00     0.059 A 
ATOM     66  C   UNL A   1      41.156  34.314  35.626  1.00  0.00     0.059 A 
ATOM     67  F   UNL A   1      42.318  33.659  33.699  1.00  0.00    -0.206 F 
ATOM     68  C   UNL A   1      40.266  34.000  36.653  1.00  0.00     0.060 A 
BRANCH  68  69
ATOM     69  S   UNL A   1      39.800  35.247  37.874  1.00  0.00     0.124 S 
ATOM     70  O   UNL A   1      38.554  34.693  38.394  1.00  0.00    -0.237 OA
ATOM     71  O   UNL A   1      40.936  35.224  38.791  1.00  0.00    -0.237 OA
ATOM     72  O   UNL A   1      39.661  36.465  37.082  1.00  0.00    -0.744 OA
ENDBRANCH  68  69
ENDBRANCH  47  61
BRANCH  48  73
ATOM     73  C   UNL A   1      43.082  24.985  28.016  1.00  0.00     0.058 A 
ATOM     74  C   UNL A   1      43.778  25.291  26.837  1.00  0.00     0.135 A 
ATOM     75  C   UNL A   1      42.706  23.649  28.227  1.00  0.00     0.135 A 
ATOM     76  F   UNL A   1      44.144  26.556  26.585  1.00  0.00    -0.206 F 
ATOM     77  C   UNL A   1      44.088  24.310  25.900  1.00  0.00     0.059 A 
ATOM     78  C   UNL A   1      43.025  22.647  27.315  1.00  0.00     0.059 A 
ATOM     79  F   UNL A   1      42.043  23.305  29.341  1.00  0.00    -0.206 F 
ATOM     80  C   UNL A   1      43.711  22.990  26.151  1.00  0.00     0.060 A 
BRANCH  80  81
ATOM     81  S   UNL A   1      44.174  21.717  24.956  1.00  0.00     0.124 S 
ATOM     82  O   UNL A   1      43.186  20.681  25.232  1.00  0.00    -0.237 OA
ATOM     83  O   UNL A   1      44.023  22.422  23.687  1.00  0.00    -0.237 OA
ATOM     84  O   UNL A   1      45.548  21.394  25.325  1.00  0.00    -0.744 OA
ENDBRANCH  80  81
ENDBRANCH  48  73
BRANCH  60  85
ATOM     85  C   UNL A   1      46.309  27.300  33.748  1.00  0.00     0.058 A 
ATOM     86  C   UNL A   1      46.352  26.284  34.715  1.00  0.00     0.135 A 
ATOM     87  C   UNL A   1      47.519  27.916  33.390  1.00  0.00     0.135 A 
ATOM     88  F   UNL A   1      45.222  25.665  35.096  1.00  0.00    -0.206 F 
ATOM     89  C   UNL A   1      47.545  25.910  35.324  1.00  0.00     0.059 A 
ATOM     90  C   UNL A   1      48.727  27.542  33.967  1.00  0.00     0.059 A 
ATOM     91  F   UNL A   1      47.534  28.886  32.461  1.00  0.00    -0.206 F 
ATOM     92  C   UNL A   1      48.728  26.547  34.944  1.00  0.00     0.060 A 
BRANCH  92  93
ATOM     93  S   UNL A   1      50.273  26.042  35.732  1.00  0.00     0.124 S 
ATOM     94  O   UNL A   1      51.246  26.863  35.022  1.00  0.00    -0.237 OA
ATOM     95  O   UNL A   1      50.042  26.396  37.129  1.00  0.00    -0.237 OA
ATOM     96  O   UNL A   1      50.340  24.609  35.458  1.00  0.00    -0.744 OA
ENDBRANCH  92  93
ENDBRANCH  60  85
ENDBRANCH  34  35
ENDBRANCH  27  29
ENDBRANCH  26  27
ENDBRANCH  25  26
ENDBRANCH   1  25
TORSDOF 18
ENDMDL
MODEL 2
REMARK VINA RESULT:     -11.1      2.938      9.371
REMARK SMILES Cc1cc2c(c(C)c1Cl)C=C(C(=O)OCCOCCOC(=O)c1ccc(-c3c4nc(c(-c5c(F)cc(S(=O)(=O)[O-])cc5F)c5ccc([nH]5)c(-c5c(F)cc(S(=O)(=O)[O-])cc5F)c5nc(c(-c6c(F)cc(S(=O)(=O)[O-])cc6F)c6ccc3[nH]6)C=C5)C=C4)cc1)[C@@H](C(F)(F)F)O2
REMARK SMILES IDX 18 1 17 2 16 3 15 4 14 5 12 6 13 7 11 8 1 9 2 10 3 11 8 12
REMARK SMILES IDX 4 13 6 14 9 15 5 16 94 17 7 18 10 19 89 20 90 21 91 22 92 23
REMARK SMILES IDX 93 24 19 25 20 26 21 27 22 28 23 29 24 30 88 31 25 32 87 33
REMARK SMILES IDX 26 34 27 35 28 36 81 37 29 38 86 39 80 40 82 41 30 42 85 43
REMARK SMILES IDX 79 44 78 45 31 47 65 48 44 49 64 50 45 51 48 52 63 53 83 54
REMARK SMILES IDX 46 55 47 56 62 58 84 59 49 60 32 61 33 62 42 63 34 64 35 65
REMARK SMILES IDX 41 66 43 67 36 68 37 69 38 70 39 71 40 72 66 73 67 74 76 75
REMARK SMILES IDX 68 76 69 77 75 78 77 79 70 80 71 81 72 82 73 83 74 84 50 85
REMARK SMILES IDX 51 86 60 87 52 88 53 89 59 90 61 91 54 92 55 93 56 94 57 95
REMARK SMILES IDX 58 96
REMARK H PARENT 82 46 48 57
REMARK Flexibility Score: inf
ROOT
ATOM      1  C   UNL A   1      36.616  20.963  25.159  1.00  0.00     0.202 C 
ENDROOT
BRANCH   1   2
ATOM      2  O   UNL A   1      35.709  21.417  26.165  1.00  0.00    -0.374 OA
BRANCH   2   3
ATOM      3  C   UNL A   1      35.092  22.689  25.976  1.00  0.00     0.202 C 
BRANCH   3   4
ATOM      4  C   UNL A   1      33.589  22.683  25.679  1.00  0.00     0.261 C 
BRANCH   4   5
ATOM      5  O   UNL A   1      33.062  24.017  25.606  1.00  0.00    -0.460 OA
BRANCH   5   6
ATOM      6  C   UNL A   1      33.039  24.546  24.364  1.00  0.00     0.338 C 
ATOM      7  O   UNL A   1      33.216  23.954  23.307  1.00  0.00    -0.246 OA
BRANCH   6   8
ATOM      8  C   UNL A   1      32.621  25.959  24.426  1.00  0.00     0.087 C 
ATOM      9  C   UNL A   1      31.182  31.933  26.419  1.00  0.00     0.046 C 
ATOM     10  C   UNL A   1      31.871  30.649  26.043  1.00  0.00    -0.028 A 
ATOM     11  C   UNL A   1      31.262  29.817  25.093  1.00  0.00     0.052 A 
ATOM     12  C   UNL A   1      33.064  30.223  26.658  1.00  0.00     0.047 A 
ATOM     13  C   UNL A   1      31.793  28.564  24.798  1.00  0.00     0.128 A 
ATOM     14  C   UNL A   1      33.641  28.973  26.339  1.00  0.00    -0.021 A 
ATOM     15  Cl  UNL A   1      33.797  31.249  27.856  1.00  0.00    -0.084 Cl
ATOM     16  C   UNL A   1      32.955  28.121  25.436  1.00  0.00     0.022 A 
ATOM     17  O   UNL A   1      31.102  27.841  23.865  1.00  0.00    -0.475 OA
ATOM     18  C   UNL A   1      34.947  28.517  26.947  1.00  0.00     0.047 C 
ATOM     19  C   UNL A   1      33.376  26.744  25.203  1.00  0.00     0.027 C 
ATOM     20  C   UNL A   1      31.409  26.432  23.682  1.00  0.00     0.316 C 
BRANCH  20  21
ATOM     21  C   UNL A   1      30.151  25.616  24.015  1.00  0.00     0.430 C 
ATOM     22  F   UNL A   1      30.091  24.484  23.273  1.00  0.00    -0.167 F 
ATOM     23  F   UNL A   1      30.127  25.236  25.312  1.00  0.00    -0.167 F 
ATOM     24  F   UNL A   1      29.019  26.318  23.777  1.00  0.00    -0.167 F 
ENDBRANCH  20  21
ENDBRANCH   6   8
ENDBRANCH   5   6
ENDBRANCH   4   5
ENDBRANCH   3   4
ENDBRANCH   2   3
ENDBRANCH   1   2
BRANCH   1  25
ATOM     25  C   UNL A   1      38.110  21.224  25.388  1.00  0.00     0.261 C 
BRANCH  25  26
ATOM     26  O   UNL A   1      38.394  22.620  25.584  1.00  0.00    -0.460 OA
BRANCH  26  27
ATOM     27  C   UNL A   1      39.599  22.877  26.146  1.00  0.00     0.338 C 
ATOM     28  O   UNL A   1      40.629  22.227  26.006  1.00  0.00    -0.246 OA
BRANCH  27  29
ATOM     29  C   UNL A   1      39.579  24.182  26.825  1.00  0.00     0.060 A 
ATOM     30  C   UNL A   1      40.319  25.223  26.248  1.00  0.00     0.016 A 
ATOM     31  C   UNL A   1      38.940  24.358  28.054  1.00  0.00     0.016 A 
ATOM     32  C   UNL A   1      40.470  26.429  26.927  1.00  0.00     0.010 A 
ATOM     33  C   UNL A   1      39.107  25.564  28.741  1.00  0.00     0.010 A 
ATOM     34  C   UNL A   1      39.907  26.586  28.199  1.00  0.00    -0.014 A 
BRANCH  34  35
ATOM     35  C   UNL A   1      40.318  27.738  29.038  1.00  0.00     0.031 A 
ATOM     36  C   UNL A   1      41.674  27.704  29.690  1.00  0.00     0.074 A 
ATOM     37  C   UNL A   1      39.522  28.811  29.180  1.00  0.00     0.049 A 
ATOM     38  N   UNL A   1      42.223  28.563  30.508  1.00  0.00    -0.248 NA
ATOM     39  C   UNL A   1      42.526  26.545  29.373  1.00  0.00     0.031 C 
ATOM     40  C   UNL A   1      38.218  28.986  28.542  1.00  0.00     0.029 A 
ATOM     41  N   UNL A   1      39.697  29.958  29.912  1.00  0.00    -0.354 N 
ATOM     42  C   UNL A   1      43.482  28.054  30.802  1.00  0.00     0.074 A 
ATOM     43  C   UNL A   1      43.606  26.796  30.098  1.00  0.00     0.031 C 
ATOM     44  C   UNL A   1      37.708  30.173  28.916  1.00  0.00     0.029 A 
ATOM     45  C   UNL A   1      38.631  30.822  29.845  1.00  0.00     0.049 A 
ATOM     46  H   UNL A   1      40.510  30.144  30.434  1.00  0.00     0.167 HD
ATOM     47  C   UNL A   1      44.452  28.591  31.580  1.00  0.00     0.037 A 
ATOM     48  C   UNL A   1      38.419  31.990  30.482  1.00  0.00     0.037 A 
ATOM     49  C   UNL A   1      44.320  29.838  32.285  1.00  0.00     0.049 A 
ATOM     50  C   UNL A   1      39.470  32.519  31.422  1.00  0.00     0.074 A 
ATOM     51  C   UNL A   1      45.236  30.462  33.113  1.00  0.00     0.029 A 
ATOM     52  N   UNL A   1      43.198  30.654  32.245  1.00  0.00    -0.354 N 
ATOM     53  N   UNL A   1      40.646  32.016  31.714  1.00  0.00    -0.248 NA
ATOM     54  C   UNL A   1      39.162  33.772  32.126  1.00  0.00     0.031 C 
ATOM     55  C   UNL A   1      44.653  31.634  33.606  1.00  0.00     0.029 A 
ATOM     56  C   UNL A   1      43.389  31.763  33.051  1.00  0.00     0.049 A 
ATOM     57  H   UNL A   1      42.384  30.469  31.722  1.00  0.00     0.167 HD
ATOM     58  C   UNL A   1      41.223  32.895  32.625  1.00  0.00     0.074 A 
ATOM     59  C   UNL A   1      40.274  33.973  32.820  1.00  0.00     0.031 C 
ATOM     60  C   UNL A   1      42.428  32.819  33.244  1.00  0.00     0.037 A 
BRANCH  47  61
ATOM     61  C   UNL A   1      45.731  27.816  31.727  1.00  0.00     0.058 A 
ATOM     62  C   UNL A   1      46.809  28.005  30.848  1.00  0.00     0.135 A 
ATOM     63  C   UNL A   1      45.891  26.896  32.776  1.00  0.00     0.135 A 
ATOM     64  F   UNL A   1      46.699  28.856  29.816  1.00  0.00    -0.206 F 
ATOM     65  C   UNL A   1      47.997  27.296  30.995  1.00  0.00     0.059 A 
ATOM     66  C   UNL A   1      47.079  26.193  32.953  1.00  0.00     0.059 A 
ATOM     67  F   UNL A   1      44.888  26.672  33.638  1.00  0.00    -0.206 F 
ATOM     68  C   UNL A   1      48.123  26.393  32.051  1.00  0.00     0.060 A 
BRANCH  68  69
ATOM     69  S   UNL A   1      49.675  25.489  32.232  1.00  0.00     0.124 S 
ATOM     70  O   UNL A   1      49.299  24.454  33.192  1.00  0.00    -0.237 OA
ATOM     71  O   UNL A   1      49.927  25.028  30.870  1.00  0.00    -0.237 OA
ATOM     72  O   UNL A   1      50.603  26.499  32.731  1.00  0.00    -0.744 OA
ENDBRANCH  68  69
ENDBRANCH  47  61
BRANCH  48  73
ATOM     73  C   UNL A   1      37.149  32.734  30.264  1.00  0.00     0.058 A 
ATOM     74  C   UNL A   1      36.058  32.567  31.129  1.00  0.00     0.135 A 
ATOM     75  C   UNL A   1      37.006  33.630  29.194  1.00  0.00     0.135 A 
ATOM     76  F   UNL A   1      36.142  31.709  32.157  1.00  0.00    -0.206 F 
ATOM     77  C   UNL A   1      34.866  33.260  30.939  1.00  0.00     0.059 A 
ATOM     78  C   UNL A   1      35.833  34.352  28.997  1.00  0.00     0.059 A 
ATOM     79  F   UNL A   1      38.024  33.828  28.342  1.00  0.00    -0.206 F 
ATOM     80  C   UNL A   1      34.767  34.155  29.872  1.00  0.00     0.060 A 
BRANCH  80  81
ATOM     81  S   UNL A   1      33.236  35.095  29.672  1.00  0.00     0.124 S 
ATOM     82  O   UNL A   1      33.738  36.372  29.178  1.00  0.00    -0.237 OA
ATOM     83  O   UNL A   1      32.503  34.280  28.709  1.00  0.00    -0.237 OA
ATOM     84  O   UNL A   1      32.677  35.114  31.020  1.00  0.00    -0.744 OA
ENDBRANCH  80  81
ENDBRANCH  48  73
BRANCH  60  85
ATOM     85  C   UNL A   1      42.789  33.933  34.187  1.00  0.00     0.058 A 
ATOM     86  C   UNL A   1      43.307  35.150  33.719  1.00  0.00     0.135 A 
ATOM     87  C   UNL A   1      42.579  33.797  35.569  1.00  0.00     0.135 A 
ATOM     88  F   UNL A   1      43.530  35.331  32.407  1.00  0.00    -0.206 F 
ATOM     89  C   UNL A   1      43.630  36.185  34.590  1.00  0.00     0.059 A 
ATOM     90  C   UNL A   1      42.871  34.827  36.456  1.00  0.00     0.059 A 
ATOM     91  F   UNL A   1      42.075  32.656  36.066  1.00  0.00    -0.206 F 
ATOM     92  C   UNL A   1      43.409  36.013  35.959  1.00  0.00     0.060 A 
BRANCH  92  93
ATOM     93  S   UNL A   1      43.818  37.370  37.077  1.00  0.00     0.124 S 
ATOM     94  O   UNL A   1      42.639  37.409  37.934  1.00  0.00    -0.237 OA
ATOM     95  O   UNL A   1      45.046  36.898  37.707  1.00  0.00    -0.237 OA
ATOM     96  O   UNL A   1      43.980  38.512  36.180  1.00  0.00    -0.744 OA
ENDBRANCH  92  93
ENDBRANCH  60  85
ENDBRANCH  34  35
ENDBRANCH  27  29
ENDBRANCH  26  27
ENDBRANCH  25  26
ENDBRANCH   1  25
TORSDOF 18
ENDMDL
MODEL 3
REMARK VINA RESULT:     -10.9      3.438      9.486
REMARK SMILES Cc1cc2c(c(C)c1Cl)C=C(C(=O)OCCOCCOC(=O)c1ccc(-c3c4nc(c(-c5c(F)cc(S(=O)(=O)[O-])cc5F)c5ccc([nH]5)c(-c5c(F)cc(S(=O)(=O)[O-])cc5F)c5nc(c(-c6c(F)cc(S(=O)(=O)[O-])cc6F)c6ccc3[nH]6)C=C5)C=C4)cc1)[C@@H](C(F)(F)F)O2
REMARK SMILES IDX 18 1 17 2 16 3 15 4 14 5 12 6 13 7 11 8 1 9 2 10 3 11 8 12
REMARK SMILES IDX 4 13 6 14 9 15 5 16 94 17 7 18 10 19 89 20 90 21 91 22 92 23
REMARK SMILES IDX 93 24 19 25 20 26 21 27 22 28 23 29 24 30 88 31 25 32 87 33
REMARK SMILES IDX 26 34 27 35 28 36 81 37 29 38 86 39 80 40 82 41 30 42 85 43
REMARK SMILES IDX 79 44 78 45 31 47 65 48 44 49 64 50 45 51 48 52 63 53 83 54
REMARK SMILES IDX 46 55 47 56 62 58 84 59 49 60 32 61 33 62 42 63 34 64 35 65
REMARK SMILES IDX 41 66 43 67 36 68 37 69 38 70 39 71 40 72 66 73 67 74 76 75
REMARK SMILES IDX 68 76 69 77 75 78 77 79 70 80 71 81 72 82 73 83 74 84 50 85
REMARK SMILES IDX 51 86 60 87 52 88 53 89 59 90 61 91 54 92 55 93 56 94 57 95
REMARK SMILES IDX 58 96
REMARK H PARENT 82 46 48 57
REMARK Flexibility Score: inf
ROOT
ATOM      1  C   UNL A   1      39.121  21.785  26.091  1.00  0.00     0.202 C 
ENDROOT
BRANCH   1   2
ATOM      2  O   UNL A   1      37.827  22.279  25.741  1.00  0.00    -0.374 OA
BRANCH   2   3
ATOM      3  C   UNL A   1      37.173  21.687  24.619  1.00  0.00     0.202 C 
BRANCH   3   4
ATOM      4  C   UNL A   1      35.799  21.063  24.879  1.00  0.00     0.261 C 
BRANCH   4   5
ATOM      5  O   UNL A   1      34.798  21.612  24.007  1.00  0.00    -0.460 OA
BRANCH   5   6
ATOM      6  C   UNL A   1      33.526  21.394  24.403  1.00  0.00     0.338 C 
ATOM      7  O   UNL A   1      32.938  20.320  24.436  1.00  0.00    -0.246 OA
BRANCH   6   8
ATOM      8  C   UNL A   1      32.947  22.638  24.943  1.00  0.00     0.087 C 
ATOM      9  C   UNL A   1      31.859  28.797  26.559  1.00  0.00     0.046 C 
ATOM     10  C   UNL A   1      32.050  27.493  25.832  1.00  0.00    -0.028 A 
ATOM     11  C   UNL A   1      31.827  26.299  26.530  1.00  0.00     0.052 A 
ATOM     12  C   UNL A   1      32.510  27.431  24.502  1.00  0.00     0.047 A 
ATOM     13  C   UNL A   1      32.105  25.067  25.943  1.00  0.00     0.128 A 
ATOM     14  C   UNL A   1      32.757  26.188  23.876  1.00  0.00    -0.021 A 
ATOM     15  Cl  UNL A   1      32.811  28.919  23.654  1.00  0.00    -0.084 Cl
ATOM     16  C   UNL A   1      32.600  25.003  24.637  1.00  0.00     0.022 A 
ATOM     17  O   UNL A   1      31.858  23.975  26.729  1.00  0.00    -0.475 OA
ATOM     18  C   UNL A   1      33.201  26.095  22.434  1.00  0.00     0.047 C 
ATOM     19  C   UNL A   1      33.018  23.700  24.132  1.00  0.00     0.027 C 
ATOM     20  C   UNL A   1      32.360  22.673  26.322  1.00  0.00     0.316 C 
BRANCH  20  21
ATOM     21  C   UNL A   1      33.338  22.174  27.397  1.00  0.00     0.430 C 
ATOM     22  F   UNL A   1      32.916  22.518  28.638  1.00  0.00    -0.167 F 
ATOM     23  F   UNL A   1      33.456  20.827  27.382  1.00  0.00    -0.167 F 
ATOM     24  F   UNL A   1      34.576  22.693  27.231  1.00  0.00    -0.167 F 
ENDBRANCH  20  21
ENDBRANCH   6   8
ENDBRANCH   5   6
ENDBRANCH   4   5
ENDBRANCH   3   4
ENDBRANCH   2   3
ENDBRANCH   1   2
BRANCH   1  25
ATOM     25  C   UNL A   1      40.182  22.816  26.498  1.00  0.00     0.261 C 
BRANCH  25  26
ATOM     26  O   UNL A   1      39.644  24.148  26.570  1.00  0.00    -0.460 OA
BRANCH  26  27
ATOM     27  C   UNL A   1      40.557  25.134  26.401  1.00  0.00     0.338 C 
ATOM     28  O   UNL A   1      41.081  25.479  25.348  1.00  0.00    -0.246 OA
BRANCH  27  29
ATOM     29  C   UNL A   1      40.721  25.899  27.648  1.00  0.00     0.060 A 
ATOM     30  C   UNL A   1      39.671  25.857  28.575  1.00  0.00     0.016 A 
ATOM     31  C   UNL A   1      41.828  26.722  27.862  1.00  0.00     0.016 A 
ATOM     32  C   UNL A   1      39.697  26.685  29.694  1.00  0.00     0.010 A 
ATOM     33  C   UNL A   1      41.845  27.564  28.978  1.00  0.00     0.010 A 
ATOM     34  C   UNL A   1      40.760  27.578  29.874  1.00  0.00    -0.014 A 
BRANCH  34  35
ATOM     35  C   UNL A   1      40.640  28.656  30.885  1.00  0.00     0.031 A 
ATOM     36  C   UNL A   1      41.580  28.646  32.060  1.00  0.00     0.074 A 
ATOM     37  C   UNL A   1      39.745  29.647  30.739  1.00  0.00     0.049 A 
ATOM     38  N   UNL A   1      41.627  29.446  33.093  1.00  0.00    -0.248 NA
ATOM     39  C   UNL A   1      42.611  27.592  32.067  1.00  0.00     0.031 C 
ATOM     40  C   UNL A   1      38.830  29.799  29.609  1.00  0.00     0.029 A 
ATOM     41  N   UNL A   1      39.460  30.715  31.552  1.00  0.00    -0.354 N 
ATOM     42  C   UNL A   1      42.687  28.997  33.871  1.00  0.00     0.074 A 
ATOM     43  C   UNL A   1      43.241  27.838  33.207  1.00  0.00     0.031 C 
ATOM     44  C   UNL A   1      38.078  30.897  29.804  1.00  0.00     0.029 A 
ATOM     45  C   UNL A   1      38.435  31.504  31.086  1.00  0.00     0.049 A 
ATOM     46  H   UNL A   1      39.945  30.899  32.388  1.00  0.00     0.167 HD
ATOM     47  C   UNL A   1      43.162  29.512  35.030  1.00  0.00     0.037 A 
ATOM     48  C   UNL A   1      37.841  32.575  31.645  1.00  0.00     0.037 A 
ATOM     49  C   UNL A   1      42.603  30.661  35.691  1.00  0.00     0.049 A 
ATOM     50  C   UNL A   1      38.322  33.070  32.984  1.00  0.00     0.074 A 
ATOM     51  C   UNL A   1      43.000  31.252  36.877  1.00  0.00     0.029 A 
ATOM     52  N   UNL A   1      41.522  31.394  35.222  1.00  0.00    -0.354 N 
ATOM     53  N   UNL A   1      39.308  32.622  33.725  1.00  0.00    -0.248 NA
ATOM     54  C   UNL A   1      37.604  34.212  33.567  1.00  0.00     0.031 C 
ATOM     55  C   UNL A   1      42.134  32.317  37.146  1.00  0.00     0.029 A 
ATOM     56  C   UNL A   1      41.224  32.418  36.105  1.00  0.00     0.049 A 
ATOM     57  H   UNL A   1      41.037  31.211  34.385  1.00  0.00     0.167 HD
ATOM     58  C   UNL A   1      39.336  33.433  34.854  1.00  0.00     0.074 A 
ATOM     59  C   UNL A   1      38.281  34.412  34.690  1.00  0.00     0.031 C 
ATOM     60  C   UNL A   1      40.161  33.374  35.931  1.00  0.00     0.037 A 
BRANCH  47  61
ATOM     61  C   UNL A   1      44.334  28.819  35.667  1.00  0.00     0.058 A 
ATOM     62  C   UNL A   1      44.159  27.757  36.568  1.00  0.00     0.135 A 
ATOM     63  C   UNL A   1      45.647  29.202  35.350  1.00  0.00     0.135 A 
ATOM     64  F   UNL A   1      42.923  27.367  36.921  1.00  0.00    -0.206 F 
ATOM     65  C   UNL A   1      45.245  27.108  37.145  1.00  0.00     0.059 A 
ATOM     66  C   UNL A   1      46.748  28.552  35.899  1.00  0.00     0.059 A 
ATOM     67  F   UNL A   1      45.870  30.217  34.502  1.00  0.00    -0.206 F 
ATOM     68  C   UNL A   1      46.536  27.512  36.804  1.00  0.00     0.060 A 
BRANCH  68  69
ATOM     69  S   UNL A   1      47.936  26.653  37.556  1.00  0.00     0.124 S 
ATOM     70  O   UNL A   1      48.332  27.597  38.596  1.00  0.00    -0.237 OA
ATOM     71  O   UNL A   1      47.323  25.413  38.024  1.00  0.00    -0.237 OA
ATOM     72  O   UNL A   1      48.879  26.505  36.451  1.00  0.00    -0.744 OA
ENDBRANCH  68  69
ENDBRANCH  47  61
BRANCH  48  73
ATOM     73  C   UNL A   1      36.713  33.246  30.947  1.00  0.00     0.058 A 
ATOM     74  C   UNL A   1      35.386  33.033  31.348  1.00  0.00     0.135 A 
ATOM     75  C   UNL A   1      36.939  34.119  29.871  1.00  0.00     0.135 A 
ATOM     76  F   UNL A   1      35.119  32.195  32.362  1.00  0.00    -0.206 F 
ATOM     77  C   UNL A   1      34.322  33.658  30.706  1.00  0.00     0.059 A 
ATOM     78  C   UNL A   1      35.893  34.774  29.229  1.00  0.00     0.059 A 
ATOM     79  F   UNL A   1      38.191  34.360  29.453  1.00  0.00    -0.206 F 
ATOM     80  C   UNL A   1      34.587  34.531  29.650  1.00  0.00     0.060 A 
BRANCH  80  81
ATOM     81  S   UNL A   1      33.201  35.385  28.865  1.00  0.00     0.124 S 
ATOM     82  O   UNL A   1      33.891  36.355  28.025  1.00  0.00    -0.237 OA
ATOM     83  O   UNL A   1      32.531  34.294  28.164  1.00  0.00    -0.237 OA
ATOM     84  O   UNL A   1      32.465  35.939  29.997  1.00  0.00    -0.744 OA
ENDBRANCH  80  81
ENDBRANCH  48  73
BRANCH  60  85
ATOM     85  C   UNL A   1      39.956  34.399  37.012  1.00  0.00     0.058 A 
ATOM     86  C   UNL A   1      40.565  35.662  36.950  1.00  0.00     0.135 A 
ATOM     87  C   UNL A   1      39.111  34.131  38.101  1.00  0.00     0.135 A 
ATOM     88  F   UNL A   1      41.384  35.968  35.931  1.00  0.00    -0.206 F 
ATOM     89  C   UNL A   1      40.365  36.615  37.943  1.00  0.00     0.059 A 
ATOM     90  C   UNL A   1      38.877  35.077  39.093  1.00  0.00     0.059 A 
ATOM     91  F   UNL A   1      38.494  32.943  38.202  1.00  0.00    -0.206 F 
ATOM     92  C   UNL A   1      39.520  36.311  39.013  1.00  0.00     0.060 A 
BRANCH  92  93
ATOM     93  S   UNL A   1      39.258  37.563  40.288  1.00  0.00     0.124 S 
ATOM     94  O   UNL A   1      40.564  38.210  40.335  1.00  0.00    -0.237 OA
ATOM     95  O   UNL A   1      38.174  38.361  39.726  1.00  0.00    -0.237 OA
ATOM     96  O   UNL A   1      38.904  36.777  41.467  1.00  0.00    -0.744 OA
ENDBRANCH  92  93
ENDBRANCH  60  85
ENDBRANCH  34  35
ENDBRANCH  27  29
ENDBRANCH  26  27
ENDBRANCH  25  26
ENDBRANCH   1  25
TORSDOF 18
ENDMDL
