MODEL 1
REMARK VINA RESULT:     -10.1      0.000      0.000
REMARK SMILES O=C(CSc1nc2[nH]cnc2c(=O)[nH]1)NCCC(=O)OCCOCCOC(=O)c1ccc(-c2c3nc(c(-c4c(F)cc(S(=O)(=O)[O-])cc4F)c4ccc([nH]4)c(-c4c(F)cc(S(=O)(=O)[O-])cc4F)c4nc(c(-c5c(F)cc(S(=O)(=O)[O-])cc5F)c5ccc2[nH]5)C=C4)C=C3)cc1
REMARK SMILES IDX 22 1 21 2 20 3 18 4 19 5 17 6 16 7 15 8 1 9 2 10 3 12 4 13
REMARK SMILES IDX 5 14 6 15 14 16 7 17 12 18 8 20 11 21 13 22 9 23 10 25 23 26
REMARK SMILES IDX 24 27 25 28 26 29 27 30 28 31 29 32 30 33 94 34 31 35 93 36
REMARK SMILES IDX 32 37 33 38 34 39 87 40 35 41 92 42 86 43 88 44 36 45 91 46
REMARK SMILES IDX 85 47 84 48 37 50 71 51 50 52 70 53 51 54 54 55 69 56 89 57
REMARK SMILES IDX 52 58 53 59 68 61 90 62 55 63 38 64 39 65 48 66 40 67 41 68
REMARK SMILES IDX 47 69 49 70 42 71 43 72 44 73 45 74 46 75 72 76 73 77 82 78
REMARK SMILES IDX 74 79 75 80 81 81 83 82 76 83 77 84 78 85 79 86 80 87 56 88
REMARK SMILES IDX 57 89 66 90 58 91 59 92 65 93 67 94 60 95 61 96 62 97 63 98
REMARK SMILES IDX 64 99
REMARK H PARENT 15 11 14 19 8 24 88 49 54 60
REMARK Flexibility Score: inf
ROOT
ATOM      1  C   UNL A   1      42.651  19.902  25.989  1.00  0.00     0.202 C 
ENDROOT
BRANCH   1   2
ATOM      2  C   UNL A   1      41.236  19.753  26.554  1.00  0.00     0.261 C 
BRANCH   2   3
ATOM      3  O   UNL A   1      40.747  20.967  27.158  1.00  0.00    -0.463 OA
BRANCH   3   4
ATOM      4  C   UNL A   1      39.724  21.577  26.501  1.00  0.00     0.307 C 
ATOM      5  O   UNL A   1      39.491  22.781  26.529  1.00  0.00    -0.252 OA
BRANCH   4   6
ATOM      6  C   UNL A   1      38.849  20.613  25.738  1.00  0.00     0.144 C 
BRANCH   6   7
ATOM      7  C   UNL A   1      37.693  21.220  24.954  1.00  0.00     0.127 C 
BRANCH   7   8
ATOM      8  N   UNL A   1      36.655  21.764  25.807  1.00  0.00    -0.355 N 
ATOM      9  O   UNL A   1      36.331  23.681  24.584  1.00  0.00    -0.274 OA
ATOM     10  C   UNL A   1      36.058  22.979  25.556  1.00  0.00     0.230 C 
ATOM     11  H   UNL A   1      36.368  21.246  26.593  1.00  0.00     0.163 HD
BRANCH  10  12
ATOM     12  C   UNL A   1      35.079  23.442  26.612  1.00  0.00     0.178 C 
BRANCH  12  13
ATOM     13  S   UNL A   1      33.383  23.483  26.016  1.00  0.00    -0.078 SA
BRANCH  13  14
ATOM     14  C   UNL A   1      33.147  21.848  25.490  1.00  0.00     0.170 A 
ATOM     15  N   UNL A   1      33.277  20.856  26.322  1.00  0.00    -0.204 NA
ATOM     16  N   UNL A   1      32.744  21.751  24.176  1.00  0.00    -0.299 N 
ATOM     17  C   UNL A   1      32.960  19.672  25.746  1.00  0.00     0.165 A 
ATOM     18  C   UNL A   1      32.431  20.553  23.556  1.00  0.00     0.279 A 
ATOM     19  H   UNL A   1      32.674  22.580  23.648  1.00  0.00     0.172 HD
ATOM     20  N   UNL A   1      32.935  18.457  26.365  1.00  0.00    -0.329 N 
ATOM     21  C   UNL A   1      32.553  19.423  24.454  1.00  0.00     0.172 A 
ATOM     22  O   UNL A   1      32.087  20.498  22.378  1.00  0.00    -0.267 OA
ATOM     23  C   UNL A   1      32.525  17.536  25.434  1.00  0.00     0.199 A 
ATOM     24  H   UNL A   1      33.169  18.274  27.304  1.00  0.00     0.169 HD
ATOM     25  N   UNL A   1      32.297  18.089  24.260  1.00  0.00    -0.229 NA
ENDBRANCH  13  14
ENDBRANCH  12  13
ENDBRANCH  10  12
ENDBRANCH   7   8
ENDBRANCH   6   7
ENDBRANCH   4   6
ENDBRANCH   3   4
ENDBRANCH   2   3
ENDBRANCH   1   2
BRANCH   1  26
ATOM     26  O   UNL A   1      43.467  20.953  26.501  1.00  0.00    -0.374 OA
BRANCH  26  27
ATOM     27  C   UNL A   1      43.986  21.907  25.581  1.00  0.00     0.202 C 
BRANCH  27  28
ATOM     28  C   UNL A   1      43.026  22.958  25.003  1.00  0.00     0.261 C 
BRANCH  28  29
ATOM     29  O   UNL A   1      42.540  23.896  25.978  1.00  0.00    -0.460 OA
BRANCH  29  30
ATOM     30  C   UNL A   1      43.068  25.143  25.864  1.00  0.00     0.338 C 
ATOM     31  O   UNL A   1      43.853  25.535  25.016  1.00  0.00    -0.246 OA
BRANCH  30  32
ATOM     32  C   UNL A   1      42.417  26.057  26.820  1.00  0.00     0.060 A 
ATOM     33  C   UNL A   1      42.843  27.390  26.859  1.00  0.00     0.016 A 
ATOM     34  C   UNL A   1      41.474  25.589  27.732  1.00  0.00     0.016 A 
ATOM     35  C   UNL A   1      42.357  28.251  27.842  1.00  0.00     0.010 A 
ATOM     36  C   UNL A   1      40.977  26.459  28.708  1.00  0.00     0.010 A 
ATOM     37  C   UNL A   1      41.448  27.781  28.799  1.00  0.00    -0.014 A 
BRANCH  37  38
ATOM     38  C   UNL A   1      41.137  28.602  29.998  1.00  0.00     0.031 A 
ATOM     39  C   UNL A   1      41.977  28.420  31.236  1.00  0.00     0.074 A 
ATOM     40  C   UNL A   1      40.144  29.510  29.987  1.00  0.00     0.049 A 
ATOM     41  N   UNL A   1      41.873  28.996  32.406  1.00  0.00    -0.248 NA
ATOM     42  C   UNL A   1      43.075  27.444  31.145  1.00  0.00     0.031 C 
ATOM     43  C   UNL A   1      39.278  29.804  28.846  1.00  0.00     0.029 A 
ATOM     44  N   UNL A   1      39.696  30.354  30.974  1.00  0.00    -0.354 N 
ATOM     45  C   UNL A   1      42.874  28.439  33.193  1.00  0.00     0.074 A 
ATOM     46  C   UNL A   1      43.545  27.446  32.383  1.00  0.00     0.031 C 
ATOM     47  C   UNL A   1      38.410  30.769  29.195  1.00  0.00     0.029 A 
ATOM     48  C   UNL A   1      38.632  31.135  30.592  1.00  0.00     0.049 A 
ATOM     49  H   UNL A   1      40.100  30.394  31.870  1.00  0.00     0.167 HD
ATOM     50  C   UNL A   1      43.218  28.735  34.470  1.00  0.00     0.037 A 
ATOM     51  C   UNL A   1      37.913  32.035  31.295  1.00  0.00     0.037 A 
ATOM     52  C   UNL A   1      42.558  29.734  35.267  1.00  0.00     0.049 A 
ATOM     53  C   UNL A   1      38.276  32.314  32.730  1.00  0.00     0.074 A 
ATOM     54  C   UNL A   1      42.848  30.135  36.559  1.00  0.00     0.029 A 
ATOM     55  N   UNL A   1      41.465  30.485  34.853  1.00  0.00    -0.354 N 
ATOM     56  N   UNL A   1      39.243  31.799  33.452  1.00  0.00    -0.248 NA
ATOM     57  C   UNL A   1      37.454  33.302  33.444  1.00  0.00     0.031 C 
ATOM     58  C   UNL A   1      41.894  31.083  36.947  1.00  0.00     0.029 A 
ATOM     59  C   UNL A   1      41.053  31.324  35.874  1.00  0.00     0.049 A 
ATOM     60  H   UNL A   1      41.046  30.427  33.964  1.00  0.00     0.167 HD
ATOM     61  C   UNL A   1      39.170  32.429  34.693  1.00  0.00     0.074 A 
ATOM     62  C   UNL A   1      38.064  33.362  34.620  1.00  0.00     0.031 C 
ATOM     63  C   UNL A   1      39.954  32.257  35.787  1.00  0.00     0.037 A 
BRANCH  50  64
ATOM     64  C   UNL A   1      44.337  27.938  35.088  1.00  0.00     0.058 A 
ATOM     65  C   UNL A   1      44.113  26.707  35.729  1.00  0.00     0.135 A 
ATOM     66  C   UNL A   1      45.655  28.419  35.046  1.00  0.00     0.135 A 
ATOM     67  F   UNL A   1      42.871  26.205  35.814  1.00  0.00    -0.206 F 
ATOM     68  C   UNL A   1      45.145  26.011  36.349  1.00  0.00     0.059 A 
ATOM     69  C   UNL A   1      46.710  27.721  35.628  1.00  0.00     0.059 A 
ATOM     70  F   UNL A   1      45.930  29.587  34.445  1.00  0.00    -0.206 F 
ATOM     71  C   UNL A   1      46.440  26.530  36.298  1.00  0.00     0.060 A 
BRANCH  71  72
ATOM     72  S   UNL A   1      47.763  25.630  37.134  1.00  0.00     0.124 S 
ATOM     73  O   UNL A   1      47.735  26.240  38.460  1.00  0.00    -0.237 OA
ATOM     74  O   UNL A   1      47.295  24.250  37.062  1.00  0.00    -0.237 OA
ATOM     75  O   UNL A   1      48.942  25.932  36.328  1.00  0.00    -0.744 OA
ENDBRANCH  71  72
ENDBRANCH  50  64
BRANCH  51  76
ATOM     76  C   UNL A   1      36.789  32.757  30.637  1.00  0.00     0.058 A 
ATOM     77  C   UNL A   1      35.459  32.354  30.834  1.00  0.00     0.135 A 
ATOM     78  C   UNL A   1      37.018  33.876  29.821  1.00  0.00     0.135 A 
ATOM     79  F   UNL A   1      35.189  31.283  31.595  1.00  0.00    -0.206 F 
ATOM     80  C   UNL A   1      34.397  33.033  30.246  1.00  0.00     0.059 A 
ATOM     81  C   UNL A   1      35.971  34.587  29.243  1.00  0.00     0.059 A 
ATOM     82  F   UNL A   1      38.271  34.307  29.607  1.00  0.00    -0.206 F 
ATOM     83  C   UNL A   1      34.662  34.155  29.461  1.00  0.00     0.060 A 
BRANCH  83  84
ATOM     84  S   UNL A   1      33.270  35.077  28.772  1.00  0.00     0.124 S 
ATOM     85  O   UNL A   1      32.614  34.060  27.961  1.00  0.00    -0.237 OA
ATOM     86  O   UNL A   1      32.558  35.494  29.977  1.00  0.00    -0.237 OA
ATOM     87  O   UNL A   1      33.917  36.157  28.032  1.00  0.00    -0.744 OA
ENDBRANCH  83  84
ENDBRANCH  51  76
BRANCH  63  88
ATOM     88  C   UNL A   1      39.687  33.133  36.984  1.00  0.00     0.058 A 
ATOM     89  C   UNL A   1      38.699  32.824  37.931  1.00  0.00     0.135 A 
ATOM     90  C   UNL A   1      40.476  34.273  37.211  1.00  0.00     0.135 A 
ATOM     91  F   UNL A   1      37.913  31.748  37.762  1.00  0.00    -0.206 F 
ATOM     92  C   UNL A   1      38.483  33.630  39.045  1.00  0.00     0.059 A 
ATOM     93  C   UNL A   1      40.299  35.075  38.335  1.00  0.00     0.059 A 
ATOM     94  F   UNL A   1      41.444  34.610  36.345  1.00  0.00    -0.206 F 
ATOM     95  C   UNL A   1      39.290  34.752  39.240  1.00  0.00     0.060 A 
BRANCH  95  96
ATOM     96  S   UNL A   1      39.017  35.774  40.703  1.00  0.00     0.124 S 
ATOM     97  O   UNL A   1      40.342  35.770  41.315  1.00  0.00    -0.237 OA
ATOM     98  O   UNL A   1      38.590  37.042  40.122  1.00  0.00    -0.237 OA
ATOM     99  O   UNL A   1      37.985  35.048  41.439  1.00  0.00    -0.744 OA
ENDBRANCH  95  96
ENDBRANCH  63  88
ENDBRANCH  37  38
ENDBRANCH  30  32
ENDBRANCH  29  30
ENDBRANCH  28  29
ENDBRANCH  27  28
ENDBRANCH  26  27
ENDBRANCH   1  26
TORSDOF 22
ENDMDL
MODEL 2
REMARK VINA RESULT:      -9.8      1.246      2.208
REMARK SMILES O=C(CSc1nc2[nH]cnc2c(=O)[nH]1)NCCC(=O)OCCOCCOC(=O)c1ccc(-c2c3nc(c(-c4c(F)cc(S(=O)(=O)[O-])cc4F)c4ccc([nH]4)c(-c4c(F)cc(S(=O)(=O)[O-])cc4F)c4nc(c(-c5c(F)cc(S(=O)(=O)[O-])cc5F)c5ccc2[nH]5)C=C4)C=C3)cc1
REMARK SMILES IDX 22 1 21 2 20 3 18 4 19 5 17 6 16 7 15 8 1 9 2 10 3 12 4 13
REMARK SMILES IDX 5 14 6 15 14 16 7 17 12 18 8 20 11 21 13 22 9 23 10 25 23 26
REMARK SMILES IDX 24 27 25 28 26 29 27 30 28 31 29 32 30 33 94 34 31 35 93 36
REMARK SMILES IDX 32 37 33 38 34 39 87 40 35 41 92 42 86 43 88 44 36 45 91 46
REMARK SMILES IDX 85 47 84 48 37 50 71 51 50 52 70 53 51 54 54 55 69 56 89 57
REMARK SMILES IDX 52 58 53 59 68 61 90 62 55 63 38 64 39 65 48 66 40 67 41 68
REMARK SMILES IDX 47 69 49 70 42 71 43 72 44 73 45 74 46 75 72 76 73 77 82 78
REMARK SMILES IDX 74 79 75 80 81 81 83 82 76 83 77 84 78 85 79 86 80 87 56 88
REMARK SMILES IDX 57 89 66 90 58 91 59 92 65 93 67 94 60 95 61 96 62 97 63 98
REMARK SMILES IDX 64 99
REMARK H PARENT 15 11 14 19 8 24 88 49 54 60
REMARK Flexibility Score: inf
ROOT
ATOM      1  C   UNL A   1      44.641  19.791  25.337  1.00  0.00     0.202 C 
ENDROOT
BRANCH   1   2
ATOM      2  C   UNL A   1      43.397  19.117  25.922  1.00  0.00     0.261 C 
BRANCH   2   3
ATOM      3  O   UNL A   1      42.197  19.434  25.191  1.00  0.00    -0.463 OA
BRANCH   3   4
ATOM      4  C   UNL A   1      41.087  19.647  25.949  1.00  0.00     0.307 C 
ATOM      5  O   UNL A   1      40.010  19.084  25.791  1.00  0.00    -0.252 OA
BRANCH   4   6
ATOM      6  C   UNL A   1      41.291  20.694  27.017  1.00  0.00     0.144 C 
BRANCH   6   7
ATOM      7  C   UNL A   1      40.458  21.963  26.889  1.00  0.00     0.127 C 
BRANCH   7   8
ATOM      8  N   UNL A   1      39.439  21.870  25.864  1.00  0.00    -0.355 N 
ATOM      9  O   UNL A   1      38.159  23.608  26.650  1.00  0.00    -0.274 OA
ATOM     10  C   UNL A   1      38.345  22.706  25.836  1.00  0.00     0.230 C 
ATOM     11  H   UNL A   1      39.532  21.184  25.163  1.00  0.00     0.163 HD
BRANCH  10  12
ATOM     12  C   UNL A   1      37.325  22.391  24.763  1.00  0.00     0.178 C 
BRANCH  12  13
ATOM     13  S   UNL A   1      36.671  20.722  24.898  1.00  0.00    -0.078 SA
BRANCH  13  14
ATOM     14  C   UNL A   1      34.985  21.018  25.176  1.00  0.00     0.170 A 
ATOM     15  N   UNL A   1      34.529  22.233  25.264  1.00  0.00    -0.204 NA
ATOM     16  N   UNL A   1      34.227  19.868  25.204  1.00  0.00    -0.299 N 
ATOM     17  C   UNL A   1      33.180  22.257  25.386  1.00  0.00     0.165 A 
ATOM     18  C   UNL A   1      32.849  19.860  25.345  1.00  0.00     0.279 A 
ATOM     19  H   UNL A   1      34.690  19.002  25.118  1.00  0.00     0.172 HD
ATOM     20  N   UNL A   1      32.396  23.371  25.438  1.00  0.00    -0.329 N 
ATOM     21  C   UNL A   1      32.301  21.198  25.435  1.00  0.00     0.172 A 
ATOM     22  O   UNL A   1      32.202  18.817  25.379  1.00  0.00    -0.267 OA
ATOM     23  C   UNL A   1      31.094  22.947  25.522  1.00  0.00     0.199 A 
ATOM     24  H   UNL A   1      32.706  24.305  25.421  1.00  0.00     0.169 HD
ATOM     25  N   UNL A   1      31.002  21.632  25.535  1.00  0.00    -0.229 NA
ENDBRANCH  13  14
ENDBRANCH  12  13
ENDBRANCH  10  12
ENDBRANCH   7   8
ENDBRANCH   6   7
ENDBRANCH   4   6
ENDBRANCH   3   4
ENDBRANCH   2   3
ENDBRANCH   1   2
BRANCH   1  26
ATOM     26  O   UNL A   1      44.780  21.199  25.508  1.00  0.00    -0.374 OA
BRANCH  26  27
ATOM     27  C   UNL A   1      44.353  22.049  24.448  1.00  0.00     0.202 C 
BRANCH  27  28
ATOM     28  C   UNL A   1      43.300  23.124  24.757  1.00  0.00     0.261 C 
BRANCH  28  29
ATOM     29  O   UNL A   1      43.425  23.696  26.070  1.00  0.00    -0.460 OA
BRANCH  29  30
ATOM     30  C   UNL A   1      43.992  24.931  26.089  1.00  0.00     0.338 C 
ATOM     31  O   UNL A   1      44.863  25.352  25.345  1.00  0.00    -0.246 OA
BRANCH  30  32
ATOM     32  C   UNL A   1      43.277  25.801  27.040  1.00  0.00     0.060 A 
ATOM     33  C   UNL A   1      43.482  27.184  26.957  1.00  0.00     0.016 A 
ATOM     34  C   UNL A   1      42.497  25.261  28.059  1.00  0.00     0.016 A 
ATOM     35  C   UNL A   1      42.940  28.030  27.924  1.00  0.00     0.010 A 
ATOM     36  C   UNL A   1      41.941  26.114  29.019  1.00  0.00     0.010 A 
ATOM     37  C   UNL A   1      42.196  27.496  28.985  1.00  0.00    -0.014 A 
BRANCH  37  38
ATOM     38  C   UNL A   1      41.849  28.347  30.154  1.00  0.00     0.031 A 
ATOM     39  C   UNL A   1      42.705  28.259  31.390  1.00  0.00     0.074 A 
ATOM     40  C   UNL A   1      40.808  29.199  30.115  1.00  0.00     0.049 A 
ATOM     41  N   UNL A   1      42.577  28.876  32.537  1.00  0.00    -0.248 NA
ATOM     42  C   UNL A   1      43.854  27.341  31.329  1.00  0.00     0.031 C 
ATOM     43  C   UNL A   1      39.921  29.401  28.971  1.00  0.00     0.029 A 
ATOM     44  N   UNL A   1      40.321  30.057  31.071  1.00  0.00    -0.354 N 
ATOM     45  C   UNL A   1      43.612  28.405  33.337  1.00  0.00     0.074 A 
ATOM     46  C   UNL A   1      44.330  27.417  32.562  1.00  0.00     0.031 C 
ATOM     47  C   UNL A   1      39.004  30.331  29.288  1.00  0.00     0.029 A 
ATOM     48  C   UNL A   1      39.215  30.765  30.668  1.00  0.00     0.049 A 
ATOM     49  H   UNL A   1      40.729  30.155  31.962  1.00  0.00     0.167 HD
ATOM     50  C   UNL A   1      43.947  28.770  34.599  1.00  0.00     0.037 A 
ATOM     51  C   UNL A   1      38.453  31.652  31.340  1.00  0.00     0.037 A 
ATOM     52  C   UNL A   1      43.239  29.763  35.361  1.00  0.00     0.049 A 
ATOM     53  C   UNL A   1      38.810  32.008  32.760  1.00  0.00     0.074 A 
ATOM     54  C   UNL A   1      43.515  30.231  36.634  1.00  0.00     0.029 A 
ATOM     55  N   UNL A   1      42.106  30.437  34.927  1.00  0.00    -0.354 N 
ATOM     56  N   UNL A   1      39.807  31.574  33.494  1.00  0.00    -0.248 NA
ATOM     57  C   UNL A   1      37.940  32.978  33.441  1.00  0.00     0.031 C 
ATOM     58  C   UNL A   1      42.515  31.141  36.992  1.00  0.00     0.029 A 
ATOM     59  C   UNL A   1      41.655  31.294  35.917  1.00  0.00     0.049 A 
ATOM     60  H   UNL A   1      41.685  30.322  34.044  1.00  0.00     0.167 HD
ATOM     61  C   UNL A   1      39.708  32.249  34.709  1.00  0.00     0.074 A 
ATOM     62  C   UNL A   1      38.554  33.118  34.608  1.00  0.00     0.031 C 
ATOM     63  C   UNL A   1      40.508  32.162  35.803  1.00  0.00     0.037 A 
BRANCH  50  64
ATOM     64  C   UNL A   1      45.111  28.059  35.239  1.00  0.00     0.058 A 
ATOM     65  C   UNL A   1      44.953  26.860  35.955  1.00  0.00     0.135 A 
ATOM     66  C   UNL A   1      46.406  28.592  35.140  1.00  0.00     0.135 A 
ATOM     67  F   UNL A   1      43.736  26.312  36.095  1.00  0.00    -0.206 F 
ATOM     68  C   UNL A   1      46.026  26.246  36.593  1.00  0.00     0.059 A 
ATOM     69  C   UNL A   1      47.501  27.976  35.740  1.00  0.00     0.059 A 
ATOM     70  F   UNL A   1      46.619  29.733  34.467  1.00  0.00    -0.206 F 
ATOM     71  C   UNL A   1      47.296  26.815  36.484  1.00  0.00     0.060 A 
BRANCH  71  72
ATOM     72  S   UNL A   1      48.672  26.024  37.344  1.00  0.00     0.124 S 
ATOM     73  O   UNL A   1      48.140  24.684  37.570  1.00  0.00    -0.237 OA
ATOM     74  O   UNL A   1      49.749  26.119  36.364  1.00  0.00    -0.237 OA
ATOM     75  O   UNL A   1      48.842  26.843  38.539  1.00  0.00    -0.744 OA
ENDBRANCH  71  72
ENDBRANCH  50  64
BRANCH  51  76
ATOM     76  C   UNL A   1      37.288  32.286  30.664  1.00  0.00     0.058 A 
ATOM     77  C   UNL A   1      37.462  33.375  29.796  1.00  0.00     0.135 A 
ATOM     78  C   UNL A   1      35.983  31.803  30.853  1.00  0.00     0.135 A 
ATOM     79  F   UNL A   1      38.687  33.881  29.593  1.00  0.00    -0.206 F 
ATOM     80  C   UNL A   1      36.385  33.962  29.139  1.00  0.00     0.059 A 
ATOM     81  C   UNL A   1      34.894  32.357  30.187  1.00  0.00     0.059 A 
ATOM     82  F   UNL A   1      35.764  30.758  31.666  1.00  0.00    -0.206 F 
ATOM     83  C   UNL A   1      35.106  33.439  29.332  1.00  0.00     0.060 A 
BRANCH  83  84
ATOM     84  S   UNL A   1      33.731  34.157  28.408  1.00  0.00     0.124 S 
ATOM     85  O   UNL A   1      34.396  35.218  27.663  1.00  0.00    -0.237 OA
ATOM     86  O   UNL A   1      33.266  33.017  27.623  1.00  0.00    -0.237 OA
ATOM     87  O   UNL A   1      32.817  34.598  29.458  1.00  0.00    -0.744 OA
ENDBRANCH  83  84
ENDBRANCH  51  76
BRANCH  63  88
ATOM     88  C   UNL A   1      40.201  33.070  36.966  1.00  0.00     0.058 A 
ATOM     89  C   UNL A   1      40.949  34.227  37.230  1.00  0.00     0.135 A 
ATOM     90  C   UNL A   1      39.099  32.801  37.797  1.00  0.00     0.135 A 
ATOM     91  F   UNL A   1      42.015  34.531  36.471  1.00  0.00    -0.206 F 
ATOM     92  C   UNL A   1      40.636  35.069  38.294  1.00  0.00     0.059 A 
ATOM     93  C   UNL A   1      38.748  33.646  38.845  1.00  0.00     0.059 A 
ATOM     94  F   UNL A   1      38.340  31.714  37.583  1.00  0.00    -0.206 F 
ATOM     95  C   UNL A   1      39.532  34.771  39.094  1.00  0.00     0.060 A 
BRANCH  95  96
ATOM     96  S   UNL A   1      39.120  35.886  40.453  1.00  0.00     0.124 S 
ATOM     97  O   UNL A   1      38.595  37.043  39.735  1.00  0.00    -0.237 OA
ATOM     98  O   UNL A   1      38.141  35.109  41.207  1.00  0.00    -0.237 OA
ATOM     99  O   UNL A   1      40.400  36.093  41.125  1.00  0.00    -0.744 OA
ENDBRANCH  95  96
ENDBRANCH  63  88
ENDBRANCH  37  38
ENDBRANCH  30  32
ENDBRANCH  29  30
ENDBRANCH  28  29
ENDBRANCH  27  28
ENDBRANCH  26  27
ENDBRANCH   1  26
TORSDOF 22
ENDMDL
MODEL 3
REMARK VINA RESULT:      -9.7      1.555      2.409
REMARK SMILES O=C(CSc1nc2[nH]cnc2c(=O)[nH]1)NCCC(=O)OCCOCCOC(=O)c1ccc(-c2c3nc(c(-c4c(F)cc(S(=O)(=O)[O-])cc4F)c4ccc([nH]4)c(-c4c(F)cc(S(=O)(=O)[O-])cc4F)c4nc(c(-c5c(F)cc(S(=O)(=O)[O-])cc5F)c5ccc2[nH]5)C=C4)C=C3)cc1
REMARK SMILES IDX 22 1 21 2 20 3 18 4 19 5 17 6 16 7 15 8 1 9 2 10 3 12 4 13
REMARK SMILES IDX 5 14 6 15 14 16 7 17 12 18 8 20 11 21 13 22 9 23 10 25 23 26
REMARK SMILES IDX 24 27 25 28 26 29 27 30 28 31 29 32 30 33 94 34 31 35 93 36
REMARK SMILES IDX 32 37 33 38 34 39 87 40 35 41 92 42 86 43 88 44 36 45 91 46
REMARK SMILES IDX 85 47 84 48 37 50 71 51 50 52 70 53 51 54 54 55 69 56 89 57
REMARK SMILES IDX 52 58 53 59 68 61 90 62 55 63 38 64 39 65 48 66 40 67 41 68
REMARK SMILES IDX 47 69 49 70 42 71 43 72 44 73 45 74 46 75 72 76 73 77 82 78
REMARK SMILES IDX 74 79 75 80 81 81 83 82 76 83 77 84 78 85 79 86 80 87 56 88
REMARK SMILES IDX 57 89 66 90 58 91 59 92 65 93 67 94 60 95 61 96 62 97 63 98
REMARK SMILES IDX 64 99
REMARK H PARENT 15 11 14 19 8 24 88 49 54 60
REMARK Flexibility Score: inf
ROOT
ATOM      1  C   UNL A   1      44.103  20.129  25.379  1.00  0.00     0.202 C 
ENDROOT
BRANCH   1   2
ATOM      2  C   UNL A   1      42.701  19.616  25.721  1.00  0.00     0.261 C 
BRANCH   2   3
ATOM      3  O   UNL A   1      41.724  20.672  25.789  1.00  0.00    -0.463 OA
BRANCH   3   4
ATOM      4  C   UNL A   1      41.157  20.870  27.009  1.00  0.00     0.307 C 
ATOM      5  O   UNL A   1      40.792  19.977  27.766  1.00  0.00    -0.252 OA
BRANCH   4   6
ATOM      6  C   UNL A   1      40.979  22.329  27.352  1.00  0.00     0.144 C 
BRANCH   6   7
ATOM      7  C   UNL A   1      39.649  22.959  26.958  1.00  0.00     0.127 C 
BRANCH   7   8
ATOM      8  N   UNL A   1      38.725  22.011  26.370  1.00  0.00    -0.355 N 
ATOM      9  O   UNL A   1      37.571  23.555  25.120  1.00  0.00    -0.274 OA
ATOM     10  C   UNL A   1      37.734  22.395  25.494  1.00  0.00     0.230 C 
ATOM     11  H   UNL A   1      38.809  21.059  26.606  1.00  0.00     0.163 HD
BRANCH  10  12
ATOM     12  C   UNL A   1      36.791  21.291  25.070  1.00  0.00     0.178 C 
BRANCH  12  13
ATOM     13  S   UNL A   1      35.176  21.421  25.850  1.00  0.00    -0.078 SA
BRANCH  13  14
ATOM     14  C   UNL A   1      34.611  22.948  25.252  1.00  0.00     0.170 A 
ATOM     15  N   UNL A   1      34.454  23.960  26.054  1.00  0.00    -0.204 NA
ATOM     16  N   UNL A   1      34.444  22.968  23.884  1.00  0.00    -0.299 N 
ATOM     17  C   UNL A   1      34.099  25.082  25.384  1.00  0.00     0.165 A 
ATOM     18  C   UNL A   1      34.065  24.096  23.174  1.00  0.00     0.279 A 
ATOM     19  H   UNL A   1      34.603  22.135  23.382  1.00  0.00     0.172 HD
ATOM     20  N   UNL A   1      33.919  26.320  25.927  1.00  0.00    -0.329 N 
ATOM     21  C   UNL A   1      33.890  25.250  24.033  1.00  0.00     0.172 A 
ATOM     22  O   UNL A   1      33.912  24.080  21.956  1.00  0.00    -0.267 OA
ATOM     23  C   UNL A   1      33.607  27.172  24.897  1.00  0.00     0.199 A 
ATOM     24  H   UNL A   1      33.997  26.558  26.879  1.00  0.00     0.169 HD
ATOM     25  N   UNL A   1      33.570  26.551  23.736  1.00  0.00    -0.229 NA
ENDBRANCH  13  14
ENDBRANCH  12  13
ENDBRANCH  10  12
ENDBRANCH   7   8
ENDBRANCH   6   7
ENDBRANCH   4   6
ENDBRANCH   3   4
ENDBRANCH   2   3
ENDBRANCH   1   2
BRANCH   1  26
ATOM     26  O   UNL A   1      44.464  21.433  25.825  1.00  0.00    -0.374 OA
BRANCH  26  27
ATOM     27  C   UNL A   1      44.515  22.480  24.861  1.00  0.00     0.202 C 
BRANCH  27  28
ATOM     28  C   UNL A   1      43.432  23.569  24.913  1.00  0.00     0.261 C 
BRANCH  28  29
ATOM     29  O   UNL A   1      43.357  24.252  26.175  1.00  0.00    -0.460 OA
BRANCH  29  30
ATOM     30  C   UNL A   1      43.847  25.519  26.155  1.00  0.00     0.338 C 
ATOM     31  O   UNL A   1      44.671  25.977  25.380  1.00  0.00    -0.246 OA
BRANCH  30  32
ATOM     32  C   UNL A   1      43.106  26.363  27.109  1.00  0.00     0.060 A 
ATOM     33  C   UNL A   1      43.335  27.744  27.090  1.00  0.00     0.016 A 
ATOM     34  C   UNL A   1      42.274  25.797  28.072  1.00  0.00     0.016 A 
ATOM     35  C   UNL A   1      42.764  28.561  28.066  1.00  0.00     0.010 A 
ATOM     36  C   UNL A   1      41.691  26.621  29.040  1.00  0.00     0.010 A 
ATOM     37  C   UNL A   1      41.968  27.999  29.072  1.00  0.00    -0.014 A 
BRANCH  37  38
ATOM     38  C   UNL A   1      41.583  28.809  30.258  1.00  0.00     0.031 A 
ATOM     39  C   UNL A   1      42.409  28.690  31.512  1.00  0.00     0.074 A 
ATOM     40  C   UNL A   1      40.536  29.654  30.220  1.00  0.00     0.049 A 
ATOM     41  N   UNL A   1      42.247  29.269  32.675  1.00  0.00    -0.248 NA
ATOM     42  C   UNL A   1      43.568  27.783  31.451  1.00  0.00     0.031 C 
ATOM     43  C   UNL A   1      39.675  29.884  29.061  1.00  0.00     0.029 A 
ATOM     44  N   UNL A   1      40.018  30.476  31.190  1.00  0.00    -0.354 N 
ATOM     45  C   UNL A   1      43.266  28.781  33.485  1.00  0.00     0.074 A 
ATOM     46  C   UNL A   1      44.012  27.825  32.697  1.00  0.00     0.031 C 
ATOM     47  C   UNL A   1      38.743  30.796  29.384  1.00  0.00     0.029 A 
ATOM     48  C   UNL A   1      38.915  31.187  30.782  1.00  0.00     0.049 A 
ATOM     49  H   UNL A   1      40.402  30.549  32.094  1.00  0.00     0.167 HD
ATOM     50  C   UNL A   1      43.567  29.109  34.766  1.00  0.00     0.037 A 
ATOM     51  C   UNL A   1      38.129  32.046  31.462  1.00  0.00     0.037 A 
ATOM     52  C   UNL A   1      42.830  30.071  35.541  1.00  0.00     0.049 A 
ATOM     53  C   UNL A   1      38.446  32.359  32.902  1.00  0.00     0.074 A 
ATOM     54  C   UNL A   1      43.071  30.501  36.834  1.00  0.00     0.029 A 
ATOM     55  N   UNL A   1      41.702  30.749  35.100  1.00  0.00    -0.354 N 
ATOM     56  N   UNL A   1      39.429  31.911  33.646  1.00  0.00    -0.248 NA
ATOM     57  C   UNL A   1      37.551  33.300  33.591  1.00  0.00     0.031 C 
ATOM     58  C   UNL A   1      42.053  31.390  37.196  1.00  0.00     0.029 A 
ATOM     59  C   UNL A   1      41.219  31.570  36.105  1.00  0.00     0.049 A 
ATOM     60  H   UNL A   1      41.304  30.658  34.204  1.00  0.00     0.167 HD
ATOM     61  C   UNL A   1      39.294  32.546  34.879  1.00  0.00     0.074 A 
ATOM     62  C   UNL A   1      38.134  33.408  34.777  1.00  0.00     0.031 C 
ATOM     63  C   UNL A   1      40.066  32.432  35.989  1.00  0.00     0.037 A 
BRANCH  50  64
ATOM     64  C   UNL A   1      44.721  28.388  35.412  1.00  0.00     0.058 A 
ATOM     65  C   UNL A   1      46.040  28.866  35.335  1.00  0.00     0.135 A 
ATOM     66  C   UNL A   1      44.502  27.192  36.115  1.00  0.00     0.135 A 
ATOM     67  F   UNL A   1      46.311  29.997  34.664  1.00  0.00    -0.206 F 
ATOM     68  C   UNL A   1      47.104  28.159  35.884  1.00  0.00     0.059 A 
ATOM     69  C   UNL A   1      45.547  26.486  36.704  1.00  0.00     0.059 A 
ATOM     70  F   UNL A   1      43.263  26.688  36.224  1.00  0.00    -0.206 F 
ATOM     71  C   UNL A   1      46.848  26.965  36.563  1.00  0.00     0.060 A 
BRANCH  71  72
ATOM     72  S   UNL A   1      48.243  26.044  37.242  1.00  0.00     0.124 S 
ATOM     73  O   UNL A   1      48.703  26.947  38.292  1.00  0.00    -0.237 OA
ATOM     74  O   UNL A   1      47.610  24.811  37.700  1.00  0.00    -0.237 OA
ATOM     75  O   UNL A   1      49.141  25.897  36.102  1.00  0.00    -0.744 OA
ENDBRANCH  71  72
ENDBRANCH  50  64
BRANCH  51  76
ATOM     76  C   UNL A   1      36.975  32.692  30.777  1.00  0.00     0.058 A 
ATOM     77  C   UNL A   1      35.669  32.210  30.955  1.00  0.00     0.135 A 
ATOM     78  C   UNL A   1      37.150  33.814  29.953  1.00  0.00     0.135 A 
ATOM     79  F   UNL A   1      35.451  31.132  31.723  1.00  0.00    -0.206 F 
ATOM     80  C   UNL A   1      34.578  32.817  30.341  1.00  0.00     0.059 A 
ATOM     81  C   UNL A   1      36.073  34.454  29.349  1.00  0.00     0.059 A 
ATOM     82  F   UNL A   1      38.379  34.319  29.756  1.00  0.00    -0.206 F 
ATOM     83  C   UNL A   1      34.789  33.946  29.548  1.00  0.00     0.060 A 
BRANCH  83  84
ATOM     84  S   UNL A   1      33.356  34.774  28.825  1.00  0.00     0.124 S 
ATOM     85  O   UNL A   1      32.541  35.038  30.004  1.00  0.00    -0.237 OA
ATOM     86  O   UNL A   1      33.967  35.940  28.194  1.00  0.00    -0.237 OA
ATOM     87  O   UNL A   1      32.825  33.777  27.899  1.00  0.00    -0.744 OA
ENDBRANCH  83  84
ENDBRANCH  51  76
BRANCH  63  88
ATOM     88  C   UNL A   1      39.722  33.299  37.172  1.00  0.00     0.058 A 
ATOM     89  C   UNL A   1      38.733  32.941  38.101  1.00  0.00     0.135 A 
ATOM     90  C   UNL A   1      40.440  34.485  37.407  1.00  0.00     0.135 A 
ATOM     91  F   UNL A   1      38.015  31.820  37.924  1.00  0.00    -0.206 F 
ATOM     92  C   UNL A   1      38.446  33.741  39.203  1.00  0.00     0.059 A 
ATOM     93  C   UNL A   1      40.192  35.283  38.520  1.00  0.00     0.059 A 
ATOM     94  F   UNL A   1      41.406  34.871  36.559  1.00  0.00    -0.206 F 
ATOM     95  C   UNL A   1      39.183  34.909  39.406  1.00  0.00     0.060 A 
BRANCH  95  96
ATOM     96  S   UNL A   1      38.819  35.924  40.854  1.00  0.00     0.124 S 
ATOM     97  O   UNL A   1      37.689  35.208  41.438  1.00  0.00    -0.237 OA
ATOM     98  O   UNL A   1      40.069  35.855  41.605  1.00  0.00    -0.237 OA
ATOM     99  O   UNL A   1      38.507  37.231  40.285  1.00  0.00    -0.744 OA
ENDBRANCH  95  96
ENDBRANCH  63  88
ENDBRANCH  37  38
ENDBRANCH  30  32
ENDBRANCH  29  30
ENDBRANCH  28  29
ENDBRANCH  27  28
ENDBRANCH  26  27
ENDBRANCH   1  26
TORSDOF 22
ENDMDL
