MODEL 1
REMARK VINA RESULT:     -11.0      0.000      0.000
REMARK SMILES C#Cc1cc(Cl)c2c(c1)C=C(C(=O)OCCOCCOC(=O)c1ccc(-c3c4nc(c(-c5c(F)cc(S(=O)(=O)[O-])cc5F)c5ccc([nH]5)c(-c5c(F)cc(S(=O)(=O)[O-])cc5F)c5nc(c(-c6c(F)cc(S(=O)(=O)[O-])cc6F)c6ccc3[nH]6)C=C5)C=C4)cc1)[C@@H](C(F)(F)F)O2
REMARK SMILES IDX 18 1 17 2 16 3 15 4 14 5 12 6 13 7 11 8 3 9 4 10 9 11 5 12
REMARK SMILES IDX 8 13 6 14 7 15 10 16 94 17 89 18 2 19 1 20 90 21 91 22 92 23
REMARK SMILES IDX 93 24 19 25 20 26 21 27 22 28 23 29 24 30 88 31 25 32 87 33
REMARK SMILES IDX 26 34 27 35 28 36 81 37 29 38 86 39 80 40 82 41 30 42 85 43
REMARK SMILES IDX 79 44 78 45 31 47 65 48 44 49 64 50 45 51 48 52 63 53 83 54
REMARK SMILES IDX 46 55 47 56 62 58 84 59 49 60 32 61 33 62 42 63 34 64 35 65
REMARK SMILES IDX 41 66 43 67 36 68 37 69 38 70 39 71 40 72 66 73 67 74 76 75
REMARK SMILES IDX 68 76 69 77 75 78 77 79 70 80 71 81 72 82 73 83 74 84 50 85
REMARK SMILES IDX 51 86 60 87 52 88 53 89 59 90 61 91 54 92 55 93 56 94 57 95
REMARK SMILES IDX 58 96
REMARK H PARENT 82 46 48 57
REMARK Flexibility Score: inf
ROOT
ATOM      1  C   UNL A   1      41.476  21.194  27.004  1.00  0.00     0.202 C 
ENDROOT
BRANCH   1   2
ATOM      2  O   UNL A   1      40.121  21.526  27.296  1.00  0.00    -0.374 OA
BRANCH   2   3
ATOM      3  C   UNL A   1      39.469  22.521  26.514  1.00  0.00     0.202 C 
BRANCH   3   4
ATOM      4  C   UNL A   1      38.395  22.095  25.508  1.00  0.00     0.261 C 
BRANCH   4   5
ATOM      5  O   UNL A   1      37.431  23.127  25.264  1.00  0.00    -0.460 OA
BRANCH   5   6
ATOM      6  C   UNL A   1      36.653  22.909  24.178  1.00  0.00     0.338 C 
ATOM      7  O   UNL A   1      37.005  22.456  23.101  1.00  0.00    -0.246 OA
BRANCH   6   8
ATOM      8  C   UNL A   1      35.241  23.161  24.523  1.00  0.00     0.087 C 
ATOM      9  C   UNL A   1      32.085  26.234  26.426  1.00  0.00     0.027 A 
ATOM     10  C   UNL A   1      31.150  25.207  26.547  1.00  0.00     0.041 A 
ATOM     11  C   UNL A   1      33.311  25.987  25.810  1.00  0.00     0.029 A 
ATOM     12  C   UNL A   1      31.436  23.940  26.029  1.00  0.00     0.084 A 
ATOM     13  C   UNL A   1      33.613  24.706  25.332  1.00  0.00     0.020 A 
ATOM     14  Cl  UNL A   1      30.248  22.699  26.211  1.00  0.00    -0.080 Cl
ATOM     15  C   UNL A   1      32.669  23.680  25.418  1.00  0.00     0.146 A 
ATOM     16  C   UNL A   1      34.943  24.429  24.829  1.00  0.00     0.027 C 
ATOM     17  O   UNL A   1      32.896  22.428  24.916  1.00  0.00    -0.474 OA
ATOM     18  C   UNL A   1      34.248  22.034  24.548  1.00  0.00     0.316 C 
BRANCH   9  19
ATOM     19  C   UNL A   1      31.811  27.529  26.965  1.00  0.00    -0.070 C 
ATOM     20  C   UNL A   1      31.583  28.629  27.397  1.00  0.00     0.010 C 
ENDBRANCH   9  19
BRANCH  18  21
ATOM     21  C   UNL A   1      34.690  20.882  25.463  1.00  0.00     0.430 C 
ATOM     22  F   UNL A   1      33.637  20.124  25.843  1.00  0.00    -0.167 F 
ATOM     23  F   UNL A   1      35.566  20.058  24.844  1.00  0.00    -0.167 F 
ATOM     24  F   UNL A   1      35.289  21.342  26.585  1.00  0.00    -0.167 F 
ENDBRANCH  18  21
ENDBRANCH   6   8
ENDBRANCH   5   6
ENDBRANCH   4   5
ENDBRANCH   3   4
ENDBRANCH   2   3
ENDBRANCH   1   2
BRANCH   1  25
ATOM     25  C   UNL A   1      42.345  22.143  26.166  1.00  0.00     0.261 C 
BRANCH  25  26
ATOM     26  O   UNL A   1      42.860  23.268  26.893  1.00  0.00    -0.460 OA
BRANCH  26  27
ATOM     27  C   UNL A   1      42.713  24.456  26.252  1.00  0.00     0.338 C 
ATOM     28  O   UNL A   1      42.826  24.667  25.056  1.00  0.00    -0.246 OA
BRANCH  27  29
ATOM     29  C   UNL A   1      42.193  25.465  27.190  1.00  0.00     0.060 A 
ATOM     30  C   UNL A   1      42.738  26.755  27.143  1.00  0.00     0.016 A 
ATOM     31  C   UNL A   1      41.255  25.121  28.163  1.00  0.00     0.016 A 
ATOM     32  C   UNL A   1      42.368  27.701  28.093  1.00  0.00     0.010 A 
ATOM     33  C   UNL A   1      40.896  26.070  29.124  1.00  0.00     0.010 A 
ATOM     34  C   UNL A   1      41.475  27.351  29.113  1.00  0.00    -0.014 A 
BRANCH  34  35
ATOM     35  C   UNL A   1      41.264  28.281  30.249  1.00  0.00     0.031 A 
ATOM     36  C   UNL A   1      42.166  28.180  31.449  1.00  0.00     0.074 A 
ATOM     37  C   UNL A   1      40.307  29.225  30.191  1.00  0.00     0.049 A 
ATOM     38  N   UNL A   1      42.131  28.855  32.568  1.00  0.00    -0.248 NA
ATOM     39  C   UNL A   1      43.251  27.187  31.381  1.00  0.00     0.031 C 
ATOM     40  C   UNL A   1      39.410  29.449  29.058  1.00  0.00     0.029 A 
ATOM     41  N   UNL A   1      39.930  30.172  31.110  1.00  0.00    -0.354 N 
ATOM     42  C   UNL A   1      43.183  28.370  33.336  1.00  0.00     0.074 A 
ATOM     43  C   UNL A   1      43.815  27.316  32.574  1.00  0.00     0.031 C 
ATOM     44  C   UNL A   1      38.584  30.469  29.350  1.00  0.00     0.029 A 
ATOM     45  C   UNL A   1      38.865  30.942  30.704  1.00  0.00     0.049 A 
ATOM     46  H   UNL A   1      40.379  30.290  31.978  1.00  0.00     0.167 HD
ATOM     47  C   UNL A   1      43.593  28.781  34.558  1.00  0.00     0.037 A 
ATOM     48  C   UNL A   1      38.183  31.903  31.359  1.00  0.00     0.037 A 
ATOM     49  C   UNL A   1      42.963  29.839  35.304  1.00  0.00     0.049 A 
ATOM     50  C   UNL A   1      38.605  32.277  32.759  1.00  0.00     0.074 A 
ATOM     51  C   UNL A   1      43.311  30.334  36.549  1.00  0.00     0.029 A 
ATOM     52  N   UNL A   1      41.858  30.563  34.881  1.00  0.00    -0.354 N 
ATOM     53  N   UNL A   1      39.610  31.819  33.468  1.00  0.00    -0.248 NA
ATOM     54  C   UNL A   1      37.802  33.297  33.448  1.00  0.00     0.031 C 
ATOM     55  C   UNL A   1      42.380  31.313  36.904  1.00  0.00     0.029 A 
ATOM     56  C   UNL A   1      41.493  31.479  35.853  1.00  0.00     0.049 A 
ATOM     57  H   UNL A   1      41.402  30.444  34.015  1.00  0.00     0.167 HD
ATOM     58  C   UNL A   1      39.576  32.517  34.672  1.00  0.00     0.074 A 
ATOM     59  C   UNL A   1      38.463  33.440  34.588  1.00  0.00     0.031 C 
ATOM     60  C   UNL A   1      40.391  32.403  35.751  1.00  0.00     0.037 A 
BRANCH  47  61
ATOM     61  C   UNL A   1      44.777  28.094  35.180  1.00  0.00     0.058 A 
ATOM     62  C   UNL A   1      44.627  26.950  35.981  1.00  0.00     0.135 A 
ATOM     63  C   UNL A   1      46.083  28.524  34.892  1.00  0.00     0.135 A 
ATOM     64  F   UNL A   1      43.403  26.507  36.306  1.00  0.00    -0.206 F 
ATOM     65  C   UNL A   1      45.730  26.260  36.475  1.00  0.00     0.059 A 
ATOM     66  C   UNL A   1      47.200  27.831  35.350  1.00  0.00     0.059 A 
ATOM     67  F   UNL A   1      46.283  29.614  34.135  1.00  0.00    -0.206 F 
ATOM     68  C   UNL A   1      47.012  26.700  36.143  1.00  0.00     0.060 A 
BRANCH  68  69
ATOM     69  S   UNL A   1      48.427  25.760  36.753  1.00  0.00     0.124 S 
ATOM     70  O   UNL A   1      49.161  26.782  37.493  1.00  0.00    -0.237 OA
ATOM     71  O   UNL A   1      47.785  24.730  37.562  1.00  0.00    -0.237 OA
ATOM     72  O   UNL A   1      49.075  25.285  35.534  1.00  0.00    -0.744 OA
ENDBRANCH  68  69
ENDBRANCH  47  61
BRANCH  48  73
ATOM     73  C   UNL A   1      37.025  32.576  30.708  1.00  0.00     0.058 A 
ATOM     74  C   UNL A   1      37.217  33.628  29.800  1.00  0.00     0.135 A 
ATOM     75  C   UNL A   1      35.704  32.191  30.987  1.00  0.00     0.135 A 
ATOM     76  F   UNL A   1      38.459  34.043  29.507  1.00  0.00    -0.206 F 
ATOM     77  C   UNL A   1      36.144  34.288  29.209  1.00  0.00     0.059 A 
ATOM     78  C   UNL A   1      34.615  32.812  30.383  1.00  0.00     0.059 A 
ATOM     79  F   UNL A   1      35.462  31.184  31.841  1.00  0.00    -0.206 F 
ATOM     80  C   UNL A   1      34.846  33.868  29.504  1.00  0.00     0.060 A 
BRANCH  80  81
ATOM     81  S   UNL A   1      33.465  34.714  28.705  1.00  0.00     0.124 S 
ATOM     82  O   UNL A   1      32.591  34.989  29.840  1.00  0.00    -0.237 OA
ATOM     83  O   UNL A   1      34.125  35.873  28.111  1.00  0.00    -0.237 OA
ATOM     84  O   UNL A   1      32.969  33.726  27.753  1.00  0.00    -0.744 OA
ENDBRANCH  80  81
ENDBRANCH  48  73
BRANCH  60  85
ATOM     85  C   UNL A   1      40.139  33.311  36.925  1.00  0.00     0.058 A 
ATOM     86  C   UNL A   1      40.829  34.522  37.084  1.00  0.00     0.135 A 
ATOM     87  C   UNL A   1      39.132  33.006  37.858  1.00  0.00     0.135 A 
ATOM     88  F   UNL A   1      41.803  34.862  36.224  1.00  0.00    -0.206 F 
ATOM     89  C   UNL A   1      40.546  35.389  38.134  1.00  0.00     0.059 A 
ATOM     90  C   UNL A   1      38.807  33.875  38.895  1.00  0.00     0.059 A 
ATOM     91  F   UNL A   1      38.429  31.867  37.747  1.00  0.00    -0.206 F 
ATOM     92  C   UNL A   1      39.527  35.060  39.031  1.00  0.00     0.060 A 
BRANCH  92  93
ATOM     93  S   UNL A   1      39.145  36.218  40.362  1.00  0.00     0.124 S 
ATOM     94  O   UNL A   1      38.118  35.490  41.100  1.00  0.00    -0.237 OA
ATOM     95  O   UNL A   1      40.435  36.350  41.034  1.00  0.00    -0.237 OA
ATOM     96  O   UNL A   1      38.686  37.410  39.658  1.00  0.00    -0.744 OA
ENDBRANCH  92  93
ENDBRANCH  60  85
ENDBRANCH  34  35
ENDBRANCH  27  29
ENDBRANCH  26  27
ENDBRANCH  25  26
ENDBRANCH   1  25
TORSDOF 19
ENDMDL
MODEL 2
REMARK VINA RESULT:     -10.9      6.280     11.731
REMARK SMILES C#Cc1cc(Cl)c2c(c1)C=C(C(=O)OCCOCCOC(=O)c1ccc(-c3c4nc(c(-c5c(F)cc(S(=O)(=O)[O-])cc5F)c5ccc([nH]5)c(-c5c(F)cc(S(=O)(=O)[O-])cc5F)c5nc(c(-c6c(F)cc(S(=O)(=O)[O-])cc6F)c6ccc3[nH]6)C=C5)C=C4)cc1)[C@@H](C(F)(F)F)O2
REMARK SMILES IDX 18 1 17 2 16 3 15 4 14 5 12 6 13 7 11 8 3 9 4 10 9 11 5 12
REMARK SMILES IDX 8 13 6 14 7 15 10 16 94 17 89 18 2 19 1 20 90 21 91 22 92 23
REMARK SMILES IDX 93 24 19 25 20 26 21 27 22 28 23 29 24 30 88 31 25 32 87 33
REMARK SMILES IDX 26 34 27 35 28 36 81 37 29 38 86 39 80 40 82 41 30 42 85 43
REMARK SMILES IDX 79 44 78 45 31 47 65 48 44 49 64 50 45 51 48 52 63 53 83 54
REMARK SMILES IDX 46 55 47 56 62 58 84 59 49 60 32 61 33 62 42 63 34 64 35 65
REMARK SMILES IDX 41 66 43 67 36 68 37 69 38 70 39 71 40 72 66 73 67 74 76 75
REMARK SMILES IDX 68 76 69 77 75 78 77 79 70 80 71 81 72 82 73 83 74 84 50 85
REMARK SMILES IDX 51 86 60 87 52 88 53 89 59 90 61 91 54 92 55 93 56 94 57 95
REMARK SMILES IDX 58 96
REMARK H PARENT 82 46 48 57
REMARK Flexibility Score: inf
ROOT
ATOM      1  C   UNL A   1      33.566  30.865  27.218  1.00  0.00     0.202 C 
ENDROOT
BRANCH   1   2
ATOM      2  O   UNL A   1      33.383  29.460  27.058  1.00  0.00    -0.374 OA
BRANCH   2   3
ATOM      3  C   UNL A   1      32.060  28.935  27.020  1.00  0.00     0.202 C 
BRANCH   3   4
ATOM      4  C   UNL A   1      31.861  27.426  26.852  1.00  0.00     0.261 C 
BRANCH   4   5
ATOM      5  O   UNL A   1      31.594  27.055  25.493  1.00  0.00    -0.460 OA
BRANCH   5   6
ATOM      6  C   UNL A   1      32.704  26.801  24.762  1.00  0.00     0.338 C 
ATOM      7  O   UNL A   1      33.356  27.603  24.114  1.00  0.00    -0.246 OA
BRANCH   6   8
ATOM      8  C   UNL A   1      33.128  25.404  24.977  1.00  0.00     0.087 C 
ATOM      9  C   UNL A   1      36.820  22.421  25.681  1.00  0.00     0.027 A 
ATOM     10  C   UNL A   1      36.011  21.334  25.354  1.00  0.00     0.041 A 
ATOM     11  C   UNL A   1      36.271  23.700  25.748  1.00  0.00     0.029 A 
ATOM     12  C   UNL A   1      34.647  21.527  25.117  1.00  0.00     0.084 A 
ATOM     13  C   UNL A   1      34.913  23.898  25.466  1.00  0.00     0.020 A 
ATOM     14  Cl  UNL A   1      33.688  20.150  24.707  1.00  0.00    -0.080 Cl
ATOM     15  C   UNL A   1      34.088  22.810  25.171  1.00  0.00     0.146 A 
ATOM     16  C   UNL A   1      34.390  25.247  25.395  1.00  0.00     0.027 C 
ATOM     17  O   UNL A   1      32.745  22.946  24.944  1.00  0.00    -0.474 OA
ATOM     18  C   UNL A   1      32.186  24.268  24.699  1.00  0.00     0.316 C 
BRANCH   9  19
ATOM     19  C   UNL A   1      38.219  22.239  25.910  1.00  0.00    -0.070 C 
ATOM     20  C   UNL A   1      39.396  22.103  26.119  1.00  0.00     0.010 C 
ENDBRANCH   9  19
BRANCH  18  21
ATOM     21  C   UNL A   1      31.625  24.306  23.269  1.00  0.00     0.430 C 
ATOM     22  F   UNL A   1      31.014  23.143  22.949  1.00  0.00    -0.167 F 
ATOM     23  F   UNL A   1      30.708  25.288  23.118  1.00  0.00    -0.167 F 
ATOM     24  F   UNL A   1      32.603  24.519  22.359  1.00  0.00    -0.167 F 
ENDBRANCH  18  21
ENDBRANCH   6   8
ENDBRANCH   5   6
ENDBRANCH   4   5
ENDBRANCH   3   4
ENDBRANCH   2   3
ENDBRANCH   1   2
BRANCH   1  25
ATOM     25  C   UNL A   1      34.448  31.409  28.351  1.00  0.00     0.261 C 
BRANCH  25  26
ATOM     26  O   UNL A   1      35.393  30.461  28.870  1.00  0.00    -0.460 OA
BRANCH  26  27
ATOM     27  C   UNL A   1      36.447  31.025  29.513  1.00  0.00     0.338 C 
ATOM     28  O   UNL A   1      36.411  31.913  30.348  1.00  0.00    -0.246 OA
BRANCH  27  29
ATOM     29  C   UNL A   1      37.676  30.275  29.204  1.00  0.00     0.060 A 
ATOM     30  C   UNL A   1      38.576  30.022  30.248  1.00  0.00     0.016 A 
ATOM     31  C   UNL A   1      37.983  29.913  27.893  1.00  0.00     0.016 A 
ATOM     32  C   UNL A   1      39.806  29.431  29.978  1.00  0.00     0.010 A 
ATOM     33  C   UNL A   1      39.224  29.331  27.623  1.00  0.00     0.010 A 
ATOM     34  C   UNL A   1      40.153  29.118  28.658  1.00  0.00    -0.014 A 
BRANCH  34  35
ATOM     35  C   UNL A   1      41.543  28.707  28.347  1.00  0.00     0.031 A 
ATOM     36  C   UNL A   1      42.634  29.742  28.384  1.00  0.00     0.074 A 
ATOM     37  C   UNL A   1      41.831  27.421  28.074  1.00  0.00     0.049 A 
ATOM     38  N   UNL A   1      43.904  29.615  28.101  1.00  0.00    -0.248 NA
ATOM     39  C   UNL A   1      42.243  31.102  28.794  1.00  0.00     0.031 C 
ATOM     40  C   UNL A   1      40.864  26.324  28.062  1.00  0.00     0.029 A 
ATOM     41  N   UNL A   1      43.024  26.821  27.754  1.00  0.00    -0.354 N 
ATOM     42  C   UNL A   1      44.463  30.873  28.296  1.00  0.00     0.074 A 
ATOM     43  C   UNL A   1      43.389  31.761  28.682  1.00  0.00     0.031 C 
ATOM     44  C   UNL A   1      41.501  25.183  27.748  1.00  0.00     0.029 A 
ATOM     45  C   UNL A   1      42.912  25.475  27.497  1.00  0.00     0.049 A 
ATOM     46  H   UNL A   1      43.878  27.308  27.712  1.00  0.00     0.167 HD
ATOM     47  C   UNL A   1      45.758  31.247  28.179  1.00  0.00     0.037 A 
ATOM     48  C   UNL A   1      43.838  24.586  27.084  1.00  0.00     0.037 A 
ATOM     49  C   UNL A   1      46.822  30.351  27.804  1.00  0.00     0.049 A 
ATOM     50  C   UNL A   1      45.257  25.051  26.873  1.00  0.00     0.074 A 
ATOM     51  C   UNL A   1      48.170  30.634  27.666  1.00  0.00     0.029 A 
ATOM     52  N   UNL A   1      46.663  29.007  27.505  1.00  0.00    -0.354 N 
ATOM     53  N   UNL A   1      45.775  26.241  27.072  1.00  0.00    -0.248 NA
ATOM     54  C   UNL A   1      46.220  24.055  26.379  1.00  0.00     0.031 C 
ATOM     55  C   UNL A   1      48.815  29.476  27.224  1.00  0.00     0.029 A 
ATOM     56  C   UNL A   1      47.883  28.454  27.153  1.00  0.00     0.049 A 
ATOM     57  H   UNL A   1      45.809  28.517  27.539  1.00  0.00     0.167 HD
ATOM     58  C   UNL A   1      47.126  26.125  26.759  1.00  0.00     0.074 A 
ATOM     59  C   UNL A   1      47.350  24.748  26.373  1.00  0.00     0.031 C 
ATOM     60  C   UNL A   1      48.095  27.076  26.785  1.00  0.00     0.037 A 
BRANCH  47  61
ATOM     61  C   UNL A   1      46.114  32.681  28.455  1.00  0.00     0.058 A 
ATOM     62  C   UNL A   1      46.544  33.102  29.724  1.00  0.00     0.135 A 
ATOM     63  C   UNL A   1      46.120  33.627  27.416  1.00  0.00     0.135 A 
ATOM     64  F   UNL A   1      46.539  32.246  30.758  1.00  0.00    -0.206 F 
ATOM     65  C   UNL A   1      46.966  34.408  29.952  1.00  0.00     0.059 A 
ATOM     66  C   UNL A   1      46.566  34.929  27.614  1.00  0.00     0.059 A 
ATOM     67  F   UNL A   1      45.713  33.279  26.185  1.00  0.00    -0.206 F 
ATOM     68  C   UNL A   1      46.986  35.311  28.887  1.00  0.00     0.060 A 
BRANCH  68  69
ATOM     69  S   UNL A   1      47.584  36.985  29.195  1.00  0.00     0.124 S 
ATOM     70  O   UNL A   1      46.866  37.334  30.417  1.00  0.00    -0.237 OA
ATOM     71  O   UNL A   1      49.020  36.776  29.342  1.00  0.00    -0.237 OA
ATOM     72  O   UNL A   1      47.177  37.720  28.001  1.00  0.00    -0.744 OA
ENDBRANCH  68  69
ENDBRANCH  47  61
BRANCH  48  73
ATOM     73  C   UNL A   1      43.457  23.167  26.836  1.00  0.00     0.058 A 
ATOM     74  C   UNL A   1      43.201  22.290  27.900  1.00  0.00     0.135 A 
ATOM     75  C   UNL A   1      43.350  22.657  25.532  1.00  0.00     0.135 A 
ATOM     76  F   UNL A   1      43.300  22.724  29.166  1.00  0.00    -0.206 F 
ATOM     77  C   UNL A   1      42.876  20.955  27.683  1.00  0.00     0.059 A 
ATOM     78  C   UNL A   1      42.993  21.335  25.288  1.00  0.00     0.059 A 
ATOM     79  F   UNL A   1      43.575  23.454  24.476  1.00  0.00    -0.206 F 
ATOM     80  C   UNL A   1      42.769  20.488  26.372  1.00  0.00     0.060 A 
BRANCH  80  81
ATOM     81  S   UNL A   1      42.316  18.760  26.108  1.00  0.00     0.124 S 
ATOM     82  O   UNL A   1      40.901  18.873  25.777  1.00  0.00    -0.237 OA
ATOM     83  O   UNL A   1      43.201  18.382  25.011  1.00  0.00    -0.237 OA
ATOM     84  O   UNL A   1      42.615  18.133  27.391  1.00  0.00    -0.744 OA
ENDBRANCH  80  81
ENDBRANCH  48  73
BRANCH  60  85
ATOM     85  C   UNL A   1      49.496  26.666  26.415  1.00  0.00     0.058 A 
ATOM     86  C   UNL A   1      50.350  26.040  27.336  1.00  0.00     0.135 A 
ATOM     87  C   UNL A   1      49.959  26.825  25.097  1.00  0.00     0.135 A 
ATOM     88  F   UNL A   1      49.960  25.866  28.608  1.00  0.00    -0.206 F 
ATOM     89  C   UNL A   1      51.619  25.604  26.970  1.00  0.00     0.059 A 
ATOM     90  C   UNL A   1      51.211  26.364  24.701  1.00  0.00     0.059 A 
ATOM     91  F   UNL A   1      49.179  27.405  24.170  1.00  0.00    -0.206 F 
ATOM     92  C   UNL A   1      52.038  25.763  25.647  1.00  0.00     0.060 A 
BRANCH  92  93
ATOM     93  S   UNL A   1      53.672  25.153  25.182  1.00  0.00     0.124 S 
ATOM     94  O   UNL A   1      53.785  25.630  23.808  1.00  0.00    -0.237 OA
ATOM     95  O   UNL A   1      54.536  25.813  26.156  1.00  0.00    -0.237 OA
ATOM     96  O   UNL A   1      53.553  23.706  25.336  1.00  0.00    -0.744 OA
ENDBRANCH  92  93
ENDBRANCH  60  85
ENDBRANCH  34  35
ENDBRANCH  27  29
ENDBRANCH  26  27
ENDBRANCH  25  26
ENDBRANCH   1  25
TORSDOF 19
ENDMDL
MODEL 3
REMARK VINA RESULT:     -10.9      6.563     11.547
REMARK SMILES C#Cc1cc(Cl)c2c(c1)C=C(C(=O)OCCOCCOC(=O)c1ccc(-c3c4nc(c(-c5c(F)cc(S(=O)(=O)[O-])cc5F)c5ccc([nH]5)c(-c5c(F)cc(S(=O)(=O)[O-])cc5F)c5nc(c(-c6c(F)cc(S(=O)(=O)[O-])cc6F)c6ccc3[nH]6)C=C5)C=C4)cc1)[C@@H](C(F)(F)F)O2
REMARK SMILES IDX 18 1 17 2 16 3 15 4 14 5 12 6 13 7 11 8 3 9 4 10 9 11 5 12
REMARK SMILES IDX 8 13 6 14 7 15 10 16 94 17 89 18 2 19 1 20 90 21 91 22 92 23
REMARK SMILES IDX 93 24 19 25 20 26 21 27 22 28 23 29 24 30 88 31 25 32 87 33
REMARK SMILES IDX 26 34 27 35 28 36 81 37 29 38 86 39 80 40 82 41 30 42 85 43
REMARK SMILES IDX 79 44 78 45 31 47 65 48 44 49 64 50 45 51 48 52 63 53 83 54
REMARK SMILES IDX 46 55 47 56 62 58 84 59 49 60 32 61 33 62 42 63 34 64 35 65
REMARK SMILES IDX 41 66 43 67 36 68 37 69 38 70 39 71 40 72 66 73 67 74 76 75
REMARK SMILES IDX 68 76 69 77 75 78 77 79 70 80 71 81 72 82 73 83 74 84 50 85
REMARK SMILES IDX 51 86 60 87 52 88 53 89 59 90 61 91 54 92 55 93 56 94 57 95
REMARK SMILES IDX 58 96
REMARK H PARENT 82 46 48 57
REMARK Flexibility Score: inf
ROOT
ATOM      1  C   UNL A   1      34.518  31.380  27.621  1.00  0.00     0.202 C 
ENDROOT
BRANCH   1   2
ATOM      2  O   UNL A   1      33.219  30.843  27.384  1.00  0.00    -0.374 OA
BRANCH   2   3
ATOM      3  C   UNL A   1      32.979  30.120  26.181  1.00  0.00     0.202 C 
BRANCH   3   4
ATOM      4  C   UNL A   1      33.879  28.932  25.832  1.00  0.00     0.261 C 
BRANCH   4   5
ATOM      5  O   UNL A   1      33.857  28.619  24.433  1.00  0.00    -0.460 OA
BRANCH   5   6
ATOM      6  C   UNL A   1      33.342  27.401  24.148  1.00  0.00     0.338 C 
ATOM      7  O   UNL A   1      33.898  26.321  24.270  1.00  0.00    -0.246 OA
BRANCH   6   8
ATOM      8  C   UNL A   1      31.916  27.537  23.797  1.00  0.00     0.087 C 
ATOM      9  C   UNL A   1      28.540  30.322  21.827  1.00  0.00     0.027 A 
ATOM     10  C   UNL A   1      27.546  29.545  22.420  1.00  0.00     0.041 A 
ATOM     11  C   UNL A   1      29.879  29.956  21.961  1.00  0.00     0.029 A 
ATOM     12  C   UNL A   1      27.894  28.390  23.126  1.00  0.00     0.084 A 
ATOM     13  C   UNL A   1      30.227  28.823  22.705  1.00  0.00     0.020 A 
ATOM     14  Cl  UNL A   1      26.626  27.465  23.849  1.00  0.00    -0.080 Cl
ATOM     15  C   UNL A   1      29.236  28.019  23.274  1.00  0.00     0.146 A 
ATOM     16  C   UNL A   1      31.626  28.539  22.958  1.00  0.00     0.027 C 
ATOM     17  O   UNL A   1      29.524  26.872  23.963  1.00  0.00    -0.474 OA
ATOM     18  C   UNL A   1      30.891  26.613  24.390  1.00  0.00     0.316 C 
BRANCH   9  19
ATOM     19  C   UNL A   1      28.200  31.515  21.118  1.00  0.00    -0.070 C 
ATOM     20  C   UNL A   1      27.904  32.505  20.502  1.00  0.00     0.010 C 
ENDBRANCH   9  19
BRANCH  18  21
ATOM     21  C   UNL A   1      30.931  26.601  25.926  1.00  0.00     0.430 C 
ATOM     22  F   UNL A   1      30.964  27.856  26.428  1.00  0.00    -0.167 F 
ATOM     23  F   UNL A   1      29.841  25.995  26.450  1.00  0.00    -0.167 F 
ATOM     24  F   UNL A   1      32.021  25.946  26.388  1.00  0.00    -0.167 F 
ENDBRANCH  18  21
ENDBRANCH   6   8
ENDBRANCH   5   6
ENDBRANCH   4   5
ENDBRANCH   3   4
ENDBRANCH   2   3
ENDBRANCH   1   2
BRANCH   1  25
ATOM     25  C   UNL A   1      35.214  31.162  28.973  1.00  0.00     0.261 C 
BRANCH  25  26
ATOM     26  O   UNL A   1      35.877  29.895  29.098  1.00  0.00    -0.460 OA
BRANCH  26  27
ATOM     27  C   UNL A   1      36.638  29.776  30.216  1.00  0.00     0.338 C 
ATOM     28  O   UNL A   1      36.252  29.543  31.349  1.00  0.00    -0.246 OA
BRANCH  27  29
ATOM     29  C   UNL A   1      38.064  29.777  29.848  1.00  0.00     0.060 A 
ATOM     30  C   UNL A   1      38.395  29.778  28.486  1.00  0.00     0.016 A 
ATOM     31  C   UNL A   1      39.055  29.680  30.824  1.00  0.00     0.016 A 
ATOM     32  C   UNL A   1      39.723  29.649  28.094  1.00  0.00     0.010 A 
ATOM     33  C   UNL A   1      40.387  29.537  30.426  1.00  0.00     0.010 A 
ATOM     34  C   UNL A   1      40.723  29.488  29.061  1.00  0.00    -0.014 A 
BRANCH  34  35
ATOM     35  C   UNL A   1      42.096  29.121  28.639  1.00  0.00     0.031 A 
ATOM     36  C   UNL A   1      42.376  27.700  28.230  1.00  0.00     0.074 A 
ATOM     37  C   UNL A   1      43.066  30.052  28.583  1.00  0.00     0.049 A 
ATOM     38  N   UNL A   1      43.508  27.151  27.873  1.00  0.00    -0.248 NA
ATOM     39  C   UNL A   1      41.230  26.775  28.222  1.00  0.00     0.031 C 
ATOM     40  C   UNL A   1      42.896  31.468  28.905  1.00  0.00     0.029 A 
ATOM     41  N   UNL A   1      44.390  29.943  28.236  1.00  0.00    -0.354 N 
ATOM     42  C   UNL A   1      43.212  25.820  27.601  1.00  0.00     0.074 A 
ATOM     43  C   UNL A   1      41.805  25.632  27.871  1.00  0.00     0.031 C 
ATOM     44  C   UNL A   1      44.073  32.097  28.742  1.00  0.00     0.029 A 
ATOM     45  C   UNL A   1      45.088  31.123  28.345  1.00  0.00     0.049 A 
ATOM     46  H   UNL A   1      44.801  29.100  27.938  1.00  0.00     0.167 HD
ATOM     47  C   UNL A   1      44.040  24.849  27.150  1.00  0.00     0.037 A 
ATOM     48  C   UNL A   1      46.399  31.380  28.167  1.00  0.00     0.037 A 
ATOM     49  C   UNL A   1      45.439  25.050  26.874  1.00  0.00     0.049 A 
ATOM     50  C   UNL A   1      47.317  30.257  27.753  1.00  0.00     0.074 A 
ATOM     51  C   UNL A   1      46.360  24.129  26.405  1.00  0.00     0.029 A 
ATOM     52  N   UNL A   1      46.120  26.246  27.042  1.00  0.00    -0.354 N 
ATOM     53  N   UNL A   1      47.023  29.006  27.486  1.00  0.00    -0.248 NA
ATOM     54  C   UNL A   1      48.745  30.578  27.615  1.00  0.00     0.031 C 
ATOM     55  C   UNL A   1      47.609  24.751  26.349  1.00  0.00     0.029 A 
ATOM     56  C   UNL A   1      47.456  26.079  26.715  1.00  0.00     0.049 A 
ATOM     57  H   UNL A   1      45.714  27.090  27.347  1.00  0.00     0.167 HD
ATOM     58  C   UNL A   1      48.222  28.402  27.121  1.00  0.00     0.074 A 
ATOM     59  C   UNL A   1      49.242  29.428  27.183  1.00  0.00     0.031 C 
ATOM     60  C   UNL A   1      48.459  27.113  26.768  1.00  0.00     0.037 A 
BRANCH  47  61
ATOM     61  C   UNL A   1      43.470  23.476  26.922  1.00  0.00     0.058 A 
ATOM     62  C   UNL A   1      43.237  22.981  25.629  1.00  0.00     0.135 A 
ATOM     63  C   UNL A   1      43.248  22.609  28.004  1.00  0.00     0.135 A 
ATOM     64  F   UNL A   1      43.413  23.773  24.559  1.00  0.00    -0.206 F 
ATOM     65  C   UNL A   1      42.803  21.676  25.418  1.00  0.00     0.059 A 
ATOM     66  C   UNL A   1      42.844  21.291  27.816  1.00  0.00     0.059 A 
ATOM     67  F   UNL A   1      43.450  23.033  29.262  1.00  0.00    -0.206 F 
ATOM     68  C   UNL A   1      42.622  20.835  26.517  1.00  0.00     0.060 A 
BRANCH  68  69
ATOM     69  S   UNL A   1      42.107  19.132  26.217  1.00  0.00     0.124 S 
ATOM     70  O   UNL A   1      42.352  18.517  27.518  1.00  0.00    -0.237 OA
ATOM     71  O   UNL A   1      40.705  19.295  25.848  1.00  0.00    -0.237 OA
ATOM     72  O   UNL A   1      42.990  18.690  25.142  1.00  0.00    -0.744 OA
ENDBRANCH  68  69
ENDBRANCH  47  61
BRANCH  48  73
ATOM     73  C   UNL A   1      46.929  32.755  28.384  1.00  0.00     0.058 A 
ATOM     74  C   UNL A   1      47.002  33.677  27.329  1.00  0.00     0.135 A 
ATOM     75  C   UNL A   1      47.382  33.173  29.645  1.00  0.00     0.135 A 
ATOM     76  F   UNL A   1      46.593  33.324  26.101  1.00  0.00    -0.206 F 
ATOM     77  C   UNL A   1      47.525  34.953  27.510  1.00  0.00     0.059 A 
ATOM     78  C   UNL A   1      47.877  34.456  29.860  1.00  0.00     0.059 A 
ATOM     79  F   UNL A   1      47.326  32.335  30.693  1.00  0.00    -0.206 F 
ATOM     80  C   UNL A   1      47.955  35.335  28.782  1.00  0.00     0.060 A 
BRANCH  80  81
ATOM     81  S   UNL A   1      48.603  37.006  29.007  1.00  0.00     0.124 S 
ATOM     82  O   UNL A   1      49.101  37.311  27.671  1.00  0.00    -0.237 OA
ATOM     83  O   UNL A   1      47.411  37.736  29.427  1.00  0.00    -0.237 OA
ATOM     84  O   UNL A   1      49.623  36.836  30.036  1.00  0.00    -0.744 OA
ENDBRANCH  80  81
ENDBRANCH  48  73
BRANCH  60  85
ATOM     85  C   UNL A   1      49.866  26.731  26.392  1.00  0.00     0.058 A 
ATOM     86  C   UNL A   1      50.336  26.845  25.075  1.00  0.00     0.135 A 
ATOM     87  C   UNL A   1      50.782  26.327  27.379  1.00  0.00     0.135 A 
ATOM     88  F   UNL A   1      49.503  27.223  24.092  1.00  0.00    -0.206 F 
ATOM     89  C   UNL A   1      51.655  26.554  24.745  1.00  0.00     0.059 A 
ATOM     90  C   UNL A   1      52.115  26.065  27.078  1.00  0.00     0.059 A 
ATOM     91  F   UNL A   1      50.391  26.214  28.659  1.00  0.00    -0.206 F 
ATOM     92  C   UNL A   1      52.540  26.173  25.756  1.00  0.00     0.060 A 
BRANCH  92  93
ATOM     93  S   UNL A   1      54.259  25.840  25.315  1.00  0.00     0.124 S 
ATOM     94  O   UNL A   1      54.187  24.450  24.878  1.00  0.00    -0.237 OA
ATOM     95  O   UNL A   1      54.503  26.823  24.263  1.00  0.00    -0.237 OA
ATOM     96  O   UNL A   1      54.983  26.070  26.561  1.00  0.00    -0.744 OA
ENDBRANCH  92  93
ENDBRANCH  60  85
ENDBRANCH  34  35
ENDBRANCH  27  29
ENDBRANCH  26  27
ENDBRANCH  25  26
ENDBRANCH   1  25
TORSDOF 19
ENDMDL
