MODEL 1
REMARK VINA RESULT:     -11.7      0.000      0.000
REMARK SMILES Cc1nsc(NC(=O)[C@H]2Cc3[nH]cnc3C[NH2+]2)c1C(=O)OCCOCCOC(=O)c1ccc(-c2c3nc(c(-c4c(F)cc(S(=O)(=O)[O-])cc4F)c4ccc([nH]4)c(-c4c(F)cc(S(=O)(=O)[O-])cc4F)c4nc(c(-c5c(F)cc(S(=O)(=O)[O-])cc5F)c5ccc2[nH]5)C=C4)C=C3)cc1
REMARK SMILES IDX 25 1 24 2 23 3 22 4 21 5 19 6 20 7 18 8 1 9 2 10 3 11 4 12
REMARK SMILES IDX 5 13 6 14 7 15 8 17 9 18 10 19 17 20 11 21 16 22 12 25 15 26
REMARK SMILES IDX 13 27 14 29 26 30 27 31 28 32 29 33 30 34 31 35 95 36 32 37
REMARK SMILES IDX 94 38 33 39 34 40 35 41 88 42 36 43 93 44 87 45 89 46 37 47
REMARK SMILES IDX 92 48 86 49 85 50 38 52 72 53 51 54 71 55 52 56 55 57 70 58
REMARK SMILES IDX 90 59 53 60 54 61 69 63 91 64 56 65 39 66 40 67 49 68 41 69
REMARK SMILES IDX 42 70 48 71 50 72 43 73 44 74 45 75 46 76 47 77 73 78 74 79
REMARK SMILES IDX 83 80 75 81 76 82 82 83 84 84 77 85 78 86 79 87 80 88 81 89
REMARK SMILES IDX 57 90 58 91 67 92 59 93 60 94 66 95 68 96 61 97 62 98 63 99
REMARK SMILES IDX 64 100 65 101
REMARK H PARENT 6 16 17 23 17 24 12 28 89 51 55 62
REMARK Flexibility Score: inf
ROOT
ATOM      1  C   UNL A   1      32.336  29.911  26.772  1.00  0.00     0.202 C 
ENDROOT
BRANCH   1   2
ATOM      2  O   UNL A   1      32.067  29.737  25.386  1.00  0.00    -0.374 OA
BRANCH   2   3
ATOM      3  C   UNL A   1      33.074  29.214  24.518  1.00  0.00     0.202 C 
BRANCH   3   4
ATOM      4  C   UNL A   1      32.645  28.806  23.103  1.00  0.00     0.261 C 
BRANCH   4   5
ATOM      5  O   UNL A   1      33.012  27.442  22.830  1.00  0.00    -0.460 OA
BRANCH   5   6
ATOM      6  C   UNL A   1      31.984  26.550  22.751  1.00  0.00     0.343 C 
ATOM      7  O   UNL A   1      31.605  26.005  21.732  1.00  0.00    -0.246 OA
BRANCH   6   8
ATOM      8  C   UNL A   1      31.594  26.106  24.079  1.00  0.00     0.117 A 
ATOM      9  C   UNL A   1      29.021  26.488  24.020  1.00  0.00     0.069 C 
ATOM     10  C   UNL A   1      30.309  26.192  24.708  1.00  0.00     0.068 A 
ATOM     11  N   UNL A   1      30.296  25.974  26.027  1.00  0.00    -0.195 NA
ATOM     12  S   UNL A   1      31.864  25.729  26.532  1.00  0.00    -0.017 S 
ATOM     13  C   UNL A   1      32.493  25.530  24.959  1.00  0.00     0.131 A 
BRANCH  13  14
ATOM     14  N   UNL A   1      33.783  25.147  24.706  1.00  0.00    -0.310 N 
ATOM     15  C   UNL A   1      34.337  23.934  24.459  1.00  0.00     0.283 C 
ATOM     16  H   UNL A   1      34.428  25.890  24.703  1.00  0.00     0.171 HD
ATOM     17  O   UNL A   1      35.570  23.959  24.312  1.00  0.00    -0.268 OA
BRANCH  15  18
ATOM     18  C   UNL A   1      33.573  22.595  24.389  1.00  0.00     0.279 C 
ATOM     19  C   UNL A   1      32.587  22.135  25.508  1.00  0.00     0.131 C 
ATOM     20  N   UNL A   1      32.800  22.540  23.080  1.00  0.00    -0.331 N 
ATOM     21  C   UNL A   1      32.478  20.678  25.221  1.00  0.00     0.050 A 
ATOM     22  C   UNL A   1      32.147  21.227  22.795  1.00  0.00     0.320 C 
ATOM     23  H   UNL A   1      33.448  22.743  22.319  1.00  0.00     0.347 HD
ATOM     24  H   UNL A   1      32.048  23.223  23.162  1.00  0.00     0.347 HD
ATOM     25  N   UNL A   1      33.022  19.632  25.909  1.00  0.00    -0.348 N 
ATOM     26  C   UNL A   1      32.353  20.253  23.915  1.00  0.00     0.116 A 
ATOM     27  C   UNL A   1      33.314  18.672  24.970  1.00  0.00     0.197 A 
ATOM     28  H   UNL A   1      33.175  19.577  26.881  1.00  0.00     0.167 HD
ATOM     29  N   UNL A   1      32.859  18.991  23.776  1.00  0.00    -0.236 NA
ENDBRANCH  15  18
ENDBRANCH  13  14
ENDBRANCH   6   8
ENDBRANCH   5   6
ENDBRANCH   4   5
ENDBRANCH   3   4
ENDBRANCH   2   3
ENDBRANCH   1   2
BRANCH   1  30
ATOM     30  C   UNL A   1      33.314  30.994  27.207  1.00  0.00     0.261 C 
BRANCH  30  31
ATOM     31  O   UNL A   1      34.635  30.496  27.329  1.00  0.00    -0.460 OA
BRANCH  31  32
ATOM     32  C   UNL A   1      35.520  31.421  27.769  1.00  0.00     0.338 C 
ATOM     33  O   UNL A   1      35.543  32.607  27.493  1.00  0.00    -0.246 OA
BRANCH  32  34
ATOM     34  C   UNL A   1      36.541  30.746  28.572  1.00  0.00     0.060 A 
ATOM     35  C   UNL A   1      37.490  31.564  29.191  1.00  0.00     0.016 A 
ATOM     36  C   UNL A   1      36.708  29.358  28.457  1.00  0.00     0.016 A 
ATOM     37  C   UNL A   1      38.721  31.023  29.476  1.00  0.00     0.010 A 
ATOM     38  C   UNL A   1      37.936  28.821  28.745  1.00  0.00     0.010 A 
ATOM     39  C   UNL A   1      38.951  29.684  29.145  1.00  0.00    -0.014 A 
BRANCH  39  40
ATOM     40  C   UNL A   1      40.286  29.155  29.299  1.00  0.00     0.031 A 
ATOM     41  C   UNL A   1      40.683  29.087  30.720  1.00  0.00     0.074 A 
ATOM     42  C   UNL A   1      40.989  28.688  28.250  1.00  0.00     0.049 A 
ATOM     43  N   UNL A   1      41.504  29.865  31.342  1.00  0.00    -0.248 NA
ATOM     44  C   UNL A   1      39.888  28.221  31.608  1.00  0.00     0.031 C 
ATOM     45  C   UNL A   1      40.546  28.524  26.860  1.00  0.00     0.029 A 
ATOM     46  N   UNL A   1      42.249  28.179  28.225  1.00  0.00    -0.354 N 
ATOM     47  C   UNL A   1      41.535  29.383  32.645  1.00  0.00     0.074 A 
ATOM     48  C   UNL A   1      40.356  28.575  32.806  1.00  0.00     0.031 C 
ATOM     49  C   UNL A   1      41.435  27.754  26.190  1.00  0.00     0.029 A 
ATOM     50  C   UNL A   1      42.571  27.492  27.055  1.00  0.00     0.049 A 
ATOM     51  H   UNL A   1      42.882  28.285  28.972  1.00  0.00     0.167 HD
ATOM     52  C   UNL A   1      42.691  29.404  33.360  1.00  0.00     0.037 A 
ATOM     53  C   UNL A   1      43.674  26.723  26.858  1.00  0.00     0.037 A 
ATOM     54  C   UNL A   1      43.648  30.308  32.770  1.00  0.00     0.049 A 
ATOM     55  C   UNL A   1      44.681  27.172  27.855  1.00  0.00     0.074 A 
ATOM     56  C   UNL A   1      43.704  31.667  32.541  1.00  0.00     0.029 A 
ATOM     57  N   UNL A   1      44.587  29.737  31.946  1.00  0.00    -0.354 N 
ATOM     58  N   UNL A   1      45.208  28.370  27.853  1.00  0.00    -0.248 NA
ATOM     59  C   UNL A   1      44.736  26.477  29.131  1.00  0.00     0.031 C 
ATOM     60  C   UNL A   1      44.393  31.813  31.300  1.00  0.00     0.029 A 
ATOM     61  C   UNL A   1      44.782  30.546  30.857  1.00  0.00     0.049 A 
ATOM     62  H   UNL A   1      45.047  28.883  32.113  1.00  0.00     0.167 HD
ATOM     63  C   UNL A   1      45.267  28.742  29.190  1.00  0.00     0.074 A 
ATOM     64  C   UNL A   1      45.054  27.499  29.931  1.00  0.00     0.031 C 
ATOM     65  C   UNL A   1      45.190  30.057  29.553  1.00  0.00     0.037 A 
BRANCH  52  66
ATOM     66  C   UNL A   1      43.107  28.286  34.288  1.00  0.00     0.058 A 
ATOM     67  C   UNL A   1      43.427  28.591  35.624  1.00  0.00     0.135 A 
ATOM     68  C   UNL A   1      43.480  26.993  33.852  1.00  0.00     0.135 A 
ATOM     69  F   UNL A   1      43.137  29.798  36.136  1.00  0.00    -0.206 F 
ATOM     70  C   UNL A   1      44.119  27.700  36.446  1.00  0.00     0.059 A 
ATOM     71  C   UNL A   1      44.116  26.070  34.671  1.00  0.00     0.059 A 
ATOM     72  F   UNL A   1      43.341  26.587  32.585  1.00  0.00    -0.206 F 
ATOM     73  C   UNL A   1      44.466  26.445  35.954  1.00  0.00     0.060 A 
BRANCH  73  74
ATOM     74  S   UNL A   1      45.430  25.322  36.978  1.00  0.00     0.124 S 
ATOM     75  O   UNL A   1      44.462  24.963  38.007  1.00  0.00    -0.237 OA
ATOM     76  O   UNL A   1      45.775  24.272  36.026  1.00  0.00    -0.237 OA
ATOM     77  O   UNL A   1      46.548  26.149  37.423  1.00  0.00    -0.744 OA
ENDBRANCH  73  74
ENDBRANCH  52  66
BRANCH  53  78
ATOM     78  C   UNL A   1      43.726  25.395  26.182  1.00  0.00     0.058 A 
ATOM     79  C   UNL A   1      44.707  25.074  25.226  1.00  0.00     0.135 A 
ATOM     80  C   UNL A   1      42.960  24.313  26.662  1.00  0.00     0.135 A 
ATOM     81  F   UNL A   1      45.514  26.032  24.744  1.00  0.00    -0.206 F 
ATOM     82  C   UNL A   1      44.919  23.760  24.780  1.00  0.00     0.059 A 
ATOM     83  C   UNL A   1      43.150  23.000  26.232  1.00  0.00     0.059 A 
ATOM     84  F   UNL A   1      42.053  24.488  27.634  1.00  0.00    -0.206 F 
ATOM     85  C   UNL A   1      44.140  22.726  25.298  1.00  0.00     0.060 A 
BRANCH  85  86
ATOM     86  S   UNL A   1      44.476  21.013  24.818  1.00  0.00     0.124 S 
ATOM     87  O   UNL A   1      43.329  20.310  25.383  1.00  0.00    -0.237 OA
ATOM     88  O   UNL A   1      44.517  21.100  23.363  1.00  0.00    -0.237 OA
ATOM     89  O   UNL A   1      45.757  20.725  25.458  1.00  0.00    -0.744 OA
ENDBRANCH  85  86
ENDBRANCH  53  78
BRANCH  65  90
ATOM     90  C   UNL A   1      45.357  31.096  28.468  1.00  0.00     0.058 A 
ATOM     91  C   UNL A   1      44.298  31.657  27.729  1.00  0.00     0.135 A 
ATOM     92  C   UNL A   1      46.629  31.654  28.279  1.00  0.00     0.135 A 
ATOM     93  F   UNL A   1      43.037  31.248  27.916  1.00  0.00    -0.206 F 
ATOM     94  C   UNL A   1      44.501  32.704  26.824  1.00  0.00     0.059 A 
ATOM     95  C   UNL A   1      46.851  32.715  27.405  1.00  0.00     0.059 A 
ATOM     96  F   UNL A   1      47.671  31.204  28.998  1.00  0.00    -0.206 F 
ATOM     97  C   UNL A   1      45.784  33.230  26.672  1.00  0.00     0.060 A 
BRANCH  97  98
ATOM     98  S   UNL A   1      46.037  34.638  25.569  1.00  0.00     0.124 S 
ATOM     99  O   UNL A   1      47.474  34.581  25.321  1.00  0.00    -0.237 OA
ATOM    100  O   UNL A   1      45.185  34.307  24.431  1.00  0.00    -0.237 OA
ATOM    101  O   UNL A   1      45.585  35.780  26.362  1.00  0.00    -0.744 OA
ENDBRANCH  97  98
ENDBRANCH  65  90
ENDBRANCH  39  40
ENDBRANCH  32  34
ENDBRANCH  31  32
ENDBRANCH  30  31
ENDBRANCH   1  30
TORSDOF 19
ENDMDL
MODEL 2
REMARK VINA RESULT:     -11.7      2.978      9.426
REMARK SMILES Cc1nsc(NC(=O)[C@H]2Cc3[nH]cnc3C[NH2+]2)c1C(=O)OCCOCCOC(=O)c1ccc(-c2c3nc(c(-c4c(F)cc(S(=O)(=O)[O-])cc4F)c4ccc([nH]4)c(-c4c(F)cc(S(=O)(=O)[O-])cc4F)c4nc(c(-c5c(F)cc(S(=O)(=O)[O-])cc5F)c5ccc2[nH]5)C=C4)C=C3)cc1
REMARK SMILES IDX 25 1 24 2 23 3 22 4 21 5 19 6 20 7 18 8 1 9 2 10 3 11 4 12
REMARK SMILES IDX 5 13 6 14 7 15 8 17 9 18 10 19 17 20 11 21 16 22 12 25 15 26
REMARK SMILES IDX 13 27 14 29 26 30 27 31 28 32 29 33 30 34 31 35 95 36 32 37
REMARK SMILES IDX 94 38 33 39 34 40 35 41 88 42 36 43 93 44 87 45 89 46 37 47
REMARK SMILES IDX 92 48 86 49 85 50 38 52 72 53 51 54 71 55 52 56 55 57 70 58
REMARK SMILES IDX 90 59 53 60 54 61 69 63 91 64 56 65 39 66 40 67 49 68 41 69
REMARK SMILES IDX 42 70 48 71 50 72 43 73 44 74 45 75 46 76 47 77 73 78 74 79
REMARK SMILES IDX 83 80 75 81 76 82 82 83 84 84 77 85 78 86 79 87 80 88 81 89
REMARK SMILES IDX 57 90 58 91 67 92 59 93 60 94 66 95 68 96 61 97 62 98 63 99
REMARK SMILES IDX 64 100 65 101
REMARK H PARENT 6 16 17 23 17 24 12 28 89 51 55 62
REMARK Flexibility Score: inf
ROOT
ATOM      1  C   UNL A   1      37.174  21.540  25.364  1.00  0.00     0.202 C 
ENDROOT
BRANCH   1   2
ATOM      2  O   UNL A   1      36.265  22.570  25.731  1.00  0.00    -0.374 OA
BRANCH   2   3
ATOM      3  C   UNL A   1      35.756  23.467  24.742  1.00  0.00     0.202 C 
BRANCH   3   4
ATOM      4  C   UNL A   1      35.141  22.851  23.479  1.00  0.00     0.261 C 
BRANCH   4   5
ATOM      5  O   UNL A   1      33.737  23.152  23.394  1.00  0.00    -0.460 OA
BRANCH   5   6
ATOM      6  C   UNL A   1      32.926  22.476  24.257  1.00  0.00     0.343 C 
ATOM      7  O   UNL A   1      32.920  21.270  24.415  1.00  0.00    -0.246 OA
BRANCH   6   8
ATOM      8  C   UNL A   1      32.282  23.400  25.177  1.00  0.00     0.117 A 
ATOM      9  C   UNL A   1      33.111  22.505  27.475  1.00  0.00     0.069 C 
ATOM     10  C   UNL A   1      32.245  23.352  26.609  1.00  0.00     0.068 A 
ATOM     11  N   UNL A   1      31.349  24.157  27.189  1.00  0.00    -0.195 NA
ATOM     12  S   UNL A   1      30.490  24.933  25.993  1.00  0.00    -0.017 S 
ATOM     13  C   UNL A   1      31.561  24.496  24.739  1.00  0.00     0.131 A 
BRANCH  13  14
ATOM     14  N   UNL A   1      31.461  24.975  23.461  1.00  0.00    -0.310 N 
ATOM     15  C   UNL A   1      31.613  26.221  22.945  1.00  0.00     0.283 C 
ATOM     16  H   UNL A   1      31.237  24.290  22.792  1.00  0.00     0.171 HD
ATOM     17  O   UNL A   1      31.404  26.293  21.723  1.00  0.00    -0.268 OA
BRANCH  15  18
ATOM     18  C   UNL A   1      31.977  27.487  23.748  1.00  0.00     0.279 C 
ATOM     19  C   UNL A   1      33.261  28.324  23.454  1.00  0.00     0.131 C 
ATOM     20  N   UNL A   1      30.806  28.456  23.694  1.00  0.00    -0.331 N 
ATOM     21  C   UNL A   1      33.393  29.111  24.710  1.00  0.00     0.050 A 
ATOM     22  C   UNL A   1      30.948  29.657  24.571  1.00  0.00     0.320 C 
ATOM     23  H   UNL A   1      29.965  27.954  23.978  1.00  0.00     0.347 HD
ATOM     24  H   UNL A   1      30.764  28.803  22.736  1.00  0.00     0.347 HD
ATOM     25  N   UNL A   1      34.289  28.947  25.727  1.00  0.00    -0.348 N 
ATOM     26  C   UNL A   1      32.268  29.671  25.279  1.00  0.00     0.116 A 
ATOM     27  C   UNL A   1      33.625  29.299  26.877  1.00  0.00     0.197 A 
ATOM     28  H   UNL A   1      35.222  28.639  25.651  1.00  0.00     0.167 HD
ATOM     29  N   UNL A   1      32.434  29.803  26.630  1.00  0.00    -0.236 NA
ENDBRANCH  15  18
ENDBRANCH  13  14
ENDBRANCH   6   8
ENDBRANCH   5   6
ENDBRANCH   4   5
ENDBRANCH   3   4
ENDBRANCH   2   3
ENDBRANCH   1   2
BRANCH   1  30
ATOM     30  C   UNL A   1      38.641  21.674  25.747  1.00  0.00     0.261 C 
BRANCH  30  31
ATOM     31  O   UNL A   1      38.894  22.870  26.465  1.00  0.00    -0.460 OA
BRANCH  31  32
ATOM     32  C   UNL A   1      40.127  22.916  27.019  1.00  0.00     0.338 C 
ATOM     33  O   UNL A   1      40.770  21.980  27.460  1.00  0.00    -0.246 OA
BRANCH  32  34
ATOM     34  C   UNL A   1      40.550  24.315  27.106  1.00  0.00     0.060 A 
ATOM     35  C   UNL A   1      41.783  24.557  27.717  1.00  0.00     0.016 A 
ATOM     36  C   UNL A   1      39.621  25.336  26.860  1.00  0.00     0.016 A 
ATOM     37  C   UNL A   1      41.982  25.783  28.304  1.00  0.00     0.010 A 
ATOM     38  C   UNL A   1      39.823  26.559  27.445  1.00  0.00     0.010 A 
ATOM     39  C   UNL A   1      40.948  26.724  28.247  1.00  0.00    -0.014 A 
BRANCH  39  40
ATOM     40  C   UNL A   1      41.091  27.952  28.992  1.00  0.00     0.031 A 
ATOM     41  C   UNL A   1      42.221  28.761  28.495  1.00  0.00     0.074 A 
ATOM     42  C   UNL A   1      40.202  28.316  29.936  1.00  0.00     0.049 A 
ATOM     43  N   UNL A   1      43.374  28.924  29.053  1.00  0.00    -0.248 NA
ATOM     44  C   UNL A   1      42.158  29.235  27.100  1.00  0.00     0.031 C 
ATOM     45  C   UNL A   1      38.942  27.657  30.300  1.00  0.00     0.029 A 
ATOM     46  N   UNL A   1      40.202  29.421  30.729  1.00  0.00    -0.354 N 
ATOM     47  C   UNL A   1      44.070  29.768  28.196  1.00  0.00     0.074 A 
ATOM     48  C   UNL A   1      43.395  29.703  26.927  1.00  0.00     0.031 C 
ATOM     49  C   UNL A   1      38.203  28.489  31.071  1.00  0.00     0.029 A 
ATOM     50  C   UNL A   1      38.991  29.670  31.371  1.00  0.00     0.049 A 
ATOM     51  H   UNL A   1      40.993  29.996  30.839  1.00  0.00     0.167 HD
ATOM     52  C   UNL A   1      44.922  30.704  28.692  1.00  0.00     0.037 A 
ATOM     53  C   UNL A   1      38.663  30.802  32.047  1.00  0.00     0.037 A 
ATOM     54  C   UNL A   1      45.273  30.411  30.059  1.00  0.00     0.049 A 
ATOM     55  C   UNL A   1      39.947  31.449  32.427  1.00  0.00     0.074 A 
ATOM     56  C   UNL A   1      45.939  29.389  30.705  1.00  0.00     0.029 A 
ATOM     57  N   UNL A   1      44.553  31.072  31.023  1.00  0.00    -0.354 N 
ATOM     58  N   UNL A   1      40.807  30.907  33.249  1.00  0.00    -0.248 NA
ATOM     59  C   UNL A   1      40.500  32.450  31.528  1.00  0.00     0.031 C 
ATOM     60  C   UNL A   1      45.273  29.237  31.957  1.00  0.00     0.029 A 
ATOM     61  C   UNL A   1      44.274  30.209  32.050  1.00  0.00     0.049 A 
ATOM     62  H   UNL A   1      44.280  32.018  30.982  1.00  0.00     0.167 HD
ATOM     63  C   UNL A   1      42.053  31.170  32.695  1.00  0.00     0.074 A 
ATOM     64  C   UNL A   1      41.803  32.204  31.692  1.00  0.00     0.031 C 
ATOM     65  C   UNL A   1      43.104  30.319  32.901  1.00  0.00     0.037 A 
BRANCH  52  66
ATOM     66  C   UNL A   1      45.050  32.093  28.110  1.00  0.00     0.058 A 
ATOM     67  C   UNL A   1      46.310  32.531  27.659  1.00  0.00     0.135 A 
ATOM     68  C   UNL A   1      44.066  33.101  28.239  1.00  0.00     0.135 A 
ATOM     69  F   UNL A   1      47.324  31.661  27.520  1.00  0.00    -0.206 F 
ATOM     70  C   UNL A   1      46.587  33.877  27.416  1.00  0.00     0.059 A 
ATOM     71  C   UNL A   1      44.304  34.437  27.945  1.00  0.00     0.059 A 
ATOM     72  F   UNL A   1      42.853  32.868  28.752  1.00  0.00    -0.206 F 
ATOM     73  C   UNL A   1      45.577  34.822  27.571  1.00  0.00     0.060 A 
BRANCH  73  74
ATOM     74  S   UNL A   1      45.947  36.567  27.340  1.00  0.00     0.124 S 
ATOM     75  O   UNL A   1      46.551  36.909  28.623  1.00  0.00    -0.237 OA
ATOM     76  O   UNL A   1      46.849  36.532  26.194  1.00  0.00    -0.237 OA
ATOM     77  O   UNL A   1      44.637  37.157  27.082  1.00  0.00    -0.744 OA
ENDBRANCH  73  74
ENDBRANCH  52  66
BRANCH  53  78
ATOM     78  C   UNL A   1      37.364  31.532  31.989  1.00  0.00     0.058 A 
ATOM     79  C   UNL A   1      36.660  31.910  33.147  1.00  0.00     0.135 A 
ATOM     80  C   UNL A   1      36.915  32.108  30.782  1.00  0.00     0.135 A 
ATOM     81  F   UNL A   1      37.042  31.448  34.347  1.00  0.00    -0.206 F 
ATOM     82  C   UNL A   1      35.582  32.810  33.110  1.00  0.00     0.059 A 
ATOM     83  C   UNL A   1      35.846  33.001  30.721  1.00  0.00     0.059 A 
ATOM     84  F   UNL A   1      37.562  31.883  29.629  1.00  0.00    -0.206 F 
ATOM     85  C   UNL A   1      35.189  33.360  31.890  1.00  0.00     0.060 A 
BRANCH  85  86
ATOM     86  S   UNL A   1      33.877  34.606  31.840  1.00  0.00     0.124 S 
ATOM     87  O   UNL A   1      34.612  35.832  32.130  1.00  0.00    -0.237 OA
ATOM     88  O   UNL A   1      33.372  34.471  30.478  1.00  0.00    -0.237 OA
ATOM     89  O   UNL A   1      32.956  34.172  32.887  1.00  0.00    -0.744 OA
ENDBRANCH  85  86
ENDBRANCH  53  78
BRANCH  65  90
ATOM     90  C   UNL A   1      42.960  29.276  33.985  1.00  0.00     0.058 A 
ATOM     91  C   UNL A   1      43.160  29.516  35.357  1.00  0.00     0.135 A 
ATOM     92  C   UNL A   1      42.450  28.020  33.628  1.00  0.00     0.135 A 
ATOM     93  F   UNL A   1      43.557  30.719  35.794  1.00  0.00    -0.206 F 
ATOM     94  C   UNL A   1      42.892  28.543  36.325  1.00  0.00     0.059 A 
ATOM     95  C   UNL A   1      42.149  27.045  34.575  1.00  0.00     0.059 A 
ATOM     96  F   UNL A   1      42.180  27.749  32.340  1.00  0.00    -0.206 F 
ATOM     97  C   UNL A   1      42.382  27.309  35.923  1.00  0.00     0.060 A 
BRANCH  97  98
ATOM     98  S   UNL A   1      41.953  26.079  37.176  1.00  0.00     0.124 S 
ATOM     99  O   UNL A   1      42.148  24.825  36.456  1.00  0.00    -0.237 OA
ATOM    100  O   UNL A   1      42.916  26.357  38.236  1.00  0.00    -0.237 OA
ATOM    101  O   UNL A   1      40.566  26.398  37.508  1.00  0.00    -0.744 OA
ENDBRANCH  97  98
ENDBRANCH  65  90
ENDBRANCH  39  40
ENDBRANCH  32  34
ENDBRANCH  31  32
ENDBRANCH  30  31
ENDBRANCH   1  30
TORSDOF 19
ENDMDL
MODEL 3
REMARK VINA RESULT:     -11.5      1.409      1.976
REMARK SMILES Cc1nsc(NC(=O)[C@H]2Cc3[nH]cnc3C[NH2+]2)c1C(=O)OCCOCCOC(=O)c1ccc(-c2c3nc(c(-c4c(F)cc(S(=O)(=O)[O-])cc4F)c4ccc([nH]4)c(-c4c(F)cc(S(=O)(=O)[O-])cc4F)c4nc(c(-c5c(F)cc(S(=O)(=O)[O-])cc5F)c5ccc2[nH]5)C=C4)C=C3)cc1
REMARK SMILES IDX 25 1 24 2 23 3 22 4 21 5 19 6 20 7 18 8 1 9 2 10 3 11 4 12
REMARK SMILES IDX 5 13 6 14 7 15 8 17 9 18 10 19 17 20 11 21 16 22 12 25 15 26
REMARK SMILES IDX 13 27 14 29 26 30 27 31 28 32 29 33 30 34 31 35 95 36 32 37
REMARK SMILES IDX 94 38 33 39 34 40 35 41 88 42 36 43 93 44 87 45 89 46 37 47
REMARK SMILES IDX 92 48 86 49 85 50 38 52 72 53 51 54 71 55 52 56 55 57 70 58
REMARK SMILES IDX 90 59 53 60 54 61 69 63 91 64 56 65 39 66 40 67 49 68 41 69
REMARK SMILES IDX 42 70 48 71 50 72 43 73 44 74 45 75 46 76 47 77 73 78 74 79
REMARK SMILES IDX 83 80 75 81 76 82 82 83 84 84 77 85 78 86 79 87 80 88 81 89
REMARK SMILES IDX 57 90 58 91 67 92 59 93 60 94 66 95 68 96 61 97 62 98 63 99
REMARK SMILES IDX 64 100 65 101
REMARK H PARENT 6 16 17 23 17 24 12 28 89 51 55 62
REMARK Flexibility Score: inf
ROOT
ATOM      1  C   UNL A   1      32.551  30.298  26.553  1.00  0.00     0.202 C 
ENDROOT
BRANCH   1   2
ATOM      2  O   UNL A   1      31.488  29.565  27.150  1.00  0.00    -0.374 OA
BRANCH   2   3
ATOM      3  C   UNL A   1      31.706  28.231  27.615  1.00  0.00     0.202 C 
BRANCH   3   4
ATOM      4  C   UNL A   1      31.144  27.086  26.764  1.00  0.00     0.261 C 
BRANCH   4   5
ATOM      5  O   UNL A   1      32.061  26.730  25.715  1.00  0.00    -0.460 OA
BRANCH   5   6
ATOM      6  C   UNL A   1      31.591  26.854  24.441  1.00  0.00     0.343 C 
ATOM      7  O   UNL A   1      30.794  27.692  24.066  1.00  0.00    -0.246 OA
BRANCH   6   8
ATOM      8  C   UNL A   1      32.387  26.051  23.526  1.00  0.00     0.117 A 
ATOM      9  C   UNL A   1      33.938  27.852  22.469  1.00  0.00     0.069 C 
ATOM     10  C   UNL A   1      33.340  26.490  22.550  1.00  0.00     0.068 A 
ATOM     11  N   UNL A   1      33.712  25.571  21.653  1.00  0.00    -0.195 NA
ATOM     12  S   UNL A   1      32.851  24.177  21.945  1.00  0.00    -0.017 S 
ATOM     13  C   UNL A   1      32.288  24.672  23.477  1.00  0.00     0.131 A 
BRANCH  13  14
ATOM     14  N   UNL A   1      31.596  23.852  24.327  1.00  0.00    -0.310 N 
ATOM     15  C   UNL A   1      32.001  22.862  25.161  1.00  0.00     0.283 C 
ATOM     16  H   UNL A   1      30.625  24.009  24.334  1.00  0.00     0.171 HD
ATOM     17  O   UNL A   1      31.074  22.293  25.762  1.00  0.00    -0.268 OA
BRANCH  15  18
ATOM     18  C   UNL A   1      33.459  22.404  25.371  1.00  0.00     0.279 C 
ATOM     19  C   UNL A   1      34.175  22.496  26.755  1.00  0.00     0.131 C 
ATOM     20  N   UNL A   1      33.592  20.961  24.909  1.00  0.00    -0.331 N 
ATOM     21  C   UNL A   1      35.604  22.381  26.355  1.00  0.00     0.050 A 
ATOM     22  C   UNL A   1      34.990  20.436  24.893  1.00  0.00     0.320 C 
ATOM     23  H   UNL A   1      33.217  20.894  23.962  1.00  0.00     0.347 HD
ATOM     24  H   UNL A   1      33.080  20.395  25.586  1.00  0.00     0.347 HD
ATOM     25  N   UNL A   1      36.558  23.357  26.313  1.00  0.00    -0.348 N 
ATOM     26  C   UNL A   1      35.967  21.451  25.403  1.00  0.00     0.116 A 
ATOM     27  C   UNL A   1      37.381  23.037  25.261  1.00  0.00     0.197 A 
ATOM     28  H   UNL A   1      36.638  24.132  26.915  1.00  0.00     0.167 HD
ATOM     29  N   UNL A   1      37.091  21.862  24.741  1.00  0.00    -0.236 NA
ENDBRANCH  15  18
ENDBRANCH  13  14
ENDBRANCH   6   8
ENDBRANCH   5   6
ENDBRANCH   4   5
ENDBRANCH   3   4
ENDBRANCH   2   3
ENDBRANCH   1   2
BRANCH   1  30
ATOM     30  C   UNL A   1      33.451  31.150  27.436  1.00  0.00     0.261 C 
BRANCH  30  31
ATOM     31  O   UNL A   1      34.797  30.706  27.405  1.00  0.00    -0.460 OA
BRANCH  31  32
ATOM     32  C   UNL A   1      35.678  31.624  27.867  1.00  0.00     0.338 C 
ATOM     33  O   UNL A   1      35.709  32.812  27.602  1.00  0.00    -0.246 OA
BRANCH  32  34
ATOM     34  C   UNL A   1      36.683  30.939  28.681  1.00  0.00     0.060 A 
ATOM     35  C   UNL A   1      37.632  31.748  29.311  1.00  0.00     0.016 A 
ATOM     36  C   UNL A   1      36.837  29.550  28.569  1.00  0.00     0.016 A 
ATOM     37  C   UNL A   1      38.854  31.195  29.610  1.00  0.00     0.010 A 
ATOM     38  C   UNL A   1      38.055  29.000  28.871  1.00  0.00     0.010 A 
ATOM     39  C   UNL A   1      39.075  29.853  29.282  1.00  0.00    -0.014 A 
BRANCH  39  40
ATOM     40  C   UNL A   1      40.402  29.311  29.451  1.00  0.00     0.031 A 
ATOM     41  C   UNL A   1      40.791  29.257  30.875  1.00  0.00     0.074 A 
ATOM     42  C   UNL A   1      41.106  28.821  28.412  1.00  0.00     0.049 A 
ATOM     43  N   UNL A   1      41.617  30.033  31.491  1.00  0.00    -0.248 NA
ATOM     44  C   UNL A   1      39.980  28.412  31.770  1.00  0.00     0.031 C 
ATOM     45  C   UNL A   1      40.670  28.644  27.022  1.00  0.00     0.029 A 
ATOM     46  N   UNL A   1      42.361  28.297  28.402  1.00  0.00    -0.354 N 
ATOM     47  C   UNL A   1      41.635  29.569  32.800  1.00  0.00     0.074 A 
ATOM     48  C   UNL A   1      40.445  28.777  32.965  1.00  0.00     0.031 C 
ATOM     49  C   UNL A   1      41.554  27.854  26.368  1.00  0.00     0.029 A 
ATOM     50  C   UNL A   1      42.681  27.591  27.243  1.00  0.00     0.049 A 
ATOM     51  H   UNL A   1      42.990  28.406  29.151  1.00  0.00     0.167 HD
ATOM     52  C   UNL A   1      42.787  29.586  33.523  1.00  0.00     0.037 A 
ATOM     53  C   UNL A   1      43.776  26.806  27.063  1.00  0.00     0.037 A 
ATOM     54  C   UNL A   1      43.758  30.470  32.926  1.00  0.00     0.049 A 
ATOM     55  C   UNL A   1      44.783  27.257  28.060  1.00  0.00     0.074 A 
ATOM     56  C   UNL A   1      43.831  31.826  32.679  1.00  0.00     0.029 A 
ATOM     57  N   UNL A   1      44.695  29.878  32.116  1.00  0.00    -0.354 N 
ATOM     58  N   UNL A   1      45.323  28.448  28.045  1.00  0.00    -0.248 NA
ATOM     59  C   UNL A   1      44.822  26.578  29.345  1.00  0.00     0.031 C 
ATOM     60  C   UNL A   1      44.529  31.946  31.441  1.00  0.00     0.029 A 
ATOM     61  C   UNL A   1      44.906  30.669  31.017  1.00  0.00     0.049 A 
ATOM     62  H   UNL A   1      45.144  29.020  32.296  1.00  0.00     0.167 HD
ATOM     63  C   UNL A   1      45.379  28.837  29.377  1.00  0.00     0.074 A 
ATOM     64  C   UNL A   1      45.147  27.607  30.134  1.00  0.00     0.031 C 
ATOM     65  C   UNL A   1      45.316  30.159  29.722  1.00  0.00     0.037 A 
BRANCH  52  66
ATOM     66  C   UNL A   1      43.184  28.476  34.467  1.00  0.00     0.058 A 
ATOM     67  C   UNL A   1      43.564  28.801  35.783  1.00  0.00     0.135 A 
ATOM     68  C   UNL A   1      43.483  27.155  34.057  1.00  0.00     0.135 A 
ATOM     69  F   UNL A   1      43.347  30.035  36.269  1.00  0.00    -0.206 F 
ATOM     70  C   UNL A   1      44.243  27.902  36.607  1.00  0.00     0.059 A 
ATOM     71  C   UNL A   1      44.105  26.227  34.881  1.00  0.00     0.059 A 
ATOM     72  F   UNL A   1      43.282  26.721  32.808  1.00  0.00    -0.206 F 
ATOM     73  C   UNL A   1      44.516  26.620  36.140  1.00  0.00     0.060 A 
BRANCH  73  74
ATOM     74  S   UNL A   1      45.464  25.483  37.163  1.00  0.00     0.124 S 
ATOM     75  O   UNL A   1      45.534  26.213  38.423  1.00  0.00    -0.237 OA
ATOM     76  O   UNL A   1      44.615  24.296  37.154  1.00  0.00    -0.237 OA
ATOM     77  O   UNL A   1      46.725  25.350  36.438  1.00  0.00    -0.744 OA
ENDBRANCH  73  74
ENDBRANCH  52  66
BRANCH  53  78
ATOM     78  C   UNL A   1      43.816  25.469  26.405  1.00  0.00     0.058 A 
ATOM     79  C   UNL A   1      44.660  25.191  25.314  1.00  0.00     0.135 A 
ATOM     80  C   UNL A   1      43.209  24.350  27.012  1.00  0.00     0.135 A 
ATOM     81  F   UNL A   1      45.316  26.188  24.701  1.00  0.00    -0.206 F 
ATOM     82  C   UNL A   1      44.892  23.883  24.858  1.00  0.00     0.059 A 
ATOM     83  C   UNL A   1      43.422  23.043  26.575  1.00  0.00     0.059 A 
ATOM     84  F   UNL A   1      42.451  24.488  28.110  1.00  0.00    -0.206 F 
ATOM     85  C   UNL A   1      44.275  22.812  25.504  1.00  0.00     0.060 A 
BRANCH  85  86
ATOM     86  S   UNL A   1      44.651  21.114  25.002  1.00  0.00     0.124 S 
ATOM     87  O   UNL A   1      43.616  20.356  25.696  1.00  0.00    -0.237 OA
ATOM     88  O   UNL A   1      44.526  21.184  23.551  1.00  0.00    -0.237 OA
ATOM     89  O   UNL A   1      46.010  20.906  25.497  1.00  0.00    -0.744 OA
ENDBRANCH  85  86
ENDBRANCH  53  78
BRANCH  65  90
ATOM     90  C   UNL A   1      45.501  31.181  28.624  1.00  0.00     0.058 A 
ATOM     91  C   UNL A   1      44.458  31.713  27.844  1.00  0.00     0.135 A 
ATOM     92  C   UNL A   1      46.770  31.754  28.464  1.00  0.00     0.135 A 
ATOM     93  F   UNL A   1      43.197  31.289  27.999  1.00  0.00    -0.206 F 
ATOM     94  C   UNL A   1      44.674  32.747  26.927  1.00  0.00     0.059 A 
ATOM     95  C   UNL A   1      47.004  32.803  27.578  1.00  0.00     0.059 A 
ATOM     96  F   UNL A   1      47.795  31.331  29.223  1.00  0.00    -0.206 F 
ATOM     97  C   UNL A   1      45.952  33.289  26.804  1.00  0.00     0.060 A 
BRANCH  97  98
ATOM     98  S   UNL A   1      46.220  34.682  25.684  1.00  0.00     0.124 S 
ATOM     99  O   UNL A   1      45.930  35.826  26.541  1.00  0.00    -0.237 OA
ATOM    100  O   UNL A   1      47.618  34.516  25.301  1.00  0.00    -0.237 OA
ATOM    101  O   UNL A   1      45.257  34.446  24.610  1.00  0.00    -0.744 OA
ENDBRANCH  97  98
ENDBRANCH  65  90
ENDBRANCH  39  40
ENDBRANCH  32  34
ENDBRANCH  31  32
ENDBRANCH  30  31
ENDBRANCH   1  30
TORSDOF 19
ENDMDL
