MODEL 1
REMARK VINA RESULT:     -11.9      0.000      0.000
REMARK SMILES Cc1ccc(C[C@H](C(=O)OCCOCCOC(=O)c2ccc(-c3c4nc(c(-c5c(F)cc(S(=O)(=O)[O-])cc5F)c5ccc([nH]5)c(-c5c(F)cc(S(=O)(=O)[O-])cc5F)c5nc(c(-c6c(F)cc(S(=O)(=O)[O-])cc6F)c6ccc3[nH]6)C=C5)C=C4)cc2)[C@@H]2CCCC[C@@H]2O)cc1
REMARK SMILES IDX 14 1 13 2 12 3 11 4 10 5 8 6 9 7 7 8 6 9 5 10 1 11 2 12 3 13
REMARK SMILES IDX 93 14 4 15 92 16 85 17 86 18 90 19 87 20 89 21 88 22 91 23
REMARK SMILES IDX 15 25 16 26 17 27 18 28 19 29 20 30 84 31 21 32 83 33 22 34
REMARK SMILES IDX 23 35 24 36 77 37 25 38 82 39 76 40 78 41 26 42 81 43 75 44
REMARK SMILES IDX 74 45 27 47 61 48 40 49 60 50 41 51 44 52 59 53 79 54 42 55
REMARK SMILES IDX 43 56 58 58 80 59 45 60 28 61 29 62 38 63 30 64 31 65 37 66
REMARK SMILES IDX 39 67 32 68 33 69 34 70 35 71 36 72 62 73 63 74 72 75 64 76
REMARK SMILES IDX 65 77 71 78 73 79 66 80 67 81 68 82 69 83 70 84 46 85 47 86
REMARK SMILES IDX 56 87 48 88 49 89 55 90 57 91 50 92 51 93 52 94 53 95 54 96
REMARK H PARENT 91 24 78 46 44 57
REMARK Flexibility Score: inf
ROOT
ATOM      1  C   UNL A   1      33.812  28.495  25.254  1.00  0.00     0.202 C 
ENDROOT
BRANCH   1   2
ATOM      2  O   UNL A   1      32.567  27.929  24.891  1.00  0.00    -0.374 OA
BRANCH   2   3
ATOM      3  C   UNL A   1      31.971  28.451  23.707  1.00  0.00     0.202 C 
BRANCH   3   4
ATOM      4  C   UNL A   1      31.833  27.292  22.764  1.00  0.00     0.261 C 
BRANCH   4   5
ATOM      5  O   UNL A   1      32.322  26.095  23.373  1.00  0.00    -0.463 OA
BRANCH   5   6
ATOM      6  C   UNL A   1      33.233  25.368  22.701  1.00  0.00     0.309 C 
ATOM      7  O   UNL A   1      33.713  25.685  21.617  1.00  0.00    -0.252 OA
BRANCH   6   8
ATOM      8  C   UNL A   1      33.694  24.177  23.534  1.00  0.00     0.109 C 
BRANCH   8   9
ATOM      9  C   UNL A   1      34.741  24.548  24.628  1.00  0.00     0.051 C 
BRANCH   9  10
ATOM     10  C   UNL A   1      36.034  23.769  24.850  1.00  0.00    -0.047 A 
ATOM     11  C   UNL A   1      39.117  20.900  25.846  1.00  0.00     0.044 C 
ATOM     12  C   UNL A   1      38.165  21.980  25.406  1.00  0.00    -0.051 A 
ATOM     13  C   UNL A   1      38.032  23.176  26.119  1.00  0.00     0.004 A 
ATOM     14  C   UNL A   1      37.320  21.759  24.316  1.00  0.00     0.004 A 
ATOM     15  C   UNL A   1      37.001  24.083  25.815  1.00  0.00     0.004 A 
ATOM     16  C   UNL A   1      36.259  22.633  24.056  1.00  0.00     0.004 A 
ENDBRANCH   9  10
ENDBRANCH   8   9
BRANCH   8  17
ATOM     17  C   UNL A   1      32.373  23.509  24.099  1.00  0.00     0.032 C 
ATOM     18  C   UNL A   1      32.285  23.325  25.621  1.00  0.00     0.007 C 
ATOM     19  C   UNL A   1      32.046  22.144  23.425  1.00  0.00     0.118 C 
ATOM     20  C   UNL A   1      33.202  22.228  26.141  1.00  0.00     0.001 C 
ATOM     21  C   UNL A   1      32.972  21.032  23.916  1.00  0.00     0.032 C 
ATOM     22  C   UNL A   1      32.972  20.899  25.433  1.00  0.00     0.003 C 
BRANCH  19  23
ATOM     23  O   UNL A   1      32.144  22.157  22.009  1.00  0.00    -0.393 OA
ATOM     24  H   UNL A   1      32.073  21.250  21.671  1.00  0.00     0.210 HD
ENDBRANCH  19  23
ENDBRANCH   8  17
ENDBRANCH   6   8
ENDBRANCH   5   6
ENDBRANCH   4   5
ENDBRANCH   3   4
ENDBRANCH   2   3
ENDBRANCH   1   2
BRANCH   1  25
ATOM     25  C   UNL A   1      33.993  28.736  26.760  1.00  0.00     0.261 C 
BRANCH  25  26
ATOM     26  O   UNL A   1      35.388  28.677  27.122  1.00  0.00    -0.460 OA
BRANCH  26  27
ATOM     27  C   UNL A   1      35.908  29.816  27.671  1.00  0.00     0.338 C 
ATOM     28  O   UNL A   1      35.291  30.853  27.798  1.00  0.00    -0.246 OA
BRANCH  27  29
ATOM     29  C   UNL A   1      37.324  29.578  28.081  1.00  0.00     0.060 A 
ATOM     30  C   UNL A   1      38.364  29.564  27.134  1.00  0.00     0.016 A 
ATOM     31  C   UNL A   1      37.576  29.183  29.393  1.00  0.00     0.016 A 
ATOM     32  C   UNL A   1      39.628  29.058  27.481  1.00  0.00     0.010 A 
ATOM     33  C   UNL A   1      38.787  28.607  29.704  1.00  0.00     0.010 A 
ATOM     34  C   UNL A   1      39.821  28.532  28.757  1.00  0.00    -0.014 A 
BRANCH  34  35
ATOM     35  C   UNL A   1      40.999  27.809  29.235  1.00  0.00     0.031 A 
ATOM     36  C   UNL A   1      41.183  26.408  28.815  1.00  0.00     0.074 A 
ATOM     37  C   UNL A   1      42.052  28.472  29.764  1.00  0.00     0.049 A 
ATOM     38  N   UNL A   1      42.084  25.627  29.298  1.00  0.00    -0.248 NA
ATOM     39  C   UNL A   1      40.347  25.767  27.804  1.00  0.00     0.031 C 
ATOM     40  C   UNL A   1      43.465  28.085  29.778  1.00  0.00     0.029 A 
ATOM     41  N   UNL A   1      42.032  29.626  30.546  1.00  0.00    -0.354 N 
ATOM     42  C   UNL A   1      42.185  24.561  28.443  1.00  0.00     0.074 A 
ATOM     43  C   UNL A   1      41.021  24.636  27.592  1.00  0.00     0.031 C 
ATOM     44  C   UNL A   1      44.096  28.776  30.744  1.00  0.00     0.029 A 
ATOM     45  C   UNL A   1      43.064  29.488  31.480  1.00  0.00     0.049 A 
ATOM     46  H   UNL A   1      41.413  30.387  30.458  1.00  0.00     0.167 HD
ATOM     47  C   UNL A   1      43.332  23.827  28.423  1.00  0.00     0.037 A 
ATOM     48  C   UNL A   1      42.774  29.432  32.808  1.00  0.00     0.037 A 
ATOM     49  C   UNL A   1      44.329  24.350  29.366  1.00  0.00     0.049 A 
ATOM     50  C   UNL A   1      43.342  28.197  33.414  1.00  0.00     0.074 A 
ATOM     51  C   UNL A   1      45.502  25.075  29.236  1.00  0.00     0.029 A 
ATOM     52  N   UNL A   1      44.002  24.426  30.713  1.00  0.00    -0.354 N 
ATOM     53  N   UNL A   1      43.680  27.169  32.686  1.00  0.00    -0.248 NA
ATOM     54  C   UNL A   1      43.631  28.001  34.825  1.00  0.00     0.031 C 
ATOM     55  C   UNL A   1      45.909  25.519  30.529  1.00  0.00     0.029 A 
ATOM     56  C   UNL A   1      44.977  25.071  31.448  1.00  0.00     0.049 A 
ATOM     57  H   UNL A   1      43.173  24.063  31.100  1.00  0.00     0.167 HD
ATOM     58  C   UNL A   1      44.294  26.240  33.457  1.00  0.00     0.074 A 
ATOM     59  C   UNL A   1      44.164  26.765  34.808  1.00  0.00     0.031 C 
ATOM     60  C   UNL A   1      44.857  25.131  32.898  1.00  0.00     0.037 A 
BRANCH  47  61
ATOM     61  C   UNL A   1      43.605  22.818  27.334  1.00  0.00     0.058 A 
ATOM     62  C   UNL A   1      42.843  21.641  27.214  1.00  0.00     0.135 A 
ATOM     63  C   UNL A   1      44.637  22.959  26.379  1.00  0.00     0.135 A 
ATOM     64  F   UNL A   1      41.779  21.408  27.990  1.00  0.00    -0.206 F 
ATOM     65  C   UNL A   1      43.140  20.639  26.287  1.00  0.00     0.059 A 
ATOM     66  C   UNL A   1      44.998  21.943  25.490  1.00  0.00     0.059 A 
ATOM     67  F   UNL A   1      45.309  24.113  26.248  1.00  0.00    -0.206 F 
ATOM     68  C   UNL A   1      44.234  20.786  25.446  1.00  0.00     0.060 A 
BRANCH  68  69
ATOM     69  S   UNL A   1      44.611  19.470  24.276  1.00  0.00     0.124 S 
ATOM     70  O   UNL A   1      46.012  19.179  24.570  1.00  0.00    -0.237 OA
ATOM     71  O   UNL A   1      43.654  18.442  24.668  1.00  0.00    -0.237 OA
ATOM     72  O   UNL A   1      44.369  20.091  22.977  1.00  0.00    -0.744 OA
ENDBRANCH  68  69
ENDBRANCH  47  61
BRANCH  48  73
ATOM     73  C   UNL A   1      41.556  30.219  33.166  1.00  0.00     0.058 A 
ATOM     74  C   UNL A   1      40.424  29.439  33.456  1.00  0.00     0.135 A 
ATOM     75  C   UNL A   1      41.559  31.524  33.671  1.00  0.00     0.135 A 
ATOM     76  F   UNL A   1      40.389  28.176  33.016  1.00  0.00    -0.206 F 
ATOM     77  C   UNL A   1      39.438  29.855  34.341  1.00  0.00     0.059 A 
ATOM     78  C   UNL A   1      40.541  31.984  34.532  1.00  0.00     0.059 A 
ATOM     79  F   UNL A   1      42.599  32.335  33.432  1.00  0.00    -0.206 F 
ATOM     80  C   UNL A   1      39.515  31.117  34.906  1.00  0.00     0.060 A 
BRANCH  80  81
ATOM     81  S   UNL A   1      38.361  31.489  36.255  1.00  0.00     0.124 S 
ATOM     82  O   UNL A   1      38.016  30.153  36.731  1.00  0.00    -0.237 OA
ATOM     83  O   UNL A   1      39.184  32.280  37.168  1.00  0.00    -0.237 OA
ATOM     84  O   UNL A   1      37.295  32.225  35.587  1.00  0.00    -0.744 OA
ENDBRANCH  80  81
ENDBRANCH  48  73
BRANCH  60  85
ATOM     85  C   UNL A   1      45.244  23.948  33.715  1.00  0.00     0.058 A 
ATOM     86  C   UNL A   1      44.368  22.908  34.042  1.00  0.00     0.135 A 
ATOM     87  C   UNL A   1      46.580  23.813  34.147  1.00  0.00     0.135 A 
ATOM     88  F   UNL A   1      43.050  23.015  33.808  1.00  0.00    -0.206 F 
ATOM     89  C   UNL A   1      44.833  21.722  34.598  1.00  0.00     0.059 A 
ATOM     90  C   UNL A   1      47.052  22.668  34.758  1.00  0.00     0.059 A 
ATOM     91  F   UNL A   1      47.498  24.765  33.939  1.00  0.00    -0.206 F 
ATOM     92  C   UNL A   1      46.185  21.602  34.918  1.00  0.00     0.060 A 
BRANCH  92  93
ATOM     93  S   UNL A   1      46.823  20.035  35.518  1.00  0.00     0.124 S 
ATOM     94  O   UNL A   1      45.601  19.288  35.800  1.00  0.00    -0.237 OA
ATOM     95  O   UNL A   1      47.593  19.579  34.364  1.00  0.00    -0.237 OA
ATOM     96  O   UNL A   1      47.607  20.414  36.689  1.00  0.00    -0.744 OA
ENDBRANCH  92  93
ENDBRANCH  60  85
ENDBRANCH  34  35
ENDBRANCH  27  29
ENDBRANCH  26  27
ENDBRANCH  25  26
ENDBRANCH   1  25
TORSDOF 21
ENDMDL
MODEL 2
REMARK VINA RESULT:     -11.6      2.030      2.719
REMARK SMILES Cc1ccc(C[C@H](C(=O)OCCOCCOC(=O)c2ccc(-c3c4nc(c(-c5c(F)cc(S(=O)(=O)[O-])cc5F)c5ccc([nH]5)c(-c5c(F)cc(S(=O)(=O)[O-])cc5F)c5nc(c(-c6c(F)cc(S(=O)(=O)[O-])cc6F)c6ccc3[nH]6)C=C5)C=C4)cc2)[C@@H]2CCCC[C@@H]2O)cc1
REMARK SMILES IDX 14 1 13 2 12 3 11 4 10 5 8 6 9 7 7 8 6 9 5 10 1 11 2 12 3 13
REMARK SMILES IDX 93 14 4 15 92 16 85 17 86 18 90 19 87 20 89 21 88 22 91 23
REMARK SMILES IDX 15 25 16 26 17 27 18 28 19 29 20 30 84 31 21 32 83 33 22 34
REMARK SMILES IDX 23 35 24 36 77 37 25 38 82 39 76 40 78 41 26 42 81 43 75 44
REMARK SMILES IDX 74 45 27 47 61 48 40 49 60 50 41 51 44 52 59 53 79 54 42 55
REMARK SMILES IDX 43 56 58 58 80 59 45 60 28 61 29 62 38 63 30 64 31 65 37 66
REMARK SMILES IDX 39 67 32 68 33 69 34 70 35 71 36 72 62 73 63 74 72 75 64 76
REMARK SMILES IDX 65 77 71 78 73 79 66 80 67 81 68 82 69 83 70 84 46 85 47 86
REMARK SMILES IDX 56 87 48 88 49 89 55 90 57 91 50 92 51 93 52 94 53 95 54 96
REMARK H PARENT 91 24 78 46 44 57
REMARK Flexibility Score: inf
ROOT
ATOM      1  C   UNL A   1      31.939  28.309  25.663  1.00  0.00     0.202 C 
ENDROOT
BRANCH   1   2
ATOM      2  O   UNL A   1      32.736  27.600  24.733  1.00  0.00    -0.374 OA
BRANCH   2   3
ATOM      3  C   UNL A   1      32.868  28.200  23.446  1.00  0.00     0.202 C 
BRANCH   3   4
ATOM      4  C   UNL A   1      31.845  27.539  22.571  1.00  0.00     0.261 C 
BRANCH   4   5
ATOM      5  O   UNL A   1      31.859  26.125  22.773  1.00  0.00    -0.463 OA
BRANCH   5   6
ATOM      6  C   UNL A   1      32.796  25.402  22.131  1.00  0.00     0.309 C 
ATOM      7  O   UNL A   1      33.307  25.718  21.063  1.00  0.00    -0.252 OA
BRANCH   6   8
ATOM      8  C   UNL A   1      33.238  24.216  22.982  1.00  0.00     0.109 C 
BRANCH   8   9
ATOM      9  C   UNL A   1      34.156  24.613  24.178  1.00  0.00     0.051 C 
BRANCH   9  10
ATOM     10  C   UNL A   1      35.463  23.897  24.505  1.00  0.00    -0.047 A 
ATOM     11  C   UNL A   1      38.603  21.114  25.564  1.00  0.00     0.044 C 
ATOM     12  C   UNL A   1      37.636  22.188  25.143  1.00  0.00    -0.051 A 
ATOM     13  C   UNL A   1      37.260  23.218  26.011  1.00  0.00     0.004 A 
ATOM     14  C   UNL A   1      37.021  22.117  23.891  1.00  0.00     0.004 A 
ATOM     15  C   UNL A   1      36.211  24.093  25.675  1.00  0.00     0.004 A 
ATOM     16  C   UNL A   1      35.938  22.948  23.586  1.00  0.00     0.004 A 
ENDBRANCH   9  10
ENDBRANCH   8   9
BRANCH   8  17
ATOM     17  C   UNL A   1      31.907  23.469  23.406  1.00  0.00     0.032 C 
ATOM     18  C   UNL A   1      31.566  23.453  24.903  1.00  0.00     0.007 C 
ATOM     19  C   UNL A   1      31.836  22.006  22.876  1.00  0.00     0.118 C 
ATOM     20  C   UNL A   1      32.475  22.538  25.711  1.00  0.00     0.001 C 
ATOM     21  C   UNL A   1      32.760  21.074  23.659  1.00  0.00     0.032 C 
ATOM     22  C   UNL A   1      32.501  21.119  25.158  1.00  0.00     0.003 C 
BRANCH  19  23
ATOM     23  O   UNL A   1      32.184  21.866  21.507  1.00  0.00    -0.393 OA
ATOM     24  H   UNL A   1      32.554  20.982  21.357  1.00  0.00     0.210 HD
ENDBRANCH  19  23
ENDBRANCH   8  17
ENDBRANCH   6   8
ENDBRANCH   5   6
ENDBRANCH   4   5
ENDBRANCH   3   4
ENDBRANCH   2   3
ENDBRANCH   1   2
BRANCH   1  25
ATOM     25  C   UNL A   1      32.423  28.225  27.118  1.00  0.00     0.261 C 
BRANCH  25  26
ATOM     26  O   UNL A   1      33.817  28.581  27.213  1.00  0.00    -0.460 OA
BRANCH  26  27
ATOM     27  C   UNL A   1      34.078  29.872  27.580  1.00  0.00     0.338 C 
ATOM     28  O   UNL A   1      33.278  30.779  27.486  1.00  0.00    -0.246 OA
BRANCH  27  29
ATOM     29  C   UNL A   1      35.472  29.976  28.103  1.00  0.00     0.060 A 
ATOM     30  C   UNL A   1      36.548  30.286  27.252  1.00  0.00     0.016 A 
ATOM     31  C   UNL A   1      35.718  29.578  29.416  1.00  0.00     0.016 A 
ATOM     32  C   UNL A   1      37.871  30.097  27.689  1.00  0.00     0.010 A 
ATOM     33  C   UNL A   1      37.009  29.311  29.809  1.00  0.00     0.010 A 
ATOM     34  C   UNL A   1      38.096  29.560  28.955  1.00  0.00    -0.014 A 
BRANCH  34  35
ATOM     35  C   UNL A   1      39.382  29.132  29.506  1.00  0.00     0.031 A 
ATOM     36  C   UNL A   1      39.980  27.882  29.005  1.00  0.00     0.074 A 
ATOM     37  C   UNL A   1      40.161  29.993  30.198  1.00  0.00     0.049 A 
ATOM     38  N   UNL A   1      41.016  27.323  29.526  1.00  0.00    -0.248 NA
ATOM     39  C   UNL A   1      39.445  27.148  27.862  1.00  0.00     0.031 C 
ATOM     40  C   UNL A   1      41.619  29.998  30.341  1.00  0.00     0.029 A 
ATOM     41  N   UNL A   1      39.756  31.013  31.057  1.00  0.00    -0.354 N 
ATOM     42  C   UNL A   1      41.482  26.416  28.611  1.00  0.00     0.074 A 
ATOM     43  C   UNL A   1      40.421  26.265  27.643  1.00  0.00     0.031 C 
ATOM     44  C   UNL A   1      41.949  30.729  31.421  1.00  0.00     0.029 A 
ATOM     45  C   UNL A   1      40.700  31.061  32.088  1.00  0.00     0.049 A 
ATOM     46  H   UNL A   1      38.961  31.587  30.958  1.00  0.00     0.167 HD
ATOM     47  C   UNL A   1      42.783  26.021  28.664  1.00  0.00     0.037 A 
ATOM     48  C   UNL A   1      40.322  30.793  33.367  1.00  0.00     0.037 A 
ATOM     49  C   UNL A   1      43.511  26.690  29.749  1.00  0.00     0.049 A 
ATOM     50  C   UNL A   1      41.154  29.699  33.938  1.00  0.00     0.074 A 
ATOM     51  C   UNL A   1      44.446  27.712  29.805  1.00  0.00     0.029 A 
ATOM     52  N   UNL A   1      43.060  26.538  31.053  1.00  0.00    -0.354 N 
ATOM     53  N   UNL A   1      41.824  28.879  33.178  1.00  0.00    -0.248 NA
ATOM     54  C   UNL A   1      41.361  29.443  35.354  1.00  0.00     0.031 C 
ATOM     55  C   UNL A   1      44.600  28.113  31.166  1.00  0.00     0.029 A 
ATOM     56  C   UNL A   1      43.752  27.341  31.938  1.00  0.00     0.049 A 
ATOM     57  H   UNL A   1      42.333  25.930  31.316  1.00  0.00     0.167 HD
ATOM     58  C   UNL A   1      42.601  28.073  33.940  1.00  0.00     0.074 A 
ATOM     59  C   UNL A   1      42.214  28.403  35.304  1.00  0.00     0.031 C 
ATOM     60  C   UNL A   1      43.494  27.218  33.367  1.00  0.00     0.037 A 
BRANCH  47  61
ATOM     61  C   UNL A   1      43.417  25.239  27.539  1.00  0.00     0.058 A 
ATOM     62  C   UNL A   1      43.171  23.863  27.369  1.00  0.00     0.135 A 
ATOM     63  C   UNL A   1      44.307  25.804  26.598  1.00  0.00     0.135 A 
ATOM     64  F   UNL A   1      42.286  23.207  28.128  1.00  0.00    -0.206 F 
ATOM     65  C   UNL A   1      43.825  23.091  26.407  1.00  0.00     0.059 A 
ATOM     66  C   UNL A   1      45.027  25.042  25.674  1.00  0.00     0.059 A 
ATOM     67  F   UNL A   1      44.478  27.133  26.516  1.00  0.00    -0.206 F 
ATOM     68  C   UNL A   1      44.771  23.682  25.580  1.00  0.00     0.060 A 
BRANCH  68  69
ATOM     69  S   UNL A   1      45.619  22.661  24.364  1.00  0.00     0.124 S 
ATOM     70  O   UNL A   1      46.556  23.603  23.760  1.00  0.00    -0.237 OA
ATOM     71  O   UNL A   1      46.212  21.628  25.207  1.00  0.00    -0.237 OA
ATOM     72  O   UNL A   1      44.542  22.212  23.486  1.00  0.00    -0.744 OA
ENDBRANCH  68  69
ENDBRANCH  47  61
BRANCH  48  73
ATOM     73  C   UNL A   1      38.908  31.186  33.644  1.00  0.00     0.058 A 
ATOM     74  C   UNL A   1      38.724  32.554  33.903  1.00  0.00     0.135 A 
ATOM     75  C   UNL A   1      37.777  30.474  33.227  1.00  0.00     0.135 A 
ATOM     76  F   UNL A   1      39.783  33.280  34.279  1.00  0.00    -0.206 F 
ATOM     77  C   UNL A   1      37.545  33.220  33.597  1.00  0.00     0.059 A 
ATOM     78  C   UNL A   1      36.555  31.123  32.959  1.00  0.00     0.059 A 
ATOM     79  F   UNL A   1      37.868  29.162  32.967  1.00  0.00    -0.206 F 
ATOM     80  C   UNL A   1      36.469  32.509  33.092  1.00  0.00     0.060 A 
BRANCH  80  81
ATOM     81  S   UNL A   1      35.070  33.470  32.456  1.00  0.00     0.124 S 
ATOM     82  O   UNL A   1      34.397  32.493  31.606  1.00  0.00    -0.237 OA
ATOM     83  O   UNL A   1      34.351  33.831  33.677  1.00  0.00    -0.237 OA
ATOM     84  O   UNL A   1      35.715  34.580  31.766  1.00  0.00    -0.744 OA
ENDBRANCH  80  81
ENDBRANCH  48  73
BRANCH  60  85
ATOM     85  C   UNL A   1      44.119  26.103  34.130  1.00  0.00     0.058 A 
ATOM     86  C   UNL A   1      43.404  25.021  34.653  1.00  0.00     0.135 A 
ATOM     87  C   UNL A   1      45.519  26.081  34.300  1.00  0.00     0.135 A 
ATOM     88  F   UNL A   1      42.061  25.025  34.676  1.00  0.00    -0.206 F 
ATOM     89  C   UNL A   1      44.056  23.896  35.147  1.00  0.00     0.059 A 
ATOM     90  C   UNL A   1      46.186  25.000  34.844  1.00  0.00     0.059 A 
ATOM     91  F   UNL A   1      46.305  27.084  33.888  1.00  0.00    -0.206 F 
ATOM     92  C   UNL A   1      45.449  23.885  35.202  1.00  0.00     0.060 A 
BRANCH  92  93
ATOM     93  S   UNL A   1      46.308  22.396  35.717  1.00  0.00     0.124 S 
ATOM     94  O   UNL A   1      47.573  22.922  36.220  1.00  0.00    -0.237 OA
ATOM     95  O   UNL A   1      45.392  21.871  36.726  1.00  0.00    -0.237 OA
ATOM     96  O   UNL A   1      46.403  21.616  34.486  1.00  0.00    -0.744 OA
ENDBRANCH  92  93
ENDBRANCH  60  85
ENDBRANCH  34  35
ENDBRANCH  27  29
ENDBRANCH  26  27
ENDBRANCH  25  26
ENDBRANCH   1  25
TORSDOF 21
ENDMDL
MODEL 3
REMARK VINA RESULT:     -11.5      4.878     11.127
REMARK SMILES Cc1ccc(C[C@H](C(=O)OCCOCCOC(=O)c2ccc(-c3c4nc(c(-c5c(F)cc(S(=O)(=O)[O-])cc5F)c5ccc([nH]5)c(-c5c(F)cc(S(=O)(=O)[O-])cc5F)c5nc(c(-c6c(F)cc(S(=O)(=O)[O-])cc6F)c6ccc3[nH]6)C=C5)C=C4)cc2)[C@@H]2CCCC[C@@H]2O)cc1
REMARK SMILES IDX 14 1 13 2 12 3 11 4 10 5 8 6 9 7 7 8 6 9 5 10 1 11 2 12 3 13
REMARK SMILES IDX 93 14 4 15 92 16 85 17 86 18 90 19 87 20 89 21 88 22 91 23
REMARK SMILES IDX 15 25 16 26 17 27 18 28 19 29 20 30 84 31 21 32 83 33 22 34
REMARK SMILES IDX 23 35 24 36 77 37 25 38 82 39 76 40 78 41 26 42 81 43 75 44
REMARK SMILES IDX 74 45 27 47 61 48 40 49 60 50 41 51 44 52 59 53 79 54 42 55
REMARK SMILES IDX 43 56 58 58 80 59 45 60 28 61 29 62 38 63 30 64 31 65 37 66
REMARK SMILES IDX 39 67 32 68 33 69 34 70 35 71 36 72 62 73 63 74 72 75 64 76
REMARK SMILES IDX 65 77 71 78 73 79 66 80 67 81 68 82 69 83 70 84 46 85 47 86
REMARK SMILES IDX 56 87 48 88 49 89 55 90 57 91 50 92 51 93 52 94 53 95 54 96
REMARK H PARENT 91 24 78 46 44 57
REMARK Flexibility Score: inf
ROOT
ATOM      1  C   UNL A   1      36.330  22.069  25.762  1.00  0.00     0.202 C 
ENDROOT
BRANCH   1   2
ATOM      2  O   UNL A   1      34.929  21.897  25.858  1.00  0.00    -0.374 OA
BRANCH   2   3
ATOM      3  C   UNL A   1      34.278  22.667  26.866  1.00  0.00     0.202 C 
BRANCH   3   4
ATOM      4  C   UNL A   1      32.820  22.668  26.514  1.00  0.00     0.261 C 
BRANCH   4   5
ATOM      5  O   UNL A   1      32.126  23.655  27.279  1.00  0.00    -0.463 OA
BRANCH   5   6
ATOM      6  C   UNL A   1      30.946  24.105  26.812  1.00  0.00     0.309 C 
ATOM      7  O   UNL A   1      29.853  23.647  27.129  1.00  0.00    -0.252 OA
BRANCH   6   8
ATOM      8  C   UNL A   1      31.145  25.350  25.953  1.00  0.00     0.109 C 
BRANCH   8   9
ATOM      9  C   UNL A   1      32.566  25.978  26.084  1.00  0.00     0.051 C 
BRANCH   9  10
ATOM     10  C   UNL A   1      32.806  27.464  26.331  1.00  0.00    -0.047 A 
ATOM     11  C   UNL A   1      33.807  31.381  27.875  1.00  0.00     0.044 C 
ATOM     12  C   UNL A   1      33.443  30.094  27.183  1.00  0.00    -0.051 A 
ATOM     13  C   UNL A   1      32.111  29.700  27.022  1.00  0.00     0.004 A 
ATOM     14  C   UNL A   1      34.450  29.219  26.770  1.00  0.00     0.004 A 
ATOM     15  C   UNL A   1      31.796  28.410  26.558  1.00  0.00     0.004 A 
ATOM     16  C   UNL A   1      34.134  27.917  26.368  1.00  0.00     0.004 A 
ENDBRANCH   9  10
ENDBRANCH   8   9
BRANCH   8  17
ATOM     17  C   UNL A   1      30.756  24.922  24.478  1.00  0.00     0.032 C 
ATOM     18  C   UNL A   1      31.894  24.878  23.447  1.00  0.00     0.007 C 
ATOM     19  C   UNL A   1      29.595  25.773  23.885  1.00  0.00     0.118 C 
ATOM     20  C   UNL A   1      32.384  26.261  23.043  1.00  0.00     0.001 C 
ATOM     21  C   UNL A   1      30.062  27.175  23.493  1.00  0.00     0.032 C 
ATOM     22  C   UNL A   1      31.252  27.151  22.546  1.00  0.00     0.003 C 
BRANCH  19  23
ATOM     23  O   UNL A   1      28.492  25.943  24.761  1.00  0.00    -0.393 OA
ATOM     24  H   UNL A   1      28.800  26.320  25.601  1.00  0.00     0.210 HD
ENDBRANCH  19  23
ENDBRANCH   8  17
ENDBRANCH   6   8
ENDBRANCH   5   6
ENDBRANCH   4   5
ENDBRANCH   3   4
ENDBRANCH   2   3
ENDBRANCH   1   2
BRANCH   1  25
ATOM     25  C   UNL A   1      36.777  23.479  25.348  1.00  0.00     0.261 C 
BRANCH  25  26
ATOM     26  O   UNL A   1      37.416  24.154  26.450  1.00  0.00    -0.460 OA
BRANCH  26  27
ATOM     27  C   UNL A   1      38.758  23.931  26.586  1.00  0.00     0.338 C 
ATOM     28  O   UNL A   1      39.335  22.963  26.136  1.00  0.00    -0.246 OA
BRANCH  27  29
ATOM     29  C   UNL A   1      39.380  25.047  27.358  1.00  0.00     0.060 A 
ATOM     30  C   UNL A   1      39.019  25.301  28.693  1.00  0.00     0.016 A 
ATOM     31  C   UNL A   1      40.190  25.953  26.674  1.00  0.00     0.016 A 
ATOM     32  C   UNL A   1      39.386  26.510  29.307  1.00  0.00     0.010 A 
ATOM     33  C   UNL A   1      40.471  27.173  27.247  1.00  0.00     0.010 A 
ATOM     34  C   UNL A   1      40.071  27.468  28.561  1.00  0.00    -0.014 A 
BRANCH  34  35
ATOM     35  C   UNL A   1      40.377  28.839  28.970  1.00  0.00     0.031 A 
ATOM     36  C   UNL A   1      39.306  29.849  28.900  1.00  0.00     0.074 A 
ATOM     37  C   UNL A   1      41.485  29.116  29.693  1.00  0.00     0.049 A 
ATOM     38  N   UNL A   1      39.496  31.109  29.075  1.00  0.00    -0.248 NA
ATOM     39  C   UNL A   1      37.913  29.510  28.618  1.00  0.00     0.031 C 
ATOM     40  C   UNL A   1      41.708  30.206  30.648  1.00  0.00     0.029 A 
ATOM     41  N   UNL A   1      42.737  28.509  29.608  1.00  0.00    -0.354 N 
ATOM     42  C   UNL A   1      38.265  31.671  29.291  1.00  0.00     0.074 A 
ATOM     43  C   UNL A   1      37.307  30.666  28.895  1.00  0.00     0.031 C 
ATOM     44  C   UNL A   1      43.032  30.376  30.813  1.00  0.00     0.029 A 
ATOM     45  C   UNL A   1      43.681  29.516  29.837  1.00  0.00     0.049 A 
ATOM     46  H   UNL A   1      42.921  27.559  29.423  1.00  0.00     0.167 HD
ATOM     47  C   UNL A   1      38.179  32.860  29.949  1.00  0.00     0.037 A 
ATOM     48  C   UNL A   1      44.561  29.855  28.856  1.00  0.00     0.037 A 
ATOM     49  C   UNL A   1      39.501  33.354  30.355  1.00  0.00     0.049 A 
ATOM     50  C   UNL A   1      44.479  31.312  28.563  1.00  0.00     0.074 A 
ATOM     51  C   UNL A   1      40.184  33.423  31.558  1.00  0.00     0.029 A 
ATOM     52  N   UNL A   1      40.461  33.580  29.378  1.00  0.00    -0.354 N 
ATOM     53  N   UNL A   1      43.439  32.022  28.902  1.00  0.00    -0.248 NA
ATOM     54  C   UNL A   1      45.520  32.110  27.936  1.00  0.00     0.031 C 
ATOM     55  C   UNL A   1      41.543  33.766  31.290  1.00  0.00     0.029 A 
ATOM     56  C   UNL A   1      41.689  33.898  29.922  1.00  0.00     0.049 A 
ATOM     57  H   UNL A   1      40.287  33.520  28.411  1.00  0.00     0.167 HD
ATOM     58  C   UNL A   1      43.672  33.331  28.650  1.00  0.00     0.074 A 
ATOM     59  C   UNL A   1      44.955  33.332  27.963  1.00  0.00     0.031 C 
ATOM     60  C   UNL A   1      42.782  34.288  29.040  1.00  0.00     0.037 A 
BRANCH  47  61
ATOM     61  C   UNL A   1      36.857  33.393  30.445  1.00  0.00     0.058 A 
ATOM     62  C   UNL A   1      35.888  33.901  29.559  1.00  0.00     0.135 A 
ATOM     63  C   UNL A   1      36.498  33.446  31.811  1.00  0.00     0.135 A 
ATOM     64  F   UNL A   1      36.047  33.839  28.232  1.00  0.00    -0.206 F 
ATOM     65  C   UNL A   1      34.705  34.499  29.994  1.00  0.00     0.059 A 
ATOM     66  C   UNL A   1      35.355  34.102  32.276  1.00  0.00     0.059 A 
ATOM     67  F   UNL A   1      37.232  32.822  32.746  1.00  0.00    -0.206 F 
ATOM     68  C   UNL A   1      34.457  34.620  31.354  1.00  0.00     0.060 A 
BRANCH  68  69
ATOM     69  S   UNL A   1      32.934  35.418  31.891  1.00  0.00     0.124 S 
ATOM     70  O   UNL A   1      33.417  36.687  32.429  1.00  0.00    -0.237 OA
ATOM     71  O   UNL A   1      32.187  35.502  30.641  1.00  0.00    -0.237 OA
ATOM     72  O   UNL A   1      32.396  34.491  32.883  1.00  0.00    -0.744 OA
ENDBRANCH  68  69
ENDBRANCH  47  61
BRANCH  48  73
ATOM     73  C   UNL A   1      44.911  28.704  27.972  1.00  0.00     0.058 A 
ATOM     74  C   UNL A   1      45.847  27.812  28.520  1.00  0.00     0.135 A 
ATOM     75  C   UNL A   1      44.104  28.204  26.942  1.00  0.00     0.135 A 
ATOM     76  F   UNL A   1      46.622  28.238  29.525  1.00  0.00    -0.206 F 
ATOM     77  C   UNL A   1      45.866  26.461  28.202  1.00  0.00     0.059 A 
ATOM     78  C   UNL A   1      44.144  26.845  26.568  1.00  0.00     0.059 A 
ATOM     79  F   UNL A   1      43.191  28.995  26.361  1.00  0.00    -0.206 F 
ATOM     80  C   UNL A   1      44.990  25.970  27.249  1.00  0.00     0.060 A 
BRANCH  80  81
ATOM     81  S   UNL A   1      44.873  24.168  27.084  1.00  0.00     0.124 S 
ATOM     82  O   UNL A   1      45.436  23.714  28.352  1.00  0.00    -0.237 OA
ATOM     83  O   UNL A   1      43.435  23.955  26.932  1.00  0.00    -0.237 OA
ATOM     84  O   UNL A   1      45.669  23.891  25.895  1.00  0.00    -0.744 OA
ENDBRANCH  80  81
ENDBRANCH  48  73
BRANCH  60  85
ATOM     85  C   UNL A   1      42.833  35.676  28.507  1.00  0.00     0.058 A 
ATOM     86  C   UNL A   1      42.458  36.024  27.205  1.00  0.00     0.135 A 
ATOM     87  C   UNL A   1      43.221  36.731  29.360  1.00  0.00     0.135 A 
ATOM     88  F   UNL A   1      42.221  35.082  26.279  1.00  0.00    -0.206 F 
ATOM     89  C   UNL A   1      42.298  37.354  26.832  1.00  0.00     0.059 A 
ATOM     90  C   UNL A   1      43.129  38.059  28.991  1.00  0.00     0.059 A 
ATOM     91  F   UNL A   1      43.648  36.518  30.611  1.00  0.00    -0.206 F 
ATOM     92  C   UNL A   1      42.601  38.361  27.748  1.00  0.00     0.060 A 
BRANCH  92  93
ATOM     93  S   UNL A   1      42.280  40.076  27.325  1.00  0.00     0.124 S 
ATOM     94  O   UNL A   1      43.620  40.592  27.071  1.00  0.00    -0.237 OA
ATOM     95  O   UNL A   1      41.423  39.926  26.152  1.00  0.00    -0.237 OA
ATOM     96  O   UNL A   1      41.625  40.603  28.519  1.00  0.00    -0.744 OA
ENDBRANCH  92  93
ENDBRANCH  60  85
ENDBRANCH  34  35
ENDBRANCH  27  29
ENDBRANCH  26  27
ENDBRANCH  25  26
ENDBRANCH   1  25
TORSDOF 21
ENDMDL
