MODEL 1
REMARK VINA RESULT:     -10.0      0.000      0.000
REMARK SMILES CC(C)C[C@H](CNC(=O)c1cc(F)ccc1Br)C(=O)OCCOCCOC(=O)c1ccc(-c2c3nc(c(-c4c(F)cc(S(=O)(=O)[O-])cc4F)c4ccc([nH]4)c(-c4c(F)cc(S(=O)(=O)[O-])cc4F)c4nc(c(-c5c(F)cc(S(=O)(=O)[O-])cc5F)c5ccc2[nH]5)C=C4)C=C3)cc1
REMARK SMILES IDX 23 1 22 2 21 3 20 4 18 5 19 6 5 7 4 8 2 9 1 10 3 11 6 12
REMARK SMILES IDX 7 13 8 14 9 16 10 17 11 18 16 19 12 20 15 21 17 22 13 23
REMARK SMILES IDX 14 24 24 25 25 26 26 27 27 28 28 29 29 30 30 31 94 32 31 33
REMARK SMILES IDX 93 34 32 35 33 36 34 37 87 38 35 39 92 40 86 41 88 42 36 43
REMARK SMILES IDX 91 44 85 45 84 46 37 48 71 49 50 50 70 51 51 52 54 53 69 54
REMARK SMILES IDX 89 55 52 56 53 57 68 59 90 60 55 61 38 62 39 63 48 64 40 65
REMARK SMILES IDX 41 66 47 67 49 68 42 69 43 70 44 71 45 72 46 73 72 74 73 75
REMARK SMILES IDX 82 76 74 77 75 78 81 79 83 80 76 81 77 82 78 83 79 84 80 85
REMARK SMILES IDX 56 86 57 87 66 88 58 89 59 90 65 91 67 92 60 93 61 94 62 95
REMARK SMILES IDX 63 96 64 97
REMARK H PARENT 7 15 88 47 54 58
REMARK Flexibility Score: inf
ROOT
ATOM      1  O   UNL A   1      34.616  31.960  27.579  1.00  0.00    -0.374 OA
ENDROOT
BRANCH   1   2
ATOM      2  C   UNL A   1      33.841  30.791  27.315  1.00  0.00     0.202 C 
BRANCH   2   3
ATOM      3  C   UNL A   1      32.583  30.990  26.466  1.00  0.00     0.261 C 
BRANCH   3   4
ATOM      4  O   UNL A   1      31.952  29.748  26.096  1.00  0.00    -0.463 OA
BRANCH   4   5
ATOM      5  C   UNL A   1      32.486  29.127  25.012  1.00  0.00     0.310 C 
ATOM      6  O   UNL A   1      33.670  28.840  24.878  1.00  0.00    -0.252 OA
BRANCH   5   7
ATOM      7  C   UNL A   1      31.462  28.818  23.944  1.00  0.00     0.118 C 
BRANCH   7   8
ATOM      8  C   UNL A   1      30.111  29.548  24.047  1.00  0.00     0.020 C 
BRANCH   8   9
ATOM      9  C   UNL A   1      29.088  29.412  22.901  1.00  0.00    -0.017 C 
ATOM     10  C   UNL A   1      27.710  29.988  23.245  1.00  0.00     0.007 C 
ATOM     11  C   UNL A   1      29.631  30.152  21.672  1.00  0.00     0.007 C 
ENDBRANCH   8   9
ENDBRANCH   7   8
BRANCH   7  12
ATOM     12  C   UNL A   1      31.348  27.320  23.624  1.00  0.00     0.131 C 
BRANCH  12  13
ATOM     13  N   UNL A   1      32.108  26.859  22.475  1.00  0.00    -0.351 N 
ATOM     14  C   UNL A   1      32.990  25.805  22.393  1.00  0.00     0.252 C 
ATOM     15  H   UNL A   1      31.973  27.368  21.642  1.00  0.00     0.163 HD
ATOM     16  O   UNL A   1      33.524  25.516  21.329  1.00  0.00    -0.269 OA
BRANCH  14  17
ATOM     17  C   UNL A   1      33.274  24.990  23.592  1.00  0.00     0.056 A 
ATOM     18  C   UNL A   1      34.478  25.212  24.274  1.00  0.00     0.054 A 
ATOM     19  C   UNL A   1      32.357  24.049  24.080  1.00  0.00     0.030 A 
ATOM     20  C   UNL A   1      34.770  24.461  25.406  1.00  0.00     0.124 A 
ATOM     21  C   UNL A   1      32.661  23.314  25.234  1.00  0.00     0.019 A 
ATOM     22  Br  UNL A   1      30.711  23.670  23.215  1.00  0.00    -0.050 Br
ATOM     23  F   UNL A   1      35.939  24.643  26.034  1.00  0.00    -0.207 F 
ATOM     24  C   UNL A   1      33.875  23.515  25.893  1.00  0.00     0.040 A 
ENDBRANCH  14  17
ENDBRANCH  12  13
ENDBRANCH   7  12
ENDBRANCH   5   7
ENDBRANCH   4   5
ENDBRANCH   3   4
ENDBRANCH   2   3
ENDBRANCH   1   2
BRANCH   1  25
ATOM     25  C   UNL A   1      34.245  32.740  28.712  1.00  0.00     0.202 C 
BRANCH  25  26
ATOM     26  C   UNL A   1      34.942  32.396  30.033  1.00  0.00     0.261 C 
BRANCH  26  27
ATOM     27  O   UNL A   1      35.880  31.316  29.878  1.00  0.00    -0.460 OA
BRANCH  27  28
ATOM     28  C   UNL A   1      36.913  31.347  30.753  1.00  0.00     0.338 C 
ATOM     29  O   UNL A   1      36.898  31.811  31.887  1.00  0.00    -0.246 OA
BRANCH  28  30
ATOM     30  C   UNL A   1      38.061  30.577  30.238  1.00  0.00     0.060 A 
ATOM     31  C   UNL A   1      39.054  30.228  31.163  1.00  0.00     0.016 A 
ATOM     32  C   UNL A   1      38.220  30.280  28.883  1.00  0.00     0.016 A 
ATOM     33  C   UNL A   1      40.246  29.658  30.726  1.00  0.00     0.010 A 
ATOM     34  C   UNL A   1      39.423  29.712  28.444  1.00  0.00     0.010 A 
ATOM     35  C   UNL A   1      40.460  29.448  29.358  1.00  0.00    -0.014 A 
BRANCH  35  36
ATOM     36  C   UNL A   1      41.832  29.136  28.890  1.00  0.00     0.031 A 
ATOM     37  C   UNL A   1      42.140  27.732  28.436  1.00  0.00     0.074 A 
ATOM     38  C   UNL A   1      42.767  30.098  28.795  1.00  0.00     0.049 A 
ATOM     39  N   UNL A   1      43.254  27.239  27.958  1.00  0.00    -0.248 NA
ATOM     40  C   UNL A   1      41.043  26.755  28.531  1.00  0.00     0.031 C 
ATOM     41  C   UNL A   1      42.575  31.500  29.160  1.00  0.00     0.029 A 
ATOM     42  N   UNL A   1      44.065  30.039  28.354  1.00  0.00    -0.354 N 
ATOM     43  C   UNL A   1      42.994  25.898  27.699  1.00  0.00     0.074 A 
ATOM     44  C   UNL A   1      41.628  25.646  28.101  1.00  0.00     0.031 C 
ATOM     45  C   UNL A   1      43.718  32.170  28.931  1.00  0.00     0.029 A 
ATOM     46  C   UNL A   1      44.727  31.240  28.426  1.00  0.00     0.049 A 
ATOM     47  H   UNL A   1      44.483  29.213  28.018  1.00  0.00     0.167 HD
ATOM     48  C   UNL A   1      43.815  24.963  27.163  1.00  0.00     0.037 A 
ATOM     49  C   UNL A   1      46.004  31.550  28.130  1.00  0.00     0.037 A 
ATOM     50  C   UNL A   1      45.173  25.218  26.762  1.00  0.00     0.049 A 
ATOM     51  C   UNL A   1      46.919  30.479  27.593  1.00  0.00     0.074 A 
ATOM     52  C   UNL A   1      46.084  24.341  26.198  1.00  0.00     0.029 A 
ATOM     53  N   UNL A   1      45.819  26.439  26.887  1.00  0.00    -0.354 N 
ATOM     54  N   UNL A   1      46.654  29.220  27.335  1.00  0.00    -0.248 NA
ATOM     55  C   UNL A   1      48.304  30.873  27.301  1.00  0.00     0.031 C 
ATOM     56  C   UNL A   1      47.294  25.021  26.022  1.00  0.00     0.029 A 
ATOM     57  C   UNL A   1      47.124  26.334  26.432  1.00  0.00     0.049 A 
ATOM     58  H   UNL A   1      45.411  27.259  27.248  1.00  0.00     0.167 HD
ATOM     59  C   UNL A   1      47.830  28.679  26.826  1.00  0.00     0.074 A 
ATOM     60  C   UNL A   1      48.806  29.751  26.804  1.00  0.00     0.031 C 
ATOM     61  C   UNL A   1      48.081  27.412  26.412  1.00  0.00     0.037 A 
BRANCH  48  62
ATOM     62  C   UNL A   1      43.270  23.571  27.004  1.00  0.00     0.058 A 
ATOM     63  C   UNL A   1      43.111  22.709  28.101  1.00  0.00     0.135 A 
ATOM     64  C   UNL A   1      42.883  23.099  25.740  1.00  0.00     0.135 A 
ATOM     65  F   UNL A   1      43.483  23.103  29.330  1.00  0.00    -0.206 F 
ATOM     66  C   UNL A   1      42.614  21.418  27.947  1.00  0.00     0.059 A 
ATOM     67  C   UNL A   1      42.360  21.820  25.565  1.00  0.00     0.059 A 
ATOM     68  F   UNL A   1      43.015  23.881  24.657  1.00  0.00    -0.206 F 
ATOM     69  C   UNL A   1      42.244  20.983  26.673  1.00  0.00     0.060 A 
BRANCH  69  70
ATOM     70  S   UNL A   1      41.603  19.305  26.485  1.00  0.00     0.124 S 
ATOM     71  O   UNL A   1      41.723  18.793  27.846  1.00  0.00    -0.237 OA
ATOM     72  O   UNL A   1      40.241  19.540  26.015  1.00  0.00    -0.237 OA
ATOM     73  O   UNL A   1      42.504  18.704  25.507  1.00  0.00    -0.744 OA
ENDBRANCH  69  70
ENDBRANCH  48  62
BRANCH  49  74
ATOM     74  C   UNL A   1      46.499  32.938  28.338  1.00  0.00     0.058 A 
ATOM     75  C   UNL A   1      46.400  33.904  27.326  1.00  0.00     0.135 A 
ATOM     76  C   UNL A   1      47.081  33.323  29.556  1.00  0.00     0.135 A 
ATOM     77  F   UNL A   1      45.863  33.580  26.140  1.00  0.00    -0.206 F 
ATOM     78  C   UNL A   1      46.870  35.201  27.509  1.00  0.00     0.059 A 
ATOM     79  C   UNL A   1      47.536  34.619  29.771  1.00  0.00     0.059 A 
ATOM     80  F   UNL A   1      47.192  32.438  30.557  1.00  0.00    -0.206 F 
ATOM     81  C   UNL A   1      47.435  35.549  28.738  1.00  0.00     0.060 A 
BRANCH  81  82
ATOM     82  S   UNL A   1      47.994  37.249  28.983  1.00  0.00     0.124 S 
ATOM     83  O   UNL A   1      47.944  37.369  30.435  1.00  0.00    -0.237 OA
ATOM     84  O   UNL A   1      49.326  37.223  28.389  1.00  0.00    -0.237 OA
ATOM     85  O   UNL A   1      47.005  38.036  28.251  1.00  0.00    -0.744 OA
ENDBRANCH  81  82
ENDBRANCH  49  74
BRANCH  61  86
ATOM     86  C   UNL A   1      49.451  27.120  25.865  1.00  0.00     0.058 A 
ATOM     87  C   UNL A   1      50.507  26.713  26.696  1.00  0.00     0.135 A 
ATOM     88  C   UNL A   1      49.698  27.204  24.485  1.00  0.00     0.135 A 
ATOM     89  F   UNL A   1      50.324  26.620  28.023  1.00  0.00    -0.206 F 
ATOM     90  C   UNL A   1      51.766  26.426  26.182  1.00  0.00     0.059 A 
ATOM     91  C   UNL A   1      50.943  26.897  23.946  1.00  0.00     0.059 A 
ATOM     92  F   UNL A   1      48.720  27.576  23.644  1.00  0.00    -0.206 F 
ATOM     93  C   UNL A   1      51.976  26.522  24.804  1.00  0.00     0.060 A 
BRANCH  93  94
ATOM     94  S   UNL A   1      53.609  26.126  24.144  1.00  0.00     0.124 S 
ATOM     95  O   UNL A   1      53.838  24.798  24.702  1.00  0.00    -0.237 OA
ATOM     96  O   UNL A   1      53.387  26.178  22.702  1.00  0.00    -0.237 OA
ATOM     97  O   UNL A   1      54.458  27.187  24.678  1.00  0.00    -0.744 OA
ENDBRANCH  93  94
ENDBRANCH  61  86
ENDBRANCH  35  36
ENDBRANCH  28  30
ENDBRANCH  27  28
ENDBRANCH  26  27
ENDBRANCH  25  26
ENDBRANCH   1  25
TORSDOF 22
ENDMDL
MODEL 2
REMARK VINA RESULT:      -9.3      6.521     13.588
REMARK SMILES CC(C)C[C@H](CNC(=O)c1cc(F)ccc1Br)C(=O)OCCOCCOC(=O)c1ccc(-c2c3nc(c(-c4c(F)cc(S(=O)(=O)[O-])cc4F)c4ccc([nH]4)c(-c4c(F)cc(S(=O)(=O)[O-])cc4F)c4nc(c(-c5c(F)cc(S(=O)(=O)[O-])cc5F)c5ccc2[nH]5)C=C4)C=C3)cc1
REMARK SMILES IDX 23 1 22 2 21 3 20 4 18 5 19 6 5 7 4 8 2 9 1 10 3 11 6 12
REMARK SMILES IDX 7 13 8 14 9 16 10 17 11 18 16 19 12 20 15 21 17 22 13 23
REMARK SMILES IDX 14 24 24 25 25 26 26 27 27 28 28 29 29 30 30 31 94 32 31 33
REMARK SMILES IDX 93 34 32 35 33 36 34 37 87 38 35 39 92 40 86 41 88 42 36 43
REMARK SMILES IDX 91 44 85 45 84 46 37 48 71 49 50 50 70 51 51 52 54 53 69 54
REMARK SMILES IDX 89 55 52 56 53 57 68 59 90 60 55 61 38 62 39 63 48 64 40 65
REMARK SMILES IDX 41 66 47 67 49 68 42 69 43 70 44 71 45 72 46 73 72 74 73 75
REMARK SMILES IDX 82 76 74 77 75 78 81 79 83 80 76 81 77 82 78 83 79 84 80 85
REMARK SMILES IDX 56 86 57 87 66 88 58 89 59 90 65 91 67 92 60 93 61 94 62 95
REMARK SMILES IDX 63 96 64 97
REMARK H PARENT 7 15 88 47 54 58
REMARK Flexibility Score: inf
ROOT
ATOM      1  O   UNL A   1      47.502  41.163  27.056  1.00  0.00    -0.374 OA
ENDROOT
BRANCH   1   2
ATOM      2  C   UNL A   1      47.037  41.017  25.714  1.00  0.00     0.202 C 
BRANCH   2   3
ATOM      3  C   UNL A   1      45.902  41.950  25.285  1.00  0.00     0.261 C 
BRANCH   3   4
ATOM      4  O   UNL A   1      46.305  42.899  24.277  1.00  0.00    -0.463 OA
BRANCH   4   5
ATOM      5  C   UNL A   1      45.541  42.910  23.154  1.00  0.00     0.310 C 
ATOM      6  O   UNL A   1      45.635  42.110  22.230  1.00  0.00    -0.252 OA
BRANCH   5   7
ATOM      7  C   UNL A   1      44.535  44.039  23.135  1.00  0.00     0.118 C 
BRANCH   7   8
ATOM      8  C   UNL A   1      43.149  43.742  23.734  1.00  0.00     0.020 C 
BRANCH   8   9
ATOM      9  C   UNL A   1      42.492  42.371  23.477  1.00  0.00    -0.017 C 
ATOM     10  C   UNL A   1      42.142  41.613  24.762  1.00  0.00     0.007 C 
ATOM     11  C   UNL A   1      41.200  42.592  22.677  1.00  0.00     0.007 C 
ENDBRANCH   8   9
ENDBRANCH   7   8
BRANCH   7  12
ATOM     12  C   UNL A   1      44.499  44.799  21.801  1.00  0.00     0.131 C 
BRANCH  12  13
ATOM     13  N   UNL A   1      45.532  44.447  20.843  1.00  0.00    -0.351 N 
ATOM     14  C   UNL A   1      45.695  44.892  19.551  1.00  0.00     0.252 C 
ATOM     15  H   UNL A   1      46.207  43.804  21.161  1.00  0.00     0.163 HD
ATOM     16  O   UNL A   1      46.653  44.529  18.878  1.00  0.00    -0.269 OA
BRANCH  14  17
ATOM     17  C   UNL A   1      44.725  45.845  18.975  1.00  0.00     0.056 A 
ATOM     18  C   UNL A   1      45.055  47.208  18.972  1.00  0.00     0.054 A 
ATOM     19  C   UNL A   1      43.522  45.417  18.397  1.00  0.00     0.030 A 
ATOM     20  C   UNL A   1      44.161  48.126  18.435  1.00  0.00     0.124 A 
ATOM     21  C   UNL A   1      42.641  46.357  17.844  1.00  0.00     0.019 A 
ATOM     22  Br  UNL A   1      42.983  43.598  18.368  1.00  0.00    -0.050 Br
ATOM     23  F   UNL A   1      44.458  49.432  18.471  1.00  0.00    -0.207 F 
ATOM     24  C   UNL A   1      42.959  47.715  17.871  1.00  0.00     0.040 A 
ENDBRANCH  14  17
ENDBRANCH  12  13
ENDBRANCH   7  12
ENDBRANCH   5   7
ENDBRANCH   4   5
ENDBRANCH   3   4
ENDBRANCH   2   3
ENDBRANCH   1   2
BRANCH   1  25
ATOM     25  C   UNL A   1      47.881  39.974  27.743  1.00  0.00     0.202 C 
BRANCH  25  26
ATOM     26  C   UNL A   1      46.938  38.775  27.598  1.00  0.00     0.261 C 
BRANCH  26  27
ATOM     27  O   UNL A   1      47.628  37.526  27.786  1.00  0.00    -0.460 OA
BRANCH  27  28
ATOM     28  C   UNL A   1      47.252  36.844  28.893  1.00  0.00     0.338 C 
ATOM     29  O   UNL A   1      46.829  37.323  29.939  1.00  0.00    -0.246 OA
BRANCH  28  30
ATOM     30  C   UNL A   1      47.240  35.391  28.639  1.00  0.00     0.060 A 
ATOM     31  C   UNL A   1      46.895  34.978  27.345  1.00  0.00     0.016 A 
ATOM     32  C   UNL A   1      47.465  34.450  29.646  1.00  0.00     0.016 A 
ATOM     33  C   UNL A   1      46.691  33.629  27.074  1.00  0.00     0.010 A 
ATOM     34  C   UNL A   1      47.253  33.093  29.373  1.00  0.00     0.010 A 
ATOM     35  C   UNL A   1      46.814  32.684  28.100  1.00  0.00    -0.014 A 
BRANCH  35  36
ATOM     36  C   UNL A   1      46.297  31.312  27.872  1.00  0.00     0.031 A 
ATOM     37  C   UNL A   1      47.255  30.245  27.407  1.00  0.00     0.074 A 
ATOM     38  C   UNL A   1      45.019  30.998  28.148  1.00  0.00     0.049 A 
ATOM     39  N   UNL A   1      47.037  28.976  27.176  1.00  0.00    -0.248 NA
ATOM     40  C   UNL A   1      48.646  30.668  27.174  1.00  0.00     0.031 C 
ATOM     41  C   UNL A   1      44.011  31.932  28.647  1.00  0.00     0.029 A 
ATOM     42  N   UNL A   1      44.354  29.803  28.054  1.00  0.00    -0.354 N 
ATOM     43  C   UNL A   1      48.258  28.450  26.770  1.00  0.00     0.074 A 
ATOM     44  C   UNL A   1      49.207  29.542  26.755  1.00  0.00     0.031 C 
ATOM     45  C   UNL A   1      42.851  31.273  28.812  1.00  0.00     0.029 A 
ATOM     46  C   UNL A   1      43.029  29.879  28.409  1.00  0.00     0.049 A 
ATOM     47  H   UNL A   1      44.785  28.968  27.760  1.00  0.00     0.167 HD
ATOM     48  C   UNL A   1      48.566  27.170  26.448  1.00  0.00     0.037 A 
ATOM     49  C   UNL A   1      42.069  28.933  28.397  1.00  0.00     0.037 A 
ATOM     50  C   UNL A   1      47.620  26.086  26.466  1.00  0.00     0.049 A 
ATOM     51  C   UNL A   1      42.419  27.529  27.977  1.00  0.00     0.074 A 
ATOM     52  C   UNL A   1      47.835  24.751  26.169  1.00  0.00     0.029 A 
ATOM     53  N   UNL A   1      46.278  26.211  26.794  1.00  0.00    -0.354 N 
ATOM     54  N   UNL A   1      43.582  27.042  27.614  1.00  0.00    -0.248 NA
ATOM     55  C   UNL A   1      41.327  26.545  27.971  1.00  0.00     0.031 C 
ATOM     56  C   UNL A   1      46.613  24.077  26.275  1.00  0.00     0.029 A 
ATOM     57  C   UNL A   1      45.647  24.983  26.685  1.00  0.00     0.049 A 
ATOM     58  H   UNL A   1      45.839  27.050  27.062  1.00  0.00     0.167 HD
ATOM     59  C   UNL A   1      43.367  25.690  27.363  1.00  0.00     0.074 A 
ATOM     60  C   UNL A   1      41.965  25.436  27.624  1.00  0.00     0.031 C 
ATOM     61  C   UNL A   1      44.251  24.744  26.954  1.00  0.00     0.037 A 
BRANCH  48  62
ATOM     62  C   UNL A   1      49.980  26.882  26.027  1.00  0.00     0.058 A 
ATOM     63  C   UNL A   1      50.920  26.336  26.915  1.00  0.00     0.135 A 
ATOM     64  C   UNL A   1      50.395  27.137  24.710  1.00  0.00     0.135 A 
ATOM     65  F   UNL A   1      50.581  26.091  28.191  1.00  0.00    -0.206 F 
ATOM     66  C   UNL A   1      52.230  26.079  26.521  1.00  0.00     0.059 A 
ATOM     67  C   UNL A   1      51.693  26.865  24.287  1.00  0.00     0.059 A 
ATOM     68  F   UNL A   1      49.537  27.661  23.820  1.00  0.00    -0.206 F 
ATOM     69  C   UNL A   1      52.607  26.350  25.205  1.00  0.00     0.060 A 
BRANCH  69  70
ATOM     70  S   UNL A   1      54.310  26.015  24.707  1.00  0.00     0.124 S 
ATOM     71  O   UNL A   1      54.256  26.299  23.277  1.00  0.00    -0.237 OA
ATOM     72  O   UNL A   1      55.066  26.969  25.513  1.00  0.00    -0.237 OA
ATOM     73  O   UNL A   1      54.499  24.613  25.062  1.00  0.00    -0.744 OA
ENDBRANCH  69  70
ENDBRANCH  48  62
BRANCH  49  74
ATOM     74  C   UNL A   1      40.678  29.283  28.794  1.00  0.00     0.058 A 
ATOM     75  C   UNL A   1      40.326  29.448  30.141  1.00  0.00     0.135 A 
ATOM     76  C   UNL A   1      39.674  29.460  27.829  1.00  0.00     0.135 A 
ATOM     77  F   UNL A   1      41.248  29.278  31.101  1.00  0.00    -0.206 F 
ATOM     78  C   UNL A   1      39.025  29.765  30.520  1.00  0.00     0.059 A 
ATOM     79  C   UNL A   1      38.372  29.801  28.181  1.00  0.00     0.059 A 
ATOM     80  F   UNL A   1      39.962  29.320  26.526  1.00  0.00    -0.206 F 
ATOM     81  C   UNL A   1      38.055  29.942  29.532  1.00  0.00     0.060 A 
BRANCH  81  82
ATOM     82  S   UNL A   1      36.383  30.404  30.031  1.00  0.00     0.124 S 
ATOM     83  O   UNL A   1      36.547  31.819  30.340  1.00  0.00    -0.237 OA
ATOM     84  O   UNL A   1      35.608  30.098  28.833  1.00  0.00    -0.237 OA
ATOM     85  O   UNL A   1      36.122  29.534  31.174  1.00  0.00    -0.744 OA
ENDBRANCH  81  82
ENDBRANCH  49  74
BRANCH  61  86
ATOM     86  C   UNL A   1      43.739  23.339  26.801  1.00  0.00     0.058 A 
ATOM     87  C   UNL A   1      43.404  22.550  27.912  1.00  0.00     0.135 A 
ATOM     88  C   UNL A   1      43.539  22.791  25.524  1.00  0.00     0.135 A 
ATOM     89  F   UNL A   1      43.579  23.025  29.156  1.00  0.00    -0.206 F 
ATOM     90  C   UNL A   1      42.913  21.257  27.763  1.00  0.00     0.059 A 
ATOM     91  C   UNL A   1      43.026  21.510  25.350  1.00  0.00     0.059 A 
ATOM     92  F   UNL A   1      43.831  23.508  24.426  1.00  0.00    -0.206 F 
ATOM     93  C   UNL A   1      42.729  20.744  26.477  1.00  0.00     0.060 A 
BRANCH  93  94
ATOM     94  S   UNL A   1      42.070  19.073  26.294  1.00  0.00     0.124 S 
ATOM     95  O   UNL A   1      42.248  18.538  27.639  1.00  0.00    -0.237 OA
ATOM     96  O   UNL A   1      40.690  19.321  25.889  1.00  0.00    -0.237 OA
ATOM     97  O   UNL A   1      42.921  18.484  25.264  1.00  0.00    -0.744 OA
ENDBRANCH  93  94
ENDBRANCH  61  86
ENDBRANCH  35  36
ENDBRANCH  28  30
ENDBRANCH  27  28
ENDBRANCH  26  27
ENDBRANCH  25  26
ENDBRANCH   1  25
TORSDOF 22
ENDMDL
MODEL 3
REMARK VINA RESULT:      -9.3      1.900      3.389
REMARK SMILES CC(C)C[C@H](CNC(=O)c1cc(F)ccc1Br)C(=O)OCCOCCOC(=O)c1ccc(-c2c3nc(c(-c4c(F)cc(S(=O)(=O)[O-])cc4F)c4ccc([nH]4)c(-c4c(F)cc(S(=O)(=O)[O-])cc4F)c4nc(c(-c5c(F)cc(S(=O)(=O)[O-])cc5F)c5ccc2[nH]5)C=C4)C=C3)cc1
REMARK SMILES IDX 23 1 22 2 21 3 20 4 18 5 19 6 5 7 4 8 2 9 1 10 3 11 6 12
REMARK SMILES IDX 7 13 8 14 9 16 10 17 11 18 16 19 12 20 15 21 17 22 13 23
REMARK SMILES IDX 14 24 24 25 25 26 26 27 27 28 28 29 29 30 30 31 94 32 31 33
REMARK SMILES IDX 93 34 32 35 33 36 34 37 87 38 35 39 92 40 86 41 88 42 36 43
REMARK SMILES IDX 91 44 85 45 84 46 37 48 71 49 50 50 70 51 51 52 54 53 69 54
REMARK SMILES IDX 89 55 52 56 53 57 68 59 90 60 55 61 38 62 39 63 48 64 40 65
REMARK SMILES IDX 41 66 47 67 49 68 42 69 43 70 44 71 45 72 46 73 72 74 73 75
REMARK SMILES IDX 82 76 74 77 75 78 81 79 83 80 76 81 77 82 78 83 79 84 80 85
REMARK SMILES IDX 56 86 57 87 66 88 58 89 59 90 65 91 67 92 60 93 61 94 62 95
REMARK SMILES IDX 63 96 64 97
REMARK H PARENT 7 15 88 47 54 58
REMARK Flexibility Score: inf
ROOT
ATOM      1  O   UNL A   1      35.168  31.695  29.329  1.00  0.00    -0.374 OA
ENDROOT
BRANCH   1   2
ATOM      2  C   UNL A   1      36.150  30.931  28.629  1.00  0.00     0.202 C 
BRANCH   2   3
ATOM      3  C   UNL A   1      35.725  29.531  28.181  1.00  0.00     0.261 C 
BRANCH   3   4
ATOM      4  O   UNL A   1      34.301  29.407  27.997  1.00  0.00    -0.463 OA
BRANCH   4   5
ATOM      5  C   UNL A   1      33.907  29.061  26.744  1.00  0.00     0.310 C 
ATOM      6  O   UNL A   1      34.644  29.002  25.766  1.00  0.00    -0.252 OA
BRANCH   5   7
ATOM      7  C   UNL A   1      32.430  28.754  26.652  1.00  0.00     0.118 C 
BRANCH   7   8
ATOM      8  C   UNL A   1      32.031  27.268  26.641  1.00  0.00     0.020 C 
BRANCH   8   9
ATOM      9  C   UNL A   1      33.068  26.209  26.216  1.00  0.00    -0.017 C 
ATOM     10  C   UNL A   1      32.634  24.772  26.527  1.00  0.00     0.007 C 
ATOM     11  C   UNL A   1      33.297  26.329  24.703  1.00  0.00     0.007 C 
ENDBRANCH   8   9
ENDBRANCH   7   8
BRANCH   7  12
ATOM     12  C   UNL A   1      31.692  29.614  25.614  1.00  0.00     0.131 C 
BRANCH  12  13
ATOM     13  N   UNL A   1      32.145  29.476  24.241  1.00  0.00    -0.351 N 
ATOM     14  C   UNL A   1      31.393  29.323  23.098  1.00  0.00     0.252 C 
ATOM     15  H   UNL A   1      33.121  29.496  24.110  1.00  0.00     0.163 HD
ATOM     16  O   UNL A   1      31.929  29.262  21.998  1.00  0.00    -0.269 OA
BRANCH  14  17
ATOM     17  C   UNL A   1      29.920  29.264  23.192  1.00  0.00     0.056 A 
ATOM     18  C   UNL A   1      29.206  30.470  23.179  1.00  0.00     0.054 A 
ATOM     19  C   UNL A   1      29.231  28.044  23.244  1.00  0.00     0.030 A 
ATOM     20  C   UNL A   1      27.819  30.444  23.265  1.00  0.00     0.124 A 
ATOM     21  C   UNL A   1      27.831  28.038  23.310  1.00  0.00     0.019 A 
ATOM     22  Br  UNL A   1      30.112  26.364  23.281  1.00  0.00    -0.050 Br
ATOM     23  F   UNL A   1      27.139  31.598  23.295  1.00  0.00    -0.207 F 
ATOM     24  C   UNL A   1      27.125  29.241  23.330  1.00  0.00     0.040 A 
ENDBRANCH  14  17
ENDBRANCH  12  13
ENDBRANCH   7  12
ENDBRANCH   5   7
ENDBRANCH   4   5
ENDBRANCH   3   4
ENDBRANCH   2   3
ENDBRANCH   1   2
BRANCH   1  25
ATOM     25  C   UNL A   1      35.409  31.950  30.710  1.00  0.00     0.202 C 
BRANCH  25  26
ATOM     26  C   UNL A   1      36.161  30.860  31.482  1.00  0.00     0.261 C 
BRANCH  26  27
ATOM     27  O   UNL A   1      37.064  31.417  32.453  1.00  0.00    -0.460 OA
BRANCH  27  28
ATOM     28  C   UNL A   1      38.056  32.170  31.922  1.00  0.00     0.338 C 
ATOM     29  O   UNL A   1      38.211  33.378  32.061  1.00  0.00    -0.246 OA
BRANCH  28  30
ATOM     30  C   UNL A   1      39.072  31.321  31.273  1.00  0.00     0.060 A 
ATOM     31  C   UNL A   1      39.896  30.564  32.116  1.00  0.00     0.016 A 
ATOM     32  C   UNL A   1      39.285  31.326  29.893  1.00  0.00     0.016 A 
ATOM     33  C   UNL A   1      40.987  29.877  31.593  1.00  0.00     0.010 A 
ATOM     34  C   UNL A   1      40.387  30.639  29.369  1.00  0.00     0.010 A 
ATOM     35  C   UNL A   1      41.272  29.956  30.224  1.00  0.00    -0.014 A 
BRANCH  35  36
ATOM     36  C   UNL A   1      42.593  29.484  29.741  1.00  0.00     0.031 A 
ATOM     37  C   UNL A   1      42.696  28.098  29.158  1.00  0.00     0.074 A 
ATOM     38  C   UNL A   1      43.664  30.297  29.748  1.00  0.00     0.049 A 
ATOM     39  N   UNL A   1      43.734  27.488  28.645  1.00  0.00    -0.248 NA
ATOM     40  C   UNL A   1      41.463  27.295  29.148  1.00  0.00     0.031 C 
ATOM     41  C   UNL A   1      43.676  31.672  30.244  1.00  0.00     0.029 A 
ATOM     42  N   UNL A   1      44.948  30.082  29.316  1.00  0.00    -0.354 N 
ATOM     43  C   UNL A   1      43.281  26.233  28.255  1.00  0.00     0.074 A 
ATOM     44  C   UNL A   1      41.883  26.155  28.618  1.00  0.00     0.031 C 
ATOM     45  C   UNL A   1      44.912  32.178  30.091  1.00  0.00     0.029 A 
ATOM     46  C   UNL A   1      45.782  31.157  29.509  1.00  0.00     0.049 A 
ATOM     47  H   UNL A   1      45.245  29.238  28.906  1.00  0.00     0.167 HD
ATOM     48  C   UNL A   1      43.965  25.238  27.641  1.00  0.00     0.037 A 
ATOM     49  C   UNL A   1      47.098  31.295  29.256  1.00  0.00     0.037 A 
ATOM     50  C   UNL A   1      45.355  25.319  27.278  1.00  0.00     0.049 A 
ATOM     51  C   UNL A   1      47.853  30.152  28.628  1.00  0.00     0.074 A 
ATOM     52  C   UNL A   1      46.136  24.371  26.642  1.00  0.00     0.029 A 
ATOM     53  N   UNL A   1      46.175  26.410  27.526  1.00  0.00    -0.354 N 
ATOM     54  N   UNL A   1      47.408  28.978  28.247  1.00  0.00    -0.248 NA
ATOM     55  C   UNL A   1      49.289  30.356  28.388  1.00  0.00     0.031 C 
ATOM     56  C   UNL A   1      47.439  24.871  26.543  1.00  0.00     0.029 A 
ATOM     57  C   UNL A   1      47.459  26.151  27.076  1.00  0.00     0.049 A 
ATOM     58  H   UNL A   1      45.886  27.246  27.960  1.00  0.00     0.167 HD
ATOM     59  C   UNL A   1      48.501  28.314  27.700  1.00  0.00     0.074 A 
ATOM     60  C   UNL A   1      49.627  29.222  27.791  1.00  0.00     0.031 C 
ATOM     61  C   UNL A   1      48.568  27.068  27.168  1.00  0.00     0.037 A 
BRANCH  48  62
ATOM     62  C   UNL A   1      43.220  23.966  27.344  1.00  0.00     0.058 A 
ATOM     63  C   UNL A   1      42.480  23.800  26.162  1.00  0.00     0.135 A 
ATOM     64  C   UNL A   1      43.262  22.890  28.244  1.00  0.00     0.135 A 
ATOM     65  F   UNL A   1      42.390  24.804  25.274  1.00  0.00    -0.206 F 
ATOM     66  C   UNL A   1      41.786  22.624  25.896  1.00  0.00     0.059 A 
ATOM     67  C   UNL A   1      42.596  21.695  27.989  1.00  0.00     0.059 A 
ATOM     68  F   UNL A   1      43.953  22.996  29.391  1.00  0.00    -0.206 F 
ATOM     69  C   UNL A   1      41.848  21.578  26.818  1.00  0.00     0.060 A 
BRANCH  69  70
ATOM     70  S   UNL A   1      40.941  20.057  26.464  1.00  0.00     0.124 S 
ATOM     71  O   UNL A   1      41.835  19.398  25.519  1.00  0.00    -0.237 OA
ATOM     72  O   UNL A   1      40.842  19.437  27.781  1.00  0.00    -0.237 OA
ATOM     73  O   UNL A   1      39.680  20.536  25.905  1.00  0.00    -0.744 OA
ENDBRANCH  69  70
ENDBRANCH  48  62
BRANCH  49  74
ATOM     74  C   UNL A   1      47.791  32.565  29.601  1.00  0.00     0.058 A 
ATOM     75  C   UNL A   1      47.903  33.608  28.671  1.00  0.00     0.135 A 
ATOM     76  C   UNL A   1      48.355  32.760  30.872  1.00  0.00     0.135 A 
ATOM     77  F   UNL A   1      47.390  33.466  27.438  1.00  0.00    -0.206 F 
ATOM     78  C   UNL A   1      48.559  34.795  28.982  1.00  0.00     0.059 A 
ATOM     79  C   UNL A   1      48.994  33.946  31.215  1.00  0.00     0.059 A 
ATOM     80  F   UNL A   1      48.269  31.795  31.800  1.00  0.00    -0.206 F 
ATOM     81  C   UNL A   1      49.099  34.955  30.259  1.00  0.00     0.060 A 
BRANCH  81  82
ATOM     82  S   UNL A   1      49.903  36.519  30.671  1.00  0.00     0.124 S 
ATOM     83  O   UNL A   1      49.103  37.471  29.910  1.00  0.00    -0.237 OA
ATOM     84  O   UNL A   1      49.750  36.572  32.121  1.00  0.00    -0.237 OA
ATOM     85  O   UNL A   1      51.272  36.326  30.200  1.00  0.00    -0.744 OA
ENDBRANCH  81  82
ENDBRANCH  49  74
BRANCH  61  86
ATOM     86  C   UNL A   1      49.890  26.623  26.609  1.00  0.00     0.058 A 
ATOM     87  C   UNL A   1      50.300  26.975  25.313  1.00  0.00     0.135 A 
ATOM     88  C   UNL A   1      50.779  25.873  27.395  1.00  0.00     0.135 A 
ATOM     89  F   UNL A   1      49.487  27.689  24.518  1.00  0.00    -0.206 F 
ATOM     90  C   UNL A   1      51.533  26.576  24.807  1.00  0.00     0.059 A 
ATOM     91  C   UNL A   1      52.027  25.485  26.920  1.00  0.00     0.059 A 
ATOM     92  F   UNL A   1      50.442  25.519  28.646  1.00  0.00    -0.206 F 
ATOM     93  C   UNL A   1      52.390  25.829  25.619  1.00  0.00     0.060 A 
BRANCH  93  94
ATOM     94  S   UNL A   1      53.998  25.336  24.961  1.00  0.00     0.124 S 
ATOM     95  O   UNL A   1      53.989  25.977  23.651  1.00  0.00    -0.237 OA
ATOM     96  O   UNL A   1      54.924  25.902  25.937  1.00  0.00    -0.237 OA
ATOM     97  O   UNL A   1      53.926  23.878  24.949  1.00  0.00    -0.744 OA
ENDBRANCH  93  94
ENDBRANCH  61  86
ENDBRANCH  35  36
ENDBRANCH  28  30
ENDBRANCH  27  28
ENDBRANCH  26  27
ENDBRANCH  25  26
ENDBRANCH   1  25
TORSDOF 22
ENDMDL
