MODEL 1
REMARK VINA RESULT:     -12.1      0.000      0.000
REMARK SMILES Cc1ccc2[nH]cc([C@@H](C(=O)OCCOCCOC(=O)c3ccc(-c4c5nc(c(-c6c(F)cc(S(=O)(=O)[O-])cc6F)c6ccc([nH]6)c(-c6c(F)cc(S(=O)(=O)[O-])cc6F)c6nc(c(-c7c(F)cc(S(=O)(=O)[O-])cc7F)c7ccc4[nH]7)C=C6)C=C5)cc3)[NH+]3CCN(c4cccc(Cl)c4)CC3)c2c1
REMARK SMILES IDX 16 1 15 2 14 3 13 4 12 5 10 6 11 7 9 8 8 9 1 10 2 11 3 12
REMARK SMILES IDX 101 13 4 14 100 15 5 16 6 17 7 18 87 20 88 21 99 22 89 24
REMARK SMILES IDX 98 25 90 26 91 27 92 28 97 29 93 30 95 31 94 32 96 33 17 34
REMARK SMILES IDX 18 35 19 36 20 37 21 38 22 39 86 40 23 41 85 42 24 43 25 44
REMARK SMILES IDX 26 45 79 46 27 47 84 48 78 49 80 50 28 51 83 52 77 53 76 54
REMARK SMILES IDX 29 56 63 57 42 58 62 59 43 60 46 61 61 62 81 63 44 64 45 65
REMARK SMILES IDX 60 67 82 68 47 69 30 70 31 71 40 72 32 73 33 74 39 75 41 76
REMARK SMILES IDX 34 77 35 78 36 79 37 80 38 81 64 82 65 83 74 84 66 85 67 86
REMARK SMILES IDX 73 87 75 88 68 89 69 90 70 91 71 92 72 93 48 94 49 95 58 96
REMARK SMILES IDX 50 97 51 98 57 99 59 100 52 101 53 102 54 103 55 104 56 105
REMARK H PARENT 6 19 87 23 80 55 46 66
REMARK Flexibility Score: inf
ROOT
ATOM      1  C   UNL A   1      36.663  20.654  24.968  1.00  0.00     0.202 C 
ENDROOT
BRANCH   1   2
ATOM      2  O   UNL A   1      35.415  21.018  25.549  1.00  0.00    -0.374 OA
BRANCH   2   3
ATOM      3  C   UNL A   1      34.241  20.798  24.766  1.00  0.00     0.202 C 
BRANCH   3   4
ATOM      4  C   UNL A   1      33.378  22.027  24.454  1.00  0.00     0.261 C 
BRANCH   4   5
ATOM      5  O   UNL A   1      34.119  23.266  24.438  1.00  0.00    -0.459 OA
BRANCH   5   6
ATOM      6  C   UNL A   1      33.910  24.062  23.348  1.00  0.00     0.370 C 
ATOM      7  O   UNL A   1      34.072  23.670  22.191  1.00  0.00    -0.245 OA
BRANCH   6   8
ATOM      8  C   UNL A   1      33.509  25.516  23.680  1.00  0.00     0.328 C 
BRANCH   8   9
ATOM      9  C   UNL A   1      32.692  25.778  24.924  1.00  0.00     0.046 A 
ATOM     10  C   UNL A   1      34.962  29.816  27.141  1.00  0.00     0.044 C 
ATOM     11  C   UNL A   1      33.842  28.830  26.975  1.00  0.00    -0.050 A 
ATOM     12  C   UNL A   1      32.732  28.854  27.824  1.00  0.00     0.005 A 
ATOM     13  C   UNL A   1      33.928  27.851  25.971  1.00  0.00     0.014 A 
ATOM     14  C   UNL A   1      31.720  27.892  27.724  1.00  0.00     0.027 A 
ATOM     15  C   UNL A   1      32.923  26.867  25.846  1.00  0.00     0.009 A 
ATOM     16  C   UNL A   1      31.860  26.899  26.747  1.00  0.00     0.046 A 
ATOM     17  N   UNL A   1      31.066  25.816  26.467  1.00  0.00    -0.361 N 
ATOM     18  C   UNL A   1      31.581  25.112  25.411  1.00  0.00     0.094 A 
ATOM     19  H   UNL A   1      30.244  25.580  26.955  1.00  0.00     0.166 HD
ENDBRANCH   8   9
BRANCH   8  20
ATOM     20  N   UNL A   1      32.966  26.200  22.478  1.00  0.00    -0.316 N 
ATOM     21  C   UNL A   1      31.553  26.030  22.131  1.00  0.00     0.284 C 
ATOM     22  C   UNL A   1      33.431  27.570  22.239  1.00  0.00     0.284 C 
ATOM     23  H   UNL A   1      33.437  25.603  21.797  1.00  0.00     0.349 HD
ATOM     24  C   UNL A   1      30.573  27.144  22.572  1.00  0.00     0.178 C 
ATOM     25  C   UNL A   1      32.509  28.695  22.760  1.00  0.00     0.178 C 
ATOM     26  N   UNL A   1      31.119  28.482  22.320  1.00  0.00    -0.360 N 
BRANCH  26  27
ATOM     27  C   UNL A   1      30.270  29.565  22.544  1.00  0.00     0.038 A 
ATOM     28  C   UNL A   1      30.049  30.101  23.821  1.00  0.00     0.026 A 
ATOM     29  C   UNL A   1      29.628  30.158  21.452  1.00  0.00     0.046 A 
ATOM     30  C   UNL A   1      29.196  31.192  24.006  1.00  0.00     0.004 A 
ATOM     31  C   UNL A   1      28.773  31.244  21.637  1.00  0.00     0.043 A 
ATOM     32  C   UNL A   1      28.552  31.764  22.910  1.00  0.00     0.020 A 
ATOM     33  Cl  UNL A   1      27.980  31.948  20.280  1.00  0.00    -0.084 Cl
ENDBRANCH  26  27
ENDBRANCH   8  20
ENDBRANCH   6   8
ENDBRANCH   5   6
ENDBRANCH   4   5
ENDBRANCH   3   4
ENDBRANCH   2   3
ENDBRANCH   1   2
BRANCH   1  34
ATOM     34  C   UNL A   1      37.650  21.799  24.727  1.00  0.00     0.261 C 
BRANCH  34  35
ATOM     35  O   UNL A   1      37.969  22.472  25.957  1.00  0.00    -0.460 OA
BRANCH  35  36
ATOM     36  C   UNL A   1      39.275  22.409  26.296  1.00  0.00     0.338 C 
ATOM     37  O   UNL A   1      40.104  21.610  25.879  1.00  0.00    -0.246 OA
BRANCH  36  38
ATOM     38  C   UNL A   1      39.646  23.567  27.125  1.00  0.00     0.060 A 
ATOM     39  C   UNL A   1      38.958  24.765  26.894  1.00  0.00     0.016 A 
ATOM     40  C   UNL A   1      40.725  23.524  28.008  1.00  0.00     0.016 A 
ATOM     41  C   UNL A   1      39.398  25.943  27.490  1.00  0.00     0.010 A 
ATOM     42  C   UNL A   1      41.171  24.713  28.600  1.00  0.00     0.010 A 
ATOM     43  C   UNL A   1      40.541  25.935  28.302  1.00  0.00    -0.014 A 
BRANCH  43  44
ATOM     44  C   UNL A   1      41.159  27.235  28.667  1.00  0.00     0.031 A 
ATOM     45  C   UNL A   1      42.634  27.432  28.428  1.00  0.00     0.074 A 
ATOM     46  C   UNL A   1      40.408  28.255  29.118  1.00  0.00     0.049 A 
ATOM     47  N   UNL A   1      43.365  28.505  28.591  1.00  0.00    -0.248 NA
ATOM     48  C   UNL A   1      43.383  26.266  27.931  1.00  0.00     0.031 C 
ATOM     49  C   UNL A   1      38.968  28.199  29.361  1.00  0.00     0.029 A 
ATOM     50  N   UNL A   1      40.755  29.543  29.442  1.00  0.00    -0.354 N 
ATOM     51  C   UNL A   1      44.653  28.148  28.213  1.00  0.00     0.074 A 
ATOM     52  C   UNL A   1      44.614  26.749  27.846  1.00  0.00     0.031 C 
ATOM     53  C   UNL A   1      38.552  29.403  29.794  1.00  0.00     0.029 A 
ATOM     54  C   UNL A   1      39.698  30.307  29.873  1.00  0.00     0.049 A 
ATOM     55  H   UNL A   1      41.675  29.887  29.371  1.00  0.00     0.167 HD
ATOM     56  C   UNL A   1      45.767  28.917  28.162  1.00  0.00     0.037 A 
ATOM     57  C   UNL A   1      39.660  31.590  30.287  1.00  0.00     0.037 A 
ATOM     58  C   UNL A   1      45.809  30.308  28.527  1.00  0.00     0.049 A 
ATOM     59  C   UNL A   1      40.921  32.414  30.265  1.00  0.00     0.074 A 
ATOM     60  C   UNL A   1      46.888  31.174  28.500  1.00  0.00     0.029 A 
ATOM     61  N   UNL A   1      44.724  31.038  28.991  1.00  0.00    -0.354 N 
ATOM     62  N   UNL A   1      42.127  32.068  29.879  1.00  0.00    -0.248 NA
ATOM     63  C   UNL A   1      40.815  33.807  30.725  1.00  0.00     0.031 C 
ATOM     64  C   UNL A   1      46.465  32.417  28.985  1.00  0.00     0.029 A 
ATOM     65  C   UNL A   1      45.111  32.337  29.272  1.00  0.00     0.049 A 
ATOM     66  H   UNL A   1      43.812  30.683  29.102  1.00  0.00     0.167 HD
ATOM     67  C   UNL A   1      42.914  33.206  30.024  1.00  0.00     0.074 A 
ATOM     68  C   UNL A   1      42.047  34.253  30.524  1.00  0.00     0.031 C 
ATOM     69  C   UNL A   1      44.236  33.371  29.765  1.00  0.00     0.037 A 
BRANCH  56  70
ATOM     70  C   UNL A   1      47.043  28.259  27.712  1.00  0.00     0.058 A 
ATOM     71  C   UNL A   1      47.457  28.292  26.371  1.00  0.00     0.135 A 
ATOM     72  C   UNL A   1      47.874  27.610  28.639  1.00  0.00     0.135 A 
ATOM     73  F   UNL A   1      46.690  28.884  25.441  1.00  0.00    -0.206 F 
ATOM     74  C   UNL A   1      48.637  27.681  25.959  1.00  0.00     0.059 A 
ATOM     75  C   UNL A   1      49.070  27.012  28.253  1.00  0.00     0.059 A 
ATOM     76  F   UNL A   1      47.524  27.546  29.933  1.00  0.00    -0.206 F 
ATOM     77  C   UNL A   1      49.436  27.040  26.909  1.00  0.00     0.060 A 
BRANCH  77  78
ATOM     78  S   UNL A   1      50.963  26.247  26.361  1.00  0.00     0.124 S 
ATOM     79  O   UNL A   1      51.964  27.218  26.790  1.00  0.00    -0.237 OA
ATOM     80  O   UNL A   1      50.945  24.988  27.098  1.00  0.00    -0.237 OA
ATOM     81  O   UNL A   1      50.784  26.127  24.917  1.00  0.00    -0.744 OA
ENDBRANCH  77  78
ENDBRANCH  56  70
BRANCH  57  82
ATOM     82  C   UNL A   1      38.379  32.177  30.758  1.00  0.00     0.058 A 
ATOM     83  C   UNL A   1      38.016  32.147  32.112  1.00  0.00     0.135 A 
ATOM     84  C   UNL A   1      37.488  32.782  29.856  1.00  0.00     0.135 A 
ATOM     85  F   UNL A   1      38.827  31.569  33.011  1.00  0.00    -0.206 F 
ATOM     86  C   UNL A   1      36.811  32.684  32.557  1.00  0.00     0.059 A 
ATOM     87  C   UNL A   1      36.290  33.347  30.279  1.00  0.00     0.059 A 
ATOM     88  F   UNL A   1      37.794  32.845  28.551  1.00  0.00    -0.206 F 
ATOM     89  C   UNL A   1      35.956  33.285  31.631  1.00  0.00     0.060 A 
BRANCH  89  90
ATOM     90  S   UNL A   1      34.419  34.029  32.221  1.00  0.00     0.124 S 
ATOM     91  O   UNL A   1      33.802  34.457  30.971  1.00  0.00    -0.237 OA
ATOM     92  O   UNL A   1      33.776  32.909  32.901  1.00  0.00    -0.237 OA
ATOM     93  O   UNL A   1      34.883  35.101  33.097  1.00  0.00    -0.744 OA
ENDBRANCH  89  90
ENDBRANCH  57  82
BRANCH  69  94
ATOM     94  C   UNL A   1      44.820  34.739  29.985  1.00  0.00     0.058 A 
ATOM     95  C   UNL A   1      44.740  35.741  29.006  1.00  0.00     0.135 A 
ATOM     96  C   UNL A   1      45.430  35.063  31.208  1.00  0.00     0.135 A 
ATOM     97  F   UNL A   1      44.171  35.483  27.818  1.00  0.00    -0.206 F 
ATOM     98  C   UNL A   1      45.272  37.010  29.220  1.00  0.00     0.059 A 
ATOM     99  C   UNL A   1      45.945  36.333  31.453  1.00  0.00     0.059 A 
ATOM    100  F   UNL A   1      45.520  34.145  32.183  1.00  0.00    -0.206 F 
ATOM    101  C   UNL A   1      45.876  37.295  30.446  1.00  0.00     0.060 A 
BRANCH 101 102
ATOM    102  S   UNL A   1      46.546  38.949  30.721  1.00  0.00     0.124 S 
ATOM    103  O   UNL A   1      45.338  39.765  30.681  1.00  0.00    -0.237 OA
ATOM    104  O   UNL A   1      47.180  38.818  32.030  1.00  0.00    -0.237 OA
ATOM    105  O   UNL A   1      47.467  39.131  29.603  1.00  0.00    -0.744 OA
ENDBRANCH 101 102
ENDBRANCH  69  94
ENDBRANCH  43  44
ENDBRANCH  36  38
ENDBRANCH  35  36
ENDBRANCH  34  35
ENDBRANCH   1  34
TORSDOF 20
ENDMDL
MODEL 2
REMARK VINA RESULT:     -12.1      4.855      7.000
REMARK SMILES Cc1ccc2[nH]cc([C@@H](C(=O)OCCOCCOC(=O)c3ccc(-c4c5nc(c(-c6c(F)cc(S(=O)(=O)[O-])cc6F)c6ccc([nH]6)c(-c6c(F)cc(S(=O)(=O)[O-])cc6F)c6nc(c(-c7c(F)cc(S(=O)(=O)[O-])cc7F)c7ccc4[nH]7)C=C6)C=C5)cc3)[NH+]3CCN(c4cccc(Cl)c4)CC3)c2c1
REMARK SMILES IDX 16 1 15 2 14 3 13 4 12 5 10 6 11 7 9 8 8 9 1 10 2 11 3 12
REMARK SMILES IDX 101 13 4 14 100 15 5 16 6 17 7 18 87 20 88 21 99 22 89 24
REMARK SMILES IDX 98 25 90 26 91 27 92 28 97 29 93 30 95 31 94 32 96 33 17 34
REMARK SMILES IDX 18 35 19 36 20 37 21 38 22 39 86 40 23 41 85 42 24 43 25 44
REMARK SMILES IDX 26 45 79 46 27 47 84 48 78 49 80 50 28 51 83 52 77 53 76 54
REMARK SMILES IDX 29 56 63 57 42 58 62 59 43 60 46 61 61 62 81 63 44 64 45 65
REMARK SMILES IDX 60 67 82 68 47 69 30 70 31 71 40 72 32 73 33 74 39 75 41 76
REMARK SMILES IDX 34 77 35 78 36 79 37 80 38 81 64 82 65 83 74 84 66 85 67 86
REMARK SMILES IDX 73 87 75 88 68 89 69 90 70 91 71 92 72 93 48 94 49 95 58 96
REMARK SMILES IDX 50 97 51 98 57 99 59 100 52 101 53 102 54 103 55 104 56 105
REMARK H PARENT 6 19 87 23 80 55 46 66
REMARK Flexibility Score: inf
ROOT
ATOM      1  C   UNL A   1      39.861  21.466  26.136  1.00  0.00     0.202 C 
ENDROOT
BRANCH   1   2
ATOM      2  O   UNL A   1      38.648  22.165  26.400  1.00  0.00    -0.374 OA
BRANCH   2   3
ATOM      3  C   UNL A   1      37.664  22.179  25.365  1.00  0.00     0.202 C 
BRANCH   3   4
ATOM      4  C   UNL A   1      36.258  21.697  25.742  1.00  0.00     0.261 C 
BRANCH   4   5
ATOM      5  O   UNL A   1      35.320  22.771  25.972  1.00  0.00    -0.459 OA
BRANCH   5   6
ATOM      6  C   UNL A   1      34.370  22.939  25.006  1.00  0.00     0.370 C 
ATOM      7  O   UNL A   1      34.448  23.804  24.132  1.00  0.00    -0.245 OA
BRANCH   6   8
ATOM      8  C   UNL A   1      33.153  21.995  25.128  1.00  0.00     0.328 C 
BRANCH   8   9
ATOM      9  C   UNL A   1      32.796  21.115  23.952  1.00  0.00     0.046 A 
ATOM     10  C   UNL A   1      34.932  16.573  25.033  1.00  0.00     0.044 C 
ATOM     11  C   UNL A   1      34.024  17.476  24.249  1.00  0.00    -0.050 A 
ATOM     12  C   UNL A   1      33.302  16.995  23.154  1.00  0.00     0.005 A 
ATOM     13  C   UNL A   1      33.926  18.831  24.606  1.00  0.00     0.014 A 
ATOM     14  C   UNL A   1      32.513  17.848  22.374  1.00  0.00     0.027 A 
ATOM     15  C   UNL A   1      33.137  19.716  23.838  1.00  0.00     0.009 A 
ATOM     16  C   UNL A   1      32.474  19.202  22.724  1.00  0.00     0.046 A 
ATOM     17  N   UNL A   1      31.843  20.257  22.113  1.00  0.00    -0.361 N 
ATOM     18  C   UNL A   1      32.070  21.413  22.812  1.00  0.00     0.094 A 
ATOM     19  H   UNL A   1      31.305  20.191  21.292  1.00  0.00     0.166 HD
ENDBRANCH   8   9
BRANCH   8  20
ATOM     20  N   UNL A   1      31.981  22.716  25.687  1.00  0.00    -0.316 N 
ATOM     21  C   UNL A   1      32.165  23.606  26.836  1.00  0.00     0.284 C 
ATOM     22  C   UNL A   1      31.025  23.259  24.718  1.00  0.00     0.284 C 
ATOM     23  H   UNL A   1      31.544  21.895  26.108  1.00  0.00     0.349 HD
ATOM     24  C   UNL A   1      32.308  25.120  26.548  1.00  0.00     0.178 C 
ATOM     25  C   UNL A   1      31.213  24.746  24.345  1.00  0.00     0.178 C 
ATOM     26  N   UNL A   1      31.332  25.580  25.554  1.00  0.00    -0.360 N 
BRANCH  26  27
ATOM     27  C   UNL A   1      31.268  26.953  25.318  1.00  0.00     0.038 A 
ATOM     28  C   UNL A   1      31.845  27.896  26.182  1.00  0.00     0.026 A 
ATOM     29  C   UNL A   1      30.626  27.412  24.164  1.00  0.00     0.046 A 
ATOM     30  C   UNL A   1      31.767  29.264  25.908  1.00  0.00     0.004 A 
ATOM     31  C   UNL A   1      30.545  28.778  23.893  1.00  0.00     0.043 A 
ATOM     32  C   UNL A   1      31.112  29.707  24.762  1.00  0.00     0.020 A 
ATOM     33  Cl  UNL A   1      29.734  29.321  22.475  1.00  0.00    -0.084 Cl
ENDBRANCH  26  27
ENDBRANCH   8  20
ENDBRANCH   6   8
ENDBRANCH   5   6
ENDBRANCH   4   5
ENDBRANCH   3   4
ENDBRANCH   2   3
ENDBRANCH   1   2
BRANCH   1  34
ATOM     34  C   UNL A   1      41.153  22.253  26.367  1.00  0.00     0.261 C 
BRANCH  34  35
ATOM     35  O   UNL A   1      40.948  23.312  27.319  1.00  0.00    -0.460 OA
BRANCH  35  36
ATOM     36  C   UNL A   1      41.894  24.276  27.281  1.00  0.00     0.338 C 
ATOM     37  O   UNL A   1      42.942  24.252  26.648  1.00  0.00    -0.246 OA
BRANCH  36  38
ATOM     38  C   UNL A   1      41.422  25.484  27.977  1.00  0.00     0.060 A 
ATOM     39  C   UNL A   1      42.381  26.453  28.296  1.00  0.00     0.016 A 
ATOM     40  C   UNL A   1      40.107  25.607  28.427  1.00  0.00     0.016 A 
ATOM     41  C   UNL A   1      42.044  27.514  29.132  1.00  0.00     0.010 A 
ATOM     42  C   UNL A   1      39.773  26.671  29.275  1.00  0.00     0.010 A 
ATOM     43  C   UNL A   1      40.753  27.598  29.672  1.00  0.00    -0.014 A 
BRANCH  43  44
ATOM     44  C   UNL A   1      40.514  28.549  30.788  1.00  0.00     0.031 A 
ATOM     45  C   UNL A   1      41.379  28.459  32.018  1.00  0.00     0.074 A 
ATOM     46  C   UNL A   1      39.605  29.533  30.675  1.00  0.00     0.049 A 
ATOM     47  N   UNL A   1      41.405  29.233  33.073  1.00  0.00    -0.248 NA
ATOM     48  C   UNL A   1      42.350  27.353  32.062  1.00  0.00     0.031 C 
ATOM     49  C   UNL A   1      38.729  29.745  29.524  1.00  0.00     0.029 A 
ATOM     50  N   UNL A   1      39.277  30.549  31.539  1.00  0.00    -0.354 N 
ATOM     51  C   UNL A   1      42.395  28.715  33.900  1.00  0.00     0.074 A 
ATOM     52  C   UNL A   1      42.922  27.539  33.243  1.00  0.00     0.031 C 
ATOM     53  C   UNL A   1      37.964  30.827  29.752  1.00  0.00     0.029 A 
ATOM     54  C   UNL A   1      38.284  31.374  31.069  1.00  0.00     0.049 A 
ATOM     55  H   UNL A   1      39.713  30.673  32.413  1.00  0.00     0.167 HD
ATOM     56  C   UNL A   1      42.836  29.182  35.093  1.00  0.00     0.037 A 
ATOM     57  C   UNL A   1      37.699  32.446  31.640  1.00  0.00     0.037 A 
ATOM     58  C   UNL A   1      42.312  30.352  35.748  1.00  0.00     0.049 A 
ATOM     59  C   UNL A   1      38.174  32.922  32.988  1.00  0.00     0.074 A 
ATOM     60  C   UNL A   1      42.700  30.910  36.954  1.00  0.00     0.029 A 
ATOM     61  N   UNL A   1      41.283  31.141  35.256  1.00  0.00    -0.354 N 
ATOM     62  N   UNL A   1      39.129  32.435  33.745  1.00  0.00    -0.248 NA
ATOM     63  C   UNL A   1      37.499  34.098  33.555  1.00  0.00     0.031 C 
ATOM     64  C   UNL A   1      41.878  32.014  37.209  1.00  0.00     0.029 A 
ATOM     65  C   UNL A   1      41.009  32.170  36.142  1.00  0.00     0.049 A 
ATOM     66  H   UNL A   1      40.817  30.992  34.401  1.00  0.00     0.167 HD
ATOM     67  C   UNL A   1      39.187  33.262  34.863  1.00  0.00     0.074 A 
ATOM     68  C   UNL A   1      38.178  34.284  34.679  1.00  0.00     0.031 C 
ATOM     69  C   UNL A   1      40.004  33.184  35.944  1.00  0.00     0.037 A 
BRANCH  56  70
ATOM     70  C   UNL A   1      43.929  28.410  35.778  1.00  0.00     0.058 A 
ATOM     71  C   UNL A   1      43.645  27.373  36.680  1.00  0.00     0.135 A 
ATOM     72  C   UNL A   1      45.277  28.695  35.509  1.00  0.00     0.135 A 
ATOM     73  F   UNL A   1      42.373  27.072  36.986  1.00  0.00    -0.206 F 
ATOM     74  C   UNL A   1      44.660  26.662  37.314  1.00  0.00     0.059 A 
ATOM     75  C   UNL A   1      46.309  27.982  36.113  1.00  0.00     0.059 A 
ATOM     76  F   UNL A   1      45.604  29.679  34.657  1.00  0.00    -0.206 F 
ATOM     77  C   UNL A   1      45.990  26.977  37.026  1.00  0.00     0.060 A 
BRANCH  77  78
ATOM     78  S   UNL A   1      47.298  26.051  37.856  1.00  0.00     0.124 S 
ATOM     79  O   UNL A   1      47.084  24.708  37.326  1.00  0.00    -0.237 OA
ATOM     80  O   UNL A   1      48.505  26.729  37.396  1.00  0.00    -0.237 OA
ATOM     81  O   UNL A   1      46.988  26.222  39.273  1.00  0.00    -0.744 OA
ENDBRANCH  77  78
ENDBRANCH  56  70
BRANCH  57  82
ATOM     82  C   UNL A   1      36.595  33.148  30.934  1.00  0.00     0.058 A 
ATOM     83  C   UNL A   1      35.266  33.043  31.370  1.00  0.00     0.135 A 
ATOM     84  C   UNL A   1      36.851  33.940  29.803  1.00  0.00     0.135 A 
ATOM     85  F   UNL A   1      34.969  32.287  32.438  1.00  0.00    -0.206 F 
ATOM     86  C   UNL A   1      34.227  33.688  30.705  1.00  0.00     0.059 A 
ATOM     87  C   UNL A   1      35.833  34.613  29.136  1.00  0.00     0.059 A 
ATOM     88  F   UNL A   1      38.107  34.081  29.352  1.00  0.00    -0.206 F 
ATOM     89  C   UNL A   1      34.523  34.474  29.590  1.00  0.00     0.060 A 
BRANCH  89  90
ATOM     90  S   UNL A   1      33.178  35.352  28.764  1.00  0.00     0.124 S 
ATOM     91  O   UNL A   1      32.532  34.272  28.026  1.00  0.00    -0.237 OA
ATOM     92  O   UNL A   1      32.427  35.895  29.891  1.00  0.00    -0.237 OA
ATOM     93  O   UNL A   1      33.876  36.343  27.951  1.00  0.00    -0.744 OA
ENDBRANCH  89  90
ENDBRANCH  57  82
BRANCH  69  94
ATOM     94  C   UNL A   1      39.864  34.249  36.996  1.00  0.00     0.058 A 
ATOM     95  C   UNL A   1      40.503  35.492  36.877  1.00  0.00     0.135 A 
ATOM     96  C   UNL A   1      39.046  34.036  38.117  1.00  0.00     0.135 A 
ATOM     97  F   UNL A   1      41.299  35.745  35.826  1.00  0.00    -0.206 F 
ATOM     98  C   UNL A   1      40.360  36.478  37.849  1.00  0.00     0.059 A 
ATOM     99  C   UNL A   1      38.868  35.017  39.088  1.00  0.00     0.059 A 
ATOM    100  F   UNL A   1      38.401  32.869  38.273  1.00  0.00    -0.206 F 
ATOM    101  C   UNL A   1      39.542  36.230  38.953  1.00  0.00     0.060 A 
BRANCH 101 102
ATOM    102  S   UNL A   1      39.349  37.523  40.199  1.00  0.00     0.124 S 
ATOM    103  O   UNL A   1      38.311  38.354  39.600  1.00  0.00    -0.237 OA
ATOM    104  O   UNL A   1      38.949  36.764  41.381  1.00  0.00    -0.237 OA
ATOM    105  O   UNL A   1      40.676  38.127  40.270  1.00  0.00    -0.744 OA
ENDBRANCH 101 102
ENDBRANCH  69  94
ENDBRANCH  43  44
ENDBRANCH  36  38
ENDBRANCH  35  36
ENDBRANCH  34  35
ENDBRANCH   1  34
TORSDOF 20
ENDMDL
MODEL 3
REMARK VINA RESULT:     -11.9      5.383      7.490
REMARK SMILES Cc1ccc2[nH]cc([C@@H](C(=O)OCCOCCOC(=O)c3ccc(-c4c5nc(c(-c6c(F)cc(S(=O)(=O)[O-])cc6F)c6ccc([nH]6)c(-c6c(F)cc(S(=O)(=O)[O-])cc6F)c6nc(c(-c7c(F)cc(S(=O)(=O)[O-])cc7F)c7ccc4[nH]7)C=C6)C=C5)cc3)[NH+]3CCN(c4cccc(Cl)c4)CC3)c2c1
REMARK SMILES IDX 16 1 15 2 14 3 13 4 12 5 10 6 11 7 9 8 8 9 1 10 2 11 3 12
REMARK SMILES IDX 101 13 4 14 100 15 5 16 6 17 7 18 87 20 88 21 99 22 89 24
REMARK SMILES IDX 98 25 90 26 91 27 92 28 97 29 93 30 95 31 94 32 96 33 17 34
REMARK SMILES IDX 18 35 19 36 20 37 21 38 22 39 86 40 23 41 85 42 24 43 25 44
REMARK SMILES IDX 26 45 79 46 27 47 84 48 78 49 80 50 28 51 83 52 77 53 76 54
REMARK SMILES IDX 29 56 63 57 42 58 62 59 43 60 46 61 61 62 81 63 44 64 45 65
REMARK SMILES IDX 60 67 82 68 47 69 30 70 31 71 40 72 32 73 33 74 39 75 41 76
REMARK SMILES IDX 34 77 35 78 36 79 37 80 38 81 64 82 65 83 74 84 66 85 67 86
REMARK SMILES IDX 73 87 75 88 68 89 69 90 70 91 71 92 72 93 48 94 49 95 58 96
REMARK SMILES IDX 50 97 51 98 57 99 59 100 52 101 53 102 54 103 55 104 56 105
REMARK H PARENT 6 19 87 23 80 55 46 66
REMARK Flexibility Score: inf
ROOT
ATOM      1  C   UNL A   1      39.468  21.701  26.092  1.00  0.00     0.202 C 
ENDROOT
BRANCH   1   2
ATOM      2  O   UNL A   1      38.346  22.507  26.438  1.00  0.00    -0.374 OA
BRANCH   2   3
ATOM      3  C   UNL A   1      37.791  23.329  25.409  1.00  0.00     0.202 C 
BRANCH   3   4
ATOM      4  C   UNL A   1      36.501  24.085  25.749  1.00  0.00     0.261 C 
BRANCH   4   5
ATOM      5  O   UNL A   1      35.314  23.491  25.180  1.00  0.00    -0.459 OA
BRANCH   5   6
ATOM      6  C   UNL A   1      34.187  23.581  25.946  1.00  0.00     0.370 C 
ATOM      7  O   UNL A   1      34.149  23.232  27.127  1.00  0.00    -0.245 OA
BRANCH   6   8
ATOM      8  C   UNL A   1      32.940  24.103  25.197  1.00  0.00     0.328 C 
BRANCH   8   9
ATOM      9  C   UNL A   1      32.059  25.124  25.879  1.00  0.00     0.046 A 
ATOM     10  C   UNL A   1      35.196  29.053  26.925  1.00  0.00     0.044 C 
ATOM     11  C   UNL A   1      33.844  28.412  26.800  1.00  0.00    -0.050 A 
ATOM     12  C   UNL A   1      32.684  29.110  27.140  1.00  0.00     0.005 A 
ATOM     13  C   UNL A   1      33.752  27.080  26.362  1.00  0.00     0.014 A 
ATOM     14  C   UNL A   1      31.427  28.496  27.098  1.00  0.00     0.027 A 
ATOM     15  C   UNL A   1      32.497  26.432  26.309  1.00  0.00     0.009 A 
ATOM     16  C   UNL A   1      31.372  27.153  26.707  1.00  0.00     0.046 A 
ATOM     17  N   UNL A   1      30.303  26.296  26.633  1.00  0.00    -0.361 N 
ATOM     18  C   UNL A   1      30.711  25.067  26.186  1.00  0.00     0.094 A 
ATOM     19  H   UNL A   1      29.376  26.532  26.866  1.00  0.00     0.166 HD
ENDBRANCH   8   9
BRANCH   8  20
ATOM     20  N   UNL A   1      32.170  22.977  24.608  1.00  0.00    -0.316 N 
ATOM     21  C   UNL A   1      32.672  22.318  23.399  1.00  0.00     0.284 C 
ATOM     22  C   UNL A   1      31.583  22.022  25.553  1.00  0.00     0.284 C 
ATOM     23  H   UNL A   1      31.405  23.550  24.250  1.00  0.00     0.349 HD
ATOM     24  C   UNL A   1      33.465  21.002  23.583  1.00  0.00     0.178 C 
ATOM     25  C   UNL A   1      32.410  20.745  25.822  1.00  0.00     0.178 C 
ATOM     26  N   UNL A   1      32.825  20.112  24.558  1.00  0.00    -0.360 N 
BRANCH  26  27
ATOM     27  C   UNL A   1      33.369  18.836  24.702  1.00  0.00     0.038 A 
ATOM     28  C   UNL A   1      34.712  18.551  24.416  1.00  0.00     0.026 A 
ATOM     29  C   UNL A   1      32.553  17.802  25.173  1.00  0.00     0.046 A 
ATOM     30  C   UNL A   1      35.224  17.260  24.579  1.00  0.00     0.004 A 
ATOM     31  C   UNL A   1      33.063  16.513  25.331  1.00  0.00     0.043 A 
ATOM     32  C   UNL A   1      34.396  16.237  25.035  1.00  0.00     0.020 A 
ATOM     33  Cl  UNL A   1      32.036  15.252  25.896  1.00  0.00    -0.084 Cl
ENDBRANCH  26  27
ENDBRANCH   8  20
ENDBRANCH   6   8
ENDBRANCH   5   6
ENDBRANCH   4   5
ENDBRANCH   3   4
ENDBRANCH   2   3
ENDBRANCH   1   2
BRANCH   1  34
ATOM     34  C   UNL A   1      40.813  22.135  26.680  1.00  0.00     0.261 C 
BRANCH  34  35
ATOM     35  O   UNL A   1      40.649  23.255  27.567  1.00  0.00    -0.460 OA
BRANCH  35  36
ATOM     36  C   UNL A   1      41.473  24.293  27.301  1.00  0.00     0.338 C 
ATOM     37  O   UNL A   1      42.386  24.314  26.483  1.00  0.00    -0.246 OA
BRANCH  36  38
ATOM     38  C   UNL A   1      41.020  25.502  28.006  1.00  0.00     0.060 A 
ATOM     39  C   UNL A   1      41.979  26.487  28.267  1.00  0.00     0.016 A 
ATOM     40  C   UNL A   1      39.726  25.613  28.518  1.00  0.00     0.016 A 
ATOM     41  C   UNL A   1      41.669  27.552  29.108  1.00  0.00     0.010 A 
ATOM     42  C   UNL A   1      39.419  26.681  29.371  1.00  0.00     0.010 A 
ATOM     43  C   UNL A   1      40.404  27.626  29.710  1.00  0.00    -0.014 A 
BRANCH  43  44
ATOM     44  C   UNL A   1      40.207  28.585  30.826  1.00  0.00     0.031 A 
ATOM     45  C   UNL A   1      41.088  28.477  32.044  1.00  0.00     0.074 A 
ATOM     46  C   UNL A   1      39.322  29.593  30.723  1.00  0.00     0.049 A 
ATOM     47  N   UNL A   1      41.150  29.253  33.095  1.00  0.00    -0.248 NA
ATOM     48  C   UNL A   1      42.031  27.346  32.076  1.00  0.00     0.031 C 
ATOM     49  C   UNL A   1      38.435  29.824  29.585  1.00  0.00     0.029 A 
ATOM     50  N   UNL A   1      39.034  30.619  31.589  1.00  0.00    -0.354 N 
ATOM     51  C   UNL A   1      42.138  28.711  33.909  1.00  0.00     0.074 A 
ATOM     52  C   UNL A   1      42.625  27.520  33.248  1.00  0.00     0.031 C 
ATOM     53  C   UNL A   1      37.702  30.926  29.821  1.00  0.00     0.029 A 
ATOM     54  C   UNL A   1      38.056  31.468  31.132  1.00  0.00     0.049 A 
ATOM     55  H   UNL A   1      39.486  30.734  32.456  1.00  0.00     0.167 HD
ATOM     56  C   UNL A   1      42.609  29.170  35.093  1.00  0.00     0.037 A 
ATOM     57  C   UNL A   1      37.507  32.557  31.708  1.00  0.00     0.037 A 
ATOM     58  C   UNL A   1      42.126  30.355  35.753  1.00  0.00     0.049 A 
ATOM     59  C   UNL A   1      38.015  33.023  33.047  1.00  0.00     0.074 A 
ATOM     60  C   UNL A   1      42.546  30.906  36.951  1.00  0.00     0.029 A 
ATOM     61  N   UNL A   1      41.111  31.169  35.273  1.00  0.00    -0.354 N 
ATOM     62  N   UNL A   1      38.969  32.515  33.791  1.00  0.00    -0.248 NA
ATOM     63  C   UNL A   1      37.379  34.219  33.621  1.00  0.00     0.031 C 
ATOM     64  C   UNL A   1      41.758  32.032  37.215  1.00  0.00     0.029 A 
ATOM     65  C   UNL A   1      40.877  32.208  36.160  1.00  0.00     0.049 A 
ATOM     66  H   UNL A   1      40.628  31.030  34.426  1.00  0.00     0.167 HD
ATOM     67  C   UNL A   1      39.065  33.343  34.905  1.00  0.00     0.074 A 
ATOM     68  C   UNL A   1      38.079  34.390  34.733  1.00  0.00     0.031 C 
ATOM     69  C   UNL A   1      39.896  33.246  35.974  1.00  0.00     0.037 A 
BRANCH  56  70
ATOM     70  C   UNL A   1      43.693  28.372  35.764  1.00  0.00     0.058 A 
ATOM     71  C   UNL A   1      45.052  28.600  35.494  1.00  0.00     0.135 A 
ATOM     72  C   UNL A   1      43.369  27.385  36.708  1.00  0.00     0.135 A 
ATOM     73  F   UNL A   1      45.415  29.520  34.586  1.00  0.00    -0.206 F 
ATOM     74  C   UNL A   1      46.051  27.858  36.116  1.00  0.00     0.059 A 
ATOM     75  C   UNL A   1      44.353  26.647  37.359  1.00  0.00     0.059 A 
ATOM     76  F   UNL A   1      42.085  27.124  37.001  1.00  0.00    -0.206 F 
ATOM     77  C   UNL A   1      45.691  26.880  37.045  1.00  0.00     0.060 A 
BRANCH  77  78
ATOM     78  S   UNL A   1      46.996  25.921  37.843  1.00  0.00     0.124 S 
ATOM     79  O   UNL A   1      47.938  26.971  38.220  1.00  0.00    -0.237 OA
ATOM     80  O   UNL A   1      46.287  25.280  38.945  1.00  0.00    -0.237 OA
ATOM     81  O   UNL A   1      47.451  25.022  36.786  1.00  0.00    -0.744 OA
ENDBRANCH  77  78
ENDBRANCH  56  70
BRANCH  57  82
ATOM     82  C   UNL A   1      36.411  33.285  31.016  1.00  0.00     0.058 A 
ATOM     83  C   UNL A   1      35.086  33.213  31.471  1.00  0.00     0.135 A 
ATOM     84  C   UNL A   1      36.671  34.070  29.881  1.00  0.00     0.135 A 
ATOM     85  F   UNL A   1      34.786  32.466  32.544  1.00  0.00    -0.206 F 
ATOM     86  C   UNL A   1      34.055  33.883  30.820  1.00  0.00     0.059 A 
ATOM     87  C   UNL A   1      35.661  34.767  29.227  1.00  0.00     0.059 A 
ATOM     88  F   UNL A   1      37.923  34.178  29.412  1.00  0.00    -0.206 F 
ATOM     89  C   UNL A   1      34.354  34.661  29.699  1.00  0.00     0.060 A 
BRANCH  89  90
ATOM     90  S   UNL A   1      33.020  35.571  28.891  1.00  0.00     0.124 S 
ATOM     91  O   UNL A   1      32.256  36.050  30.038  1.00  0.00    -0.237 OA
ATOM     92  O   UNL A   1      33.751  36.587  28.140  1.00  0.00    -0.237 OA
ATOM     93  O   UNL A   1      32.366  34.551  28.076  1.00  0.00    -0.744 OA
ENDBRANCH  89  90
ENDBRANCH  57  82
BRANCH  69  94
ATOM     94  C   UNL A   1      39.799  34.318  37.025  1.00  0.00     0.058 A 
ATOM     95  C   UNL A   1      39.058  34.132  38.202  1.00  0.00     0.135 A 
ATOM     96  C   UNL A   1      40.493  35.529  36.870  1.00  0.00     0.135 A 
ATOM     97  F   UNL A   1      38.375  32.994  38.398  1.00  0.00    -0.206 F 
ATOM     98  C   UNL A   1      38.983  35.123  39.176  1.00  0.00     0.059 A 
ATOM     99  C   UNL A   1      40.452  36.523  37.843  1.00  0.00     0.059 A 
ATOM    100  F   UNL A   1      41.228  35.752  35.769  1.00  0.00    -0.206 F 
ATOM    101  C   UNL A   1      39.680  36.317  38.986  1.00  0.00     0.060 A 
BRANCH 101 102
ATOM    102  S   UNL A   1      39.591  37.589  40.264  1.00  0.00     0.124 S 
ATOM    103  O   UNL A   1      38.770  38.603  39.612  1.00  0.00    -0.237 OA
ATOM    104  O   UNL A   1      38.959  36.879  41.373  1.00  0.00    -0.237 OA
ATOM    105  O   UNL A   1      40.989  37.954  40.478  1.00  0.00    -0.744 OA
ENDBRANCH 101 102
ENDBRANCH  69  94
ENDBRANCH  43  44
ENDBRANCH  36  38
ENDBRANCH  35  36
ENDBRANCH  34  35
ENDBRANCH   1  34
TORSDOF 20
ENDMDL
