MODEL 1
REMARK VINA RESULT:     -10.7      0.000      0.000
REMARK SMILES CC(C)(C)[C@@H]1CC(C(=O)OCCOCCOC(=O)c2ccc(-c3c4nc(c(-c5c(F)cc(S(=O)(=O)[O-])cc5F)c5ccc([nH]5)c(-c5c(F)cc(S(=O)(=O)[O-])cc5F)c5nc(c(-c6c(F)cc(S(=O)(=O)[O-])cc6F)c6ccc3[nH]6)C=C5)C=C4)cc2)C[C@@H](C(C)(C)C)C1
REMARK SMILES IDX 14 1 13 2 12 3 11 4 10 5 8 6 9 7 7 8 5 9 6 10 91 11 86 12
REMARK SMILES IDX 85 13 2 14 1 15 3 16 4 17 87 18 88 19 89 20 90 21 15 22
REMARK SMILES IDX 16 23 17 24 18 25 19 26 20 27 84 28 21 29 83 30 22 31 23 32
REMARK SMILES IDX 24 33 77 34 25 35 82 36 76 37 78 38 26 39 81 40 75 41 74 42
REMARK SMILES IDX 27 44 61 45 40 46 60 47 41 48 44 49 59 50 79 51 42 52 43 53
REMARK SMILES IDX 58 55 80 56 45 57 28 58 29 59 38 60 30 61 31 62 37 63 39 64
REMARK SMILES IDX 32 65 33 66 34 67 35 68 36 69 62 70 63 71 72 72 64 73 65 74
REMARK SMILES IDX 71 75 73 76 66 77 67 78 68 79 69 80 70 81 46 82 47 83 56 84
REMARK SMILES IDX 48 85 49 86 55 87 57 88 50 89 51 90 52 91 53 92 54 93
REMARK H PARENT 78 43 44 54
REMARK Flexibility Score: inf
ROOT
ATOM      1  C   UNL A   1      42.163  22.095  25.953  1.00  0.00     0.202 C 
ENDROOT
BRANCH   1   2
ATOM      2  O   UNL A   1      41.066  21.672  26.763  1.00  0.00    -0.374 OA
BRANCH   2   3
ATOM      3  C   UNL A   1      39.922  21.125  26.109  1.00  0.00     0.202 C 
BRANCH   3   4
ATOM      4  C   UNL A   1      38.744  22.067  25.851  1.00  0.00     0.261 C 
BRANCH   4   5
ATOM      5  O   UNL A   1      37.546  21.353  25.502  1.00  0.00    -0.463 OA
BRANCH   5   6
ATOM      6  C   UNL A   1      36.412  22.091  25.569  1.00  0.00     0.309 C 
ATOM      7  O   UNL A   1      36.335  23.221  26.045  1.00  0.00    -0.252 OA
BRANCH   6   8
ATOM      8  C   UNL A   1      35.208  21.430  24.920  1.00  0.00     0.100 C 
ATOM      9  C   UNL A   1      33.788  19.416  24.264  1.00  0.00    -0.005 C 
ATOM     10  C   UNL A   1      35.051  19.906  25.029  1.00  0.00     0.019 C 
ATOM     11  C   UNL A   1      32.563  20.160  24.826  1.00  0.00     0.008 C 
ATOM     12  C   UNL A   1      32.658  21.699  24.728  1.00  0.00    -0.005 C 
ATOM     13  C   UNL A   1      33.954  22.163  25.411  1.00  0.00     0.019 C 
BRANCH   9  14
ATOM     14  C   UNL A   1      33.628  17.840  24.195  1.00  0.00    -0.035 C 
ATOM     15  C   UNL A   1      34.904  17.081  24.625  1.00  0.00     0.011 C 
ATOM     16  C   UNL A   1      33.238  17.327  22.796  1.00  0.00     0.011 C 
ATOM     17  C   UNL A   1      32.511  17.422  25.181  1.00  0.00     0.011 C 
ENDBRANCH   9  14
BRANCH  12  18
ATOM     18  C   UNL A   1      32.372  22.370  23.316  1.00  0.00    -0.035 C 
ATOM     19  C   UNL A   1      31.203  23.372  23.499  1.00  0.00     0.011 C 
ATOM     20  C   UNL A   1      33.535  23.176  22.705  1.00  0.00     0.011 C 
ATOM     21  C   UNL A   1      31.934  21.339  22.259  1.00  0.00     0.011 C 
ENDBRANCH  12  18
ENDBRANCH   6   8
ENDBRANCH   5   6
ENDBRANCH   4   5
ENDBRANCH   3   4
ENDBRANCH   2   3
ENDBRANCH   1   2
BRANCH   1  22
ATOM     22  C   UNL A   1      42.462  23.599  25.891  1.00  0.00     0.261 C 
BRANCH  22  23
ATOM     23  O   UNL A   1      41.308  24.409  26.186  1.00  0.00    -0.460 OA
BRANCH  23  24
ATOM     24  C   UNL A   1      41.505  25.742  26.041  1.00  0.00     0.338 C 
ATOM     25  O   UNL A   1      41.448  26.386  25.002  1.00  0.00    -0.246 OA
BRANCH  24  26
ATOM     26  C   UNL A   1      41.615  26.395  27.358  1.00  0.00     0.060 A 
ATOM     27  C   UNL A   1      40.660  26.058  28.326  1.00  0.00     0.016 A 
ATOM     28  C   UNL A   1      42.558  27.395  27.607  1.00  0.00     0.016 A 
ATOM     29  C   UNL A   1      40.611  26.756  29.530  1.00  0.00     0.010 A 
ATOM     30  C   UNL A   1      42.498  28.103  28.814  1.00  0.00     0.010 A 
ATOM     31  C   UNL A   1      41.500  27.812  29.763  1.00  0.00    -0.014 A 
BRANCH  31  32
ATOM     32  C   UNL A   1      41.270  28.701  30.929  1.00  0.00     0.031 A 
ATOM     33  C   UNL A   1      40.143  29.697  30.877  1.00  0.00     0.074 A 
ATOM     34  C   UNL A   1      42.016  28.582  32.041  1.00  0.00     0.049 A 
ATOM     35  N   UNL A   1      39.749  30.552  31.786  1.00  0.00    -0.248 NA
ATOM     36  C   UNL A   1      39.354  29.733  29.634  1.00  0.00     0.031 C 
ATOM     37  C   UNL A   1      43.111  27.631  32.226  1.00  0.00     0.029 A 
ATOM     38  N   UNL A   1      41.962  29.268  33.229  1.00  0.00    -0.354 N 
ATOM     39  C   UNL A   1      38.669  31.227  31.227  1.00  0.00     0.074 A 
ATOM     40  C   UNL A   1      38.490  30.704  29.890  1.00  0.00     0.031 C 
ATOM     41  C   UNL A   1      43.631  27.798  33.455  1.00  0.00     0.029 A 
ATOM     42  C   UNL A   1      42.921  28.882  34.133  1.00  0.00     0.049 A 
ATOM     43  H   UNL A   1      41.297  29.970  33.416  1.00  0.00     0.167 HD
ATOM     44  C   UNL A   1      37.892  32.190  31.781  1.00  0.00     0.037 A 
ATOM     45  C   UNL A   1      43.203  29.357  35.363  1.00  0.00     0.037 A 
ATOM     46  C   UNL A   1      38.073  32.707  33.113  1.00  0.00     0.049 A 
ATOM     47  C   UNL A   1      42.360  30.463  35.939  1.00  0.00     0.074 A 
ATOM     48  C   UNL A   1      37.326  33.667  33.772  1.00  0.00     0.029 A 
ATOM     49  N   UNL A   1      39.077  32.313  33.986  1.00  0.00    -0.354 N 
ATOM     50  N   UNL A   1      41.326  31.075  35.409  1.00  0.00    -0.248 NA
ATOM     51  C   UNL A   1      42.715  30.939  37.283  1.00  0.00     0.031 C 
ATOM     52  C   UNL A   1      37.904  33.886  35.028  1.00  0.00     0.029 A 
ATOM     53  C   UNL A   1      38.984  33.027  35.169  1.00  0.00     0.049 A 
ATOM     54  H   UNL A   1      39.755  31.626  33.793  1.00  0.00     0.167 HD
ATOM     55  C   UNL A   1      40.896  31.992  36.363  1.00  0.00     0.074 A 
ATOM     56  C   UNL A   1      41.773  31.846  37.507  1.00  0.00     0.031 C 
ATOM     57  C   UNL A   1      39.867  32.873  36.299  1.00  0.00     0.037 A 
BRANCH  44  58
ATOM     58  C   UNL A   1      36.791  32.763  30.933  1.00  0.00     0.058 A 
ATOM     59  C   UNL A   1      35.470  32.296  31.023  1.00  0.00     0.135 A 
ATOM     60  C   UNL A   1      37.058  33.807  30.034  1.00  0.00     0.135 A 
ATOM     61  F   UNL A   1      35.163  31.289  31.854  1.00  0.00    -0.206 F 
ATOM     62  C   UNL A   1      34.458  32.825  30.228  1.00  0.00     0.059 A 
ATOM     63  C   UNL A   1      36.056  34.367  29.246  1.00  0.00     0.059 A 
ATOM     64  F   UNL A   1      38.304  34.288  29.907  1.00  0.00    -0.206 F 
ATOM     65  C   UNL A   1      34.762  33.858  29.339  1.00  0.00     0.060 A 
BRANCH  65  66
ATOM     66  S   UNL A   1      33.441  34.528  28.307  1.00  0.00     0.124 S 
ATOM     67  O   UNL A   1      34.177  35.467  27.466  1.00  0.00    -0.237 OA
ATOM     68  O   UNL A   1      32.935  33.336  27.632  1.00  0.00    -0.237 OA
ATOM     69  O   UNL A   1      32.528  35.132  29.273  1.00  0.00    -0.744 OA
ENDBRANCH  65  66
ENDBRANCH  44  58
BRANCH  45  70
ATOM     70  C   UNL A   1      44.345  28.791  36.128  1.00  0.00     0.058 A 
ATOM     71  C   UNL A   1      45.623  29.363  36.057  1.00  0.00     0.135 A 
ATOM     72  C   UNL A   1      44.174  27.672  36.957  1.00  0.00     0.135 A 
ATOM     73  F   UNL A   1      45.839  30.426  35.269  1.00  0.00    -0.206 F 
ATOM     74  C   UNL A   1      46.695  28.841  36.775  1.00  0.00     0.059 A 
ATOM     75  C   UNL A   1      45.224  27.146  37.703  1.00  0.00     0.059 A 
ATOM     76  F   UNL A   1      42.967  27.093  37.067  1.00  0.00    -0.206 F 
ATOM     77  C   UNL A   1      46.483  27.735  37.600  1.00  0.00     0.060 A 
BRANCH  77  78
ATOM     78  S   UNL A   1      47.865  27.103  38.577  1.00  0.00     0.124 S 
ATOM     79  O   UNL A   1      48.549  28.335  38.951  1.00  0.00    -0.237 OA
ATOM     80  O   UNL A   1      47.179  26.399  39.657  1.00  0.00    -0.237 OA
ATOM     81  O   UNL A   1      48.576  26.245  37.634  1.00  0.00    -0.744 OA
ENDBRANCH  77  78
ENDBRANCH  45  70
BRANCH  57  82
ATOM     82  C   UNL A   1      39.615  33.732  37.508  1.00  0.00     0.058 A 
ATOM     83  C   UNL A   1      38.775  33.310  38.550  1.00  0.00     0.135 A 
ATOM     84  C   UNL A   1      40.255  34.975  37.645  1.00  0.00     0.135 A 
ATOM     85  F   UNL A   1      38.136  32.132  38.468  1.00  0.00    -0.206 F 
ATOM     86  C   UNL A   1      38.557  34.102  39.673  1.00  0.00     0.059 A 
ATOM     87  C   UNL A   1      40.071  35.771  38.770  1.00  0.00     0.059 A 
ATOM     88  F   UNL A   1      41.078  35.420  36.682  1.00  0.00    -0.206 F 
ATOM     89  C   UNL A   1      39.208  35.333  39.774  1.00  0.00     0.060 A 
BRANCH  89  90
ATOM     90  S   UNL A   1      38.934  36.343  41.245  1.00  0.00     0.124 S 
ATOM     91  O   UNL A   1      38.690  37.656  40.657  1.00  0.00    -0.237 OA
ATOM     92  O   UNL A   1      37.777  35.698  41.859  1.00  0.00    -0.237 OA
ATOM     93  O   UNL A   1      40.184  36.209  41.986  1.00  0.00    -0.744 OA
ENDBRANCH  89  90
ENDBRANCH  57  82
ENDBRANCH  31  32
ENDBRANCH  24  26
ENDBRANCH  23  24
ENDBRANCH  22  23
ENDBRANCH   1  22
TORSDOF 19
ENDMDL
MODEL 2
REMARK VINA RESULT:     -10.6      6.805     12.537
REMARK SMILES CC(C)(C)[C@@H]1CC(C(=O)OCCOCCOC(=O)c2ccc(-c3c4nc(c(-c5c(F)cc(S(=O)(=O)[O-])cc5F)c5ccc([nH]5)c(-c5c(F)cc(S(=O)(=O)[O-])cc5F)c5nc(c(-c6c(F)cc(S(=O)(=O)[O-])cc6F)c6ccc3[nH]6)C=C5)C=C4)cc2)C[C@@H](C(C)(C)C)C1
REMARK SMILES IDX 14 1 13 2 12 3 11 4 10 5 8 6 9 7 7 8 5 9 6 10 91 11 86 12
REMARK SMILES IDX 85 13 2 14 1 15 3 16 4 17 87 18 88 19 89 20 90 21 15 22
REMARK SMILES IDX 16 23 17 24 18 25 19 26 20 27 84 28 21 29 83 30 22 31 23 32
REMARK SMILES IDX 24 33 77 34 25 35 82 36 76 37 78 38 26 39 81 40 75 41 74 42
REMARK SMILES IDX 27 44 61 45 40 46 60 47 41 48 44 49 59 50 79 51 42 52 43 53
REMARK SMILES IDX 58 55 80 56 45 57 28 58 29 59 38 60 30 61 31 62 37 63 39 64
REMARK SMILES IDX 32 65 33 66 34 67 35 68 36 69 62 70 63 71 72 72 64 73 65 74
REMARK SMILES IDX 71 75 73 76 66 77 67 78 68 79 69 80 70 81 46 82 47 83 56 84
REMARK SMILES IDX 48 85 49 86 55 87 57 88 50 89 51 90 52 91 53 92 54 93
REMARK H PARENT 78 43 44 54
REMARK Flexibility Score: inf
ROOT
ATOM      1  C   UNL A   1      36.036  33.337  28.587  1.00  0.00     0.202 C 
ENDROOT
BRANCH   1   2
ATOM      2  O   UNL A   1      34.946  33.354  27.665  1.00  0.00    -0.374 OA
BRANCH   2   3
ATOM      3  C   UNL A   1      33.805  32.551  27.960  1.00  0.00     0.202 C 
BRANCH   3   4
ATOM      4  C   UNL A   1      33.897  31.057  27.643  1.00  0.00     0.261 C 
BRANCH   4   5
ATOM      5  O   UNL A   1      32.802  30.607  26.827  1.00  0.00    -0.463 OA
BRANCH   5   6
ATOM      6  C   UNL A   1      32.797  29.276  26.577  1.00  0.00     0.309 C 
ATOM      7  O   UNL A   1      33.276  28.419  27.316  1.00  0.00    -0.252 OA
BRANCH   6   8
ATOM      8  C   UNL A   1      32.060  28.892  25.305  1.00  0.00     0.100 C 
ATOM      9  C   UNL A   1      30.278  29.222  23.512  1.00  0.00    -0.005 C 
ATOM     10  C   UNL A   1      30.939  29.808  24.793  1.00  0.00     0.019 C 
ATOM     11  C   UNL A   1      31.375  29.011  22.453  1.00  0.00     0.008 C 
ATOM     12  C   UNL A   1      32.523  28.082  22.909  1.00  0.00    -0.005 C 
ATOM     13  C   UNL A   1      33.111  28.623  24.221  1.00  0.00     0.019 C 
BRANCH   9  14
ATOM     14  C   UNL A   1      29.010  30.025  22.997  1.00  0.00    -0.035 C 
ATOM     15  C   UNL A   1      29.108  30.422  21.506  1.00  0.00     0.011 C 
ATOM     16  C   UNL A   1      28.737  31.313  23.798  1.00  0.00     0.011 C 
ATOM     17  C   UNL A   1      27.770  29.111  23.132  1.00  0.00     0.011 C 
ENDBRANCH   9  14
BRANCH  12  18
ATOM     18  C   UNL A   1      32.258  26.515  22.894  1.00  0.00    -0.035 C 
ATOM     19  C   UNL A   1      30.845  26.272  23.482  1.00  0.00     0.011 C 
ATOM     20  C   UNL A   1      32.268  25.842  21.507  1.00  0.00     0.011 C 
ATOM     21  C   UNL A   1      33.262  25.747  23.775  1.00  0.00     0.011 C 
ENDBRANCH  12  18
ENDBRANCH   6   8
ENDBRANCH   5   6
ENDBRANCH   4   5
ENDBRANCH   3   4
ENDBRANCH   2   3
ENDBRANCH   1   2
BRANCH   1  22
ATOM     22  C   UNL A   1      35.730  32.958  30.043  1.00  0.00     0.261 C 
BRANCH  22  23
ATOM     23  O   UNL A   1      36.155  31.622  30.371  1.00  0.00    -0.460 OA
BRANCH  23  24
ATOM     24  C   UNL A   1      37.220  31.561  31.207  1.00  0.00     0.338 C 
ATOM     25  O   UNL A   1      37.272  31.956  32.364  1.00  0.00    -0.246 OA
BRANCH  24  26
ATOM     26  C   UNL A   1      38.303  30.759  30.609  1.00  0.00     0.060 A 
ATOM     27  C   UNL A   1      39.340  30.343  31.454  1.00  0.00     0.016 A 
ATOM     28  C   UNL A   1      38.364  30.514  29.235  1.00  0.00     0.016 A 
ATOM     29  C   UNL A   1      40.468  29.724  30.922  1.00  0.00     0.010 A 
ATOM     30  C   UNL A   1      39.506  29.903  28.702  1.00  0.00     0.010 A 
ATOM     31  C   UNL A   1      40.578  29.542  29.538  1.00  0.00    -0.014 A 
BRANCH  31  32
ATOM     32  C   UNL A   1      41.883  29.120  28.971  1.00  0.00     0.031 A 
ATOM     33  C   UNL A   1      42.999  30.125  28.878  1.00  0.00     0.074 A 
ATOM     34  C   UNL A   1      42.090  27.844  28.598  1.00  0.00     0.049 A 
ATOM     35  N   UNL A   1      44.222  29.970  28.440  1.00  0.00    -0.248 NA
ATOM     36  C   UNL A   1      42.696  31.489  29.344  1.00  0.00     0.031 C 
ATOM     37  C   UNL A   1      41.100  26.772  28.674  1.00  0.00     0.029 A 
ATOM     38  N   UNL A   1      43.207  27.236  28.083  1.00  0.00    -0.354 N 
ATOM     39  C   UNL A   1      44.834  31.211  28.576  1.00  0.00     0.074 A 
ATOM     40  C   UNL A   1      43.839  32.117  29.107  1.00  0.00     0.031 C 
ATOM     41  C   UNL A   1      41.652  25.635  28.214  1.00  0.00     0.029 A 
ATOM     42  C   UNL A   1      43.026  25.906  27.791  1.00  0.00     0.049 A 
ATOM     43  H   UNL A   1      44.059  27.708  27.936  1.00  0.00     0.167 HD
ATOM     44  C   UNL A   1      46.111  31.563  28.291  1.00  0.00     0.037 A 
ATOM     45  C   UNL A   1      43.868  25.012  27.235  1.00  0.00     0.037 A 
ATOM     46  C   UNL A   1      47.100  30.658  27.763  1.00  0.00     0.049 A 
ATOM     47  C   UNL A   1      45.267  25.437  26.877  1.00  0.00     0.074 A 
ATOM     48  C   UNL A   1      48.426  30.913  27.460  1.00  0.00     0.029 A 
ATOM     49  N   UNL A   1      46.868  29.326  27.450  1.00  0.00    -0.354 N 
ATOM     50  N   UNL A   1      45.840  26.608  27.034  1.00  0.00    -0.248 NA
ATOM     51  C   UNL A   1      46.138  24.419  26.274  1.00  0.00     0.031 C 
ATOM     52  C   UNL A   1      48.985  29.747  26.924  1.00  0.00     0.029 A 
ATOM     53  C   UNL A   1      48.019  28.752  26.936  1.00  0.00     0.049 A 
ATOM     54  H   UNL A   1      46.011  28.858  27.577  1.00  0.00     0.167 HD
ATOM     55  C   UNL A   1      47.142  26.461  26.569  1.00  0.00     0.074 A 
ATOM     56  C   UNL A   1      47.277  25.085  26.137  1.00  0.00     0.031 C 
ATOM     57  C   UNL A   1      48.138  27.380  26.507  1.00  0.00     0.037 A 
BRANCH  44  58
ATOM     58  C   UNL A   1      46.503  32.996  28.522  1.00  0.00     0.058 A 
ATOM     59  C   UNL A   1      47.004  33.436  29.757  1.00  0.00     0.135 A 
ATOM     60  C   UNL A   1      46.393  33.937  27.486  1.00  0.00     0.135 A 
ATOM     61  F   UNL A   1      47.113  32.581  30.785  1.00  0.00    -0.206 F 
ATOM     62  C   UNL A   1      47.354  34.765  29.966  1.00  0.00     0.059 A 
ATOM     63  C   UNL A   1      46.760  35.267  27.666  1.00  0.00     0.059 A 
ATOM     64  F   UNL A   1      45.917  33.569  26.286  1.00  0.00    -0.206 F 
ATOM     65  C   UNL A   1      47.225  35.676  28.915  1.00  0.00     0.060 A 
BRANCH  65  66
ATOM     66  S   UNL A   1      47.675  37.400  29.203  1.00  0.00     0.124 S 
ATOM     67  O   UNL A   1      48.903  37.515  28.423  1.00  0.00    -0.237 OA
ATOM     68  O   UNL A   1      46.519  38.118  28.673  1.00  0.00    -0.237 OA
ATOM     69  O   UNL A   1      47.842  37.470  30.651  1.00  0.00    -0.744 OA
ENDBRANCH  65  66
ENDBRANCH  44  58
BRANCH  45  70
ATOM     70  C   UNL A   1      43.403  23.625  26.974  1.00  0.00     0.058 A 
ATOM     71  C   UNL A   1      43.039  23.210  25.685  1.00  0.00     0.135 A 
ATOM     72  C   UNL A   1      43.326  22.682  28.011  1.00  0.00     0.135 A 
ATOM     73  F   UNL A   1      43.084  24.077  24.663  1.00  0.00    -0.206 F 
ATOM     74  C   UNL A   1      42.608  21.911  25.433  1.00  0.00     0.059 A 
ATOM     75  C   UNL A   1      42.920  21.371  27.780  1.00  0.00     0.059 A 
ATOM     76  F   UNL A   1      43.671  23.028  29.262  1.00  0.00    -0.206 F 
ATOM     77  C   UNL A   1      42.557  20.997  26.488  1.00  0.00     0.060 A 
BRANCH  77  78
ATOM     78  S   UNL A   1      42.057  19.296  26.141  1.00  0.00     0.124 S 
ATOM     79  O   UNL A   1      42.843  18.995  24.950  1.00  0.00    -0.237 OA
ATOM     80  O   UNL A   1      42.455  18.605  27.363  1.00  0.00    -0.237 OA
ATOM     81  O   UNL A   1      40.616  19.408  25.936  1.00  0.00    -0.744 OA
ENDBRANCH  77  78
ENDBRANCH  45  70
BRANCH  57  82
ATOM     82  C   UNL A   1      49.469  26.924  25.977  1.00  0.00     0.058 A 
ATOM     83  C   UNL A   1      49.834  27.119  24.635  1.00  0.00     0.135 A 
ATOM     84  C   UNL A   1      50.409  26.323  26.830  1.00  0.00     0.135 A 
ATOM     85  F   UNL A   1      48.971  27.685  23.776  1.00  0.00    -0.206 F 
ATOM     86  C   UNL A   1      51.072  26.709  24.152  1.00  0.00     0.059 A 
ATOM     87  C   UNL A   1      51.662  25.929  26.374  1.00  0.00     0.059 A 
ATOM     88  F   UNL A   1      50.115  26.125  28.125  1.00  0.00    -0.206 F 
ATOM     89  C   UNL A   1      51.980  26.112  25.029  1.00  0.00     0.060 A 
BRANCH  89  90
ATOM     90  S   UNL A   1      53.592  25.602  24.396  1.00  0.00     0.124 S 
ATOM     91  O   UNL A   1      53.587  24.175  24.698  1.00  0.00    -0.237 OA
ATOM     92  O   UNL A   1      53.501  25.952  22.982  1.00  0.00    -0.237 OA
ATOM     93  O   UNL A   1      54.531  26.405  25.175  1.00  0.00    -0.744 OA
ENDBRANCH  89  90
ENDBRANCH  57  82
ENDBRANCH  31  32
ENDBRANCH  24  26
ENDBRANCH  23  24
ENDBRANCH  22  23
ENDBRANCH   1  22
TORSDOF 19
ENDMDL
MODEL 3
REMARK VINA RESULT:     -10.5      1.360      8.661
REMARK SMILES CC(C)(C)[C@@H]1CC(C(=O)OCCOCCOC(=O)c2ccc(-c3c4nc(c(-c5c(F)cc(S(=O)(=O)[O-])cc5F)c5ccc([nH]5)c(-c5c(F)cc(S(=O)(=O)[O-])cc5F)c5nc(c(-c6c(F)cc(S(=O)(=O)[O-])cc6F)c6ccc3[nH]6)C=C5)C=C4)cc2)C[C@@H](C(C)(C)C)C1
REMARK SMILES IDX 14 1 13 2 12 3 11 4 10 5 8 6 9 7 7 8 5 9 6 10 91 11 86 12
REMARK SMILES IDX 85 13 2 14 1 15 3 16 4 17 87 18 88 19 89 20 90 21 15 22
REMARK SMILES IDX 16 23 17 24 18 25 19 26 20 27 84 28 21 29 83 30 22 31 23 32
REMARK SMILES IDX 24 33 77 34 25 35 82 36 76 37 78 38 26 39 81 40 75 41 74 42
REMARK SMILES IDX 27 44 61 45 40 46 60 47 41 48 44 49 59 50 79 51 42 52 43 53
REMARK SMILES IDX 58 55 80 56 45 57 28 58 29 59 38 60 30 61 31 62 37 63 39 64
REMARK SMILES IDX 32 65 33 66 34 67 35 68 36 69 62 70 63 71 72 72 64 73 65 74
REMARK SMILES IDX 71 75 73 76 66 77 67 78 68 79 69 80 70 81 46 82 47 83 56 84
REMARK SMILES IDX 48 85 49 86 55 87 57 88 50 89 51 90 52 91 53 92 54 93
REMARK H PARENT 78 43 44 54
REMARK Flexibility Score: inf
ROOT
ATOM      1  C   UNL A   1      40.291  22.004  27.153  1.00  0.00     0.202 C 
ENDROOT
BRANCH   1   2
ATOM      2  O   UNL A   1      39.577  21.031  26.392  1.00  0.00    -0.374 OA
BRANCH   2   3
ATOM      3  C   UNL A   1      38.680  21.494  25.384  1.00  0.00     0.202 C 
BRANCH   3   4
ATOM      4  C   UNL A   1      37.524  22.391  25.830  1.00  0.00     0.261 C 
BRANCH   4   5
ATOM      5  O   UNL A   1      37.397  23.562  25.006  1.00  0.00    -0.463 OA
BRANCH   5   6
ATOM      6  C   UNL A   1      36.482  23.454  24.013  1.00  0.00     0.309 C 
ATOM      7  O   UNL A   1      36.741  23.170  22.846  1.00  0.00    -0.252 OA
BRANCH   6   8
ATOM      8  C   UNL A   1      35.047  23.641  24.475  1.00  0.00     0.100 C 
ATOM      9  C   UNL A   1      33.021  25.050  25.117  1.00  0.00    -0.005 C 
ATOM     10  C   UNL A   1      34.484  25.066  24.586  1.00  0.00     0.019 C 
ATOM     11  C   UNL A   1      32.174  24.171  24.181  1.00  0.00     0.008 C 
ATOM     12  C   UNL A   1      32.686  22.719  24.043  1.00  0.00    -0.005 C 
ATOM     13  C   UNL A   1      34.157  22.748  23.601  1.00  0.00     0.019 C 
BRANCH   9  14
ATOM     14  C   UNL A   1      32.409  26.484  25.408  1.00  0.00    -0.035 C 
ATOM     15  C   UNL A   1      33.231  27.298  26.434  1.00  0.00     0.011 C 
ATOM     16  C   UNL A   1      30.956  26.436  25.918  1.00  0.00     0.011 C 
ATOM     17  C   UNL A   1      32.423  27.293  24.089  1.00  0.00     0.011 C 
ENDBRANCH   9  14
BRANCH  12  18
ATOM     18  C   UNL A   1      32.365  21.705  25.225  1.00  0.00    -0.035 C 
ATOM     19  C   UNL A   1      31.018  22.134  25.860  1.00  0.00     0.011 C 
ATOM     20  C   UNL A   1      32.198  20.227  24.819  1.00  0.00     0.011 C 
ATOM     21  C   UNL A   1      33.433  21.750  26.335  1.00  0.00     0.011 C 
ENDBRANCH  12  18
ENDBRANCH   6   8
ENDBRANCH   5   6
ENDBRANCH   4   5
ENDBRANCH   3   4
ENDBRANCH   2   3
ENDBRANCH   1   2
BRANCH   1  22
ATOM     22  C   UNL A   1      41.050  23.093  26.382  1.00  0.00     0.261 C 
BRANCH  22  23
ATOM     23  O   UNL A   1      40.338  24.344  26.337  1.00  0.00    -0.460 OA
BRANCH  23  24
ATOM     24  C   UNL A   1      41.129  25.439  26.230  1.00  0.00     0.338 C 
ATOM     25  O   UNL A   1      41.611  25.901  25.205  1.00  0.00    -0.246 OA
BRANCH  24  26
ATOM     26  C   UNL A   1      41.198  26.155  27.516  1.00  0.00     0.060 A 
ATOM     27  C   UNL A   1      40.133  25.980  28.409  1.00  0.00     0.016 A 
ATOM     28  C   UNL A   1      42.220  27.064  27.798  1.00  0.00     0.016 A 
ATOM     29  C   UNL A   1      40.059  26.751  29.566  1.00  0.00     0.010 A 
ATOM     30  C   UNL A   1      42.136  27.847  28.956  1.00  0.00     0.010 A 
ATOM     31  C   UNL A   1      41.036  27.721  29.824  1.00  0.00    -0.014 A 
BRANCH  31  32
ATOM     32  C   UNL A   1      40.806  28.699  30.917  1.00  0.00     0.031 A 
ATOM     33  C   UNL A   1      41.683  28.647  32.139  1.00  0.00     0.074 A 
ATOM     34  C   UNL A   1      39.868  29.655  30.797  1.00  0.00     0.049 A 
ATOM     35  N   UNL A   1      41.674  29.415  33.199  1.00  0.00    -0.248 NA
ATOM     36  C   UNL A   1      42.708  27.591  32.169  1.00  0.00     0.031 C 
ATOM     37  C   UNL A   1      38.983  29.830  29.647  1.00  0.00     0.029 A 
ATOM     38  N   UNL A   1      39.508  30.664  31.656  1.00  0.00    -0.354 N 
ATOM     39  C   UNL A   1      42.688  28.936  34.021  1.00  0.00     0.074 A 
ATOM     40  C   UNL A   1      43.271  27.793  33.351  1.00  0.00     0.031 C 
ATOM     41  C   UNL A   1      38.174  30.880  29.876  1.00  0.00     0.029 A 
ATOM     42  C   UNL A   1      38.470  31.436  31.195  1.00  0.00     0.049 A 
ATOM     43  H   UNL A   1      39.952  30.819  32.522  1.00  0.00     0.167 HD
ATOM     44  C   UNL A   1      43.102  29.410  35.221  1.00  0.00     0.037 A 
ATOM     45  C   UNL A   1      37.825  32.467  31.777  1.00  0.00     0.037 A 
ATOM     46  C   UNL A   1      42.521  30.548  35.884  1.00  0.00     0.049 A 
ATOM     47  C   UNL A   1      38.267  32.945  33.134  1.00  0.00     0.074 A 
ATOM     48  C   UNL A   1      42.883  31.119  37.092  1.00  0.00     0.029 A 
ATOM     49  N   UNL A   1      41.449  31.285  35.400  1.00  0.00    -0.354 N 
ATOM     50  N   UNL A   1      39.243  32.498  33.890  1.00  0.00    -0.248 NA
ATOM     51  C   UNL A   1      37.525  34.071  33.717  1.00  0.00     0.031 C 
ATOM     52  C   UNL A   1      42.002  32.174  37.359  1.00  0.00     0.029 A 
ATOM     53  C   UNL A   1      41.121  32.290  36.295  1.00  0.00     0.049 A 
ATOM     54  H   UNL A   1      40.991  31.119  34.545  1.00  0.00     0.167 HD
ATOM     55  C   UNL A   1      39.246  33.302  35.025  1.00  0.00     0.074 A 
ATOM     56  C   UNL A   1      38.182  34.270  34.852  1.00  0.00     0.031 C 
ATOM     57  C   UNL A   1      40.057  33.246  36.111  1.00  0.00     0.037 A 
BRANCH  44  58
ATOM     58  C   UNL A   1      44.223  28.678  35.905  1.00  0.00     0.058 A 
ATOM     59  C   UNL A   1      45.568  29.029  35.704  1.00  0.00     0.135 A 
ATOM     60  C   UNL A   1      43.947  27.624  36.790  1.00  0.00     0.135 A 
ATOM     61  F   UNL A   1      45.888  30.018  34.855  1.00  0.00    -0.206 F 
ATOM     62  C   UNL A   1      46.600  28.341  36.332  1.00  0.00     0.059 A 
ATOM     63  C   UNL A   1      44.963  26.937  37.448  1.00  0.00     0.059 A 
ATOM     64  F   UNL A   1      42.679  27.246  37.017  1.00  0.00    -0.206 F 
ATOM     65  C   UNL A   1      46.288  27.293  37.200  1.00  0.00     0.060 A 
BRANCH  65  66
ATOM     66  S   UNL A   1      47.638  26.402  38.002  1.00  0.00     0.124 S 
ATOM     67  O   UNL A   1      48.642  26.381  36.944  1.00  0.00    -0.237 OA
ATOM     68  O   UNL A   1      47.942  27.257  39.146  1.00  0.00    -0.237 OA
ATOM     69  O   UNL A   1      47.044  25.110  38.331  1.00  0.00    -0.744 OA
ENDBRANCH  65  66
ENDBRANCH  44  58
BRANCH  45  70
ATOM     70  C   UNL A   1      36.683  33.111  31.077  1.00  0.00     0.058 A 
ATOM     71  C   UNL A   1      35.361  32.899  31.495  1.00  0.00     0.135 A 
ATOM     72  C   UNL A   1      36.895  33.962  29.982  1.00  0.00     0.135 A 
ATOM     73  F   UNL A   1      35.107  32.084  32.529  1.00  0.00    -0.206 F 
ATOM     74  C   UNL A   1      34.288  33.503  30.847  1.00  0.00     0.059 A 
ATOM     75  C   UNL A   1      35.840  34.596  29.332  1.00  0.00     0.059 A 
ATOM     76  F   UNL A   1      38.142  34.204  29.548  1.00  0.00    -0.206 F 
ATOM     77  C   UNL A   1      34.538  34.354  29.769  1.00  0.00     0.060 A 
BRANCH  77  78
ATOM     78  S   UNL A   1      33.144  35.184  28.974  1.00  0.00     0.124 S 
ATOM     79  O   UNL A   1      32.265  35.436  30.110  1.00  0.00    -0.237 OA
ATOM     80  O   UNL A   1      33.782  36.358  28.385  1.00  0.00    -0.237 OA
ATOM     81  O   UNL A   1      32.669  34.192  28.014  1.00  0.00    -0.744 OA
ENDBRANCH  77  78
ENDBRANCH  45  70
BRANCH  57  82
ATOM     82  C   UNL A   1      39.844  34.274  37.187  1.00  0.00     0.058 A 
ATOM     83  C   UNL A   1      39.050  34.008  38.314  1.00  0.00     0.135 A 
ATOM     84  C   UNL A   1      40.476  35.526  37.112  1.00  0.00     0.135 A 
ATOM     85  F   UNL A   1      38.421  32.828  38.434  1.00  0.00    -0.206 F 
ATOM     86  C   UNL A   1      38.868  34.958  39.314  1.00  0.00     0.059 A 
ATOM     87  C   UNL A   1      40.328  36.481  38.113  1.00  0.00     0.059 A 
ATOM     88  F   UNL A   1      41.256  35.827  36.061  1.00  0.00    -0.206 F 
ATOM     89  C   UNL A   1      39.509  36.193  39.204  1.00  0.00     0.060 A 
BRANCH  89  90
ATOM     90  S   UNL A   1      39.282  37.410  40.519  1.00  0.00     0.124 S 
ATOM     91  O   UNL A   1      38.217  38.240  39.968  1.00  0.00    -0.237 OA
ATOM     92  O   UNL A   1      38.914  36.577  41.659  1.00  0.00    -0.237 OA
ATOM     93  O   UNL A   1      40.590  38.051  40.616  1.00  0.00    -0.744 OA
ENDBRANCH  89  90
ENDBRANCH  57  82
ENDBRANCH  31  32
ENDBRANCH  24  26
ENDBRANCH  23  24
ENDBRANCH  22  23
ENDBRANCH   1  22
TORSDOF 19
ENDMDL
