MODEL 1
REMARK VINA RESULT:     -12.6      0.000      0.000
REMARK SMILES CC(C)CCn1nc(C(=O)OCCOCCOC(=O)c2ccc(-c3c4nc(c(-c5c(F)cc(S(=O)(=O)[O-])cc5F)c5ccc([nH]5)c(-c5c(F)cc(S(=O)(=O)[O-])cc5F)c5nc(c(-c6c(F)cc(S(=O)(=O)[O-])cc6F)c6ccc3[nH]6)C=C5)C=C4)cc2)c2c1CCN(C(=O)[C@@H]1CCc3nn(C)c(=O)n3C1)C2
REMARK SMILES IDX 14 1 13 2 12 3 11 4 9 5 10 6 8 7 6 8 7 9 87 10 86 11 88 12
REMARK SMILES IDX 104 13 89 14 90 15 5 16 4 17 2 18 1 19 3 20 91 21 92 22
REMARK SMILES IDX 93 23 94 24 103 25 95 26 102 27 96 28 100 29 97 30 98 31
REMARK SMILES IDX 101 32 99 33 15 34 16 35 17 36 18 37 19 38 20 39 21 40 85 41
REMARK SMILES IDX 22 42 84 43 23 44 24 45 25 46 78 47 26 48 83 49 77 50 79 51
REMARK SMILES IDX 27 52 82 53 76 54 75 55 28 57 62 58 41 59 61 60 42 61 45 62
REMARK SMILES IDX 60 63 80 64 43 65 44 66 59 68 81 69 46 70 29 71 30 72 39 73
REMARK SMILES IDX 31 74 32 75 38 76 40 77 33 78 34 79 35 80 36 81 37 82 63 83
REMARK SMILES IDX 64 84 73 85 65 86 66 87 72 88 74 89 67 90 68 91 69 92 70 93
REMARK SMILES IDX 71 94 47 95 48 96 57 97 49 98 50 99 56 100 58 101 51 102
REMARK SMILES IDX 52 103 53 104 54 105 55 106
REMARK H PARENT 79 56 45 67
REMARK Flexibility Score: inf
ROOT
ATOM      1  O   UNL A   1      40.457  21.999  26.303  1.00  0.00    -0.374 OA
ENDROOT
BRANCH   1   2
ATOM      2  C   UNL A   1      39.399  22.767  26.876  1.00  0.00     0.202 C 
BRANCH   2   3
ATOM      3  C   UNL A   1      38.322  23.295  25.931  1.00  0.00     0.261 C 
BRANCH   3   4
ATOM      4  O   UNL A   1      37.115  22.526  26.047  1.00  0.00    -0.458 OA
BRANCH   4   5
ATOM      5  C   UNL A   1      36.907  21.597  25.069  1.00  0.00     0.359 C 
ATOM      6  O   UNL A   1      37.804  20.932  24.551  1.00  0.00    -0.244 OA
BRANCH   5   7
ATOM      7  C   UNL A   1      35.477  21.426  24.768  1.00  0.00     0.175 A 
ATOM      8  N   UNL A   1      33.547  20.490  24.698  1.00  0.00    -0.268 N 
ATOM      9  N   UNL A   1      34.800  20.325  25.167  1.00  0.00    -0.165 NA
ATOM     10  C   UNL A   1      33.447  21.588  23.902  1.00  0.00     0.046 A 
ATOM     11  C   UNL A   1      34.616  22.307  24.056  1.00  0.00     0.028 A 
ATOM     12  C   UNL A   1      32.351  21.975  22.977  1.00  0.00     0.078 C 
ATOM     13  C   UNL A   1      34.867  23.645  23.430  1.00  0.00     0.159 C 
ATOM     14  C   UNL A   1      32.942  23.008  21.985  1.00  0.00     0.126 C 
ATOM     15  N   UNL A   1      33.653  24.077  22.697  1.00  0.00    -0.338 N 
BRANCH   8  16
ATOM     16  C   UNL A   1      32.558  19.455  24.936  1.00  0.00     0.145 C 
BRANCH  16  17
ATOM     17  C   UNL A   1      32.419  18.400  23.827  1.00  0.00     0.027 C 
BRANCH  17  18
ATOM     18  C   UNL A   1      33.120  17.048  24.077  1.00  0.00    -0.016 C 
ATOM     19  C   UNL A   1      34.629  17.193  24.281  1.00  0.00     0.007 C 
ATOM     20  C   UNL A   1      32.514  16.374  25.315  1.00  0.00     0.007 C 
ENDBRANCH  17  18
ENDBRANCH  16  17
ENDBRANCH   8  16
BRANCH  15  21
ATOM     21  C   UNL A   1      33.389  25.427  22.636  1.00  0.00     0.227 C 
ATOM     22  O   UNL A   1      33.734  26.068  21.634  1.00  0.00    -0.274 OA
BRANCH  21  23
ATOM     23  C   UNL A   1      32.694  26.205  23.768  1.00  0.00     0.099 C 
ATOM     24  C   UNL A   1      31.804  25.442  24.759  1.00  0.00     0.023 C 
ATOM     25  C   UNL A   1      32.153  27.562  23.334  1.00  0.00     0.142 C 
ATOM     26  C   UNL A   1      30.291  25.573  24.595  1.00  0.00     0.078 C 
ATOM     27  N   UNL A   1      30.715  27.626  23.287  1.00  0.00    -0.278 N 
ATOM     28  C   UNL A   1      29.838  26.810  23.889  1.00  0.00     0.133 A 
ATOM     29  C   UNL A   1      29.975  28.651  22.754  1.00  0.00     0.345 A 
ATOM     30  N   UNL A   1      28.587  27.143  23.746  1.00  0.00    -0.155 NA
ATOM     31  N   UNL A   1      28.647  28.308  23.019  1.00  0.00    -0.216 N 
ATOM     32  O   UNL A   1      30.386  29.651  22.189  1.00  0.00    -0.246 OA
ATOM     33  C   UNL A   1      27.487  29.097  22.715  1.00  0.00     0.179 C 
ENDBRANCH  21  23
ENDBRANCH  15  21
ENDBRANCH   5   7
ENDBRANCH   4   5
ENDBRANCH   3   4
ENDBRANCH   2   3
ENDBRANCH   1   2
BRANCH   1  34
ATOM     34  C   UNL A   1      40.609  20.621  26.639  1.00  0.00     0.202 C 
BRANCH  34  35
ATOM     35  C   UNL A   1      41.950  19.954  26.366  1.00  0.00     0.261 C 
BRANCH  35  36
ATOM     36  O   UNL A   1      43.008  20.893  26.459  1.00  0.00    -0.460 OA
BRANCH  36  37
ATOM     37  C   UNL A   1      43.782  20.970  25.355  1.00  0.00     0.338 C 
ATOM     38  O   UNL A   1      44.136  20.045  24.632  1.00  0.00    -0.246 OA
BRANCH  37  39
ATOM     39  C   UNL A   1      44.248  22.350  25.218  1.00  0.00     0.060 A 
ATOM     40  C   UNL A   1      45.275  22.701  26.094  1.00  0.00     0.016 A 
ATOM     41  C   UNL A   1      43.377  23.294  24.656  1.00  0.00     0.016 A 
ATOM     42  C   UNL A   1      45.182  23.922  26.705  1.00  0.00     0.010 A 
ATOM     43  C   UNL A   1      43.268  24.502  25.284  1.00  0.00     0.010 A 
ATOM     44  C   UNL A   1      44.098  24.738  26.375  1.00  0.00    -0.014 A 
BRANCH  44  45
ATOM     45  C   UNL A   1      43.862  25.904  27.184  1.00  0.00     0.031 A 
ATOM     46  C   UNL A   1      44.883  26.943  26.963  1.00  0.00     0.074 A 
ATOM     47  C   UNL A   1      42.765  26.002  27.957  1.00  0.00     0.049 A 
ATOM     48  N   UNL A   1      45.774  27.357  27.799  1.00  0.00    -0.248 NA
ATOM     49  C   UNL A   1      45.089  27.408  25.581  1.00  0.00     0.031 C 
ATOM     50  C   UNL A   1      41.609  25.104  28.034  1.00  0.00     0.029 A 
ATOM     51  N   UNL A   1      42.412  27.029  28.772  1.00  0.00    -0.354 N 
ATOM     52  C   UNL A   1      46.514  28.304  27.104  1.00  0.00     0.074 A 
ATOM     53  C   UNL A   1      46.202  28.127  25.712  1.00  0.00     0.031 C 
ATOM     54  C   UNL A   1      40.596  25.741  28.664  1.00  0.00     0.029 A 
ATOM     55  C   UNL A   1      41.066  27.035  29.124  1.00  0.00     0.049 A 
ATOM     56  H   UNL A   1      43.051  27.709  29.085  1.00  0.00     0.167 HD
ATOM     57  C   UNL A   1      47.135  29.325  27.749  1.00  0.00     0.037 A 
ATOM     58  C   UNL A   1      40.412  28.121  29.613  1.00  0.00     0.037 A 
ATOM     59  C   UNL A   1      47.263  29.047  29.157  1.00  0.00     0.049 A 
ATOM     60  C   UNL A   1      41.465  29.013  30.195  1.00  0.00     0.074 A 
ATOM     61  C   UNL A   1      47.916  28.067  29.880  1.00  0.00     0.029 A 
ATOM     62  N   UNL A   1      46.323  29.581  30.008  1.00  0.00    -0.354 N 
ATOM     63  N   UNL A   1      42.197  28.677  31.228  1.00  0.00    -0.248 NA
ATOM     64  C   UNL A   1      42.057  30.022  29.324  1.00  0.00     0.031 C 
ATOM     65  C   UNL A   1      47.029  27.736  30.943  1.00  0.00     0.029 A 
ATOM     66  C   UNL A   1      45.921  28.580  30.861  1.00  0.00     0.049 A 
ATOM     67  H   UNL A   1      45.997  30.510  30.006  1.00  0.00     0.167 HD
ATOM     68  C   UNL A   1      43.485  29.103  30.917  1.00  0.00     0.074 A 
ATOM     69  C   UNL A   1      43.322  29.977  29.754  1.00  0.00     0.031 C 
ATOM     70  C   UNL A   1      44.591  28.485  31.430  1.00  0.00     0.037 A 
BRANCH  57  71
ATOM     71  C   UNL A   1      47.307  30.699  27.160  1.00  0.00     0.058 A 
ATOM     72  C   UNL A   1      48.588  31.279  27.130  1.00  0.00     0.135 A 
ATOM     73  C   UNL A   1      46.234  31.572  26.861  1.00  0.00     0.135 A 
ATOM     74  F   UNL A   1      49.678  30.544  27.403  1.00  0.00    -0.206 F 
ATOM     75  C   UNL A   1      48.784  32.638  26.892  1.00  0.00     0.059 A 
ATOM     76  C   UNL A   1      46.412  32.915  26.561  1.00  0.00     0.059 A 
ATOM     77  F   UNL A   1      44.952  31.197  26.943  1.00  0.00    -0.206 F 
ATOM     78  C   UNL A   1      47.685  33.450  26.624  1.00  0.00     0.060 A 
BRANCH  78  79
ATOM     79  S   UNL A   1      47.918  35.224  26.435  1.00  0.00     0.124 S 
ATOM     80  O   UNL A   1      46.548  35.710  26.553  1.00  0.00    -0.237 OA
ATOM     81  O   UNL A   1      48.806  35.531  27.550  1.00  0.00    -0.237 OA
ATOM     82  O   UNL A   1      48.519  35.344  25.109  1.00  0.00    -0.744 OA
ENDBRANCH  78  79
ENDBRANCH  57  71
BRANCH  58  83
ATOM     83  C   UNL A   1      39.072  28.606  29.168  1.00  0.00     0.058 A 
ATOM     84  C   UNL A   1      37.999  28.733  30.070  1.00  0.00     0.135 A 
ATOM     85  C   UNL A   1      38.880  29.204  27.904  1.00  0.00     0.135 A 
ATOM     86  F   UNL A   1      38.092  28.214  31.303  1.00  0.00    -0.206 F 
ATOM     87  C   UNL A   1      36.835  29.451  29.756  1.00  0.00     0.059 A 
ATOM     88  C   UNL A   1      37.728  29.907  27.563  1.00  0.00     0.059 A 
ATOM     89  F   UNL A   1      39.848  29.212  26.976  1.00  0.00    -0.206 F 
ATOM     90  C   UNL A   1      36.720  30.055  28.503  1.00  0.00     0.060 A 
BRANCH  90  91
ATOM     91  S   UNL A   1      35.325  31.151  28.145  1.00  0.00     0.124 S 
ATOM     92  O   UNL A   1      34.470  30.295  27.330  1.00  0.00    -0.237 OA
ATOM     93  O   UNL A   1      34.831  31.466  29.480  1.00  0.00    -0.237 OA
ATOM     94  O   UNL A   1      35.947  32.267  27.436  1.00  0.00    -0.744 OA
ENDBRANCH  90  91
ENDBRANCH  58  83
BRANCH  70  95
ATOM     95  C   UNL A   1      44.401  27.450  32.515  1.00  0.00     0.058 A 
ATOM     96  C   UNL A   1      44.171  27.758  33.869  1.00  0.00     0.135 A 
ATOM     97  C   UNL A   1      44.259  26.107  32.138  1.00  0.00     0.135 A 
ATOM     98  F   UNL A   1      44.172  29.027  34.295  1.00  0.00    -0.206 F 
ATOM     99  C   UNL A   1      43.859  26.773  34.811  1.00  0.00     0.059 A 
ATOM    100  C   UNL A   1      43.916  25.113  33.052  1.00  0.00     0.059 A 
ATOM    101  F   UNL A   1      44.394  25.753  30.850  1.00  0.00    -0.206 F 
ATOM    102  C   UNL A   1      43.733  25.450  34.391  1.00  0.00     0.060 A 
BRANCH 102 103
ATOM    103  S   UNL A   1      43.263  24.185  35.592  1.00  0.00     0.124 S 
ATOM    104  O   UNL A   1      41.809  24.307  35.610  1.00  0.00    -0.237 OA
ATOM    105  O   UNL A   1      43.790  22.964  34.990  1.00  0.00    -0.237 OA
ATOM    106  O   UNL A   1      43.940  24.609  36.815  1.00  0.00    -0.744 OA
ENDBRANCH 102 103
ENDBRANCH  70  95
ENDBRANCH  44  45
ENDBRANCH  37  39
ENDBRANCH  36  37
ENDBRANCH  35  36
ENDBRANCH  34  35
ENDBRANCH   1  34
TORSDOF 22
ENDMDL
MODEL 2
REMARK VINA RESULT:     -12.0      2.713      9.522
REMARK SMILES CC(C)CCn1nc(C(=O)OCCOCCOC(=O)c2ccc(-c3c4nc(c(-c5c(F)cc(S(=O)(=O)[O-])cc5F)c5ccc([nH]5)c(-c5c(F)cc(S(=O)(=O)[O-])cc5F)c5nc(c(-c6c(F)cc(S(=O)(=O)[O-])cc6F)c6ccc3[nH]6)C=C5)C=C4)cc2)c2c1CCN(C(=O)[C@@H]1CCc3nn(C)c(=O)n3C1)C2
REMARK SMILES IDX 14 1 13 2 12 3 11 4 9 5 10 6 8 7 6 8 7 9 87 10 86 11 88 12
REMARK SMILES IDX 104 13 89 14 90 15 5 16 4 17 2 18 1 19 3 20 91 21 92 22
REMARK SMILES IDX 93 23 94 24 103 25 95 26 102 27 96 28 100 29 97 30 98 31
REMARK SMILES IDX 101 32 99 33 15 34 16 35 17 36 18 37 19 38 20 39 21 40 85 41
REMARK SMILES IDX 22 42 84 43 23 44 24 45 25 46 78 47 26 48 83 49 77 50 79 51
REMARK SMILES IDX 27 52 82 53 76 54 75 55 28 57 62 58 41 59 61 60 42 61 45 62
REMARK SMILES IDX 60 63 80 64 43 65 44 66 59 68 81 69 46 70 29 71 30 72 39 73
REMARK SMILES IDX 31 74 32 75 38 76 40 77 33 78 34 79 35 80 36 81 37 82 63 83
REMARK SMILES IDX 64 84 73 85 65 86 66 87 72 88 74 89 67 90 68 91 69 92 70 93
REMARK SMILES IDX 71 94 47 95 48 96 57 97 49 98 50 99 56 100 58 101 51 102
REMARK SMILES IDX 52 103 53 104 54 105 55 106
REMARK H PARENT 79 56 45 67
REMARK Flexibility Score: inf
ROOT
ATOM      1  O   UNL A   1      35.252  30.670  28.406  1.00  0.00    -0.374 OA
ENDROOT
BRANCH   1   2
ATOM      2  C   UNL A   1      35.617  29.596  27.538  1.00  0.00     0.202 C 
BRANCH   2   3
ATOM      3  C   UNL A   1      34.511  28.965  26.697  1.00  0.00     0.261 C 
BRANCH   3   4
ATOM      4  O   UNL A   1      33.239  29.075  27.355  1.00  0.00    -0.458 OA
BRANCH   4   5
ATOM      5  C   UNL A   1      32.278  29.766  26.676  1.00  0.00     0.359 C 
ATOM      6  O   UNL A   1      31.987  30.941  26.903  1.00  0.00    -0.244 OA
BRANCH   5   7
ATOM      7  C   UNL A   1      31.691  28.969  25.588  1.00  0.00     0.175 A 
ATOM      8  N   UNL A   1      30.817  28.531  23.678  1.00  0.00    -0.268 N 
ATOM      9  N   UNL A   1      31.339  29.534  24.411  1.00  0.00    -0.165 NA
ATOM     10  C   UNL A   1      30.701  27.385  24.401  1.00  0.00     0.046 A 
ATOM     11  C   UNL A   1      31.404  27.575  25.575  1.00  0.00     0.028 A 
ATOM     12  C   UNL A   1      29.939  26.151  24.082  1.00  0.00     0.078 C 
ATOM     13  C   UNL A   1      31.616  26.511  26.607  1.00  0.00     0.159 C 
ATOM     14  C   UNL A   1      29.745  25.383  25.414  1.00  0.00     0.126 C 
ATOM     15  N   UNL A   1      31.017  25.241  26.132  1.00  0.00    -0.338 N 
BRANCH   8  16
ATOM     16  C   UNL A   1      30.309  28.813  22.348  1.00  0.00     0.145 C 
BRANCH  16  17
ATOM     17  C   UNL A   1      29.459  30.087  22.216  1.00  0.00     0.027 C 
BRANCH  17  18
ATOM     18  C   UNL A   1      28.323  30.261  23.244  1.00  0.00    -0.016 C 
ATOM     19  C   UNL A   1      27.643  31.628  23.149  1.00  0.00     0.007 C 
ATOM     20  C   UNL A   1      27.267  29.166  23.036  1.00  0.00     0.007 C 
ENDBRANCH  17  18
ENDBRANCH  16  17
ENDBRANCH   8  16
BRANCH  15  21
ATOM     21  C   UNL A   1      31.620  24.065  26.518  1.00  0.00     0.227 C 
ATOM     22  O   UNL A   1      31.199  23.467  27.517  1.00  0.00    -0.274 OA
BRANCH  21  23
ATOM     23  C   UNL A   1      32.821  23.447  25.776  1.00  0.00     0.099 C 
ATOM     24  C   UNL A   1      33.177  23.963  24.375  1.00  0.00     0.023 C 
ATOM     25  C   UNL A   1      32.936  21.939  25.954  1.00  0.00     0.142 C 
ATOM     26  C   UNL A   1      32.797  23.087  23.183  1.00  0.00     0.078 C 
ATOM     27  N   UNL A   1      32.643  21.189  24.759  1.00  0.00    -0.278 N 
ATOM     28  C   UNL A   1      32.638  21.633  23.493  1.00  0.00     0.133 A 
ATOM     29  C   UNL A   1      32.487  19.828  24.683  1.00  0.00     0.345 A 
ATOM     30  N   UNL A   1      32.417  20.722  22.590  1.00  0.00    -0.155 NA
ATOM     31  N   UNL A   1      32.308  19.564  23.323  1.00  0.00    -0.216 N 
ATOM     32  O   UNL A   1      32.515  19.024  25.600  1.00  0.00    -0.246 OA
ATOM     33  C   UNL A   1      32.166  18.270  22.719  1.00  0.00     0.179 C 
ENDBRANCH  21  23
ENDBRANCH  15  21
ENDBRANCH   5   7
ENDBRANCH   4   5
ENDBRANCH   3   4
ENDBRANCH   2   3
ENDBRANCH   1   2
BRANCH   1  34
ATOM     34  C   UNL A   1      35.311  32.018  27.945  1.00  0.00     0.202 C 
BRANCH  34  35
ATOM     35  C   UNL A   1      36.496  32.876  28.372  1.00  0.00     0.261 C 
BRANCH  35  36
ATOM     36  O   UNL A   1      36.097  33.852  29.318  1.00  0.00    -0.460 OA
BRANCH  36  37
ATOM     37  C   UNL A   1      35.405  33.359  30.368  1.00  0.00     0.338 C 
ATOM     38  O   UNL A   1      34.204  33.475  30.583  1.00  0.00    -0.246 OA
BRANCH  37  39
ATOM     39  C   UNL A   1      36.357  32.752  31.299  1.00  0.00     0.060 A 
ATOM     40  C   UNL A   1      37.565  33.439  31.418  1.00  0.00     0.016 A 
ATOM     41  C   UNL A   1      36.233  31.384  31.579  1.00  0.00     0.016 A 
ATOM     42  C   UNL A   1      38.709  32.687  31.432  1.00  0.00     0.010 A 
ATOM     43  C   UNL A   1      37.374  30.634  31.567  1.00  0.00     0.010 A 
ATOM     44  C   UNL A   1      38.580  31.298  31.373  1.00  0.00    -0.014 A 
BRANCH  44  45
ATOM     45  C   UNL A   1      39.769  30.521  31.143  1.00  0.00     0.031 A 
ATOM     46  C   UNL A   1      40.531  30.300  32.384  1.00  0.00     0.074 A 
ATOM     47  C   UNL A   1      40.039  30.009  29.929  1.00  0.00     0.049 A 
ATOM     48  N   UNL A   1      41.694  30.770  32.684  1.00  0.00    -0.248 NA
ATOM     49  C   UNL A   1      39.820  29.681  33.516  1.00  0.00     0.031 C 
ATOM     50  C   UNL A   1      39.203  30.002  28.725  1.00  0.00     0.029 A 
ATOM     51  N   UNL A   1      41.114  29.267  29.560  1.00  0.00    -0.354 N 
ATOM     52  C   UNL A   1      41.952  30.312  33.969  1.00  0.00     0.074 A 
ATOM     53  C   UNL A   1      40.698  29.855  34.501  1.00  0.00     0.031 C 
ATOM     54  C   UNL A   1      39.697  29.099  27.848  1.00  0.00     0.029 A 
ATOM     55  C   UNL A   1      40.931  28.552  28.381  1.00  0.00     0.049 A 
ATOM     56  H   UNL A   1      41.949  29.236  30.082  1.00  0.00     0.167 HD
ATOM     57  C   UNL A   1      43.224  30.112  34.404  1.00  0.00     0.037 A 
ATOM     58  C   UNL A   1      41.693  27.490  28.008  1.00  0.00     0.037 A 
ATOM     59  C   UNL A   1      44.172  30.802  33.566  1.00  0.00     0.049 A 
ATOM     60  C   UNL A   1      42.989  27.629  28.747  1.00  0.00     0.074 A 
ATOM     61  C   UNL A   1      44.384  32.133  33.261  1.00  0.00     0.029 A 
ATOM     62  N   UNL A   1      44.799  30.082  32.575  1.00  0.00    -0.354 N 
ATOM     63  N   UNL A   1      43.824  28.618  28.546  1.00  0.00    -0.248 NA
ATOM     64  C   UNL A   1      43.100  26.985  30.050  1.00  0.00     0.031 C 
ATOM     65  C   UNL A   1      44.702  32.150  31.874  1.00  0.00     0.029 A 
ATOM     66  C   UNL A   1      44.743  30.829  31.423  1.00  0.00     0.049 A 
ATOM     67  H   UNL A   1      45.212  29.194  32.673  1.00  0.00     0.167 HD
ATOM     68  C   UNL A   1      44.263  28.987  29.814  1.00  0.00     0.074 A 
ATOM     69  C   UNL A   1      43.824  27.905  30.696  1.00  0.00     0.031 C 
ATOM     70  C   UNL A   1      44.673  30.262  30.090  1.00  0.00     0.037 A 
BRANCH  57  71
ATOM     71  C   UNL A   1      43.612  29.024  35.368  1.00  0.00     0.058 A 
ATOM     72  C   UNL A   1      44.293  29.365  36.551  1.00  0.00     0.135 A 
ATOM     73  C   UNL A   1      43.573  27.644  35.061  1.00  0.00     0.135 A 
ATOM     74  F   UNL A   1      44.397  30.647  36.936  1.00  0.00    -0.206 F 
ATOM     75  C   UNL A   1      44.949  28.414  37.331  1.00  0.00     0.059 A 
ATOM     76  C   UNL A   1      44.167  26.674  35.856  1.00  0.00     0.059 A 
ATOM     77  F   UNL A   1      43.049  27.170  33.924  1.00  0.00    -0.206 F 
ATOM     78  C   UNL A   1      44.891  27.072  36.965  1.00  0.00     0.060 A 
BRANCH  78  79
ATOM     79  S   UNL A   1      45.833  25.857  37.898  1.00  0.00     0.124 S 
ATOM     80  O   UNL A   1      44.905  24.733  37.930  1.00  0.00    -0.237 OA
ATOM     81  O   UNL A   1      47.017  25.688  37.064  1.00  0.00    -0.237 OA
ATOM     82  O   UNL A   1      46.064  26.521  39.178  1.00  0.00    -0.744 OA
ENDBRANCH  78  79
ENDBRANCH  57  71
BRANCH  58  83
ATOM     83  C   UNL A   1      41.180  26.193  27.475  1.00  0.00     0.058 A 
ATOM     84  C   UNL A   1      41.859  25.497  26.457  1.00  0.00     0.135 A 
ATOM     85  C   UNL A   1      40.157  25.473  28.128  1.00  0.00     0.135 A 
ATOM     86  F   UNL A   1      42.861  26.089  25.789  1.00  0.00    -0.206 F 
ATOM     87  C   UNL A   1      41.575  24.159  26.145  1.00  0.00     0.059 A 
ATOM     88  C   UNL A   1      39.846  24.150  27.825  1.00  0.00     0.059 A 
ATOM     89  F   UNL A   1      39.477  25.996  29.159  1.00  0.00    -0.206 F 
ATOM     90  C   UNL A   1      40.579  23.486  26.853  1.00  0.00     0.060 A 
BRANCH  90  91
ATOM     91  S   UNL A   1      40.329  21.711  26.612  1.00  0.00     0.124 S 
ATOM     92  O   UNL A   1      40.522  21.192  27.962  1.00  0.00    -0.237 OA
ATOM     93  O   UNL A   1      38.967  21.659  26.094  1.00  0.00    -0.237 OA
ATOM     94  O   UNL A   1      41.371  21.352  25.652  1.00  0.00    -0.744 OA
ENDBRANCH  90  91
ENDBRANCH  58  83
BRANCH  70  95
ATOM     95  C   UNL A   1      44.844  31.230  28.942  1.00  0.00     0.058 A 
ATOM     96  C   UNL A   1      43.870  32.165  28.544  1.00  0.00     0.135 A 
ATOM     97  C   UNL A   1      46.109  31.343  28.348  1.00  0.00     0.135 A 
ATOM     98  F   UNL A   1      42.672  32.204  29.141  1.00  0.00    -0.206 F 
ATOM     99  C   UNL A   1      44.126  33.135  27.572  1.00  0.00     0.059 A 
ATOM    100  C   UNL A   1      46.399  32.322  27.401  1.00  0.00     0.059 A 
ATOM    101  F   UNL A   1      47.106  30.529  28.732  1.00  0.00    -0.206 F 
ATOM    102  C   UNL A   1      45.398  33.206  27.005  1.00  0.00     0.060 A 
BRANCH 102 103
ATOM    103  S   UNL A   1      45.753  34.502  25.797  1.00  0.00     0.124 S 
ATOM    104  O   UNL A   1      47.184  34.328  25.575  1.00  0.00    -0.237 OA
ATOM    105  O   UNL A   1      44.888  34.138  24.677  1.00  0.00    -0.237 OA
ATOM    106  O   UNL A   1      45.373  35.729  26.493  1.00  0.00    -0.744 OA
ENDBRANCH 102 103
ENDBRANCH  70  95
ENDBRANCH  44  45
ENDBRANCH  37  39
ENDBRANCH  36  37
ENDBRANCH  35  36
ENDBRANCH  34  35
ENDBRANCH   1  34
TORSDOF 22
ENDMDL
MODEL 3
REMARK VINA RESULT:     -12.0      1.614      2.104
REMARK SMILES CC(C)CCn1nc(C(=O)OCCOCCOC(=O)c2ccc(-c3c4nc(c(-c5c(F)cc(S(=O)(=O)[O-])cc5F)c5ccc([nH]5)c(-c5c(F)cc(S(=O)(=O)[O-])cc5F)c5nc(c(-c6c(F)cc(S(=O)(=O)[O-])cc6F)c6ccc3[nH]6)C=C5)C=C4)cc2)c2c1CCN(C(=O)[C@@H]1CCc3nn(C)c(=O)n3C1)C2
REMARK SMILES IDX 14 1 13 2 12 3 11 4 9 5 10 6 8 7 6 8 7 9 87 10 86 11 88 12
REMARK SMILES IDX 104 13 89 14 90 15 5 16 4 17 2 18 1 19 3 20 91 21 92 22
REMARK SMILES IDX 93 23 94 24 103 25 95 26 102 27 96 28 100 29 97 30 98 31
REMARK SMILES IDX 101 32 99 33 15 34 16 35 17 36 18 37 19 38 20 39 21 40 85 41
REMARK SMILES IDX 22 42 84 43 23 44 24 45 25 46 78 47 26 48 83 49 77 50 79 51
REMARK SMILES IDX 27 52 82 53 76 54 75 55 28 57 62 58 41 59 61 60 42 61 45 62
REMARK SMILES IDX 60 63 80 64 43 65 44 66 59 68 81 69 46 70 29 71 30 72 39 73
REMARK SMILES IDX 31 74 32 75 38 76 40 77 33 78 34 79 35 80 36 81 37 82 63 83
REMARK SMILES IDX 64 84 73 85 65 86 66 87 72 88 74 89 67 90 68 91 69 92 70 93
REMARK SMILES IDX 71 94 47 95 48 96 57 97 49 98 50 99 56 100 58 101 51 102
REMARK SMILES IDX 52 103 53 104 54 105 55 106
REMARK H PARENT 79 56 45 67
REMARK Flexibility Score: inf
ROOT
ATOM      1  O   UNL A   1      40.014  23.734  27.250  1.00  0.00    -0.374 OA
ENDROOT
BRANCH   1   2
ATOM      2  C   UNL A   1      38.710  24.249  26.976  1.00  0.00     0.202 C 
BRANCH   2   3
ATOM      3  C   UNL A   1      37.995  23.727  25.733  1.00  0.00     0.261 C 
BRANCH   3   4
ATOM      4  O   UNL A   1      36.874  22.904  26.092  1.00  0.00    -0.458 OA
BRANCH   4   5
ATOM      5  C   UNL A   1      36.709  21.770  25.350  1.00  0.00     0.359 C 
ATOM      6  O   UNL A   1      37.622  20.991  25.074  1.00  0.00    -0.244 OA
BRANCH   5   7
ATOM      7  C   UNL A   1      35.300  21.544  24.994  1.00  0.00     0.175 A 
ATOM      8  N   UNL A   1      33.389  20.572  24.917  1.00  0.00    -0.268 N 
ATOM      9  N   UNL A   1      34.617  20.475  25.463  1.00  0.00    -0.165 NA
ATOM     10  C   UNL A   1      33.316  21.586  24.014  1.00  0.00     0.046 A 
ATOM     11  C   UNL A   1      34.466  22.338  24.158  1.00  0.00     0.028 A 
ATOM     12  C   UNL A   1      32.265  21.864  23.001  1.00  0.00     0.078 C 
ATOM     13  C   UNL A   1      34.732  23.614  23.419  1.00  0.00     0.159 C 
ATOM     14  C   UNL A   1      32.895  22.808  21.946  1.00  0.00     0.126 C 
ATOM     15  N   UNL A   1      33.554  23.952  22.586  1.00  0.00    -0.338 N 
BRANCH   8  16
ATOM     16  C   UNL A   1      32.402  19.547  25.202  1.00  0.00     0.145 C 
BRANCH  16  17
ATOM     17  C   UNL A   1      32.759  18.129  24.728  1.00  0.00     0.027 C 
BRANCH  17  18
ATOM     18  C   UNL A   1      33.393  18.015  23.327  1.00  0.00    -0.016 C 
ATOM     19  C   UNL A   1      34.122  16.688  23.113  1.00  0.00     0.007 C 
ATOM     20  C   UNL A   1      32.304  18.162  22.254  1.00  0.00     0.007 C 
ENDBRANCH  17  18
ENDBRANCH  16  17
ENDBRANCH   8  16
BRANCH  15  21
ATOM     21  C   UNL A   1      33.276  25.285  22.381  1.00  0.00     0.227 C 
ATOM     22  O   UNL A   1      33.478  25.782  21.265  1.00  0.00    -0.274 OA
BRANCH  21  23
ATOM     23  C   UNL A   1      32.736  26.216  23.484  1.00  0.00     0.099 C 
ATOM     24  C   UNL A   1      32.004  25.602  24.685  1.00  0.00     0.023 C 
ATOM     25  C   UNL A   1      32.122  27.503  22.948  1.00  0.00     0.142 C 
ATOM     26  C   UNL A   1      30.481  25.718  24.719  1.00  0.00     0.078 C 
ATOM     27  N   UNL A   1      30.690  27.569  23.095  1.00  0.00    -0.278 N 
ATOM     28  C   UNL A   1      29.917  26.848  23.921  1.00  0.00     0.133 A 
ATOM     29  C   UNL A   1      29.869  28.516  22.537  1.00  0.00     0.345 A 
ATOM     30  N   UNL A   1      28.655  27.167  23.911  1.00  0.00    -0.155 NA
ATOM     31  N   UNL A   1      28.596  28.220  23.030  1.00  0.00    -0.216 N 
ATOM     32  O   UNL A   1      30.184  29.426  21.788  1.00  0.00    -0.246 OA
ATOM     33  C   UNL A   1      27.395  28.967  22.787  1.00  0.00     0.179 C 
ENDBRANCH  21  23
ENDBRANCH  15  21
ENDBRANCH   5   7
ENDBRANCH   4   5
ENDBRANCH   3   4
ENDBRANCH   2   3
ENDBRANCH   1   2
BRANCH   1  34
ATOM     34  C   UNL A   1      40.226  22.327  27.345  1.00  0.00     0.202 C 
BRANCH  34  35
ATOM     35  C   UNL A   1      41.507  21.748  26.759  1.00  0.00     0.261 C 
BRANCH  35  36
ATOM     36  O   UNL A   1      42.569  22.682  26.851  1.00  0.00    -0.460 OA
BRANCH  36  37
ATOM     37  C   UNL A   1      43.079  23.062  25.660  1.00  0.00     0.338 C 
ATOM     38  O   UNL A   1      43.163  22.387  24.640  1.00  0.00    -0.246 OA
BRANCH  37  39
ATOM     39  C   UNL A   1      43.644  24.404  25.811  1.00  0.00     0.060 A 
ATOM     40  C   UNL A   1      44.466  24.560  26.926  1.00  0.00     0.016 A 
ATOM     41  C   UNL A   1      42.978  25.478  25.204  1.00  0.00     0.016 A 
ATOM     42  C   UNL A   1      44.309  25.705  27.659  1.00  0.00     0.010 A 
ATOM     43  C   UNL A   1      42.801  26.610  25.948  1.00  0.00     0.010 A 
ATOM     44  C   UNL A   1      43.377  26.645  27.214  1.00  0.00    -0.014 A 
BRANCH  44  45
ATOM     45  C   UNL A   1      43.034  27.725  28.100  1.00  0.00     0.031 A 
ATOM     46  C   UNL A   1      44.026  28.813  28.053  1.00  0.00     0.074 A 
ATOM     47  C   UNL A   1      41.878  27.718  28.788  1.00  0.00     0.049 A 
ATOM     48  N   UNL A   1      44.833  29.178  28.990  1.00  0.00    -0.248 NA
ATOM     49  C   UNL A   1      44.319  29.407  26.737  1.00  0.00     0.031 C 
ATOM     50  C   UNL A   1      40.756  26.778  28.694  1.00  0.00     0.029 A 
ATOM     51  N   UNL A   1      41.423  28.654  29.659  1.00  0.00    -0.354 N 
ATOM     52  C   UNL A   1      45.586  30.208  28.442  1.00  0.00     0.074 A 
ATOM     53  C   UNL A   1      45.389  30.148  27.020  1.00  0.00     0.031 C 
ATOM     54  C   UNL A   1      39.673  27.322  29.295  1.00  0.00     0.029 A 
ATOM     55  C   UNL A   1      40.054  28.584  29.902  1.00  0.00     0.049 A 
ATOM     56  H   UNL A   1      42.009  29.324  30.081  1.00  0.00     0.167 HD
ATOM     57  C   UNL A   1      46.115  31.187  29.221  1.00  0.00     0.037 A 
ATOM     58  C   UNL A   1      39.322  29.600  30.430  1.00  0.00     0.037 A 
ATOM     59  C   UNL A   1      46.146  30.787  30.606  1.00  0.00     0.049 A 
ATOM     60  C   UNL A   1      40.292  30.470  31.169  1.00  0.00     0.074 A 
ATOM     61  C   UNL A   1      46.780  29.768  31.289  1.00  0.00     0.029 A 
ATOM     62  N   UNL A   1      45.123  31.212  31.421  1.00  0.00    -0.354 N 
ATOM     63  N   UNL A   1      40.955  30.066  32.224  1.00  0.00    -0.248 NA
ATOM     64  C   UNL A   1      40.908  31.572  30.441  1.00  0.00     0.031 C 
ATOM     65  C   UNL A   1      45.828  29.314  32.245  1.00  0.00     0.029 A 
ATOM     66  C   UNL A   1      44.696  30.125  32.149  1.00  0.00     0.049 A 
ATOM     67  H   UNL A   1      44.761  32.125  31.475  1.00  0.00     0.167 HD
ATOM     68  C   UNL A   1      42.245  30.561  32.056  1.00  0.00     0.074 A 
ATOM     69  C   UNL A   1      42.137  31.530  30.965  1.00  0.00     0.031 C 
ATOM     70  C   UNL A   1      43.332  29.936  32.600  1.00  0.00     0.037 A 
BRANCH  57  71
ATOM     71  C   UNL A   1      46.277  32.613  28.770  1.00  0.00     0.058 A 
ATOM     72  C   UNL A   1      47.550  33.209  28.819  1.00  0.00     0.135 A 
ATOM     73  C   UNL A   1      45.197  33.497  28.536  1.00  0.00     0.135 A 
ATOM     74  F   UNL A   1      48.645  32.466  29.041  1.00  0.00    -0.206 F 
ATOM     75  C   UNL A   1      47.730  34.588  28.716  1.00  0.00     0.059 A 
ATOM     76  C   UNL A   1      45.360  34.864  28.369  1.00  0.00     0.059 A 
ATOM     77  F   UNL A   1      43.919  33.099  28.558  1.00  0.00    -0.206 F 
ATOM     78  C   UNL A   1      46.624  35.407  28.507  1.00  0.00     0.060 A 
BRANCH  78  79
ATOM     79  S   UNL A   1      46.834  37.194  28.493  1.00  0.00     0.124 S 
ATOM     80  O   UNL A   1      45.480  37.647  28.791  1.00  0.00    -0.237 OA
ATOM     81  O   UNL A   1      47.822  37.389  29.548  1.00  0.00    -0.237 OA
ATOM     82  O   UNL A   1      47.308  37.466  27.139  1.00  0.00    -0.744 OA
ENDBRANCH  78  79
ENDBRANCH  57  71
BRANCH  58  83
ATOM     83  C   UNL A   1      38.002  30.079  29.923  1.00  0.00     0.058 A 
ATOM     84  C   UNL A   1      37.005  30.551  30.798  1.00  0.00     0.135 A 
ATOM     85  C   UNL A   1      37.779  30.331  28.552  1.00  0.00     0.135 A 
ATOM     86  F   UNL A   1      37.135  30.376  32.122  1.00  0.00    -0.206 F 
ATOM     87  C   UNL A   1      35.889  31.271  30.346  1.00  0.00     0.059 A 
ATOM     88  C   UNL A   1      36.671  31.029  28.078  1.00  0.00     0.059 A 
ATOM     89  F   UNL A   1      38.681  29.993  27.619  1.00  0.00    -0.206 F 
ATOM     90  C   UNL A   1      35.744  31.524  28.982  1.00  0.00     0.060 A 
BRANCH  90  91
ATOM     91  S   UNL A   1      34.428  32.617  28.393  1.00  0.00     0.124 S 
ATOM     92  O   UNL A   1      33.555  31.686  27.685  1.00  0.00    -0.237 OA
ATOM     93  O   UNL A   1      33.903  33.165  29.639  1.00  0.00    -0.237 OA
ATOM     94  O   UNL A   1      35.137  33.574  27.546  1.00  0.00    -0.744 OA
ENDBRANCH  90  91
ENDBRANCH  58  83
BRANCH  70  95
ATOM     95  C   UNL A   1      43.101  28.801  33.572  1.00  0.00     0.058 A 
ATOM     96  C   UNL A   1      43.074  27.442  33.209  1.00  0.00     0.135 A 
ATOM     97  C   UNL A   1      43.096  29.090  34.944  1.00  0.00     0.135 A 
ATOM     98  F   UNL A   1      43.192  27.071  31.927  1.00  0.00    -0.206 F 
ATOM     99  C   UNL A   1      43.001  26.421  34.160  1.00  0.00     0.059 A 
ATOM    100  C   UNL A   1      43.057  28.089  35.912  1.00  0.00     0.059 A 
ATOM    101  F   UNL A   1      43.191  30.362  35.363  1.00  0.00    -0.206 F 
ATOM    102  C   UNL A   1      42.993  26.756  35.513  1.00  0.00     0.060 A 
BRANCH 102 103
ATOM    103  S   UNL A   1      42.968  25.436  36.747  1.00  0.00     0.124 S 
ATOM    104  O   UNL A   1      41.712  24.759  36.442  1.00  0.00    -0.237 OA
ATOM    105  O   UNL A   1      44.183  24.688  36.437  1.00  0.00    -0.237 OA
ATOM    106  O   UNL A   1      42.996  26.157  38.017  1.00  0.00    -0.744 OA
ENDBRANCH 102 103
ENDBRANCH  70  95
ENDBRANCH  44  45
ENDBRANCH  37  39
ENDBRANCH  36  37
ENDBRANCH  35  36
ENDBRANCH  34  35
ENDBRANCH   1  34
TORSDOF 22
ENDMDL
