MODEL 1
REMARK VINA RESULT:     -11.5      0.000      0.000
REMARK SMILES O=C(OCCOCCOC(=O)c1ccccc1Nc1cccc(S(F)(F)(F)(F)F)c1)c1ccc(-c2c3nc(c(-c4c(F)cc(S(=O)(=O)[O-])cc4F)c4ccc([nH]4)c(-c4c(F)cc(S(=O)(=O)[O-])cc4F)c4nc(c(-c5c(F)cc(S(=O)(=O)[O-])cc5F)c5ccc2[nH]5)C=C4)C=C3)cc1
REMARK SMILES IDX 6 1 5 2 4 3 3 4 2 5 1 6 31 7 32 8 96 9 33 10 95 11 34 12
REMARK SMILES IDX 35 13 36 14 89 15 37 16 94 17 88 18 90 19 38 20 93 21 87 22
REMARK SMILES IDX 86 23 39 25 73 26 52 27 72 28 53 29 56 30 71 31 91 32 54 33
REMARK SMILES IDX 55 34 70 36 92 37 57 38 40 39 41 40 50 41 42 42 43 43 49 44
REMARK SMILES IDX 51 45 44 46 45 47 46 48 47 49 48 50 74 51 75 52 84 53 76 54
REMARK SMILES IDX 77 55 83 56 85 57 78 58 79 59 80 60 81 61 82 62 58 63 59 64
REMARK SMILES IDX 68 65 60 66 61 67 67 68 69 69 62 70 63 71 64 72 65 73 66 74
REMARK SMILES IDX 7 75 8 76 9 77 10 78 11 79 12 80 13 81 17 82 14 83 16 84
REMARK SMILES IDX 15 85 18 86 19 88 20 89 30 90 21 91 23 92 22 93 24 94 25 95
REMARK SMILES IDX 26 96 27 97 28 98 29 99
REMARK H PARENT 90 24 56 35 18 87
REMARK Flexibility Score: inf
ROOT
ATOM      1  O   UNL A   1      32.786  29.322  23.935  1.00  0.00    -0.374 OA
ENDROOT
BRANCH   1   2
ATOM      2  C   UNL A   1      32.548  29.571  25.313  1.00  0.00     0.202 C 
BRANCH   2   3
ATOM      3  C   UNL A   1      33.549  28.792  26.149  1.00  0.00     0.261 C 
BRANCH   3   4
ATOM      4  O   UNL A   1      33.491  29.240  27.496  1.00  0.00    -0.460 OA
BRANCH   4   5
ATOM      5  C   UNL A   1      34.352  30.279  27.936  1.00  0.00     0.338 C 
ATOM      6  O   UNL A   1      33.899  31.457  28.090  1.00  0.00    -0.246 OA
BRANCH   5   7
ATOM      7  C   UNL A   1      35.815  29.985  28.223  1.00  0.00     0.060 A 
ATOM      8  C   UNL A   1      36.760  30.205  27.234  1.00  0.00     0.016 A 
ATOM      9  C   UNL A   1      36.165  29.523  29.418  1.00  0.00     0.016 A 
ATOM     10  C   UNL A   1      38.022  29.628  27.508  1.00  0.00     0.010 A 
ATOM     11  C   UNL A   1      37.450  29.104  29.657  1.00  0.00     0.010 A 
ATOM     12  C   UNL A   1      38.422  29.235  28.704  1.00  0.00    -0.014 A 
BRANCH  12  13
ATOM     13  C   UNL A   1      39.883  28.946  29.005  1.00  0.00     0.031 A 
ATOM     14  C   UNL A   1      40.373  27.685  28.662  1.00  0.00     0.074 A 
ATOM     15  C   UNL A   1      40.646  29.937  29.600  1.00  0.00     0.049 A 
ATOM     16  N   UNL A   1      41.618  27.229  28.806  1.00  0.00    -0.248 NA
ATOM     17  C   UNL A   1      39.556  26.619  28.062  1.00  0.00     0.031 C 
ATOM     18  C   UNL A   1      40.162  31.215  29.941  1.00  0.00     0.029 A 
ATOM     19  N   UNL A   1      41.974  29.878  29.964  1.00  0.00    -0.354 N 
ATOM     20  C   UNL A   1      41.707  25.978  28.346  1.00  0.00     0.074 A 
ATOM     21  C   UNL A   1      40.380  25.567  27.866  1.00  0.00     0.031 C 
ATOM     22  C   UNL A   1      41.179  31.912  30.512  1.00  0.00     0.029 A 
ATOM     23  C   UNL A   1      42.316  31.082  30.538  1.00  0.00     0.049 A 
ATOM     24  H   UNL A   1      42.573  29.108  29.837  1.00  0.00     0.167 HD
ATOM     25  C   UNL A   1      42.842  25.168  28.305  1.00  0.00     0.037 A 
ATOM     26  C   UNL A   1      43.544  31.453  31.062  1.00  0.00     0.037 A 
ATOM     27  C   UNL A   1      44.081  25.556  28.788  1.00  0.00     0.049 A 
ATOM     28  C   UNL A   1      44.665  30.621  31.074  1.00  0.00     0.074 A 
ATOM     29  C   UNL A   1      45.237  24.753  28.748  1.00  0.00     0.029 A 
ATOM     30  N   UNL A   1      44.418  26.750  29.385  1.00  0.00    -0.354 N 
ATOM     31  N   UNL A   1      44.764  29.386  30.578  1.00  0.00    -0.248 NA
ATOM     32  C   UNL A   1      45.963  30.992  31.655  1.00  0.00     0.031 C 
ATOM     33  C   UNL A   1      46.255  25.451  29.321  1.00  0.00     0.029 A 
ATOM     34  C   UNL A   1      45.750  26.700  29.728  1.00  0.00     0.049 A 
ATOM     35  H   UNL A   1      43.811  27.510  29.539  1.00  0.00     0.167 HD
ATOM     36  C   UNL A   1      45.999  28.915  30.759  1.00  0.00     0.074 A 
ATOM     37  C   UNL A   1      46.786  29.938  31.461  1.00  0.00     0.031 C 
ATOM     38  C   UNL A   1      46.503  27.675  30.364  1.00  0.00     0.037 A 
BRANCH  25  39
ATOM     39  C   UNL A   1      42.712  23.782  27.694  1.00  0.00     0.058 A 
ATOM     40  C   UNL A   1      42.500  22.691  28.521  1.00  0.00     0.135 A 
ATOM     41  C   UNL A   1      42.806  23.639  26.377  1.00  0.00     0.135 A 
ATOM     42  F   UNL A   1      42.150  22.807  29.798  1.00  0.00    -0.206 F 
ATOM     43  C   UNL A   1      42.692  21.442  27.883  1.00  0.00     0.059 A 
ATOM     44  C   UNL A   1      42.850  22.389  25.810  1.00  0.00     0.059 A 
ATOM     45  F   UNL A   1      42.858  24.717  25.600  1.00  0.00    -0.206 F 
ATOM     46  C   UNL A   1      42.708  21.265  26.575  1.00  0.00     0.060 A 
BRANCH  46  47
ATOM     47  S   UNL A   1      42.548  19.621  25.833  1.00  0.00     0.124 S 
ATOM     48  O   UNL A   1      41.106  19.413  25.361  1.00  0.00    -0.237 OA
ATOM     49  O   UNL A   1      43.497  19.505  24.639  1.00  0.00    -0.237 OA
ATOM     50  O   UNL A   1      42.943  18.430  26.995  1.00  0.00    -0.744 OA
ENDBRANCH  46  47
ENDBRANCH  25  39
BRANCH  26  51
ATOM     51  C   UNL A   1      43.678  32.846  31.657  1.00  0.00     0.058 A 
ATOM     52  C   UNL A   1      43.405  33.039  33.002  1.00  0.00     0.135 A 
ATOM     53  C   UNL A   1      44.059  33.852  30.880  1.00  0.00     0.135 A 
ATOM     54  F   UNL A   1      43.269  32.038  33.866  1.00  0.00    -0.206 F 
ATOM     55  C   UNL A   1      43.283  34.400  33.371  1.00  0.00     0.059 A 
ATOM     56  C   UNL A   1      44.045  35.143  31.349  1.00  0.00     0.059 A 
ATOM     57  F   UNL A   1      44.458  33.609  29.635  1.00  0.00    -0.206 F 
ATOM     58  C   UNL A   1      43.727  35.415  32.651  1.00  0.00     0.060 A 
BRANCH  58  59
ATOM     59  S   UNL A   1      43.904  37.075  33.350  1.00  0.00     0.124 S 
ATOM     60  O   UNL A   1      43.961  38.102  32.218  1.00  0.00    -0.237 OA
ATOM     61  O   UNL A   1      42.707  37.377  34.255  1.00  0.00    -0.237 OA
ATOM     62  O   UNL A   1      45.346  37.155  34.266  1.00  0.00    -0.744 OA
ENDBRANCH  58  59
ENDBRANCH  26  51
BRANCH  38  63
ATOM     63  C   UNL A   1      47.966  27.376  30.646  1.00  0.00     0.058 A 
ATOM     64  C   UNL A   1      48.937  27.873  29.792  1.00  0.00     0.135 A 
ATOM     65  C   UNL A   1      48.290  26.643  31.704  1.00  0.00     0.135 A 
ATOM     66  F   UNL A   1      48.691  28.808  28.879  1.00  0.00    -0.206 F 
ATOM     67  C   UNL A   1      50.216  27.297  29.981  1.00  0.00     0.059 A 
ATOM     68  C   UNL A   1      49.586  26.228  31.899  1.00  0.00     0.059 A 
ATOM     69  F   UNL A   1      47.352  26.308  32.586  1.00  0.00    -0.206 F 
ATOM     70  C   UNL A   1      50.587  26.634  31.061  1.00  0.00     0.060 A 
BRANCH  70  71
ATOM     71  S   UNL A   1      52.327  26.279  31.411  1.00  0.00     0.124 S 
ATOM     72  O   UNL A   1      53.073  26.035  30.099  1.00  0.00    -0.237 OA
ATOM     73  O   UNL A   1      52.953  27.470  32.141  1.00  0.00    -0.237 OA
ATOM     74  O   UNL A   1      52.437  24.886  32.397  1.00  0.00    -0.744 OA
ENDBRANCH  70  71
ENDBRANCH  38  63
ENDBRANCH  12  13
ENDBRANCH   5   7
ENDBRANCH   4   5
ENDBRANCH   3   4
ENDBRANCH   2   3
ENDBRANCH   1   2
BRANCH   1  75
ATOM     75  C   UNL A   1      34.112  28.844  23.763  1.00  0.00     0.202 C 
BRANCH  75  76
ATOM     76  C   UNL A   1      34.283  28.324  22.346  1.00  0.00     0.261 C 
BRANCH  76  77
ATOM     77  O   UNL A   1      33.228  27.425  22.040  1.00  0.00    -0.460 OA
BRANCH  77  78
ATOM     78  C   UNL A   1      33.186  26.144  22.655  1.00  0.00     0.340 C 
ATOM     79  O   UNL A   1      33.836  25.177  22.150  1.00  0.00    -0.246 OA
BRANCH  78  80
ATOM     80  C   UNL A   1      32.363  25.934  23.915  1.00  0.00     0.083 A 
ATOM     81  C   UNL A   1      32.945  25.305  25.004  1.00  0.00     0.018 A 
ATOM     82  C   UNL A   1      31.103  26.349  23.953  1.00  0.00     0.053 A 
ATOM     83  C   UNL A   1      32.020  24.900  25.994  1.00  0.00     0.001 A 
ATOM     84  C   UNL A   1      30.292  26.031  25.016  1.00  0.00     0.027 A 
ATOM     85  C   UNL A   1      30.786  25.360  26.100  1.00  0.00     0.002 A 
BRANCH  82  86
ATOM     86  N   UNL A   1      30.569  27.156  22.846  1.00  0.00    -0.355 N 
ATOM     87  H   UNL A   1      31.022  27.155  21.972  1.00  0.00     0.167 HD
BRANCH  86  88
ATOM     88  C   UNL A   1      29.358  27.967  23.046  1.00  0.00     0.040 A 
ATOM     89  C   UNL A   1      28.128  27.438  23.403  1.00  0.00     0.026 A 
ATOM     90  C   UNL A   1      29.548  29.278  22.964  1.00  0.00     0.050 A 
ATOM     91  C   UNL A   1      27.072  28.379  23.376  1.00  0.00     0.004 A 
ATOM     92  C   UNL A   1      28.489  30.146  23.082  1.00  0.00     0.109 A 
ATOM     93  C   UNL A   1      27.234  29.689  23.377  1.00  0.00     0.024 A 
BRANCH  92  94
ATOM     94  S   UNL A   1      28.759  31.920  22.844  1.00  0.00     0.310 S 
ATOM     95  F   UNL A   1      27.299  32.107  23.434  1.00  0.00    -0.094 F 
ATOM     96  F   UNL A   1      28.087  31.682  21.439  1.00  0.00    -0.094 F 
ATOM     97  F   UNL A   1      28.791  33.455  22.600  1.00  0.00    -0.094 F 
ATOM     98  F   UNL A   1      29.301  32.150  24.310  1.00  0.00    -0.094 F 
ATOM     99  F   UNL A   1      28.628  30.375  23.151  1.00  0.00    -0.094 F 
ENDBRANCH  92  94
ENDBRANCH  86  88
ENDBRANCH  82  86
ENDBRANCH  78  80
ENDBRANCH  77  78
ENDBRANCH  76  77
ENDBRANCH  75  76
ENDBRANCH   1  75
TORSDOF 20
ENDMDL
MODEL 2
REMARK VINA RESULT:     -11.5      4.283      5.557
REMARK SMILES O=C(OCCOCCOC(=O)c1ccccc1Nc1cccc(S(F)(F)(F)(F)F)c1)c1ccc(-c2c3nc(c(-c4c(F)cc(S(=O)(=O)[O-])cc4F)c4ccc([nH]4)c(-c4c(F)cc(S(=O)(=O)[O-])cc4F)c4nc(c(-c5c(F)cc(S(=O)(=O)[O-])cc5F)c5ccc2[nH]5)C=C4)C=C3)cc1
REMARK SMILES IDX 6 1 5 2 4 3 3 4 2 5 1 6 31 7 32 8 96 9 33 10 95 11 34 12
REMARK SMILES IDX 35 13 36 14 89 15 37 16 94 17 88 18 90 19 38 20 93 21 87 22
REMARK SMILES IDX 86 23 39 25 73 26 52 27 72 28 53 29 56 30 71 31 91 32 54 33
REMARK SMILES IDX 55 34 70 36 92 37 57 38 40 39 41 40 50 41 42 42 43 43 49 44
REMARK SMILES IDX 51 45 44 46 45 47 46 48 47 49 48 50 74 51 75 52 84 53 76 54
REMARK SMILES IDX 77 55 83 56 85 57 78 58 79 59 80 60 81 61 82 62 58 63 59 64
REMARK SMILES IDX 68 65 60 66 61 67 67 68 69 69 62 70 63 71 64 72 65 73 66 74
REMARK SMILES IDX 7 75 8 76 9 77 10 78 11 79 12 80 13 81 17 82 14 83 16 84
REMARK SMILES IDX 15 85 18 86 19 88 20 89 30 90 21 91 23 92 22 93 24 94 25 95
REMARK SMILES IDX 26 96 27 97 28 98 29 99
REMARK H PARENT 90 24 56 35 18 87
REMARK Flexibility Score: inf
ROOT
ATOM      1  O   UNL A   1      31.297  27.361  27.421  1.00  0.00    -0.374 OA
ENDROOT
BRANCH   1   2
ATOM      2  C   UNL A   1      31.402  28.768  27.580  1.00  0.00     0.202 C 
BRANCH   2   3
ATOM      3  C   UNL A   1      32.640  29.269  26.855  1.00  0.00     0.261 C 
BRANCH   3   4
ATOM      4  O   UNL A   1      33.794  28.973  27.629  1.00  0.00    -0.460 OA
BRANCH   4   5
ATOM      5  C   UNL A   1      34.693  30.012  27.987  1.00  0.00     0.338 C 
ATOM      6  O   UNL A   1      34.273  31.207  28.090  1.00  0.00    -0.246 OA
BRANCH   5   7
ATOM      7  C   UNL A   1      36.156  29.696  28.249  1.00  0.00     0.060 A 
ATOM      8  C   UNL A   1      36.555  29.332  29.525  1.00  0.00     0.016 A 
ATOM      9  C   UNL A   1      37.028  29.774  27.251  1.00  0.00     0.016 A 
ATOM     10  C   UNL A   1      37.957  29.350  29.714  1.00  0.00     0.010 A 
ATOM     11  C   UNL A   1      38.375  29.646  27.487  1.00  0.00     0.010 A 
ATOM     12  C   UNL A   1      38.844  29.346  28.736  1.00  0.00    -0.014 A 
BRANCH  12  13
ATOM     13  C   UNL A   1      40.309  29.024  28.985  1.00  0.00     0.031 A 
ATOM     14  C   UNL A   1      40.745  27.736  28.669  1.00  0.00     0.074 A 
ATOM     15  C   UNL A   1      41.126  30.012  29.507  1.00  0.00     0.049 A 
ATOM     16  N   UNL A   1      41.982  27.247  28.775  1.00  0.00    -0.248 NA
ATOM     17  C   UNL A   1      39.872  26.674  28.147  1.00  0.00     0.031 C 
ATOM     18  C   UNL A   1      40.695  31.315  29.819  1.00  0.00     0.029 A 
ATOM     19  N   UNL A   1      42.466  29.925  29.815  1.00  0.00    -0.354 N 
ATOM     20  C   UNL A   1      42.014  25.979  28.360  1.00  0.00     0.074 A 
ATOM     21  C   UNL A   1      40.656  25.591  27.955  1.00  0.00     0.031 C 
ATOM     22  C   UNL A   1      41.756  32.001  30.319  1.00  0.00     0.029 A 
ATOM     23  C   UNL A   1      42.868  31.139  30.327  1.00  0.00     0.049 A 
ATOM     24  H   UNL A   1      43.036  29.133  29.691  1.00  0.00     0.167 HD
ATOM     25  C   UNL A   1      43.122  25.133  28.300  1.00  0.00     0.037 A 
ATOM     26  C   UNL A   1      44.129  31.492  30.781  1.00  0.00     0.037 A 
ATOM     27  C   UNL A   1      44.392  25.500  28.714  1.00  0.00     0.049 A 
ATOM     28  C   UNL A   1      45.225  30.626  30.776  1.00  0.00     0.074 A 
ATOM     29  C   UNL A   1      45.522  24.662  28.654  1.00  0.00     0.029 A 
ATOM     30  N   UNL A   1      44.790  26.705  29.249  1.00  0.00    -0.354 N 
ATOM     31  N   UNL A   1      45.266  29.371  30.324  1.00  0.00    -0.248 NA
ATOM     32  C   UNL A   1      46.558  30.978  31.285  1.00  0.00     0.031 C 
ATOM     33  C   UNL A   1      46.584  25.348  29.154  1.00  0.00     0.029 A 
ATOM     34  C   UNL A   1      46.135  26.627  29.535  1.00  0.00     0.049 A 
ATOM     35  H   UNL A   1      44.213  27.488  29.400  1.00  0.00     0.167 HD
ATOM     36  C   UNL A   1      46.493  28.870  30.468  1.00  0.00     0.074 A 
ATOM     37  C   UNL A   1      47.340  29.894  31.096  1.00  0.00     0.031 C 
ATOM     38  C   UNL A   1      46.943  27.601  30.099  1.00  0.00     0.037 A 
BRANCH  25  39
ATOM     39  C   UNL A   1      42.925  23.730  27.749  1.00  0.00     0.058 A 
ATOM     40  C   UNL A   1      43.082  23.504  26.392  1.00  0.00     0.135 A 
ATOM     41  C   UNL A   1      42.601  22.744  28.579  1.00  0.00     0.135 A 
ATOM     42  F   UNL A   1      43.644  24.385  25.570  1.00  0.00    -0.206 F 
ATOM     43  C   UNL A   1      42.591  22.249  25.959  1.00  0.00     0.059 A 
ATOM     44  C   UNL A   1      42.264  21.504  28.094  1.00  0.00     0.059 A 
ATOM     45  F   UNL A   1      42.605  22.960  29.891  1.00  0.00    -0.206 F 
ATOM     46  C   UNL A   1      42.339  21.228  26.757  1.00  0.00     0.060 A 
BRANCH  46  47
ATOM     47  S   UNL A   1      42.108  19.551  26.115  1.00  0.00     0.124 S 
ATOM     48  O   UNL A   1      42.950  19.368  24.850  1.00  0.00    -0.237 OA
ATOM     49  O   UNL A   1      42.549  18.535  27.171  1.00  0.00    -0.237 OA
ATOM     50  O   UNL A   1      40.458  19.306  25.741  1.00  0.00    -0.744 OA
ENDBRANCH  46  47
ENDBRANCH  25  39
BRANCH  26  51
ATOM     51  C   UNL A   1      44.330  32.900  31.316  1.00  0.00     0.058 A 
ATOM     52  C   UNL A   1      44.151  33.146  32.668  1.00  0.00     0.135 A 
ATOM     53  C   UNL A   1      44.679  33.870  30.480  1.00  0.00     0.135 A 
ATOM     54  F   UNL A   1      44.053  32.179  33.575  1.00  0.00    -0.206 F 
ATOM     55  C   UNL A   1      44.080  34.521  32.995  1.00  0.00     0.059 A 
ATOM     56  C   UNL A   1      44.721  35.177  30.903  1.00  0.00     0.059 A 
ATOM     57  F   UNL A   1      44.990  33.576  29.221  1.00  0.00    -0.206 F 
ATOM     58  C   UNL A   1      44.496  35.500  32.212  1.00  0.00     0.060 A 
BRANCH  58  59
ATOM     59  S   UNL A   1      44.753  37.179  32.838  1.00  0.00     0.124 S 
ATOM     60  O   UNL A   1      46.004  37.209  33.718  1.00  0.00    -0.237 OA
ATOM     61  O   UNL A   1      44.932  38.140  31.661  1.00  0.00    -0.237 OA
ATOM     62  O   UNL A   1      43.395  37.656  33.761  1.00  0.00    -0.744 OA
ENDBRANCH  58  59
ENDBRANCH  26  51
BRANCH  38  63
ATOM     63  C   UNL A   1      48.408  27.268  30.329  1.00  0.00     0.058 A 
ATOM     64  C   UNL A   1      48.777  26.586  31.477  1.00  0.00     0.135 A 
ATOM     65  C   UNL A   1      49.310  27.636  29.427  1.00  0.00     0.135 A 
ATOM     66  F   UNL A   1      47.902  25.981  32.275  1.00  0.00    -0.206 F 
ATOM     67  C   UNL A   1      50.171  26.591  31.724  1.00  0.00     0.059 A 
ATOM     68  C   UNL A   1      50.653  27.487  29.678  1.00  0.00     0.059 A 
ATOM     69  F   UNL A   1      48.910  28.153  28.268  1.00  0.00    -0.206 F 
ATOM     70  C   UNL A   1      51.091  26.875  30.820  1.00  0.00     0.060 A 
BRANCH  70  71
ATOM     71  S   UNL A   1      52.837  26.476  31.078  1.00  0.00     0.124 S 
ATOM     72  O   UNL A   1      53.505  26.207  29.729  1.00  0.00    -0.237 OA
ATOM     73  O   UNL A   1      53.532  27.654  31.766  1.00  0.00    -0.237 OA
ATOM     74  O   UNL A   1      52.965  25.085  32.065  1.00  0.00    -0.744 OA
ENDBRANCH  70  71
ENDBRANCH  38  63
ENDBRANCH  12  13
ENDBRANCH   5   7
ENDBRANCH   4   5
ENDBRANCH   3   4
ENDBRANCH   2   3
ENDBRANCH   1   2
BRANCH   1  75
ATOM     75  C   UNL A   1      31.061  27.055  26.055  1.00  0.00     0.202 C 
BRANCH  75  76
ATOM     76  C   UNL A   1      30.238  25.781  25.955  1.00  0.00     0.261 C 
BRANCH  76  77
ATOM     77  O   UNL A   1      30.993  24.690  26.461  1.00  0.00    -0.460 OA
BRANCH  77  78
ATOM     78  C   UNL A   1      31.649  23.805  25.563  1.00  0.00     0.340 C 
ATOM     79  O   UNL A   1      30.991  23.236  24.638  1.00  0.00    -0.246 OA
BRANCH  78  80
ATOM     80  C   UNL A   1      33.139  23.539  25.712  1.00  0.00     0.083 A 
ATOM     81  C   UNL A   1      34.010  24.613  25.797  1.00  0.00     0.018 A 
ATOM     82  C   UNL A   1      33.581  22.288  25.755  1.00  0.00     0.053 A 
ATOM     83  C   UNL A   1      35.371  24.261  25.634  1.00  0.00     0.001 A 
ATOM     84  C   UNL A   1      34.929  22.021  25.729  1.00  0.00     0.027 A 
ATOM     85  C   UNL A   1      35.846  23.035  25.752  1.00  0.00     0.002 A 
BRANCH  82  86
ATOM     86  N   UNL A   1      32.620  21.178  25.829  1.00  0.00    -0.355 N 
ATOM     87  H   UNL A   1      31.952  21.153  26.552  1.00  0.00     0.167 HD
BRANCH  86  88
ATOM     88  C   UNL A   1      32.658  20.105  24.825  1.00  0.00     0.040 A 
ATOM     89  C   UNL A   1      32.180  20.243  23.532  1.00  0.00     0.026 A 
ATOM     90  C   UNL A   1      33.290  19.004  25.213  1.00  0.00     0.050 A 
ATOM     91  C   UNL A   1      32.166  19.035  22.795  1.00  0.00     0.004 A 
ATOM     92  C   UNL A   1      33.355  17.907  24.387  1.00  0.00     0.109 A 
ATOM     93  C   UNL A   1      32.852  17.953  23.116  1.00  0.00     0.024 A 
BRANCH  92  94
ATOM     94  S   UNL A   1      34.117  16.380  24.990  1.00  0.00     0.310 S 
ATOM     95  F   UNL A   1      34.356  16.029  23.461  1.00  0.00    -0.094 F 
ATOM     96  F   UNL A   1      32.672  15.773  24.832  1.00  0.00    -0.094 F 
ATOM     97  F   UNL A   1      34.697  14.981  25.339  1.00  0.00    -0.094 F 
ATOM     98  F   UNL A   1      35.578  16.981  25.004  1.00  0.00    -0.094 F 
ATOM     99  F   UNL A   1      33.560  17.784  24.525  1.00  0.00    -0.094 F 
ENDBRANCH  92  94
ENDBRANCH  86  88
ENDBRANCH  82  86
ENDBRANCH  78  80
ENDBRANCH  77  78
ENDBRANCH  76  77
ENDBRANCH  75  76
ENDBRANCH   1  75
TORSDOF 20
ENDMDL
MODEL 3
REMARK VINA RESULT:     -11.4      2.981      8.708
REMARK SMILES O=C(OCCOCCOC(=O)c1ccccc1Nc1cccc(S(F)(F)(F)(F)F)c1)c1ccc(-c2c3nc(c(-c4c(F)cc(S(=O)(=O)[O-])cc4F)c4ccc([nH]4)c(-c4c(F)cc(S(=O)(=O)[O-])cc4F)c4nc(c(-c5c(F)cc(S(=O)(=O)[O-])cc5F)c5ccc2[nH]5)C=C4)C=C3)cc1
REMARK SMILES IDX 6 1 5 2 4 3 3 4 2 5 1 6 31 7 32 8 96 9 33 10 95 11 34 12
REMARK SMILES IDX 35 13 36 14 89 15 37 16 94 17 88 18 90 19 38 20 93 21 87 22
REMARK SMILES IDX 86 23 39 25 73 26 52 27 72 28 53 29 56 30 71 31 91 32 54 33
REMARK SMILES IDX 55 34 70 36 92 37 57 38 40 39 41 40 50 41 42 42 43 43 49 44
REMARK SMILES IDX 51 45 44 46 45 47 46 48 47 49 48 50 74 51 75 52 84 53 76 54
REMARK SMILES IDX 77 55 83 56 85 57 78 58 79 59 80 60 81 61 82 62 58 63 59 64
REMARK SMILES IDX 68 65 60 66 61 67 67 68 69 69 62 70 63 71 64 72 65 73 66 74
REMARK SMILES IDX 7 75 8 76 9 77 10 78 11 79 12 80 13 81 17 82 14 83 16 84
REMARK SMILES IDX 15 85 18 86 19 88 20 89 30 90 21 91 23 92 22 93 24 94 25 95
REMARK SMILES IDX 26 96 27 97 28 98 29 99
REMARK H PARENT 90 24 56 35 18 87
REMARK Flexibility Score: inf
ROOT
ATOM      1  O   UNL A   1      34.404  30.540  27.147  1.00  0.00    -0.374 OA
ENDROOT
BRANCH   1   2
ATOM      2  C   UNL A   1      35.073  31.630  27.763  1.00  0.00     0.202 C 
BRANCH   2   3
ATOM      3  C   UNL A   1      34.846  31.582  29.265  1.00  0.00     0.261 C 
BRANCH   3   4
ATOM      4  O   UNL A   1      36.096  31.668  29.935  1.00  0.00    -0.460 OA
BRANCH   4   5
ATOM      5  C   UNL A   1      36.713  30.493  30.438  1.00  0.00     0.338 C 
ATOM      6  O   UNL A   1      36.098  29.761  31.276  1.00  0.00    -0.246 OA
BRANCH   5   7
ATOM      7  C   UNL A   1      38.108  30.107  29.975  1.00  0.00     0.060 A 
ATOM      8  C   UNL A   1      39.091  29.852  30.917  1.00  0.00     0.016 A 
ATOM      9  C   UNL A   1      38.362  30.022  28.674  1.00  0.00     0.016 A 
ATOM     10  C   UNL A   1      40.399  29.794  30.380  1.00  0.00     0.010 A 
ATOM     11  C   UNL A   1      39.645  29.828  28.224  1.00  0.00     0.010 A 
ATOM     12  C   UNL A   1      40.676  29.628  29.100  1.00  0.00    -0.014 A 
BRANCH  12  13
ATOM     13  C   UNL A   1      42.065  29.235  28.625  1.00  0.00     0.031 A 
ATOM     14  C   UNL A   1      43.039  30.235  28.589  1.00  0.00     0.074 A 
ATOM     15  C   UNL A   1      42.292  27.920  28.256  1.00  0.00     0.049 A 
ATOM     16  N   UNL A   1      44.320  30.111  28.238  1.00  0.00    -0.248 NA
ATOM     17  C   UNL A   1      42.792  31.639  28.948  1.00  0.00     0.031 C 
ATOM     18  C   UNL A   1      41.318  26.904  28.298  1.00  0.00     0.029 A 
ATOM     19  N   UNL A   1      43.463  27.363  27.790  1.00  0.00    -0.354 N 
ATOM     20  C   UNL A   1      44.943  31.286  28.347  1.00  0.00     0.074 A 
ATOM     21  C   UNL A   1      43.967  32.287  28.800  1.00  0.00     0.031 C 
ATOM     22  C   UNL A   1      41.889  25.754  27.854  1.00  0.00     0.029 A 
ATOM     23  C   UNL A   1      43.230  26.031  27.527  1.00  0.00     0.049 A 
ATOM     24  H   UNL A   1      44.317  27.835  27.667  1.00  0.00     0.167 HD
ATOM     25  C   UNL A   1      46.287  31.561  28.090  1.00  0.00     0.037 A 
ATOM     26  C   UNL A   1      44.123  25.096  27.029  1.00  0.00     0.037 A 
ATOM     27  C   UNL A   1      47.191  30.615  27.633  1.00  0.00     0.049 A 
ATOM     28  C   UNL A   1      45.454  25.384  26.716  1.00  0.00     0.074 A 
ATOM     29  C   UNL A   1      48.551  30.875  27.376  1.00  0.00     0.029 A 
ATOM     30  N   UNL A   1      46.953  29.290  27.346  1.00  0.00    -0.354 N 
ATOM     31  N   UNL A   1      46.087  26.550  26.863  1.00  0.00    -0.248 NA
ATOM     32  C   UNL A   1      46.400  24.410  26.157  1.00  0.00     0.031 C 
ATOM     33  C   UNL A   1      49.123  29.723  26.931  1.00  0.00     0.029 A 
ATOM     34  C   UNL A   1      48.129  28.726  26.904  1.00  0.00     0.049 A 
ATOM     35  H   UNL A   1      46.091  28.824  27.443  1.00  0.00     0.167 HD
ATOM     36  C   UNL A   1      47.358  26.435  26.474  1.00  0.00     0.074 A 
ATOM     37  C   UNL A   1      47.575  25.059  26.007  1.00  0.00     0.031 C 
ATOM     38  C   UNL A   1      48.346  27.421  26.491  1.00  0.00     0.037 A 
BRANCH  25  39
ATOM     39  C   UNL A   1      46.787  32.977  28.324  1.00  0.00     0.058 A 
ATOM     40  C   UNL A   1      47.286  33.325  29.568  1.00  0.00     0.135 A 
ATOM     41  C   UNL A   1      46.735  33.859  27.332  1.00  0.00     0.135 A 
ATOM     42  F   UNL A   1      47.592  32.430  30.503  1.00  0.00    -0.206 F 
ATOM     43  C   UNL A   1      47.440  34.719  29.756  1.00  0.00     0.059 A 
ATOM     44  C   UNL A   1      47.031  35.182  27.556  1.00  0.00     0.059 A 
ATOM     45  F   UNL A   1      46.394  33.457  26.112  1.00  0.00    -0.206 F 
ATOM     46  C   UNL A   1      47.473  35.606  28.778  1.00  0.00     0.060 A 
BRANCH  46  47
ATOM     47  S   UNL A   1      48.071  37.294  29.042  1.00  0.00     0.124 S 
ATOM     48  O   UNL A   1      48.854  37.756  27.809  1.00  0.00    -0.237 OA
ATOM     49  O   UNL A   1      46.881  38.229  29.268  1.00  0.00    -0.237 OA
ATOM     50  O   UNL A   1      49.094  37.329  30.411  1.00  0.00    -0.744 OA
ENDBRANCH  46  47
ENDBRANCH  25  39
BRANCH  26  51
ATOM     51  C   UNL A   1      43.627  23.675  26.811  1.00  0.00     0.058 A 
ATOM     52  C   UNL A   1      43.239  23.279  25.541  1.00  0.00     0.135 A 
ATOM     53  C   UNL A   1      43.579  22.838  27.839  1.00  0.00     0.135 A 
ATOM     54  F   UNL A   1      43.503  23.987  24.447  1.00  0.00    -0.206 F 
ATOM     55  C   UNL A   1      42.534  22.052  25.515  1.00  0.00     0.059 A 
ATOM     56  C   UNL A   1      42.997  21.600  27.707  1.00  0.00     0.059 A 
ATOM     57  F   UNL A   1      44.098  23.199  29.009  1.00  0.00    -0.206 F 
ATOM     58  C   UNL A   1      42.537  21.166  26.495  1.00  0.00     0.060 A 
BRANCH  58  59
ATOM     59  S   UNL A   1      41.962  19.467  26.246  1.00  0.00     0.124 S 
ATOM     60  O   UNL A   1      40.456  19.473  25.975  1.00  0.00    -0.237 OA
ATOM     61  O   UNL A   1      42.694  18.852  25.051  1.00  0.00    -0.237 OA
ATOM     62  O   UNL A   1      42.286  18.545  27.649  1.00  0.00    -0.744 OA
ENDBRANCH  58  59
ENDBRANCH  26  51
BRANCH  38  63
ATOM     63  C   UNL A   1      49.743  27.040  26.032  1.00  0.00     0.058 A 
ATOM     64  C   UNL A   1      50.639  26.517  26.950  1.00  0.00     0.135 A 
ATOM     65  C   UNL A   1      50.083  27.215  24.761  1.00  0.00     0.135 A 
ATOM     66  F   UNL A   1      50.278  26.092  28.157  1.00  0.00    -0.206 F 
ATOM     67  C   UNL A   1      51.977  26.477  26.487  1.00  0.00     0.059 A 
ATOM     68  C   UNL A   1      51.381  27.026  24.351  1.00  0.00     0.059 A 
ATOM     69  F   UNL A   1      49.158  27.576  23.876  1.00  0.00    -0.206 F 
ATOM     70  C   UNL A   1      52.332  26.566  25.219  1.00  0.00     0.060 A 
BRANCH  70  71
ATOM     71  S   UNL A   1      53.991  26.108  24.659  1.00  0.00     0.124 S 
ATOM     72  O   UNL A   1      54.092  26.304  23.145  1.00  0.00    -0.237 OA
ATOM     73  O   UNL A   1      55.028  26.992  25.357  1.00  0.00    -0.237 OA
ATOM     74  O   UNL A   1      54.291  24.469  25.043  1.00  0.00    -0.744 OA
ENDBRANCH  70  71
ENDBRANCH  38  63
ENDBRANCH  12  13
ENDBRANCH   5   7
ENDBRANCH   4   5
ENDBRANCH   3   4
ENDBRANCH   2   3
ENDBRANCH   1   2
BRANCH   1  75
ATOM     75  C   UNL A   1      33.000  30.738  27.232  1.00  0.00     0.202 C 
BRANCH  75  76
ATOM     76  C   UNL A   1      32.299  29.831  26.234  1.00  0.00     0.261 C 
BRANCH  76  77
ATOM     77  O   UNL A   1      33.142  28.733  25.920  1.00  0.00    -0.460 OA
BRANCH  77  78
ATOM     78  C   UNL A   1      33.400  28.402  24.562  1.00  0.00     0.340 C 
ATOM     79  O   UNL A   1      33.599  29.323  23.711  1.00  0.00    -0.246 OA
BRANCH  78  80
ATOM     80  C   UNL A   1      33.436  26.945  24.130  1.00  0.00     0.083 A 
ATOM     81  C   UNL A   1      34.115  26.026  24.912  1.00  0.00     0.018 A 
ATOM     82  C   UNL A   1      32.823  26.577  23.011  1.00  0.00     0.053 A 
ATOM     83  C   UNL A   1      34.336  24.782  24.275  1.00  0.00     0.001 A 
ATOM     84  C   UNL A   1      32.973  25.304  22.517  1.00  0.00     0.027 A 
ATOM     85  C   UNL A   1      33.681  24.360  23.209  1.00  0.00     0.002 A 
BRANCH  82  86
ATOM     86  N   UNL A   1      31.975  27.541  22.295  1.00  0.00    -0.355 N 
ATOM     87  H   UNL A   1      32.347  28.063  21.547  1.00  0.00     0.167 HD
BRANCH  86  88
ATOM     88  C   UNL A   1      30.573  27.726  22.696  1.00  0.00     0.040 A 
ATOM     89  C   UNL A   1      29.848  26.789  23.414  1.00  0.00     0.026 A 
ATOM     90  C   UNL A   1      30.066  28.919  22.411  1.00  0.00     0.050 A 
ATOM     91  C   UNL A   1      28.474  27.104  23.543  1.00  0.00     0.004 A 
ATOM     92  C   UNL A   1      28.750  29.205  22.688  1.00  0.00     0.109 A 
ATOM     93  C   UNL A   1      27.959  28.303  23.345  1.00  0.00     0.024 A 
BRANCH  92  94
ATOM     94  S   UNL A   1      28.057  30.797  22.178  1.00  0.00     0.310 S 
ATOM     95  F   UNL A   1      29.520  31.146  21.677  1.00  0.00    -0.094 F 
ATOM     96  F   UNL A   1      28.505  31.281  23.608  1.00  0.00    -0.094 F 
ATOM     97  F   UNL A   1      27.643  32.243  21.787  1.00  0.00    -0.094 F 
ATOM     98  F   UNL A   1      27.746  30.318  20.705  1.00  0.00    -0.094 F 
ATOM     99  F   UNL A   1      28.578  29.345  22.524  1.00  0.00    -0.094 F 
ENDBRANCH  92  94
ENDBRANCH  86  88
ENDBRANCH  82  86
ENDBRANCH  78  80
ENDBRANCH  77  78
ENDBRANCH  76  77
ENDBRANCH  75  76
ENDBRANCH   1  75
TORSDOF 20
ENDMDL
