MODEL 1
REMARK VINA RESULT:     -11.1      0.000      0.000
REMARK SMILES Cn1ccc(CNC(=O)[C@@H]2[C@@H]3CC[C@@H](C3)[C@@H]2C(=O)OCCOCCOC(=O)c2ccc(-c3c4nc(c(-c5c(F)cc(S(=O)(=O)[O-])cc5F)c5ccc([nH]5)c(-c5c(F)cc(S(=O)(=O)[O-])cc5F)c5nc(c(-c6c(F)cc(S(=O)(=O)[O-])cc6F)c6ccc3[nH]6)C=C5)C=C4)cc2)n1
REMARK SMILES IDX 22 1 21 2 20 3 19 4 17 5 18 6 16 7 10 8 11 9 12 10 15 11
REMARK SMILES IDX 14 12 13 13 8 14 7 15 9 17 6 18 5 19 1 20 2 21 3 22 94 23
REMARK SMILES IDX 4 24 23 25 24 26 25 27 26 28 27 29 28 30 29 31 93 32 30 33
REMARK SMILES IDX 92 34 31 35 32 36 33 37 86 38 34 39 91 40 85 41 87 42 35 43
REMARK SMILES IDX 90 44 84 45 83 46 36 48 70 49 49 50 69 51 50 52 53 53 68 54
REMARK SMILES IDX 88 55 51 56 52 57 67 59 89 60 54 61 37 62 38 63 47 64 39 65
REMARK SMILES IDX 40 66 46 67 48 68 41 69 42 70 43 71 44 72 45 73 71 74 72 75
REMARK SMILES IDX 81 76 73 77 74 78 80 79 82 80 75 81 76 82 77 83 78 84 79 85
REMARK SMILES IDX 55 86 56 87 65 88 57 89 58 90 64 91 66 92 59 93 60 94 61 95
REMARK SMILES IDX 62 96 63 97
REMARK H PARENT 7 16 87 47 53 58
REMARK Flexibility Score: inf
ROOT
ATOM      1  O   UNL A   1      32.408  30.483  27.163  1.00  0.00    -0.374 OA
ENDROOT
BRANCH   1   2
ATOM      2  C   UNL A   1      31.630  29.370  26.729  1.00  0.00     0.202 C 
BRANCH   2   3
ATOM      3  C   UNL A   1      32.135  27.949  27.004  1.00  0.00     0.261 C 
BRANCH   3   4
ATOM      4  O   UNL A   1      31.137  26.959  26.736  1.00  0.00    -0.463 OA
BRANCH   4   5
ATOM      5  C   UNL A   1      31.635  25.715  26.479  1.00  0.00     0.310 C 
ATOM      6  O   UNL A   1      31.137  24.674  26.876  1.00  0.00    -0.252 OA
BRANCH   5   7
ATOM      7  C   UNL A   1      32.836  25.828  25.562  1.00  0.00     0.115 C 
ATOM      8  C   UNL A   1      32.614  25.528  24.060  1.00  0.00     0.096 C 
ATOM      9  C   UNL A   1      33.583  24.337  23.838  1.00  0.00     0.002 C 
ATOM     10  C   UNL A   1      33.162  23.081  24.630  1.00  0.00     0.005 C 
ATOM     11  C   UNL A   1      34.793  24.803  24.656  1.00  0.00     0.009 C 
ATOM     12  C   UNL A   1      33.995  24.882  25.960  1.00  0.00     0.004 C 
ATOM     13  C   UNL A   1      33.491  23.439  26.082  1.00  0.00     0.005 C 
BRANCH   8  14
ATOM     14  C   UNL A   1      31.201  25.315  23.526  1.00  0.00     0.224 C 
ATOM     15  N   UNL A   1      30.498  26.373  23.040  1.00  0.00    -0.350 N 
ATOM     16  H   UNL A   1      29.564  26.171  22.802  1.00  0.00     0.163 HD
ATOM     17  O   UNL A   1      30.679  24.201  23.462  1.00  0.00    -0.275 OA
BRANCH  15  18
ATOM     18  C   UNL A   1      30.893  27.747  22.816  1.00  0.00     0.174 C 
BRANCH  18  19
ATOM     19  C   UNL A   1      29.673  28.590  22.602  1.00  0.00     0.082 A 
ATOM     20  C   UNL A   1      28.063  31.144  20.851  1.00  0.00     0.173 C 
ATOM     21  N   UNL A   1      28.429  30.083  21.757  1.00  0.00    -0.275 N 
ATOM     22  C   UNL A   1      27.617  29.424  22.630  1.00  0.00     0.108 A 
ATOM     23  N   UNL A   1      29.693  29.633  21.756  1.00  0.00    -0.176 NA
ATOM     24  C   UNL A   1      28.395  28.441  23.198  1.00  0.00     0.047 A 
ENDBRANCH  18  19
ENDBRANCH  15  18
ENDBRANCH   8  14
ENDBRANCH   5   7
ENDBRANCH   4   5
ENDBRANCH   3   4
ENDBRANCH   2   3
ENDBRANCH   1   2
BRANCH   1  25
ATOM     25  C   UNL A   1      33.826  30.421  27.031  1.00  0.00     0.202 C 
BRANCH  25  26
ATOM     26  C   UNL A   1      34.741  30.796  28.201  1.00  0.00     0.261 C 
BRANCH  26  27
ATOM     27  O   UNL A   1      35.634  29.747  28.578  1.00  0.00    -0.460 OA
BRANCH  27  28
ATOM     28  C   UNL A   1      36.273  29.957  29.754  1.00  0.00     0.338 C 
ATOM     29  O   UNL A   1      35.772  30.044  30.865  1.00  0.00    -0.246 OA
BRANCH  28  30
ATOM     30  C   UNL A   1      37.717  29.850  29.522  1.00  0.00     0.060 A 
ATOM     31  C   UNL A   1      38.174  29.756  28.200  1.00  0.00     0.016 A 
ATOM     32  C   UNL A   1      38.602  29.803  30.600  1.00  0.00     0.016 A 
ATOM     33  C   UNL A   1      39.528  29.573  27.949  1.00  0.00     0.010 A 
ATOM     34  C   UNL A   1      39.954  29.600  30.347  1.00  0.00     0.010 A 
ATOM     35  C   UNL A   1      40.413  29.448  29.025  1.00  0.00    -0.014 A 
BRANCH  35  36
ATOM     36  C   UNL A   1      41.787  28.957  28.804  1.00  0.00     0.031 A 
ATOM     37  C   UNL A   1      42.899  29.966  28.821  1.00  0.00     0.074 A 
ATOM     38  C   UNL A   1      42.023  27.658  28.561  1.00  0.00     0.049 A 
ATOM     39  N   UNL A   1      44.146  29.830  28.461  1.00  0.00    -0.248 NA
ATOM     40  C   UNL A   1      42.551  31.318  29.293  1.00  0.00     0.031 C 
ATOM     41  C   UNL A   1      41.016  26.597  28.573  1.00  0.00     0.029 A 
ATOM     42  N   UNL A   1      43.186  27.017  28.221  1.00  0.00    -0.354 N 
ATOM     43  C   UNL A   1      44.728  31.077  28.651  1.00  0.00     0.074 A 
ATOM     44  C   UNL A   1      43.692  31.967  29.124  1.00  0.00     0.031 C 
ATOM     45  C   UNL A   1      41.600  25.440  28.214  1.00  0.00     0.029 A 
ATOM     46  C   UNL A   1      43.005  25.693  27.903  1.00  0.00     0.049 A 
ATOM     47  H   UNL A   1      44.064  27.462  28.205  1.00  0.00     0.167 HD
ATOM     48  C   UNL A   1      46.016  31.437  28.457  1.00  0.00     0.037 A 
ATOM     49  C   UNL A   1      43.870  24.804  27.375  1.00  0.00     0.037 A 
ATOM     50  C   UNL A   1      47.028  30.535  27.980  1.00  0.00     0.049 A 
ATOM     51  C   UNL A   1      45.282  25.251  27.085  1.00  0.00     0.074 A 
ATOM     52  C   UNL A   1      48.363  30.791  27.729  1.00  0.00     0.029 A 
ATOM     53  N   UNL A   1      46.813  29.195  27.684  1.00  0.00    -0.354 N 
ATOM     54  N   UNL A   1      45.827  26.433  27.261  1.00  0.00    -0.248 NA
ATOM     55  C   UNL A   1      46.199  24.247  26.529  1.00  0.00     0.031 C 
ATOM     56  C   UNL A   1      48.945  29.619  27.240  1.00  0.00     0.029 A 
ATOM     57  C   UNL A   1      47.988  28.615  27.246  1.00  0.00     0.049 A 
ATOM     58  H   UNL A   1      45.951  28.728  27.773  1.00  0.00     0.167 HD
ATOM     59  C   UNL A   1      47.158  26.301  26.878  1.00  0.00     0.074 A 
ATOM     60  C   UNL A   1      47.336  24.927  26.462  1.00  0.00     0.031 C 
ATOM     61  C   UNL A   1      48.145  27.230  26.874  1.00  0.00     0.037 A 
BRANCH  48  62
ATOM     62  C   UNL A   1      46.399  32.860  28.750  1.00  0.00     0.058 A 
ATOM     63  C   UNL A   1      46.853  33.252  30.019  1.00  0.00     0.135 A 
ATOM     64  C   UNL A   1      46.355  33.836  27.741  1.00  0.00     0.135 A 
ATOM     65  F   UNL A   1      46.890  32.366  31.028  1.00  0.00    -0.206 F 
ATOM     66  C   UNL A   1      47.238  34.563  30.281  1.00  0.00     0.059 A 
ATOM     67  C   UNL A   1      46.764  35.146  27.973  1.00  0.00     0.059 A 
ATOM     68  F   UNL A   1      45.919  33.518  26.512  1.00  0.00    -0.206 F 
ATOM     69  C   UNL A   1      47.197  35.501  29.249  1.00  0.00     0.060 A 
BRANCH  69  70
ATOM     70  S   UNL A   1      47.730  37.189  29.601  1.00  0.00     0.124 S 
ATOM     71  O   UNL A   1      48.252  37.053  30.958  1.00  0.00    -0.237 OA
ATOM     72  O   UNL A   1      48.726  37.421  28.560  1.00  0.00    -0.237 OA
ATOM     73  O   UNL A   1      46.503  37.967  29.477  1.00  0.00    -0.744 OA
ENDBRANCH  69  70
ENDBRANCH  48  62
BRANCH  49  74
ATOM     74  C   UNL A   1      43.423  23.423  27.048  1.00  0.00     0.058 A 
ATOM     75  C   UNL A   1      43.259  22.457  28.050  1.00  0.00     0.135 A 
ATOM     76  C   UNL A   1      43.175  23.035  25.721  1.00  0.00     0.135 A 
ATOM     77  F   UNL A   1      43.487  22.776  29.333  1.00  0.00    -0.206 F 
ATOM     78  C   UNL A   1      42.905  21.145  27.748  1.00  0.00     0.059 A 
ATOM     79  C   UNL A   1      42.789  21.739  25.397  1.00  0.00     0.059 A 
ATOM     80  F   UNL A   1      43.299  23.925  24.724  1.00  0.00    -0.206 F 
ATOM     81  C   UNL A   1      42.675  20.795  26.416  1.00  0.00     0.060 A 
BRANCH  81  82
ATOM     82  S   UNL A   1      42.213  19.092  26.036  1.00  0.00     0.124 S 
ATOM     83  O   UNL A   1      43.012  18.832  24.844  1.00  0.00    -0.237 OA
ATOM     84  O   UNL A   1      42.622  18.388  27.247  1.00  0.00    -0.237 OA
ATOM     85  O   UNL A   1      40.771  19.176  25.824  1.00  0.00    -0.744 OA
ENDBRANCH  81  82
ENDBRANCH  49  74
BRANCH  61  86
ATOM     86  C   UNL A   1      49.527  26.785  26.483  1.00  0.00     0.058 A 
ATOM     87  C   UNL A   1      50.367  26.098  27.372  1.00  0.00     0.135 A 
ATOM     88  C   UNL A   1      49.972  26.965  25.163  1.00  0.00     0.135 A 
ATOM     89  F   UNL A   1      49.991  25.906  28.647  1.00  0.00    -0.206 F 
ATOM     90  C   UNL A   1      51.604  25.609  26.966  1.00  0.00     0.059 A 
ATOM     91  C   UNL A   1      51.191  26.458  24.728  1.00  0.00     0.059 A 
ATOM     92  F   UNL A   1      49.202  27.608  24.271  1.00  0.00    -0.206 F 
ATOM     93  C   UNL A   1      52.003  25.783  25.639  1.00  0.00     0.060 A 
BRANCH  93  94
ATOM     94  S   UNL A   1      53.576  25.076  25.109  1.00  0.00     0.124 S 
ATOM     95  O   UNL A   1      53.673  25.566  23.738  1.00  0.00    -0.237 OA
ATOM     96  O   UNL A   1      54.515  25.662  26.060  1.00  0.00    -0.237 OA
ATOM     97  O   UNL A   1      53.368  23.638  25.247  1.00  0.00    -0.744 OA
ENDBRANCH  93  94
ENDBRANCH  61  86
ENDBRANCH  35  36
ENDBRANCH  28  30
ENDBRANCH  27  28
ENDBRANCH  26  27
ENDBRANCH  25  26
ENDBRANCH   1  25
TORSDOF 20
ENDMDL
MODEL 2
REMARK VINA RESULT:     -11.0      6.434     11.740
REMARK SMILES Cn1ccc(CNC(=O)[C@@H]2[C@@H]3CC[C@@H](C3)[C@@H]2C(=O)OCCOCCOC(=O)c2ccc(-c3c4nc(c(-c5c(F)cc(S(=O)(=O)[O-])cc5F)c5ccc([nH]5)c(-c5c(F)cc(S(=O)(=O)[O-])cc5F)c5nc(c(-c6c(F)cc(S(=O)(=O)[O-])cc6F)c6ccc3[nH]6)C=C5)C=C4)cc2)n1
REMARK SMILES IDX 22 1 21 2 20 3 19 4 17 5 18 6 16 7 10 8 11 9 12 10 15 11
REMARK SMILES IDX 14 12 13 13 8 14 7 15 9 17 6 18 5 19 1 20 2 21 3 22 94 23
REMARK SMILES IDX 4 24 23 25 24 26 25 27 26 28 27 29 28 30 29 31 93 32 30 33
REMARK SMILES IDX 92 34 31 35 32 36 33 37 86 38 34 39 91 40 85 41 87 42 35 43
REMARK SMILES IDX 90 44 84 45 83 46 36 48 70 49 49 50 69 51 50 52 53 53 68 54
REMARK SMILES IDX 88 55 51 56 52 57 67 59 89 60 54 61 37 62 38 63 47 64 39 65
REMARK SMILES IDX 40 66 46 67 48 68 41 69 42 70 43 71 44 72 45 73 71 74 72 75
REMARK SMILES IDX 81 76 73 77 74 78 80 79 82 80 75 81 76 82 77 83 78 84 79 85
REMARK SMILES IDX 55 86 56 87 65 88 57 89 58 90 64 91 66 92 59 93 60 94 61 95
REMARK SMILES IDX 62 96 63 97
REMARK H PARENT 7 16 87 47 53 58
REMARK Flexibility Score: inf
ROOT
ATOM      1  O   UNL A   1      37.275  23.424  24.898  1.00  0.00    -0.374 OA
ENDROOT
BRANCH   1   2
ATOM      2  C   UNL A   1      35.908  23.066  24.705  1.00  0.00     0.202 C 
BRANCH   2   3
ATOM      3  C   UNL A   1      34.950  24.080  24.071  1.00  0.00     0.261 C 
BRANCH   3   4
ATOM      4  O   UNL A   1      34.666  25.177  24.945  1.00  0.00    -0.463 OA
BRANCH   4   5
ATOM      5  C   UNL A   1      33.391  25.652  24.856  1.00  0.00     0.310 C 
ATOM      6  O   UNL A   1      32.635  25.438  23.922  1.00  0.00    -0.252 OA
BRANCH   5   7
ATOM      7  C   UNL A   1      33.040  26.403  26.126  1.00  0.00     0.115 C 
ATOM      8  C   UNL A   1      31.561  26.818  26.320  1.00  0.00     0.096 C 
ATOM      9  C   UNL A   1      31.685  28.361  26.412  1.00  0.00     0.002 C 
ATOM     10  C   UNL A   1      32.175  28.992  25.091  1.00  0.00     0.005 C 
ATOM     11  C   UNL A   1      32.943  28.491  27.280  1.00  0.00     0.009 C 
ATOM     12  C   UNL A   1      33.819  27.732  26.280  1.00  0.00     0.004 C 
ATOM     13  C   UNL A   1      33.654  28.599  25.027  1.00  0.00     0.005 C 
BRANCH   8  14
ATOM     14  C   UNL A   1      30.495  26.315  25.352  1.00  0.00     0.224 C 
ATOM     15  N   UNL A   1      29.906  25.108  25.566  1.00  0.00    -0.350 N 
ATOM     16  H   UNL A   1      29.298  24.815  24.849  1.00  0.00     0.163 HD
ATOM     17  O   UNL A   1      30.095  26.988  24.400  1.00  0.00    -0.275 OA
BRANCH  15  18
ATOM     18  C   UNL A   1      30.024  24.182  26.672  1.00  0.00     0.174 C 
BRANCH  18  19
ATOM     19  C   UNL A   1      31.168  23.247  26.420  1.00  0.00     0.082 A 
ATOM     20  C   UNL A   1      34.026  21.624  27.594  1.00  0.00     0.173 C 
ATOM     21  N   UNL A   1      32.928  22.133  26.810  1.00  0.00    -0.275 N 
ATOM     22  C   UNL A   1      32.542  21.728  25.567  1.00  0.00     0.108 A 
ATOM     23  N   UNL A   1      32.143  23.088  27.330  1.00  0.00    -0.176 NA
ATOM     24  C   UNL A   1      31.396  22.433  25.281  1.00  0.00     0.047 A 
ENDBRANCH  18  19
ENDBRANCH  15  18
ENDBRANCH   8  14
ENDBRANCH   5   7
ENDBRANCH   4   5
ENDBRANCH   3   4
ENDBRANCH   2   3
ENDBRANCH   1   2
BRANCH   1  25
ATOM     25  C   UNL A   1      37.860  23.224  26.182  1.00  0.00     0.202 C 
BRANCH  25  26
ATOM     26  C   UNL A   1      39.265  22.630  26.322  1.00  0.00     0.261 C 
BRANCH  26  27
ATOM     27  O   UNL A   1      39.991  23.154  27.435  1.00  0.00    -0.460 OA
BRANCH  27  28
ATOM     28  C   UNL A   1      40.996  23.995  27.096  1.00  0.00     0.338 C 
ATOM     29  O   UNL A   1      41.824  23.844  26.210  1.00  0.00    -0.246 OA
BRANCH  28  30
ATOM     30  C   UNL A   1      40.814  25.254  27.827  1.00  0.00     0.060 A 
ATOM     31  C   UNL A   1      41.848  26.200  27.793  1.00  0.00     0.016 A 
ATOM     32  C   UNL A   1      39.654  25.475  28.569  1.00  0.00     0.016 A 
ATOM     33  C   UNL A   1      41.742  27.366  28.540  1.00  0.00     0.010 A 
ATOM     34  C   UNL A   1      39.558  26.635  29.331  1.00  0.00     0.010 A 
ATOM     35  C   UNL A   1      40.616  27.562  29.347  1.00  0.00    -0.014 A 
BRANCH  35  36
ATOM     36  C   UNL A   1      40.610  28.627  30.369  1.00  0.00     0.031 A 
ATOM     37  C   UNL A   1      41.545  28.478  31.535  1.00  0.00     0.074 A 
ATOM     38  C   UNL A   1      39.770  29.669  30.273  1.00  0.00     0.049 A 
ATOM     39  N   UNL A   1      41.591  29.154  32.650  1.00  0.00    -0.248 NA
ATOM     40  C   UNL A   1      42.554  27.408  31.435  1.00  0.00     0.031 C 
ATOM     41  C   UNL A   1      38.863  29.925  29.155  1.00  0.00     0.029 A 
ATOM     42  N   UNL A   1      39.522  30.691  31.152  1.00  0.00    -0.354 N 
ATOM     43  C   UNL A   1      42.623  28.587  33.388  1.00  0.00     0.074 A 
ATOM     44  C   UNL A   1      43.154  27.489  32.612  1.00  0.00     0.031 C 
ATOM     45  C   UNL A   1      38.125  31.014  29.435  1.00  0.00     0.029 A 
ATOM     46  C   UNL A   1      38.478  31.498  30.768  1.00  0.00     0.049 A 
ATOM     47  H   UNL A   1      40.041  30.833  31.977  1.00  0.00     0.167 HD
ATOM     48  C   UNL A   1      43.089  28.962  34.600  1.00  0.00     0.037 A 
ATOM     49  C   UNL A   1      37.852  32.481  31.444  1.00  0.00     0.037 A 
ATOM     50  C   UNL A   1      42.541  30.055  35.356  1.00  0.00     0.049 A 
ATOM     51  C   UNL A   1      38.332  32.827  32.832  1.00  0.00     0.074 A 
ATOM     52  C   UNL A   1      42.919  30.517  36.603  1.00  0.00     0.029 A 
ATOM     53  N   UNL A   1      41.494  30.861  34.929  1.00  0.00    -0.354 N 
ATOM     54  N   UNL A   1      39.305  32.284  33.529  1.00  0.00    -0.248 NA
ATOM     55  C   UNL A   1      37.637  33.918  33.527  1.00  0.00     0.031 C 
ATOM     56  C   UNL A   1      42.074  31.573  36.949  1.00  0.00     0.029 A 
ATOM     57  C   UNL A   1      41.208  31.811  35.892  1.00  0.00     0.049 A 
ATOM     58  H   UNL A   1      41.025  30.769  34.069  1.00  0.00     0.167 HD
ATOM     59  C   UNL A   1      39.363  32.996  34.722  1.00  0.00     0.074 A 
ATOM     60  C   UNL A   1      38.330  34.008  34.654  1.00  0.00     0.031 C 
ATOM     61  C   UNL A   1      40.197  32.833  35.778  1.00  0.00     0.037 A 
BRANCH  48  62
ATOM     62  C   UNL A   1      44.234  28.184  35.184  1.00  0.00     0.058 A 
ATOM     63  C   UNL A   1      44.021  27.048  35.980  1.00  0.00     0.135 A 
ATOM     64  C   UNL A   1      45.562  28.550  34.907  1.00  0.00     0.135 A 
ATOM     65  F   UNL A   1      42.773  26.669  36.296  1.00  0.00    -0.206 F 
ATOM     66  C   UNL A   1      45.082  26.309  36.493  1.00  0.00     0.059 A 
ATOM     67  C   UNL A   1      46.638  27.808  35.385  1.00  0.00     0.059 A 
ATOM     68  F   UNL A   1      45.824  29.633  34.160  1.00  0.00    -0.206 F 
ATOM     69  C   UNL A   1      46.388  26.693  36.183  1.00  0.00     0.060 A 
BRANCH  69  70
ATOM     70  S   UNL A   1      47.751  25.704  36.832  1.00  0.00     0.124 S 
ATOM     71  O   UNL A   1      48.461  25.346  35.608  1.00  0.00    -0.237 OA
ATOM     72  O   UNL A   1      48.433  26.654  37.705  1.00  0.00    -0.237 OA
ATOM     73  O   UNL A   1      47.079  24.602  37.512  1.00  0.00    -0.744 OA
ENDBRANCH  69  70
ENDBRANCH  48  62
BRANCH  49  74
ATOM     74  C   UNL A   1      36.684  33.180  30.843  1.00  0.00     0.058 A 
ATOM     75  C   UNL A   1      35.378  32.919  31.282  1.00  0.00     0.135 A 
ATOM     76  C   UNL A   1      36.848  34.103  29.798  1.00  0.00     0.135 A 
ATOM     77  F   UNL A   1      35.166  32.042  32.274  1.00  0.00    -0.206 F 
ATOM     78  C   UNL A   1      34.274  33.519  30.682  1.00  0.00     0.059 A 
ATOM     79  C   UNL A   1      35.764  34.740  29.204  1.00  0.00     0.059 A 
ATOM     80  F   UNL A   1      38.078  34.403  29.351  1.00  0.00    -0.206 F 
ATOM     81  C   UNL A   1      34.478  34.426  29.640  1.00  0.00     0.060 A 
BRANCH  81  82
ATOM     82  S   UNL A   1      33.039  35.199  28.872  1.00  0.00     0.124 S 
ATOM     83  O   UNL A   1      33.635  36.383  28.263  1.00  0.00    -0.237 OA
ATOM     84  O   UNL A   1      32.592  34.162  27.948  1.00  0.00    -0.237 OA
ATOM     85  O   UNL A   1      32.150  35.449  30.002  1.00  0.00    -0.744 OA
ENDBRANCH  81  82
ENDBRANCH  49  74
BRANCH  61  86
ATOM     86  C   UNL A   1      40.090  33.810  36.916  1.00  0.00     0.058 A 
ATOM     87  C   UNL A   1      40.862  34.981  36.967  1.00  0.00     0.135 A 
ATOM     88  C   UNL A   1      39.124  33.615  37.918  1.00  0.00     0.135 A 
ATOM     89  F   UNL A   1      41.803  35.212  36.038  1.00  0.00    -0.206 F 
ATOM     90  C   UNL A   1      40.682  35.921  37.976  1.00  0.00     0.059 A 
ATOM     91  C   UNL A   1      38.907  34.556  38.917  1.00  0.00     0.059 A 
ATOM     92  F   UNL A   1      38.354  32.515  37.909  1.00  0.00    -0.206 F 
ATOM     93  C   UNL A   1      39.695  35.706  38.940  1.00  0.00     0.060 A 
BRANCH  93  94
ATOM     94  S   UNL A   1      39.423  36.972  40.197  1.00  0.00     0.124 S 
ATOM     95  O   UNL A   1      40.785  37.235  40.650  1.00  0.00    -0.237 OA
ATOM     96  O   UNL A   1      38.793  38.041  39.428  1.00  0.00    -0.237 OA
ATOM     97  O   UNL A   1      38.557  36.311  41.166  1.00  0.00    -0.744 OA
ENDBRANCH  93  94
ENDBRANCH  61  86
ENDBRANCH  35  36
ENDBRANCH  28  30
ENDBRANCH  27  28
ENDBRANCH  26  27
ENDBRANCH  25  26
ENDBRANCH   1  25
TORSDOF 20
ENDMDL
MODEL 3
REMARK VINA RESULT:     -10.9      3.051      4.782
REMARK SMILES Cn1ccc(CNC(=O)[C@@H]2[C@@H]3CC[C@@H](C3)[C@@H]2C(=O)OCCOCCOC(=O)c2ccc(-c3c4nc(c(-c5c(F)cc(S(=O)(=O)[O-])cc5F)c5ccc([nH]5)c(-c5c(F)cc(S(=O)(=O)[O-])cc5F)c5nc(c(-c6c(F)cc(S(=O)(=O)[O-])cc6F)c6ccc3[nH]6)C=C5)C=C4)cc2)n1
REMARK SMILES IDX 22 1 21 2 20 3 19 4 17 5 18 6 16 7 10 8 11 9 12 10 15 11
REMARK SMILES IDX 14 12 13 13 8 14 7 15 9 17 6 18 5 19 1 20 2 21 3 22 94 23
REMARK SMILES IDX 4 24 23 25 24 26 25 27 26 28 27 29 28 30 29 31 93 32 30 33
REMARK SMILES IDX 92 34 31 35 32 36 33 37 86 38 34 39 91 40 85 41 87 42 35 43
REMARK SMILES IDX 90 44 84 45 83 46 36 48 70 49 49 50 69 51 50 52 53 53 68 54
REMARK SMILES IDX 88 55 51 56 52 57 67 59 89 60 54 61 37 62 38 63 47 64 39 65
REMARK SMILES IDX 40 66 46 67 48 68 41 69 42 70 43 71 44 72 45 73 71 74 72 75
REMARK SMILES IDX 81 76 73 77 74 78 80 79 82 80 75 81 76 82 77 83 78 84 79 85
REMARK SMILES IDX 55 86 56 87 65 88 57 89 58 90 64 91 66 92 59 93 60 94 61 95
REMARK SMILES IDX 62 96 63 97
REMARK H PARENT 7 16 87 47 53 58
REMARK Flexibility Score: inf
ROOT
ATOM      1  O   UNL A   1      32.273  28.565  25.317  1.00  0.00    -0.374 OA
ENDROOT
BRANCH   1   2
ATOM      2  C   UNL A   1      32.516  27.358  26.036  1.00  0.00     0.202 C 
BRANCH   2   3
ATOM      3  C   UNL A   1      33.735  26.501  25.671  1.00  0.00     0.261 C 
BRANCH   3   4
ATOM      4  O   UNL A   1      33.379  25.365  24.878  1.00  0.00    -0.463 OA
BRANCH   4   5
ATOM      5  C   UNL A   1      33.653  24.163  25.461  1.00  0.00     0.310 C 
ATOM      6  O   UNL A   1      33.273  23.829  26.572  1.00  0.00    -0.252 OA
BRANCH   5   7
ATOM      7  C   UNL A   1      34.419  23.289  24.488  1.00  0.00     0.115 C 
ATOM      8  C   UNL A   1      34.672  21.819  24.900  1.00  0.00     0.096 C 
ATOM      9  C   UNL A   1      36.222  21.763  24.903  1.00  0.00     0.002 C 
ATOM     10  C   UNL A   1      36.841  22.664  25.994  1.00  0.00     0.005 C 
ATOM     11  C   UNL A   1      36.536  22.577  23.642  1.00  0.00     0.009 C 
ATOM     12  C   UNL A   1      35.834  23.831  24.169  1.00  0.00     0.004 C 
ATOM     13  C   UNL A   1      36.615  24.083  25.464  1.00  0.00     0.005 C 
BRANCH   8  14
ATOM     14  C   UNL A   1      34.005  21.252  26.149  1.00  0.00     0.224 C 
ATOM     15  N   UNL A   1      32.871  20.511  26.030  1.00  0.00    -0.350 N 
ATOM     16  H   UNL A   1      32.452  20.261  26.885  1.00  0.00     0.163 HD
ATOM     17  O   UNL A   1      34.485  21.389  27.275  1.00  0.00    -0.275 OA
BRANCH  15  18
ATOM     18  C   UNL A   1      32.176  20.029  24.855  1.00  0.00     0.174 C 
BRANCH  18  19
ATOM     19  C   UNL A   1      32.567  18.607  24.591  1.00  0.00     0.082 A 
ATOM     20  C   UNL A   1      32.604  15.270  25.613  1.00  0.00     0.173 C 
ATOM     21  N   UNL A   1      32.770  16.523  24.918  1.00  0.00    -0.275 N 
ATOM     22  C   UNL A   1      33.242  16.713  23.654  1.00  0.00     0.108 A 
ATOM     23  N   UNL A   1      32.401  17.660  25.528  1.00  0.00    -0.176 NA
ATOM     24  C   UNL A   1      33.122  18.060  23.406  1.00  0.00     0.047 A 
ENDBRANCH  18  19
ENDBRANCH  15  18
ENDBRANCH   8  14
ENDBRANCH   5   7
ENDBRANCH   4   5
ENDBRANCH   3   4
ENDBRANCH   2   3
ENDBRANCH   1   2
BRANCH   1  25
ATOM     25  C   UNL A   1      32.457  29.810  25.987  1.00  0.00     0.202 C 
BRANCH  25  26
ATOM     26  C   UNL A   1      33.318  29.903  27.250  1.00  0.00     0.261 C 
BRANCH  26  27
ATOM     27  O   UNL A   1      34.184  31.039  27.260  1.00  0.00    -0.460 OA
BRANCH  27  28
ATOM     28  C   UNL A   1      34.678  31.349  28.482  1.00  0.00     0.338 C 
ATOM     29  O   UNL A   1      34.108  31.948  29.383  1.00  0.00    -0.246 OA
BRANCH  28  30
ATOM     30  C   UNL A   1      35.960  30.657  28.654  1.00  0.00     0.060 A 
ATOM     31  C   UNL A   1      36.407  30.395  29.956  1.00  0.00     0.016 A 
ATOM     32  C   UNL A   1      36.727  30.311  27.541  1.00  0.00     0.016 A 
ATOM     33  C   UNL A   1      37.653  29.815  30.155  1.00  0.00     0.010 A 
ATOM     34  C   UNL A   1      37.982  29.748  27.743  1.00  0.00     0.010 A 
ATOM     35  C   UNL A   1      38.461  29.534  29.049  1.00  0.00    -0.014 A 
BRANCH  35  36
ATOM     36  C   UNL A   1      39.888  29.205  29.236  1.00  0.00     0.031 A 
ATOM     37  C   UNL A   1      40.811  30.318  29.642  1.00  0.00     0.074 A 
ATOM     38  C   UNL A   1      40.343  27.963  29.011  1.00  0.00     0.049 A 
ATOM     39  N   UNL A   1      42.116  30.340  29.675  1.00  0.00    -0.248 NA
ATOM     40  C   UNL A   1      40.175  31.582  30.052  1.00  0.00     0.031 C 
ATOM     41  C   UNL A   1      39.517  26.808  28.662  1.00  0.00     0.029 A 
ATOM     42  N   UNL A   1      41.624  27.475  29.012  1.00  0.00    -0.354 N 
ATOM     43  C   UNL A   1      42.457  31.619  30.096  1.00  0.00     0.074 A 
ATOM     44  C   UNL A   1      41.226  32.356  30.273  1.00  0.00     0.031 C 
ATOM     45  C   UNL A   1      40.319  25.751  28.442  1.00  0.00     0.029 A 
ATOM     46  C   UNL A   1      41.711  26.171  28.589  1.00  0.00     0.049 A 
ATOM     47  H   UNL A   1      42.406  28.007  29.289  1.00  0.00     0.167 HD
ATOM     48  C   UNL A   1      43.690  32.125  30.324  1.00  0.00     0.037 A 
ATOM     49  C   UNL A   1      42.796  25.423  28.307  1.00  0.00     0.037 A 
ATOM     50  C   UNL A   1      44.901  31.373  30.136  1.00  0.00     0.049 A 
ATOM     51  C   UNL A   1      44.164  26.034  28.486  1.00  0.00     0.074 A 
ATOM     52  C   UNL A   1      46.208  31.784  30.318  1.00  0.00     0.029 A 
ATOM     53  N   UNL A   1      44.950  30.049  29.721  1.00  0.00    -0.354 N 
ATOM     54  N   UNL A   1      44.482  27.247  28.879  1.00  0.00    -0.248 NA
ATOM     55  C   UNL A   1      45.322  25.181  28.188  1.00  0.00     0.031 C 
ATOM     56  C   UNL A   1      47.049  30.724  29.974  1.00  0.00     0.029 A 
ATOM     57  C   UNL A   1      46.265  29.631  29.635  1.00  0.00     0.049 A 
ATOM     58  H   UNL A   1      44.165  29.491  29.519  1.00  0.00     0.167 HD
ATOM     59  C   UNL A   1      45.872  27.284  28.916  1.00  0.00     0.074 A 
ATOM     60  C   UNL A   1      46.334  25.975  28.506  1.00  0.00     0.031 C 
ATOM     61  C   UNL A   1      46.694  28.306  29.261  1.00  0.00     0.037 A 
BRANCH  48  62
ATOM     62  C   UNL A   1      43.790  33.549  30.791  1.00  0.00     0.058 A 
ATOM     63  C   UNL A   1      43.855  33.872  32.156  1.00  0.00     0.135 A 
ATOM     64  C   UNL A   1      43.867  34.602  29.865  1.00  0.00     0.135 A 
ATOM     65  F   UNL A   1      43.759  32.906  33.085  1.00  0.00    -0.206 F 
ATOM     66  C   UNL A   1      43.980  35.188  32.587  1.00  0.00     0.059 A 
ATOM     67  C   UNL A   1      44.023  35.923  30.274  1.00  0.00     0.059 A 
ATOM     68  F   UNL A   1      43.799  34.351  28.549  1.00  0.00    -0.206 F 
ATOM     69  C   UNL A   1      44.071  36.207  31.637  1.00  0.00     0.060 A 
BRANCH  69  70
ATOM     70  S   UNL A   1      44.264  37.905  32.216  1.00  0.00     0.124 S 
ATOM     71  O   UNL A   1      43.253  37.973  33.268  1.00  0.00    -0.237 OA
ATOM     72  O   UNL A   1      45.652  37.921  32.669  1.00  0.00    -0.237 OA
ATOM     73  O   UNL A   1      43.986  38.704  31.028  1.00  0.00    -0.744 OA
ENDBRANCH  69  70
ENDBRANCH  48  62
BRANCH  49  74
ATOM     74  C   UNL A   1      42.640  24.037  27.790  1.00  0.00     0.058 A 
ATOM     75  C   UNL A   1      42.496  23.785  26.418  1.00  0.00     0.135 A 
ATOM     76  C   UNL A   1      42.604  22.936  28.661  1.00  0.00     0.135 A 
ATOM     77  F   UNL A   1      42.519  24.802  25.543  1.00  0.00    -0.206 F 
ATOM     78  C   UNL A   1      42.284  22.499  25.930  1.00  0.00     0.059 A 
ATOM     79  C   UNL A   1      42.426  21.638  28.196  1.00  0.00     0.059 A 
ATOM     80  F   UNL A   1      42.755  23.118  29.983  1.00  0.00    -0.206 F 
ATOM     81  C   UNL A   1      42.247  21.432  26.830  1.00  0.00     0.060 A 
BRANCH  81  82
ATOM     82  S   UNL A   1      41.975  19.767  26.186  1.00  0.00     0.124 S 
ATOM     83  O   UNL A   1      40.556  19.812  25.852  1.00  0.00    -0.237 OA
ATOM     84  O   UNL A   1      42.897  19.722  25.055  1.00  0.00    -0.237 OA
ATOM     85  O   UNL A   1      42.332  18.910  27.312  1.00  0.00    -0.744 OA
ENDBRANCH  81  82
ENDBRANCH  49  74
BRANCH  61  86
ATOM     86  C   UNL A   1      48.173  28.039  29.290  1.00  0.00     0.058 A 
ATOM     87  C   UNL A   1      48.799  27.436  30.391  1.00  0.00     0.135 A 
ATOM     88  C   UNL A   1      48.954  28.302  28.152  1.00  0.00     0.135 A 
ATOM     89  F   UNL A   1      48.099  27.170  31.505  1.00  0.00    -0.206 F 
ATOM     90  C   UNL A   1      50.150  27.108  30.365  1.00  0.00     0.059 A 
ATOM     91  C   UNL A   1      50.299  27.955  28.093  1.00  0.00     0.059 A 
ATOM     92  F   UNL A   1      48.401  28.870  27.069  1.00  0.00    -0.206 F 
ATOM     93  C   UNL A   1      50.890  27.361  29.207  1.00  0.00     0.060 A 
BRANCH  93  94
ATOM     94  S   UNL A   1      52.622  26.859  29.161  1.00  0.00     0.124 S 
ATOM     95  O   UNL A   1      52.753  26.134  30.421  1.00  0.00    -0.237 OA
ATOM     96  O   UNL A   1      52.677  26.044  27.952  1.00  0.00    -0.237 OA
ATOM     97  O   UNL A   1      53.343  28.126  29.090  1.00  0.00    -0.744 OA
ENDBRANCH  93  94
ENDBRANCH  61  86
ENDBRANCH  35  36
ENDBRANCH  28  30
ENDBRANCH  27  28
ENDBRANCH  26  27
ENDBRANCH  25  26
ENDBRANCH   1  25
TORSDOF 20
ENDMDL
