MODEL 1
REMARK VINA RESULT:     -10.3      0.000      0.000
REMARK SMILES CC(C)(C)c1csc(C[NH+]2CC(C(=O)OCCOCCOC(=O)c3ccc(-c4c5nc(c(-c6c(F)cc(S(=O)(=O)[O-])cc6F)c6ccc([nH]6)c(-c6c(F)cc(S(=O)(=O)[O-])cc6F)c6nc(c(-c7c(F)cc(S(=O)(=O)[O-])cc7F)c7ccc4[nH]7)C=C6)C=C5)cc3)C2)n1
REMARK SMILES IDX 18 1 17 2 16 3 15 4 13 5 14 6 12 7 10 8 11 9 90 10 9 12 8 13
REMARK SMILES IDX 5 14 6 15 91 16 7 17 2 18 1 19 3 20 4 21 19 22 20 23 21 24
REMARK SMILES IDX 22 25 23 26 24 27 25 28 89 29 26 30 88 31 27 32 28 33 29 34
REMARK SMILES IDX 82 35 30 36 87 37 81 38 83 39 31 40 86 41 80 42 79 43 32 45
REMARK SMILES IDX 66 46 45 47 65 48 46 49 49 50 64 51 84 52 47 53 48 54 63 56
REMARK SMILES IDX 85 57 50 58 33 59 34 60 43 61 35 62 36 63 42 64 44 65 37 66
REMARK SMILES IDX 38 67 39 68 40 69 41 70 67 71 68 72 77 73 69 74 70 75 76 76
REMARK SMILES IDX 78 77 71 78 72 79 73 80 74 81 75 82 51 83 52 84 61 85 53 86
REMARK SMILES IDX 54 87 60 88 62 89 55 90 56 91 57 92 58 93 59 94
REMARK H PARENT 10 11 83 44 49 55
REMARK Flexibility Score: inf
ROOT
ATOM      1  O   UNL A   1      33.226  31.210  27.687  1.00  0.00    -0.374 OA
ENDROOT
BRANCH   1   2
ATOM      2  C   UNL A   1      33.048  30.125  26.774  1.00  0.00     0.202 C 
BRANCH   2   3
ATOM      3  C   UNL A   1      31.919  30.287  25.750  1.00  0.00     0.261 C 
BRANCH   3   4
ATOM      4  O   UNL A   1      32.069  29.349  24.672  1.00  0.00    -0.463 OA
BRANCH   4   5
ATOM      5  C   UNL A   1      30.923  28.941  24.048  1.00  0.00     0.320 C 
ATOM      6  O   UNL A   1      29.973  29.690  23.821  1.00  0.00    -0.251 OA
BRANCH   5   7
ATOM      7  C   UNL A   1      30.978  27.477  23.590  1.00  0.00     0.208 C 
ATOM      8  N   UNL A   1      31.330  25.477  24.103  1.00  0.00    -0.327 N 
ATOM      9  C   UNL A   1      30.255  26.427  24.462  1.00  0.00     0.284 C 
ATOM     10  C   UNL A   1      32.235  26.611  23.842  1.00  0.00     0.284 C 
ATOM     11  H   UNL A   1      31.173  24.762  23.392  1.00  0.00     0.348 HD
BRANCH   8  12
ATOM     12  C   UNL A   1      31.765  24.605  25.211  1.00  0.00     0.331 C 
BRANCH  12  13
ATOM     13  C   UNL A   1      32.756  23.494  24.947  1.00  0.00     0.147 A 
ATOM     14  C   UNL A   1      34.715  22.482  24.615  1.00  0.00     0.057 A 
ATOM     15  C   UNL A   1      33.882  21.376  24.634  1.00  0.00     0.091 A 
ATOM     16  N   UNL A   1      34.048  23.691  24.776  1.00  0.00    -0.240 NA
ATOM     17  S   UNL A   1      32.268  21.844  24.950  1.00  0.00    -0.121 S 
BRANCH  14  18
ATOM     18  C   UNL A   1      36.232  22.470  24.483  1.00  0.00     0.005 C 
ATOM     19  C   UNL A   1      36.679  22.847  23.055  1.00  0.00     0.017 C 
ATOM     20  C   UNL A   1      36.795  21.072  24.806  1.00  0.00     0.017 C 
ATOM     21  C   UNL A   1      36.838  23.498  25.460  1.00  0.00     0.017 C 
ENDBRANCH  14  18
ENDBRANCH  12  13
ENDBRANCH   8  12
ENDBRANCH   5   7
ENDBRANCH   4   5
ENDBRANCH   3   4
ENDBRANCH   2   3
ENDBRANCH   1   2
BRANCH   1  22
ATOM     22  C   UNL A   1      34.534  31.775  27.780  1.00  0.00     0.202 C 
BRANCH  22  23
ATOM     23  C   UNL A   1      34.986  32.249  29.167  1.00  0.00     0.261 C 
BRANCH  23  24
ATOM     24  O   UNL A   1      35.673  31.223  29.906  1.00  0.00    -0.460 OA
BRANCH  24  25
ATOM     25  C   UNL A   1      36.818  31.631  30.503  1.00  0.00     0.338 C 
ATOM     26  O   UNL A   1      36.924  32.466  31.396  1.00  0.00    -0.246 OA
BRANCH  25  27
ATOM     27  C   UNL A   1      37.960  30.812  30.059  1.00  0.00     0.060 A 
ATOM     28  C   UNL A   1      38.931  30.490  31.016  1.00  0.00     0.016 A 
ATOM     29  C   UNL A   1      38.134  30.445  28.722  1.00  0.00     0.016 A 
ATOM     30  C   UNL A   1      40.107  29.850  30.631  1.00  0.00     0.010 A 
ATOM     31  C   UNL A   1      39.322  29.808  28.336  1.00  0.00     0.010 A 
ATOM     32  C   UNL A   1      40.329  29.543  29.282  1.00  0.00    -0.014 A 
BRANCH  32  33
ATOM     33  C   UNL A   1      41.670  29.075  28.853  1.00  0.00     0.031 A 
ATOM     34  C   UNL A   1      42.806  30.063  28.793  1.00  0.00     0.074 A 
ATOM     35  C   UNL A   1      41.882  27.781  28.549  1.00  0.00     0.049 A 
ATOM     36  N   UNL A   1      44.048  29.874  28.430  1.00  0.00    -0.248 NA
ATOM     37  C   UNL A   1      42.502  31.447  29.194  1.00  0.00     0.031 C 
ATOM     38  C   UNL A   1      40.869  26.726  28.592  1.00  0.00     0.029 A 
ATOM     39  N   UNL A   1      43.020  27.136  28.133  1.00  0.00    -0.354 N 
ATOM     40  C   UNL A   1      44.669  31.114  28.540  1.00  0.00     0.074 A 
ATOM     41  C   UNL A   1      43.665  32.052  28.991  1.00  0.00     0.031 C 
ATOM     42  C   UNL A   1      41.428  25.569  28.198  1.00  0.00     0.029 A 
ATOM     43  C   UNL A   1      42.829  25.803  27.855  1.00  0.00     0.049 A 
ATOM     44  H   UNL A   1      43.891  27.585  28.045  1.00  0.00     0.167 HD
ATOM     45  C   UNL A   1      45.960  31.438  28.292  1.00  0.00     0.037 A 
ATOM     46  C   UNL A   1      43.683  24.885  27.357  1.00  0.00     0.037 A 
ATOM     47  C   UNL A   1      46.965  30.497  27.872  1.00  0.00     0.049 A 
ATOM     48  C   UNL A   1      45.109  25.281  27.068  1.00  0.00     0.074 A 
ATOM     49  C   UNL A   1      48.313  30.722  27.652  1.00  0.00     0.029 A 
ATOM     50  N   UNL A   1      46.734  29.156  27.603  1.00  0.00    -0.354 N 
ATOM     51  N   UNL A   1      45.693  26.445  27.231  1.00  0.00    -0.248 NA
ATOM     52  C   UNL A   1      45.996  24.236  26.536  1.00  0.00     0.031 C 
ATOM     53  C   UNL A   1      48.888  29.528  27.204  1.00  0.00     0.029 A 
ATOM     54  C   UNL A   1      47.908  28.549  27.192  1.00  0.00     0.049 A 
ATOM     55  H   UNL A   1      45.864  28.704  27.690  1.00  0.00     0.167 HD
ATOM     56  C   UNL A   1      47.020  26.262  26.850  1.00  0.00     0.074 A 
ATOM     57  C   UNL A   1      47.155  24.876  26.460  1.00  0.00     0.031 C 
ATOM     58  C   UNL A   1      48.033  27.162  26.826  1.00  0.00     0.037 A 
BRANCH  45  59
ATOM     59  C   UNL A   1      46.373  32.874  28.448  1.00  0.00     0.058 A 
ATOM     60  C   UNL A   1      46.909  33.364  29.648  1.00  0.00     0.135 A 
ATOM     61  C   UNL A   1      46.314  33.747  27.350  1.00  0.00     0.135 A 
ATOM     62  F   UNL A   1      46.970  32.575  30.733  1.00  0.00    -0.206 F 
ATOM     63  C   UNL A   1      47.371  34.672  29.755  1.00  0.00     0.059 A 
ATOM     64  C   UNL A   1      46.791  35.052  27.427  1.00  0.00     0.059 A 
ATOM     65  F   UNL A   1      45.806  33.327  26.180  1.00  0.00    -0.206 F 
ATOM     66  C   UNL A   1      47.315  35.506  28.636  1.00  0.00     0.060 A 
BRANCH  66  67
ATOM     67  S   UNL A   1      47.967  37.184  28.776  1.00  0.00     0.124 S 
ATOM     68  O   UNL A   1      46.748  37.952  29.012  1.00  0.00    -0.237 OA
ATOM     69  O   UNL A   1      48.875  37.072  29.912  1.00  0.00    -0.237 OA
ATOM     70  O   UNL A   1      48.609  37.408  27.484  1.00  0.00    -0.744 OA
ENDBRANCH  66  67
ENDBRANCH  45  59
BRANCH  46  71
ATOM     71  C   UNL A   1      43.213  23.504  27.069  1.00  0.00     0.058 A 
ATOM     72  C   UNL A   1      43.038  22.562  28.094  1.00  0.00     0.135 A 
ATOM     73  C   UNL A   1      42.976  23.086  25.750  1.00  0.00     0.135 A 
ATOM     74  F   UNL A   1      43.260  22.913  29.370  1.00  0.00    -0.206 F 
ATOM     75  C   UNL A   1      42.680  21.247  27.821  1.00  0.00     0.059 A 
ATOM     76  C   UNL A   1      42.591  21.782  25.454  1.00  0.00     0.059 A 
ATOM     77  F   UNL A   1      43.113  23.951  24.734  1.00  0.00    -0.206 F 
ATOM     78  C   UNL A   1      42.466  20.864  26.496  1.00  0.00     0.060 A 
BRANCH  78  79
ATOM     79  S   UNL A   1      41.993  19.157  26.145  1.00  0.00     0.124 S 
ATOM     80  O   UNL A   1      42.802  18.867  24.968  1.00  0.00    -0.237 OA
ATOM     81  O   UNL A   1      42.380  18.471  27.373  1.00  0.00    -0.237 OA
ATOM     82  O   UNL A   1      40.554  19.252  25.916  1.00  0.00    -0.744 OA
ENDBRANCH  78  79
ENDBRANCH  46  71
BRANCH  58  83
ATOM     83  C   UNL A   1      49.391  26.668  26.408  1.00  0.00     0.058 A 
ATOM     84  C   UNL A   1      49.879  26.860  25.108  1.00  0.00     0.135 A 
ATOM     85  C   UNL A   1      50.234  26.040  27.341  1.00  0.00     0.135 A 
ATOM     86  F   UNL A   1      49.112  27.451  24.178  1.00  0.00    -0.206 F 
ATOM     87  C   UNL A   1      51.147  26.421  24.736  1.00  0.00     0.059 A 
ATOM     88  C   UNL A   1      51.514  25.618  26.998  1.00  0.00     0.059 A 
ATOM     89  F   UNL A   1      49.821  25.845  28.603  1.00  0.00    -0.206 F 
ATOM     90  C   UNL A   1      51.957  25.801  25.689  1.00  0.00     0.060 A 
BRANCH  90  91
ATOM     91  S   UNL A   1      53.610  25.260  25.203  1.00  0.00     0.124 S 
ATOM     92  O   UNL A   1      53.508  23.815  25.376  1.00  0.00    -0.237 OA
ATOM     93  O   UNL A   1      53.703  25.729  23.825  1.00  0.00    -0.237 OA
ATOM     94  O   UNL A   1      54.483  25.945  26.152  1.00  0.00    -0.744 OA
ENDBRANCH  90  91
ENDBRANCH  58  83
ENDBRANCH  32  33
ENDBRANCH  25  27
ENDBRANCH  24  25
ENDBRANCH  23  24
ENDBRANCH  22  23
ENDBRANCH   1  22
TORSDOF 20
ENDMDL
MODEL 2
REMARK VINA RESULT:     -10.3      1.115      2.083
REMARK SMILES CC(C)(C)c1csc(C[NH+]2CC(C(=O)OCCOCCOC(=O)c3ccc(-c4c5nc(c(-c6c(F)cc(S(=O)(=O)[O-])cc6F)c6ccc([nH]6)c(-c6c(F)cc(S(=O)(=O)[O-])cc6F)c6nc(c(-c7c(F)cc(S(=O)(=O)[O-])cc7F)c7ccc4[nH]7)C=C6)C=C5)cc3)C2)n1
REMARK SMILES IDX 18 1 17 2 16 3 15 4 13 5 14 6 12 7 10 8 11 9 90 10 9 12 8 13
REMARK SMILES IDX 5 14 6 15 91 16 7 17 2 18 1 19 3 20 4 21 19 22 20 23 21 24
REMARK SMILES IDX 22 25 23 26 24 27 25 28 89 29 26 30 88 31 27 32 28 33 29 34
REMARK SMILES IDX 82 35 30 36 87 37 81 38 83 39 31 40 86 41 80 42 79 43 32 45
REMARK SMILES IDX 66 46 45 47 65 48 46 49 49 50 64 51 84 52 47 53 48 54 63 56
REMARK SMILES IDX 85 57 50 58 33 59 34 60 43 61 35 62 36 63 42 64 44 65 37 66
REMARK SMILES IDX 38 67 39 68 40 69 41 70 67 71 68 72 77 73 69 74 70 75 76 76
REMARK SMILES IDX 78 77 71 78 72 79 73 80 74 81 75 82 51 83 52 84 61 85 53 86
REMARK SMILES IDX 54 87 60 88 62 89 55 90 56 91 57 92 58 93 59 94
REMARK H PARENT 10 11 83 44 49 55
REMARK Flexibility Score: inf
ROOT
ATOM      1  O   UNL A   1      33.108  30.660  26.953  1.00  0.00    -0.374 OA
ENDROOT
BRANCH   1   2
ATOM      2  C   UNL A   1      32.844  29.933  25.751  1.00  0.00     0.202 C 
BRANCH   2   3
ATOM      3  C   UNL A   1      31.673  28.946  25.805  1.00  0.00     0.261 C 
BRANCH   3   4
ATOM      4  O   UNL A   1      31.883  27.852  24.898  1.00  0.00    -0.463 OA
BRANCH   4   5
ATOM      5  C   UNL A   1      30.768  27.202  24.450  1.00  0.00     0.320 C 
ATOM      6  O   UNL A   1      29.877  27.754  23.804  1.00  0.00    -0.251 OA
BRANCH   5   7
ATOM      7  C   UNL A   1      30.781  25.699  24.764  1.00  0.00     0.208 C 
ATOM      8  N   UNL A   1      31.629  23.822  24.384  1.00  0.00    -0.327 N 
ATOM      9  C   UNL A   1      32.149  25.039  25.044  1.00  0.00     0.284 C 
ATOM     10  C   UNL A   1      30.667  24.649  23.633  1.00  0.00     0.284 C 
ATOM     11  H   UNL A   1      31.310  23.028  24.939  1.00  0.00     0.348 HD
BRANCH   8  12
ATOM     12  C   UNL A   1      32.613  23.125  23.534  1.00  0.00     0.331 C 
BRANCH  12  13
ATOM     13  C   UNL A   1      33.331  21.905  24.064  1.00  0.00     0.147 A 
ATOM     14  C   UNL A   1      33.767  19.759  24.482  1.00  0.00     0.057 A 
ATOM     15  C   UNL A   1      34.911  20.334  25.008  1.00  0.00     0.091 A 
ATOM     16  N   UNL A   1      32.862  20.677  23.963  1.00  0.00    -0.240 NA
ATOM     17  S   UNL A   1      34.898  22.027  24.766  1.00  0.00    -0.121 S 
BRANCH  14  18
ATOM     18  C   UNL A   1      33.462  18.269  24.394  1.00  0.00     0.005 C 
ATOM     19  C   UNL A   1      32.688  17.775  25.635  1.00  0.00     0.017 C 
ATOM     20  C   UNL A   1      34.765  17.453  24.289  1.00  0.00     0.017 C 
ATOM     21  C   UNL A   1      32.592  17.997  23.150  1.00  0.00     0.017 C 
ENDBRANCH  14  18
ENDBRANCH  12  13
ENDBRANCH   8  12
ENDBRANCH   5   7
ENDBRANCH   4   5
ENDBRANCH   3   4
ENDBRANCH   2   3
ENDBRANCH   1   2
BRANCH   1  22
ATOM     22  C   UNL A   1      34.439  30.609  27.466  1.00  0.00     0.202 C 
BRANCH  22  23
ATOM     23  C   UNL A   1      34.805  31.637  28.543  1.00  0.00     0.261 C 
BRANCH  23  24
ATOM     24  O   UNL A   1      35.564  31.061  29.622  1.00  0.00    -0.460 OA
BRANCH  24  25
ATOM     25  C   UNL A   1      36.714  31.715  29.912  1.00  0.00     0.338 C 
ATOM     26  O   UNL A   1      36.822  32.793  30.490  1.00  0.00    -0.246 OA
BRANCH  25  27
ATOM     27  C   UNL A   1      37.886  30.881  29.591  1.00  0.00     0.060 A 
ATOM     28  C   UNL A   1      38.854  30.718  30.591  1.00  0.00     0.016 A 
ATOM     29  C   UNL A   1      38.088  30.346  28.316  1.00  0.00     0.016 A 
ATOM     30  C   UNL A   1      40.053  30.071  30.304  1.00  0.00     0.010 A 
ATOM     31  C   UNL A   1      39.299  29.702  28.028  1.00  0.00     0.010 A 
ATOM     32  C   UNL A   1      40.301  29.596  29.010  1.00  0.00    -0.014 A 
BRANCH  32  33
ATOM     33  C   UNL A   1      41.662  29.117  28.659  1.00  0.00     0.031 A 
ATOM     34  C   UNL A   1      42.803  30.101  28.643  1.00  0.00     0.074 A 
ATOM     35  C   UNL A   1      41.884  27.819  28.385  1.00  0.00     0.049 A 
ATOM     36  N   UNL A   1      44.061  29.904  28.348  1.00  0.00    -0.248 NA
ATOM     37  C   UNL A   1      42.484  31.492  29.007  1.00  0.00     0.031 C 
ATOM     38  C   UNL A   1      40.867  26.767  28.391  1.00  0.00     0.029 A 
ATOM     39  N   UNL A   1      43.040  27.164  28.040  1.00  0.00    -0.354 N 
ATOM     40  C   UNL A   1      44.680  31.143  28.472  1.00  0.00     0.074 A 
ATOM     41  C   UNL A   1      43.657  32.091  28.856  1.00  0.00     0.031 C 
ATOM     42  C   UNL A   1      41.441  25.602  28.045  1.00  0.00     0.029 A 
ATOM     43  C   UNL A   1      42.860  25.828  27.772  1.00  0.00     0.049 A 
ATOM     44  H   UNL A   1      43.916  27.609  27.990  1.00  0.00     0.167 HD
ATOM     45  C   UNL A   1      45.984  31.459  28.287  1.00  0.00     0.037 A 
ATOM     46  C   UNL A   1      43.735  24.900  27.333  1.00  0.00     0.037 A 
ATOM     47  C   UNL A   1      47.006  30.510  27.934  1.00  0.00     0.049 A 
ATOM     48  C   UNL A   1      45.175  25.287  27.113  1.00  0.00     0.074 A 
ATOM     49  C   UNL A   1      48.364  30.727  27.782  1.00  0.00     0.029 A 
ATOM     50  N   UNL A   1      46.784  29.166  27.674  1.00  0.00    -0.354 N 
ATOM     51  N   UNL A   1      45.754  26.452  27.288  1.00  0.00    -0.248 NA
ATOM     52  C   UNL A   1      46.086  24.231  26.643  1.00  0.00     0.031 C 
ATOM     53  C   UNL A   1      48.957  29.526  27.382  1.00  0.00     0.029 A 
ATOM     54  C   UNL A   1      47.976  28.549  27.334  1.00  0.00     0.049 A 
ATOM     55  H   UNL A   1      45.909  28.717  27.722  1.00  0.00     0.167 HD
ATOM     56  C   UNL A   1      47.098  26.260  26.980  1.00  0.00     0.074 A 
ATOM     57  C   UNL A   1      47.249  24.867  26.619  1.00  0.00     0.031 C 
ATOM     58  C   UNL A   1      48.115  27.156  26.995  1.00  0.00     0.037 A 
BRANCH  45  59
ATOM     59  C   UNL A   1      46.393  32.896  28.443  1.00  0.00     0.058 A 
ATOM     60  C   UNL A   1      46.475  33.767  27.347  1.00  0.00     0.135 A 
ATOM     61  C   UNL A   1      46.618  33.428  29.724  1.00  0.00     0.135 A 
ATOM     62  F   UNL A   1      46.288  33.304  26.100  1.00  0.00    -0.206 F 
ATOM     63  C   UNL A   1      46.768  35.117  27.514  1.00  0.00     0.059 A 
ATOM     64  C   UNL A   1      46.889  34.780  29.915  1.00  0.00     0.059 A 
ATOM     65  F   UNL A   1      46.554  32.636  30.805  1.00  0.00    -0.206 F 
ATOM     66  C   UNL A   1      46.965  35.615  28.803  1.00  0.00     0.060 A 
BRANCH  66  67
ATOM     67  S   UNL A   1      47.292  37.380  29.007  1.00  0.00     0.124 S 
ATOM     68  O   UNL A   1      48.082  37.670  27.814  1.00  0.00    -0.237 OA
ATOM     69  O   UNL A   1      45.947  37.945  29.030  1.00  0.00    -0.237 OA
ATOM     70  O   UNL A   1      48.018  37.447  30.272  1.00  0.00    -0.744 OA
ENDBRANCH  66  67
ENDBRANCH  45  59
BRANCH  46  71
ATOM     71  C   UNL A   1      43.276  23.516  27.041  1.00  0.00     0.058 A 
ATOM     72  C   UNL A   1      43.095  22.574  28.065  1.00  0.00     0.135 A 
ATOM     73  C   UNL A   1      43.055  23.095  25.720  1.00  0.00     0.135 A 
ATOM     74  F   UNL A   1      43.302  22.927  29.343  1.00  0.00    -0.206 F 
ATOM     75  C   UNL A   1      42.747  21.256  27.790  1.00  0.00     0.059 A 
ATOM     76  C   UNL A   1      42.680  21.789  25.422  1.00  0.00     0.059 A 
ATOM     77  F   UNL A   1      43.197  23.960  24.705  1.00  0.00    -0.206 F 
ATOM     78  C   UNL A   1      42.549  20.871  26.464  1.00  0.00     0.060 A 
BRANCH  78  79
ATOM     79  S   UNL A   1      42.090  19.161  26.110  1.00  0.00     0.124 S 
ATOM     80  O   UNL A   1      42.901  18.880  24.932  1.00  0.00    -0.237 OA
ATOM     81  O   UNL A   1      42.482  18.475  27.336  1.00  0.00    -0.237 OA
ATOM     82  O   UNL A   1      40.650  19.245  25.881  1.00  0.00    -0.744 OA
ENDBRANCH  78  79
ENDBRANCH  46  71
BRANCH  58  83
ATOM     83  C   UNL A   1      49.491  26.652  26.657  1.00  0.00     0.058 A 
ATOM     84  C   UNL A   1      50.349  26.131  27.636  1.00  0.00     0.135 A 
ATOM     85  C   UNL A   1      49.935  26.647  25.323  1.00  0.00     0.135 A 
ATOM     86  F   UNL A   1      49.974  26.117  28.925  1.00  0.00    -0.206 F 
ATOM     87  C   UNL A   1      51.612  25.645  27.310  1.00  0.00     0.059 A 
ATOM     88  C   UNL A   1      51.182  26.141  24.972  1.00  0.00     0.059 A 
ATOM     89  F   UNL A   1      49.147  27.122  24.346  1.00  0.00    -0.206 F 
ATOM     90  C   UNL A   1      52.020  25.654  25.975  1.00  0.00     0.060 A 
BRANCH  90  91
ATOM     91  S   UNL A   1      53.650  24.997  25.560  1.00  0.00     0.124 S 
ATOM     92  O   UNL A   1      54.375  25.199  26.809  1.00  0.00    -0.237 OA
ATOM     93  O   UNL A   1      53.351  23.610  25.216  1.00  0.00    -0.237 OA
ATOM     94  O   UNL A   1      54.077  25.834  24.443  1.00  0.00    -0.744 OA
ENDBRANCH  90  91
ENDBRANCH  58  83
ENDBRANCH  32  33
ENDBRANCH  25  27
ENDBRANCH  24  25
ENDBRANCH  23  24
ENDBRANCH  22  23
ENDBRANCH   1  22
TORSDOF 20
ENDMDL
MODEL 3
REMARK VINA RESULT:     -10.1      2.877      8.859
REMARK SMILES CC(C)(C)c1csc(C[NH+]2CC(C(=O)OCCOCCOC(=O)c3ccc(-c4c5nc(c(-c6c(F)cc(S(=O)(=O)[O-])cc6F)c6ccc([nH]6)c(-c6c(F)cc(S(=O)(=O)[O-])cc6F)c6nc(c(-c7c(F)cc(S(=O)(=O)[O-])cc7F)c7ccc4[nH]7)C=C6)C=C5)cc3)C2)n1
REMARK SMILES IDX 18 1 17 2 16 3 15 4 13 5 14 6 12 7 10 8 11 9 90 10 9 12 8 13
REMARK SMILES IDX 5 14 6 15 91 16 7 17 2 18 1 19 3 20 4 21 19 22 20 23 21 24
REMARK SMILES IDX 22 25 23 26 24 27 25 28 89 29 26 30 88 31 27 32 28 33 29 34
REMARK SMILES IDX 82 35 30 36 87 37 81 38 83 39 31 40 86 41 80 42 79 43 32 45
REMARK SMILES IDX 66 46 45 47 65 48 46 49 49 50 64 51 84 52 47 53 48 54 63 56
REMARK SMILES IDX 85 57 50 58 33 59 34 60 43 61 35 62 36 63 42 64 44 65 37 66
REMARK SMILES IDX 38 67 39 68 40 69 41 70 67 71 68 72 77 73 69 74 70 75 76 76
REMARK SMILES IDX 78 77 71 78 72 79 73 80 74 81 75 82 51 83 52 84 61 85 53 86
REMARK SMILES IDX 54 87 60 88 62 89 55 90 56 91 57 92 58 93 59 94
REMARK H PARENT 10 11 83 44 49 55
REMARK Flexibility Score: inf
ROOT
ATOM      1  O   UNL A   1      33.849  28.222  24.470  1.00  0.00    -0.374 OA
ENDROOT
BRANCH   1   2
ATOM      2  C   UNL A   1      33.624  26.934  23.893  1.00  0.00     0.202 C 
BRANCH   2   3
ATOM      3  C   UNL A   1      33.401  26.907  22.376  1.00  0.00     0.261 C 
BRANCH   3   4
ATOM      4  O   UNL A   1      32.385  25.954  22.026  1.00  0.00    -0.463 OA
BRANCH   4   5
ATOM      5  C   UNL A   1      31.171  26.096  22.637  1.00  0.00     0.320 C 
ATOM      6  O   UNL A   1      30.515  27.137  22.605  1.00  0.00    -0.251 OA
BRANCH   5   7
ATOM      7  C   UNL A   1      30.675  24.801  23.297  1.00  0.00     0.208 C 
ATOM      8  N   UNL A   1      31.005  23.310  24.730  1.00  0.00    -0.327 N 
ATOM      9  C   UNL A   1      30.663  24.745  24.841  1.00  0.00     0.284 C 
ATOM     10  C   UNL A   1      31.593  23.559  23.402  1.00  0.00     0.284 C 
ATOM     11  H   UNL A   1      30.289  22.595  24.856  1.00  0.00     0.348 HD
BRANCH   8  12
ATOM     12  C   UNL A   1      31.976  22.839  25.737  1.00  0.00     0.331 C 
BRANCH  12  13
ATOM     13  C   UNL A   1      32.908  21.696  25.403  1.00  0.00     0.147 A 
ATOM     14  C   UNL A   1      33.571  19.656  24.796  1.00  0.00     0.057 A 
ATOM     15  C   UNL A   1      34.802  20.286  24.875  1.00  0.00     0.091 A 
ATOM     16  N   UNL A   1      32.497  20.475  25.122  1.00  0.00    -0.240 NA
ATOM     17  S   UNL A   1      34.606  21.939  25.268  1.00  0.00    -0.121 S 
BRANCH  14  18
ATOM     18  C   UNL A   1      33.318  18.220  24.356  1.00  0.00     0.005 C 
ATOM     19  C   UNL A   1      34.639  17.465  24.099  1.00  0.00     0.017 C 
ATOM     20  C   UNL A   1      32.489  18.187  23.058  1.00  0.00     0.017 C 
ATOM     21  C   UNL A   1      32.550  17.473  25.466  1.00  0.00     0.017 C 
ENDBRANCH  14  18
ENDBRANCH  12  13
ENDBRANCH   8  12
ENDBRANCH   5   7
ENDBRANCH   4   5
ENDBRANCH   3   4
ENDBRANCH   2   3
ENDBRANCH   1   2
BRANCH   1  22
ATOM     22  C   UNL A   1      33.858  28.304  25.895  1.00  0.00     0.202 C 
BRANCH  22  23
ATOM     23  C   UNL A   1      33.463  29.650  26.514  1.00  0.00     0.261 C 
BRANCH  23  24
ATOM     24  O   UNL A   1      33.754  29.719  27.922  1.00  0.00    -0.460 OA
BRANCH  24  25
ATOM     25  C   UNL A   1      34.676  30.650  28.260  1.00  0.00     0.338 C 
ATOM     26  O   UNL A   1      34.461  31.809  28.602  1.00  0.00    -0.246 OA
BRANCH  25  27
ATOM     27  C   UNL A   1      36.021  30.052  28.335  1.00  0.00     0.060 A 
ATOM     28  C   UNL A   1      36.428  29.534  29.571  1.00  0.00     0.016 A 
ATOM     29  C   UNL A   1      36.906  30.078  27.253  1.00  0.00     0.016 A 
ATOM     30  C   UNL A   1      37.737  29.093  29.749  1.00  0.00     0.010 A 
ATOM     31  C   UNL A   1      38.224  29.641  27.437  1.00  0.00     0.010 A 
ATOM     32  C   UNL A   1      38.655  29.183  28.695  1.00  0.00    -0.014 A 
BRANCH  32  33
ATOM     33  C   UNL A   1      40.094  28.928  28.959  1.00  0.00     0.031 A 
ATOM     34  C   UNL A   1      40.684  27.596  28.576  1.00  0.00     0.074 A 
ATOM     35  C   UNL A   1      40.872  29.880  29.506  1.00  0.00     0.049 A 
ATOM     36  N   UNL A   1      41.905  27.156  28.731  1.00  0.00    -0.248 NA
ATOM     37  C   UNL A   1      39.776  26.630  27.933  1.00  0.00     0.031 C 
ATOM     38  C   UNL A   1      40.423  31.217  29.898  1.00  0.00     0.029 A 
ATOM     39  N   UNL A   1      42.204  29.864  29.836  1.00  0.00    -0.354 N 
ATOM     40  C   UNL A   1      41.910  25.861  28.225  1.00  0.00     0.074 A 
ATOM     41  C   UNL A   1      40.567  25.579  27.768  1.00  0.00     0.031 C 
ATOM     42  C   UNL A   1      41.459  31.885  30.433  1.00  0.00     0.029 A 
ATOM     43  C   UNL A   1      42.638  31.019  30.443  1.00  0.00     0.049 A 
ATOM     44  H   UNL A   1      42.795  29.098  29.653  1.00  0.00     0.167 HD
ATOM     45  C   UNL A   1      42.944  24.989  28.144  1.00  0.00     0.037 A 
ATOM     46  C   UNL A   1      43.840  31.331  30.967  1.00  0.00     0.037 A 
ATOM     47  C   UNL A   1      44.287  25.282  28.570  1.00  0.00     0.049 A 
ATOM     48  C   UNL A   1      44.966  30.331  30.883  1.00  0.00     0.074 A 
ATOM     49  C   UNL A   1      45.412  24.482  28.474  1.00  0.00     0.029 A 
ATOM     50  N   UNL A   1      44.686  26.463  29.177  1.00  0.00    -0.354 N 
ATOM     51  N   UNL A   1      44.967  29.131  30.351  1.00  0.00    -0.248 NA
ATOM     52  C   UNL A   1      46.257  30.730  31.463  1.00  0.00     0.031 C 
ATOM     53  C   UNL A   1      46.482  25.160  29.066  1.00  0.00     0.029 A 
ATOM     54  C   UNL A   1      46.034  26.401  29.487  1.00  0.00     0.049 A 
ATOM     55  H   UNL A   1      44.098  27.231  29.362  1.00  0.00     0.167 HD
ATOM     56  C   UNL A   1      46.264  28.648  30.505  1.00  0.00     0.074 A 
ATOM     57  C   UNL A   1      47.021  29.686  31.170  1.00  0.00     0.031 C 
ATOM     58  C   UNL A   1      46.780  27.452  30.131  1.00  0.00     0.037 A 
BRANCH  45  59
ATOM     59  C   UNL A   1      42.674  23.620  27.587  1.00  0.00     0.058 A 
ATOM     60  C   UNL A   1      42.749  23.351  26.213  1.00  0.00     0.135 A 
ATOM     61  C   UNL A   1      42.424  22.544  28.455  1.00  0.00     0.135 A 
ATOM     62  F   UNL A   1      42.966  24.348  25.340  1.00  0.00    -0.206 F 
ATOM     63  C   UNL A   1      42.586  22.061  25.716  1.00  0.00     0.059 A 
ATOM     64  C   UNL A   1      42.280  21.243  27.983  1.00  0.00     0.059 A 
ATOM     65  F   UNL A   1      42.339  22.750  29.779  1.00  0.00    -0.206 F 
ATOM     66  C   UNL A   1      42.359  21.013  26.610  1.00  0.00     0.060 A 
BRANCH  66  67
ATOM     67  S   UNL A   1      42.201  19.337  25.955  1.00  0.00     0.124 S 
ATOM     68  O   UNL A   1      40.764  19.252  25.716  1.00  0.00    -0.237 OA
ATOM     69  O   UNL A   1      43.040  19.389  24.763  1.00  0.00    -0.237 OA
ATOM     70  O   UNL A   1      42.707  18.500  27.039  1.00  0.00    -0.744 OA
ENDBRANCH  66  67
ENDBRANCH  45  59
BRANCH  46  71
ATOM     71  C   UNL A   1      44.045  32.637  31.647  1.00  0.00     0.058 A 
ATOM     72  C   UNL A   1      43.768  32.802  33.013  1.00  0.00     0.135 A 
ATOM     73  C   UNL A   1      44.481  33.762  30.929  1.00  0.00     0.135 A 
ATOM     74  F   UNL A   1      43.342  31.757  33.740  1.00  0.00    -0.206 F 
ATOM     75  C   UNL A   1      43.879  34.041  33.634  1.00  0.00     0.059 A 
ATOM     76  C   UNL A   1      44.625  35.006  31.535  1.00  0.00     0.059 A 
ATOM     77  F   UNL A   1      44.776  33.655  29.625  1.00  0.00    -0.206 F 
ATOM     78  C   UNL A   1      44.302  35.139  32.885  1.00  0.00     0.060 A 
BRANCH  78  79
ATOM     79  S   UNL A   1      44.452  36.745  33.696  1.00  0.00     0.124 S 
ATOM     80  O   UNL A   1      43.066  37.022  34.053  1.00  0.00    -0.237 OA
ATOM     81  O   UNL A   1      45.352  36.448  34.806  1.00  0.00    -0.237 OA
ATOM     82  O   UNL A   1      45.018  37.593  32.651  1.00  0.00    -0.744 OA
ENDBRANCH  78  79
ENDBRANCH  46  71
BRANCH  58  83
ATOM     83  C   UNL A   1      48.243  27.215  30.386  1.00  0.00     0.058 A 
ATOM     84  C   UNL A   1      48.698  26.591  31.557  1.00  0.00     0.135 A 
ATOM     85  C   UNL A   1      49.198  27.574  29.419  1.00  0.00     0.135 A 
ATOM     86  F   UNL A   1      47.827  26.231  32.513  1.00  0.00    -0.206 F 
ATOM     87  C   UNL A   1      50.052  26.354  31.774  1.00  0.00     0.059 A 
ATOM     88  C   UNL A   1      50.553  27.322  29.604  1.00  0.00     0.059 A 
ATOM     89  F   UNL A   1      48.814  28.162  28.275  1.00  0.00    -0.206 F 
ATOM     90  C   UNL A   1      50.972  26.723  30.791  1.00  0.00     0.060 A 
BRANCH  90  91
ATOM     91  S   UNL A   1      52.724  26.387  31.072  1.00  0.00     0.124 S 
ATOM     92  O   UNL A   1      53.227  26.289  29.706  1.00  0.00    -0.237 OA
ATOM     93  O   UNL A   1      53.153  27.562  31.824  1.00  0.00    -0.237 OA
ATOM     94  O   UNL A   1      52.713  25.138  31.828  1.00  0.00    -0.744 OA
ENDBRANCH  90  91
ENDBRANCH  58  83
ENDBRANCH  32  33
ENDBRANCH  25  27
ENDBRANCH  24  25
ENDBRANCH  23  24
ENDBRANCH  22  23
ENDBRANCH   1  22
TORSDOF 20
ENDMDL
