MODEL 1
REMARK VINA RESULT:     -12.1      0.000      0.000
REMARK SMILES O=C(OCCOCCOC(=O)[C@H]1[C@H]2CC[C@H](C2)[C@@H]1C(=O)Nc1sc2c(c1C(=O)NC1CCCCC1)CCCC2)c1ccc(-c2c3nc(c(-c4c(F)cc(S(=O)(=O)[O-])cc4F)c4ccc([nH]4)c(-c4c(F)cc(S(=O)(=O)[O-])cc4F)c4nc(c(-c5c(F)cc(S(=O)(=O)[O-])cc5F)c5ccc2[nH]5)C=C4)C=C3)cc1
REMARK SMILES IDX 7 1 6 2 5 3 4 4 3 5 2 6 1 7 40 8 41 9 105 10 42 11 104 12
REMARK SMILES IDX 43 13 44 14 45 15 98 16 46 17 103 18 97 19 99 20 47 21
REMARK SMILES IDX 102 22 96 23 95 24 48 26 82 27 61 28 81 29 62 30 65 31 80 32
REMARK SMILES IDX 100 33 63 34 64 35 79 37 101 38 66 39 49 40 50 41 59 42
REMARK SMILES IDX 51 43 52 44 58 45 60 46 53 47 54 48 55 49 56 50 57 51 83 52
REMARK SMILES IDX 84 53 93 54 85 55 86 56 92 57 94 58 87 59 88 60 89 61 90 62
REMARK SMILES IDX 91 63 67 64 68 65 77 66 69 67 70 68 76 69 78 70 71 71 72 72
REMARK SMILES IDX 73 73 74 74 75 75 8 76 9 77 10 78 11 79 12 80 13 81 18 82
REMARK SMILES IDX 14 83 17 84 16 85 15 86 19 87 20 88 21 89 22 91 23 92 26 93
REMARK SMILES IDX 24 94 25 95 39 96 36 97 38 98 37 99 27 100 28 101 29 102
REMARK SMILES IDX 30 104 31 105 35 106 32 107 34 108 33 109
REMARK H PARENT 99 25 65 36 21 90 29 103
REMARK Flexibility Score: inf
ROOT
ATOM      1  C   UNL A   1      37.396  22.009  25.695  1.00  0.00     0.202 C 
ENDROOT
BRANCH   1   2
ATOM      2  O   UNL A   1      38.805  21.876  25.523  1.00  0.00    -0.374 OA
BRANCH   2   3
ATOM      3  C   UNL A   1      39.634  21.931  26.682  1.00  0.00     0.202 C 
BRANCH   3   4
ATOM      4  C   UNL A   1      40.759  22.963  26.594  1.00  0.00     0.261 C 
BRANCH   4   5
ATOM      5  O   UNL A   1      40.245  24.229  26.161  1.00  0.00    -0.460 OA
BRANCH   5   6
ATOM      6  C   UNL A   1      40.856  25.434  26.259  1.00  0.00     0.338 C 
ATOM      7  O   UNL A   1      41.564  25.793  25.319  1.00  0.00    -0.246 OA
BRANCH   6   8
ATOM      8  C   UNL A   1      40.733  26.361  27.434  1.00  0.00     0.060 A 
ATOM      9  C   UNL A   1      39.835  26.235  28.500  1.00  0.00     0.016 A 
ATOM     10  C   UNL A   1      41.690  27.386  27.507  1.00  0.00     0.016 A 
ATOM     11  C   UNL A   1      39.898  27.045  29.618  1.00  0.00     0.010 A 
ATOM     12  C   UNL A   1      41.735  28.244  28.606  1.00  0.00     0.010 A 
ATOM     13  C   UNL A   1      40.832  28.065  29.657  1.00  0.00    -0.014 A 
BRANCH  13  14
ATOM     14  C   UNL A   1      40.670  29.070  30.706  1.00  0.00     0.031 A 
ATOM     15  C   UNL A   1      41.607  28.985  31.864  1.00  0.00     0.074 A 
ATOM     16  C   UNL A   1      39.792  30.070  30.546  1.00  0.00     0.049 A 
ATOM     17  N   UNL A   1      41.598  29.643  32.985  1.00  0.00    -0.248 NA
ATOM     18  C   UNL A   1      42.717  28.021  31.733  1.00  0.00     0.031 C 
ATOM     19  C   UNL A   1      38.978  30.293  29.350  1.00  0.00     0.029 A 
ATOM     20  N   UNL A   1      39.437  31.082  31.392  1.00  0.00    -0.354 N 
ATOM     21  C   UNL A   1      42.666  29.139  33.714  1.00  0.00     0.074 A 
ATOM     22  C   UNL A   1      43.312  28.133  32.907  1.00  0.00     0.031 C 
ATOM     23  C   UNL A   1      38.187  31.359  29.556  1.00  0.00     0.029 A 
ATOM     24  C   UNL A   1      38.396  31.839  30.917  1.00  0.00     0.049 A 
ATOM     25  H   UNL A   1      39.884  31.250  32.253  1.00  0.00     0.167 HD
ATOM     26  C   UNL A   1      43.039  29.483  34.967  1.00  0.00     0.037 A 
ATOM     27  C   UNL A   1      37.657  32.764  31.558  1.00  0.00     0.037 A 
ATOM     28  C   UNL A   1      42.335  30.480  35.723  1.00  0.00     0.049 A 
ATOM     29  C   UNL A   1      38.019  33.068  32.987  1.00  0.00     0.074 A 
ATOM     30  C   UNL A   1      42.549  30.897  37.020  1.00  0.00     0.029 A 
ATOM     31  N   UNL A   1      41.255  31.211  35.232  1.00  0.00    -0.354 N 
ATOM     32  N   UNL A   1      38.977  32.543  33.718  1.00  0.00    -0.248 NA
ATOM     33  C   UNL A   1      37.208  34.069  33.684  1.00  0.00     0.031 C 
ATOM     34  C   UNL A   1      41.561  31.837  37.332  1.00  0.00     0.029 A 
ATOM     35  C   UNL A   1      40.775  32.061  36.208  1.00  0.00     0.049 A 
ATOM     36  H   UNL A   1      40.888  31.133  34.322  1.00  0.00     0.167 HD
ATOM     37  C   UNL A   1      38.905  33.169  34.955  1.00  0.00     0.074 A 
ATOM     38  C   UNL A   1      37.801  34.109  34.872  1.00  0.00     0.031 C 
ATOM     39  C   UNL A   1      39.680  32.993  36.056  1.00  0.00     0.037 A 
BRANCH  26  40
ATOM     40  C   UNL A   1      44.154  28.688  35.586  1.00  0.00     0.058 A 
ATOM     41  C   UNL A   1      43.927  27.502  36.303  1.00  0.00     0.135 A 
ATOM     42  C   UNL A   1      45.469  29.182  35.540  1.00  0.00     0.135 A 
ATOM     43  F   UNL A   1      42.686  27.003  36.412  1.00  0.00    -0.206 F 
ATOM     44  C   UNL A   1      44.952  26.865  37.000  1.00  0.00     0.059 A 
ATOM     45  C   UNL A   1      46.513  28.543  36.201  1.00  0.00     0.059 A 
ATOM     46  F   UNL A   1      45.742  30.318  34.882  1.00  0.00    -0.206 F 
ATOM     47  C   UNL A   1      46.240  27.401  36.951  1.00  0.00     0.060 A 
BRANCH  47  48
ATOM     48  S   UNL A   1      47.548  26.603  37.906  1.00  0.00     0.124 S 
ATOM     49  O   UNL A   1      47.064  25.227  37.972  1.00  0.00    -0.237 OA
ATOM     50  O   UNL A   1      48.724  26.822  37.069  1.00  0.00    -0.237 OA
ATOM     51  O   UNL A   1      47.539  27.332  39.171  1.00  0.00    -0.744 OA
ENDBRANCH  47  48
ENDBRANCH  26  40
BRANCH  27  52
ATOM     52  C   UNL A   1      36.498  33.386  30.863  1.00  0.00     0.058 A 
ATOM     53  C   UNL A   1      35.183  33.179  31.299  1.00  0.00     0.135 A 
ATOM     54  C   UNL A   1      36.695  34.273  29.790  1.00  0.00     0.135 A 
ATOM     55  F   UNL A   1      34.938  32.337  32.314  1.00  0.00    -0.206 F 
ATOM     56  C   UNL A   1      34.107  33.837  30.707  1.00  0.00     0.059 A 
ATOM     57  C   UNL A   1      35.640  34.962  29.199  1.00  0.00     0.059 A 
ATOM     58  F   UNL A   1      37.935  34.518  29.338  1.00  0.00    -0.206 F 
ATOM     59  C   UNL A   1      34.347  34.736  29.666  1.00  0.00     0.060 A 
BRANCH  59  60
ATOM     60  S   UNL A   1      32.952  35.647  28.964  1.00  0.00     0.124 S 
ATOM     61  O   UNL A   1      33.628  36.751  28.293  1.00  0.00    -0.237 OA
ATOM     62  O   UNL A   1      32.342  34.647  28.093  1.00  0.00    -0.237 OA
ATOM     63  O   UNL A   1      32.161  36.011  30.137  1.00  0.00    -0.744 OA
ENDBRANCH  59  60
ENDBRANCH  27  52
BRANCH  39  64
ATOM     64  C   UNL A   1      39.403  33.873  37.239  1.00  0.00     0.058 A 
ATOM     65  C   UNL A   1      38.604  33.444  38.307  1.00  0.00     0.135 A 
ATOM     66  C   UNL A   1      40.073  35.101  37.358  1.00  0.00     0.135 A 
ATOM     67  F   UNL A   1      37.938  32.281  38.231  1.00  0.00    -0.206 F 
ATOM     68  C   UNL A   1      38.488  34.201  39.465  1.00  0.00     0.059 A 
ATOM     69  C   UNL A   1      39.994  35.859  38.518  1.00  0.00     0.059 A 
ATOM     70  F   UNL A   1      40.858  35.543  36.362  1.00  0.00    -0.206 F 
ATOM     71  C   UNL A   1      39.200  35.399  39.567  1.00  0.00     0.060 A 
BRANCH  71  72
ATOM     72  S   UNL A   1      39.126  36.318  41.118  1.00  0.00     0.124 S 
ATOM     73  O   UNL A   1      38.945  37.684  40.641  1.00  0.00    -0.237 OA
ATOM     74  O   UNL A   1      37.971  35.718  41.779  1.00  0.00    -0.237 OA
ATOM     75  O   UNL A   1      40.414  36.036  41.743  1.00  0.00    -0.744 OA
ENDBRANCH  71  72
ENDBRANCH  39  64
ENDBRANCH  13  14
ENDBRANCH   6   8
ENDBRANCH   5   6
ENDBRANCH   4   5
ENDBRANCH   3   4
ENDBRANCH   2   3
ENDBRANCH   1   2
BRANCH   1  76
ATOM     76  C   UNL A   1      36.791  22.537  24.399  1.00  0.00     0.261 C 
BRANCH  76  77
ATOM     77  O   UNL A   1      35.371  22.485  24.552  1.00  0.00    -0.463 OA
BRANCH  77  78
ATOM     78  C   UNL A   1      34.790  23.687  24.832  1.00  0.00     0.310 C 
ATOM     79  O   UNL A   1      35.280  24.606  25.478  1.00  0.00    -0.252 OA
BRANCH  78  80
ATOM     80  C   UNL A   1      33.418  23.668  24.227  1.00  0.00     0.115 C 
ATOM     81  C   UNL A   1      32.533  22.930  25.260  1.00  0.00     0.004 C 
ATOM     82  C   UNL A   1      32.736  25.043  24.030  1.00  0.00     0.096 C 
ATOM     83  C   UNL A   1      32.558  23.577  26.648  1.00  0.00     0.005 C 
ATOM     84  C   UNL A   1      31.176  23.377  24.803  1.00  0.00     0.009 C 
ATOM     85  C   UNL A   1      31.486  24.875  24.904  1.00  0.00     0.003 C 
ATOM     86  C   UNL A   1      31.921  24.953  26.391  1.00  0.00     0.005 C 
BRANCH  82  87
ATOM     87  C   UNL A   1      32.611  25.556  22.565  1.00  0.00     0.229 C 
ATOM     88  O   UNL A   1      33.269  24.955  21.698  1.00  0.00    -0.274 OA
ATOM     89  N   UNL A   1      31.755  26.486  22.060  1.00  0.00    -0.317 N 
ATOM     90  H   UNL A   1      31.652  26.438  21.082  1.00  0.00     0.170 HD
BRANCH  89  91
ATOM     91  C   UNL A   1      31.005  27.480  22.645  1.00  0.00     0.108 A 
ATOM     92  S   UNL A   1      29.434  27.050  23.145  1.00  0.00    -0.122 S 
ATOM     93  C   UNL A   1      31.424  28.691  23.249  1.00  0.00     0.078 A 
ATOM     94  C   UNL A   1      29.044  28.695  23.147  1.00  0.00     0.011 A 
ATOM     95  C   UNL A   1      30.157  29.464  23.484  1.00  0.00    -0.019 A 
ATOM     96  C   UNL A   1      27.651  29.182  22.865  1.00  0.00     0.047 C 
ATOM     97  C   UNL A   1      29.847  30.882  23.910  1.00  0.00     0.037 C 
ATOM     98  C   UNL A   1      27.660  30.703  22.723  1.00  0.00     0.006 C 
ATOM     99  C   UNL A   1      28.359  31.267  23.954  1.00  0.00     0.005 C 
BRANCH  93 100
ATOM    100  C   UNL A   1      32.920  28.818  23.426  1.00  0.00     0.254 C 
ATOM    101  O   UNL A   1      33.614  28.735  22.396  1.00  0.00    -0.269 OA
ATOM    102  N   UNL A   1      33.744  29.043  24.508  1.00  0.00    -0.349 N 
ATOM    103  H   UNL A   1      34.678  29.051  24.195  1.00  0.00     0.164 HD
BRANCH 102 104
ATOM    104  C   UNL A   1      33.732  29.276  25.963  1.00  0.00     0.082 C 
ATOM    105  C   UNL A   1      35.119  29.111  26.612  1.00  0.00     0.025 C 
ATOM    106  C   UNL A   1      33.137  30.605  26.254  1.00  0.00     0.025 C 
ATOM    107  C   UNL A   1      35.208  29.705  28.030  1.00  0.00     0.002 C 
ATOM    108  C   UNL A   1      33.231  31.147  27.661  1.00  0.00     0.002 C 
ATOM    109  C   UNL A   1      34.687  31.136  28.089  1.00  0.00     0.000 C 
ENDBRANCH 102 104
ENDBRANCH  93 100
ENDBRANCH  89  91
ENDBRANCH  82  87
ENDBRANCH  78  80
ENDBRANCH  77  78
ENDBRANCH  76  77
ENDBRANCH   1  76
TORSDOF 21
ENDMDL
MODEL 2
REMARK VINA RESULT:     -11.9      1.265      8.023
REMARK SMILES O=C(OCCOCCOC(=O)[C@H]1[C@H]2CC[C@H](C2)[C@@H]1C(=O)Nc1sc2c(c1C(=O)NC1CCCCC1)CCCC2)c1ccc(-c2c3nc(c(-c4c(F)cc(S(=O)(=O)[O-])cc4F)c4ccc([nH]4)c(-c4c(F)cc(S(=O)(=O)[O-])cc4F)c4nc(c(-c5c(F)cc(S(=O)(=O)[O-])cc5F)c5ccc2[nH]5)C=C4)C=C3)cc1
REMARK SMILES IDX 7 1 6 2 5 3 4 4 3 5 2 6 1 7 40 8 41 9 105 10 42 11 104 12
REMARK SMILES IDX 43 13 44 14 45 15 98 16 46 17 103 18 97 19 99 20 47 21
REMARK SMILES IDX 102 22 96 23 95 24 48 26 82 27 61 28 81 29 62 30 65 31 80 32
REMARK SMILES IDX 100 33 63 34 64 35 79 37 101 38 66 39 49 40 50 41 59 42
REMARK SMILES IDX 51 43 52 44 58 45 60 46 53 47 54 48 55 49 56 50 57 51 83 52
REMARK SMILES IDX 84 53 93 54 85 55 86 56 92 57 94 58 87 59 88 60 89 61 90 62
REMARK SMILES IDX 91 63 67 64 68 65 77 66 69 67 70 68 76 69 78 70 71 71 72 72
REMARK SMILES IDX 73 73 74 74 75 75 8 76 9 77 10 78 11 79 12 80 13 81 18 82
REMARK SMILES IDX 14 83 17 84 16 85 15 86 19 87 20 88 21 89 22 91 23 92 26 93
REMARK SMILES IDX 24 94 25 95 39 96 36 97 38 98 37 99 27 100 28 101 29 102
REMARK SMILES IDX 30 104 31 105 35 106 32 107 34 108 33 109
REMARK H PARENT 99 25 65 36 21 90 29 103
REMARK Flexibility Score: inf
ROOT
ATOM      1  C   UNL A   1      37.025  22.261  25.799  1.00  0.00     0.202 C 
ENDROOT
BRANCH   1   2
ATOM      2  O   UNL A   1      38.447  22.223  25.903  1.00  0.00    -0.374 OA
BRANCH   2   3
ATOM      3  C   UNL A   1      39.112  23.345  26.482  1.00  0.00     0.202 C 
BRANCH   3   4
ATOM      4  C   UNL A   1      40.485  23.017  27.070  1.00  0.00     0.261 C 
BRANCH   4   5
ATOM      5  O   UNL A   1      41.455  23.985  26.651  1.00  0.00    -0.460 OA
BRANCH   5   6
ATOM      6  C   UNL A   1      41.281  25.324  26.554  1.00  0.00     0.338 C 
ATOM      7  O   UNL A   1      41.235  25.814  25.426  1.00  0.00    -0.246 OA
BRANCH   6   8
ATOM      8  C   UNL A   1      41.144  26.255  27.724  1.00  0.00     0.060 A 
ATOM      9  C   UNL A   1      42.022  27.288  28.072  1.00  0.00     0.016 A 
ATOM     10  C   UNL A   1      39.959  26.130  28.470  1.00  0.00     0.016 A 
ATOM     11  C   UNL A   1      41.734  28.196  29.072  1.00  0.00     0.010 A 
ATOM     12  C   UNL A   1      39.677  27.008  29.516  1.00  0.00     0.010 A 
ATOM     13  C   UNL A   1      40.574  28.038  29.811  1.00  0.00    -0.014 A 
BRANCH  13  14
ATOM     14  C   UNL A   1      40.457  28.828  31.035  1.00  0.00     0.031 A 
ATOM     15  C   UNL A   1      39.391  29.870  31.060  1.00  0.00     0.074 A 
ATOM     16  C   UNL A   1      41.209  28.523  32.102  1.00  0.00     0.049 A 
ATOM     17  N   UNL A   1      39.161  30.796  31.943  1.00  0.00    -0.248 NA
ATOM     18  C   UNL A   1      38.447  29.862  29.926  1.00  0.00     0.031 C 
ATOM     19  C   UNL A   1      42.141  27.396  32.182  1.00  0.00     0.029 A 
ATOM     20  N   UNL A   1      41.308  29.133  33.320  1.00  0.00    -0.354 N 
ATOM     21  C   UNL A   1      38.080  31.513  31.448  1.00  0.00     0.074 A 
ATOM     22  C   UNL A   1      37.689  30.909  30.198  1.00  0.00     0.031 C 
ATOM     23  C   UNL A   1      42.748  27.420  33.381  1.00  0.00     0.029 A 
ATOM     24  C   UNL A   1      42.295  28.599  34.110  1.00  0.00     0.049 A 
ATOM     25  H   UNL A   1      40.730  29.878  33.601  1.00  0.00     0.167 HD
ATOM     26  C   UNL A   1      37.497  32.602  31.997  1.00  0.00     0.037 A 
ATOM     27  C   UNL A   1      42.810  29.071  35.261  1.00  0.00     0.037 A 
ATOM     28  C   UNL A   1      37.954  33.166  33.236  1.00  0.00     0.049 A 
ATOM     29  C   UNL A   1      42.221  30.341  35.812  1.00  0.00     0.074 A 
ATOM     30  C   UNL A   1      37.513  34.296  33.890  1.00  0.00     0.029 A 
ATOM     31  N   UNL A   1      38.984  32.626  34.004  1.00  0.00    -0.354 N 
ATOM     32  N   UNL A   1      41.250  31.076  35.315  1.00  0.00    -0.248 NA
ATOM     33  C   UNL A   1      42.790  30.858  37.059  1.00  0.00     0.031 C 
ATOM     34  C   UNL A   1      38.316  34.473  35.022  1.00  0.00     0.029 A 
ATOM     35  C   UNL A   1      39.210  33.413  35.115  1.00  0.00     0.049 A 
ATOM     36  H   UNL A   1      39.479  31.803  33.786  1.00  0.00     0.167 HD
ATOM     37  C   UNL A   1      41.070  32.128  36.203  1.00  0.00     0.074 A 
ATOM     38  C   UNL A   1      42.040  31.935  37.265  1.00  0.00     0.031 C 
ATOM     39  C   UNL A   1      40.183  33.154  36.153  1.00  0.00     0.037 A 
BRANCH  26  40
ATOM     40  C   UNL A   1      36.424  33.277  31.191  1.00  0.00     0.058 A 
ATOM     41  C   UNL A   1      36.706  34.036  30.043  1.00  0.00     0.135 A 
ATOM     42  C   UNL A   1      35.092  33.242  31.637  1.00  0.00     0.135 A 
ATOM     43  F   UNL A   1      37.966  34.137  29.590  1.00  0.00    -0.206 F 
ATOM     44  C   UNL A   1      35.718  34.780  29.401  1.00  0.00     0.059 A 
ATOM     45  C   UNL A   1      34.084  33.951  30.992  1.00  0.00     0.059 A 
ATOM     46  F   UNL A   1      34.766  32.545  32.737  1.00  0.00    -0.206 F 
ATOM     47  C   UNL A   1      34.412  34.739  29.891  1.00  0.00     0.060 A 
BRANCH  47  48
ATOM     48  S   UNL A   1      33.153  35.754  29.089  1.00  0.00     0.124 S 
ATOM     49  O   UNL A   1      33.973  36.667  28.298  1.00  0.00    -0.237 OA
ATOM     50  O   UNL A   1      32.393  34.766  28.328  1.00  0.00    -0.237 OA
ATOM     51  O   UNL A   1      32.441  36.361  30.209  1.00  0.00    -0.744 OA
ENDBRANCH  47  48
ENDBRANCH  26  40
BRANCH  27  52
ATOM     52  C   UNL A   1      43.961  28.369  35.890  1.00  0.00     0.058 A 
ATOM     53  C   UNL A   1      43.772  27.307  36.786  1.00  0.00     0.135 A 
ATOM     54  C   UNL A   1      45.283  28.696  35.540  1.00  0.00     0.135 A 
ATOM     55  F   UNL A   1      42.533  26.958  37.160  1.00  0.00    -0.206 F 
ATOM     56  C   UNL A   1      44.849  26.589  37.301  1.00  0.00     0.059 A 
ATOM     57  C   UNL A   1      46.373  27.977  36.021  1.00  0.00     0.059 A 
ATOM     58  F   UNL A   1      45.521  29.697  34.677  1.00  0.00    -0.206 F 
ATOM     59  C   UNL A   1      46.145  26.923  36.902  1.00  0.00     0.060 A 
BRANCH  59  60
ATOM     60  S   UNL A   1      47.526  25.929  37.511  1.00  0.00     0.124 S 
ATOM     61  O   UNL A   1      48.673  26.694  37.035  1.00  0.00    -0.237 OA
ATOM     62  O   UNL A   1      47.301  25.945  38.953  1.00  0.00    -0.237 OA
ATOM     63  O   UNL A   1      47.321  24.634  36.867  1.00  0.00    -0.744 OA
ENDBRANCH  59  60
ENDBRANCH  27  52
BRANCH  39  64
ATOM     64  C   UNL A   1      40.177  34.114  37.306  1.00  0.00     0.058 A 
ATOM     65  C   UNL A   1      40.877  35.327  37.260  1.00  0.00     0.135 A 
ATOM     66  C   UNL A   1      39.336  33.870  38.404  1.00  0.00     0.135 A 
ATOM     67  F   UNL A   1      41.699  35.597  36.234  1.00  0.00    -0.206 F 
ATOM     68  C   UNL A   1      40.734  36.277  38.263  1.00  0.00     0.059 A 
ATOM     69  C   UNL A   1      39.156  34.817  39.402  1.00  0.00     0.059 A 
ATOM     70  F   UNL A   1      38.639  32.725  38.481  1.00  0.00    -0.206 F 
ATOM     71  C   UNL A   1      39.858  36.019  39.322  1.00  0.00     0.060 A 
BRANCH  71  72
ATOM     72  S   UNL A   1      39.600  37.305  40.560  1.00  0.00     0.124 S 
ATOM     73  O   UNL A   1      40.971  37.621  40.945  1.00  0.00    -0.237 OA
ATOM     74  O   UNL A   1      38.901  38.334  39.797  1.00  0.00    -0.237 OA
ATOM     75  O   UNL A   1      38.799  36.638  41.582  1.00  0.00    -0.744 OA
ENDBRANCH  71  72
ENDBRANCH  39  64
ENDBRANCH  13  14
ENDBRANCH   6   8
ENDBRANCH   5   6
ENDBRANCH   4   5
ENDBRANCH   3   4
ENDBRANCH   2   3
ENDBRANCH   1   2
BRANCH   1  76
ATOM     76  C   UNL A   1      36.590  21.331  24.673  1.00  0.00     0.261 C 
BRANCH  76  77
ATOM     77  O   UNL A   1      35.271  21.727  24.293  1.00  0.00    -0.463 OA
BRANCH  77  78
ATOM     78  C   UNL A   1      35.220  22.843  23.510  1.00  0.00     0.310 C 
ATOM     79  O   UNL A   1      36.078  23.225  22.721  1.00  0.00    -0.252 OA
BRANCH  78  80
ATOM     80  C   UNL A   1      33.929  23.541  23.815  1.00  0.00     0.115 C 
ATOM     81  C   UNL A   1      33.289  23.824  22.435  1.00  0.00     0.004 C 
ATOM     82  C   UNL A   1      32.867  22.716  24.581  1.00  0.00     0.096 C 
ATOM     83  C   UNL A   1      33.094  22.562  21.589  1.00  0.00     0.005 C 
ATOM     84  C   UNL A   1      31.869  24.064  22.853  1.00  0.00     0.009 C 
ATOM     85  C   UNL A   1      31.711  22.720  23.573  1.00  0.00     0.003 C 
ATOM     86  C   UNL A   1      32.077  21.756  22.414  1.00  0.00     0.005 C 
BRANCH  82  87
ATOM     87  C   UNL A   1      32.619  23.109  26.069  1.00  0.00     0.229 C 
ATOM     88  O   UNL A   1      32.969  22.288  26.935  1.00  0.00    -0.274 OA
ATOM     89  N   UNL A   1      32.208  24.303  26.575  1.00  0.00    -0.317 N 
ATOM     90  H   UNL A   1      32.401  24.412  27.534  1.00  0.00     0.170 HD
BRANCH  89  91
ATOM     91  C   UNL A   1      31.576  25.387  26.013  1.00  0.00     0.108 A 
ATOM     92  S   UNL A   1      29.887  25.473  26.220  1.00  0.00    -0.122 S 
ATOM     93  C   UNL A   1      32.110  26.639  25.616  1.00  0.00     0.078 A 
ATOM     94  C   UNL A   1      29.836  26.542  24.912  1.00  0.00     0.011 A 
ATOM     95  C   UNL A   1      31.000  27.309  24.857  1.00  0.00    -0.019 A 
ATOM     96  C   UNL A   1      28.641  26.634  24.006  1.00  0.00     0.047 C 
ATOM     97  C   UNL A   1      30.904  28.554  24.002  1.00  0.00     0.037 C 
ATOM     98  C   UNL A   1      28.977  27.517  22.805  1.00  0.00     0.006 C 
ATOM     99  C   UNL A   1      29.538  28.824  23.350  1.00  0.00     0.005 C 
BRANCH  93 100
ATOM    100  C   UNL A   1      33.544  26.869  26.034  1.00  0.00     0.254 C 
ATOM    101  O   UNL A   1      34.388  26.059  25.608  1.00  0.00    -0.269 OA
ATOM    102  N   UNL A   1      34.182  27.827  26.793  1.00  0.00    -0.349 N 
ATOM    103  H   UNL A   1      35.142  27.610  26.831  1.00  0.00     0.164 HD
BRANCH 102 104
ATOM    104  C   UNL A   1      33.946  29.058  27.569  1.00  0.00     0.082 C 
ATOM    105  C   UNL A   1      35.245  29.803  27.929  1.00  0.00     0.025 C 
ATOM    106  C   UNL A   1      32.988  29.931  26.845  1.00  0.00     0.025 C 
ATOM    107  C   UNL A   1      35.013  31.252  28.397  1.00  0.00     0.002 C 
ATOM    108  C   UNL A   1      32.775  31.341  27.343  1.00  0.00     0.002 C 
ATOM    109  C   UNL A   1      34.123  32.032  27.435  1.00  0.00     0.000 C 
ENDBRANCH 102 104
ENDBRANCH  93 100
ENDBRANCH  89  91
ENDBRANCH  82  87
ENDBRANCH  78  80
ENDBRANCH  77  78
ENDBRANCH  76  77
ENDBRANCH   1  76
TORSDOF 21
ENDMDL
MODEL 3
REMARK VINA RESULT:     -11.1      1.593      2.596
REMARK SMILES O=C(OCCOCCOC(=O)[C@H]1[C@H]2CC[C@H](C2)[C@@H]1C(=O)Nc1sc2c(c1C(=O)NC1CCCCC1)CCCC2)c1ccc(-c2c3nc(c(-c4c(F)cc(S(=O)(=O)[O-])cc4F)c4ccc([nH]4)c(-c4c(F)cc(S(=O)(=O)[O-])cc4F)c4nc(c(-c5c(F)cc(S(=O)(=O)[O-])cc5F)c5ccc2[nH]5)C=C4)C=C3)cc1
REMARK SMILES IDX 7 1 6 2 5 3 4 4 3 5 2 6 1 7 40 8 41 9 105 10 42 11 104 12
REMARK SMILES IDX 43 13 44 14 45 15 98 16 46 17 103 18 97 19 99 20 47 21
REMARK SMILES IDX 102 22 96 23 95 24 48 26 82 27 61 28 81 29 62 30 65 31 80 32
REMARK SMILES IDX 100 33 63 34 64 35 79 37 101 38 66 39 49 40 50 41 59 42
REMARK SMILES IDX 51 43 52 44 58 45 60 46 53 47 54 48 55 49 56 50 57 51 83 52
REMARK SMILES IDX 84 53 93 54 85 55 86 56 92 57 94 58 87 59 88 60 89 61 90 62
REMARK SMILES IDX 91 63 67 64 68 65 77 66 69 67 70 68 76 69 78 70 71 71 72 72
REMARK SMILES IDX 73 73 74 74 75 75 8 76 9 77 10 78 11 79 12 80 13 81 18 82
REMARK SMILES IDX 14 83 17 84 16 85 15 86 19 87 20 88 21 89 22 91 23 92 26 93
REMARK SMILES IDX 24 94 25 95 39 96 36 97 38 98 37 99 27 100 28 101 29 102
REMARK SMILES IDX 30 104 31 105 35 106 32 107 34 108 33 109
REMARK H PARENT 99 25 65 36 21 90 29 103
REMARK Flexibility Score: inf
ROOT
ATOM      1  C   UNL A   1      36.194  23.763  25.958  1.00  0.00     0.202 C 
ENDROOT
BRANCH   1   2
ATOM      2  O   UNL A   1      37.382  22.974  25.989  1.00  0.00    -0.374 OA
BRANCH   2   3
ATOM      3  C   UNL A   1      38.606  23.611  26.351  1.00  0.00     0.202 C 
BRANCH   3   4
ATOM      4  C   UNL A   1      39.750  22.639  26.638  1.00  0.00     0.261 C 
BRANCH   4   5
ATOM      5  O   UNL A   1      40.877  23.337  27.182  1.00  0.00    -0.460 OA
BRANCH   5   6
ATOM      6  C   UNL A   1      41.263  24.605  26.905  1.00  0.00     0.338 C 
ATOM      7  O   UNL A   1      41.707  24.833  25.780  1.00  0.00    -0.246 OA
BRANCH   6   8
ATOM      8  C   UNL A   1      41.191  25.750  27.872  1.00  0.00     0.060 A 
ATOM      9  C   UNL A   1      42.069  26.839  27.937  1.00  0.00     0.016 A 
ATOM     10  C   UNL A   1      40.068  25.770  28.716  1.00  0.00     0.016 A 
ATOM     11  C   UNL A   1      41.835  27.928  28.755  1.00  0.00     0.010 A 
ATOM     12  C   UNL A   1      39.845  26.838  29.584  1.00  0.00     0.010 A 
ATOM     13  C   UNL A   1      40.737  27.913  29.597  1.00  0.00    -0.014 A 
BRANCH  13  14
ATOM     14  C   UNL A   1      40.693  28.932  30.644  1.00  0.00     0.031 A 
ATOM     15  C   UNL A   1      41.688  28.799  31.748  1.00  0.00     0.074 A 
ATOM     16  C   UNL A   1      39.868  29.981  30.524  1.00  0.00     0.049 A 
ATOM     17  N   UNL A   1      41.780  29.463  32.862  1.00  0.00    -0.248 NA
ATOM     18  C   UNL A   1      42.729  27.771  31.565  1.00  0.00     0.031 C 
ATOM     19  C   UNL A   1      39.002  30.245  29.372  1.00  0.00     0.029 A 
ATOM     20  N   UNL A   1      39.621  31.017  31.378  1.00  0.00    -0.354 N 
ATOM     21  C   UNL A   1      42.856  28.901  33.535  1.00  0.00     0.074 A 
ATOM     22  C   UNL A   1      43.395  27.854  32.703  1.00  0.00     0.031 C 
ATOM     23  C   UNL A   1      38.288  31.357  29.612  1.00  0.00     0.029 A 
ATOM     24  C   UNL A   1      38.601  31.832  30.956  1.00  0.00     0.049 A 
ATOM     25  H   UNL A   1      40.125  31.165  32.211  1.00  0.00     0.167 HD
ATOM     26  C   UNL A   1      43.319  29.231  34.762  1.00  0.00     0.037 A 
ATOM     27  C   UNL A   1      37.955  32.803  31.628  1.00  0.00     0.037 A 
ATOM     28  C   UNL A   1      42.718  30.272  35.547  1.00  0.00     0.049 A 
ATOM     29  C   UNL A   1      38.414  33.094  33.031  1.00  0.00     0.074 A 
ATOM     30  C   UNL A   1      43.028  30.683  36.825  1.00  0.00     0.029 A 
ATOM     31  N   UNL A   1      41.657  31.063  35.110  1.00  0.00    -0.354 N 
ATOM     32  N   UNL A   1      39.379  32.518  33.713  1.00  0.00    -0.248 NA
ATOM     33  C   UNL A   1      37.703  34.145  33.764  1.00  0.00     0.031 C 
ATOM     34  C   UNL A   1      42.116  31.682  37.184  1.00  0.00     0.029 A 
ATOM     35  C   UNL A   1      41.283  31.945  36.102  1.00  0.00     0.049 A 
ATOM     36  H   UNL A   1      41.235  31.000  34.222  1.00  0.00     0.167 HD
ATOM     37  C   UNL A   1      39.414  33.154  34.946  1.00  0.00     0.074 A 
ATOM     38  C   UNL A   1      38.364  34.157  34.916  1.00  0.00     0.031 C 
ATOM     39  C   UNL A   1      40.237  32.939  36.003  1.00  0.00     0.037 A 
BRANCH  26  40
ATOM     40  C   UNL A   1      44.418  28.375  35.325  1.00  0.00     0.058 A 
ATOM     41  C   UNL A   1      44.163  27.197  36.047  1.00  0.00     0.135 A 
ATOM     42  C   UNL A   1      45.753  28.800  35.220  1.00  0.00     0.135 A 
ATOM     43  F   UNL A   1      42.905  26.762  36.211  1.00  0.00    -0.206 F 
ATOM     44  C   UNL A   1      45.185  26.504  36.692  1.00  0.00     0.059 A 
ATOM     45  C   UNL A   1      46.793  28.104  35.829  1.00  0.00     0.059 A 
ATOM     46  F   UNL A   1      46.055  29.925  34.555  1.00  0.00    -0.206 F 
ATOM     47  C   UNL A   1      46.495  26.973  36.586  1.00  0.00     0.060 A 
BRANCH  47  48
ATOM     48  S   UNL A   1      47.803  26.102  37.476  1.00  0.00     0.124 S 
ATOM     49  O   UNL A   1      47.301  24.731  37.465  1.00  0.00    -0.237 OA
ATOM     50  O   UNL A   1      48.972  26.355  36.639  1.00  0.00    -0.237 OA
ATOM     51  O   UNL A   1      47.818  26.753  38.783  1.00  0.00    -0.744 OA
ENDBRANCH  47  48
ENDBRANCH  26  40
BRANCH  27  52
ATOM     52  C   UNL A   1      36.798  33.488  30.993  1.00  0.00     0.058 A 
ATOM     53  C   UNL A   1      36.968  34.392  29.936  1.00  0.00     0.135 A 
ATOM     54  C   UNL A   1      35.480  33.184  31.381  1.00  0.00     0.135 A 
ATOM     55  F   UNL A   1      38.203  34.724  29.530  1.00  0.00    -0.206 F 
ATOM     56  C   UNL A   1      35.878  34.960  29.279  1.00  0.00     0.059 A 
ATOM     57  C   UNL A   1      34.376  33.718  30.725  1.00  0.00     0.059 A 
ATOM     58  F   UNL A   1      35.258  32.315  32.381  1.00  0.00    -0.206 F 
ATOM     59  C   UNL A   1      34.586  34.606  29.673  1.00  0.00     0.060 A 
BRANCH  59  60
ATOM     60  S   UNL A   1      33.182  35.283  28.758  1.00  0.00     0.124 S 
ATOM     61  O   UNL A   1      33.846  36.174  27.814  1.00  0.00    -0.237 OA
ATOM     62  O   UNL A   1      32.581  34.081  28.188  1.00  0.00    -0.237 OA
ATOM     63  O   UNL A   1      32.388  35.940  29.793  1.00  0.00    -0.744 OA
ENDBRANCH  59  60
ENDBRANCH  27  52
BRANCH  39  64
ATOM     64  C   UNL A   1      40.080  33.841  37.192  1.00  0.00     0.058 A 
ATOM     65  C   UNL A   1      40.676  35.108  37.241  1.00  0.00     0.135 A 
ATOM     66  C   UNL A   1      39.198  33.478  38.222  1.00  0.00     0.135 A 
ATOM     67  F   UNL A   1      41.532  35.492  36.282  1.00  0.00    -0.206 F 
ATOM     68  C   UNL A   1      40.392  35.995  38.271  1.00  0.00     0.059 A 
ATOM     69  C   UNL A   1      38.877  34.360  39.245  1.00  0.00     0.059 A 
ATOM     70  F   UNL A   1      38.597  32.277  38.207  1.00  0.00    -0.206 F 
ATOM     71  C   UNL A   1      39.478  35.617  39.259  1.00  0.00     0.060 A 
BRANCH  71  72
ATOM     72  S   UNL A   1      39.036  36.819  40.530  1.00  0.00     0.124 S 
ATOM     73  O   UNL A   1      40.316  37.021  41.200  1.00  0.00    -0.237 OA
ATOM     74  O   UNL A   1      38.550  37.944  39.737  1.00  0.00    -0.237 OA
ATOM     75  O   UNL A   1      38.019  36.126  41.315  1.00  0.00    -0.744 OA
ENDBRANCH  71  72
ENDBRANCH  39  64
ENDBRANCH  13  14
ENDBRANCH   6   8
ENDBRANCH   5   6
ENDBRANCH   4   5
ENDBRANCH   3   4
ENDBRANCH   2   3
ENDBRANCH   1   2
BRANCH   1  76
ATOM     76  C   UNL A   1      35.703  23.854  24.517  1.00  0.00     0.261 C 
BRANCH  76  77
ATOM     77  O   UNL A   1      34.309  23.542  24.533  1.00  0.00    -0.463 OA
BRANCH  77  78
ATOM     78  C   UNL A   1      33.867  22.873  23.430  1.00  0.00     0.310 C 
ATOM     79  O   UNL A   1      34.222  23.056  22.271  1.00  0.00    -0.252 OA
BRANCH  78  80
ATOM     80  C   UNL A   1      32.838  21.885  23.892  1.00  0.00     0.115 C 
ATOM     81  C   UNL A   1      33.560  20.517  23.883  1.00  0.00     0.004 C 
ATOM     82  C   UNL A   1      32.328  22.054  25.343  1.00  0.00     0.096 C 
ATOM     83  C   UNL A   1      34.828  20.498  24.744  1.00  0.00     0.005 C 
ATOM     84  C   UNL A   1      32.643  19.735  24.775  1.00  0.00     0.009 C 
ATOM     85  C   UNL A   1      32.739  20.709  25.955  1.00  0.00     0.003 C 
ATOM     86  C   UNL A   1      34.276  20.720  26.162  1.00  0.00     0.005 C 
BRANCH  82  87
ATOM     87  C   UNL A   1      30.874  22.588  25.514  1.00  0.00     0.229 C 
ATOM     88  O   UNL A   1      30.050  21.821  26.042  1.00  0.00    -0.274 OA
ATOM     89  N   UNL A   1      30.401  23.847  25.307  1.00  0.00    -0.317 N 
ATOM     90  H   UNL A   1      29.541  24.024  25.751  1.00  0.00     0.170 HD
BRANCH  89  91
ATOM     91  C   UNL A   1      30.887  24.922  24.600  1.00  0.00     0.108 A 
ATOM     92  S   UNL A   1      30.713  24.858  22.907  1.00  0.00    -0.122 S 
ATOM     93  C   UNL A   1      31.168  26.240  25.039  1.00  0.00     0.078 A 
ATOM     94  C   UNL A   1      31.929  26.026  22.792  1.00  0.00     0.011 A 
ATOM     95  C   UNL A   1      31.894  26.883  23.892  1.00  0.00    -0.019 A 
ATOM     96  C   UNL A   1      32.852  26.099  21.608  1.00  0.00     0.047 C 
ATOM     97  C   UNL A   1      32.646  28.183  23.711  1.00  0.00     0.037 C 
ATOM     98  C   UNL A   1      33.968  27.103  21.892  1.00  0.00     0.006 C 
ATOM     99  C   UNL A   1      33.306  28.400  22.339  1.00  0.00     0.005 C 
BRANCH  93 100
ATOM    100  C   UNL A   1      30.699  26.546  26.443  1.00  0.00     0.254 C 
ATOM    101  O   UNL A   1      29.759  25.858  26.882  1.00  0.00    -0.269 OA
ATOM    102  N   UNL A   1      31.102  27.433  27.419  1.00  0.00    -0.349 N 
ATOM    103  H   UNL A   1      30.521  27.318  28.207  1.00  0.00     0.164 HD
BRANCH 102 104
ATOM    104  C   UNL A   1      32.086  28.492  27.708  1.00  0.00     0.082 C 
ATOM    105  C   UNL A   1      33.529  28.088  27.352  1.00  0.00     0.025 C 
ATOM    106  C   UNL A   1      31.679  29.752  27.036  1.00  0.00     0.025 C 
ATOM    107  C   UNL A   1      34.502  29.280  27.289  1.00  0.00     0.002 C 
ATOM    108  C   UNL A   1      32.656  30.904  27.009  1.00  0.00     0.002 C 
ATOM    109  C   UNL A   1      33.967  30.415  26.423  1.00  0.00     0.000 C 
ENDBRANCH 102 104
ENDBRANCH  93 100
ENDBRANCH  89  91
ENDBRANCH  82  87
ENDBRANCH  78  80
ENDBRANCH  77  78
ENDBRANCH  76  77
ENDBRANCH   1  76
TORSDOF 21
ENDMDL
