MODEL 1
REMARK VINA RESULT:     -11.1      0.000      0.000
REMARK SMILES COc1ccc(-n2c(SCC(=O)OCCOCCOC(=O)c3ccc(-c4c5nc(c(-c6c(F)cc(S(=O)(=O)[O-])cc6F)c6ccc([nH]6)c(-c6c(F)cc(S(=O)(=O)[O-])cc6F)c6nc(c(-c7c(F)cc(S(=O)(=O)[O-])cc7F)c7ccc4[nH]7)C=C6)C=C5)cc3)nc3sc4c(c3c2=O)CC[N@H+](C)C4)cc1
REMARK SMILES IDX 15 1 14 2 13 3 11 4 12 5 10 6 9 7 8 8 7 9 94 10 88 11 93 12
REMARK SMILES IDX 95 13 89 14 92 15 90 16 91 17 96 18 100 19 97 20 98 21 99 22
REMARK SMILES IDX 6 24 3 25 4 26 102 27 5 28 101 29 2 30 1 31 16 32 17 33
REMARK SMILES IDX 18 34 19 35 20 36 21 37 22 38 23 39 87 40 24 41 86 42 25 43
REMARK SMILES IDX 26 44 27 45 80 46 28 47 85 48 79 49 81 50 29 51 84 52 78 53
REMARK SMILES IDX 77 54 30 56 64 57 43 58 63 59 44 60 47 61 62 62 82 63 45 64
REMARK SMILES IDX 46 65 61 67 83 68 48 69 31 70 32 71 41 72 33 73 34 74 40 75
REMARK SMILES IDX 42 76 35 77 36 78 37 79 38 80 39 81 65 82 66 83 75 84 67 85
REMARK SMILES IDX 68 86 74 87 76 88 69 89 70 90 71 91 72 92 73 93 49 94 50 95
REMARK SMILES IDX 59 96 51 97 52 98 58 99 60 100 53 101 54 102 55 103 56 104
REMARK SMILES IDX 57 105
REMARK H PARENT 98 23 81 55 47 66
REMARK Flexibility Score: inf
ROOT
ATOM      1  C   UNL A   1      39.204  23.827  26.513  1.00  0.00     0.202 C 
ENDROOT
BRANCH   1   2
ATOM      2  C   UNL A   1      37.713  24.016  26.255  1.00  0.00     0.261 C 
BRANCH   2   3
ATOM      3  O   UNL A   1      37.292  23.745  24.890  1.00  0.00    -0.463 OA
BRANCH   3   4
ATOM      4  C   UNL A   1      36.845  22.466  24.768  1.00  0.00     0.316 C 
ATOM      5  O   UNL A   1      37.205  21.734  23.840  1.00  0.00    -0.251 OA
BRANCH   4   6
ATOM      6  C   UNL A   1      36.037  21.850  25.881  1.00  0.00     0.200 C 
BRANCH   6   7
ATOM      7  S   UNL A   1      34.548  22.358  26.678  1.00  0.00    -0.076 SA
BRANCH   7   8
ATOM      8  C   UNL A   1      33.280  23.274  25.901  1.00  0.00     0.177 A 
ATOM      9  N   UNL A   1      32.434  22.862  24.834  1.00  0.00    -0.255 N 
ATOM     10  C   UNL A   1      31.540  23.809  24.248  1.00  0.00     0.267 A 
ATOM     11  N   UNL A   1      33.387  24.514  26.288  1.00  0.00    -0.212 NA
ATOM     12  C   UNL A   1      31.691  25.180  24.697  1.00  0.00     0.081 A 
ATOM     13  O   UNL A   1      30.642  23.534  23.455  1.00  0.00    -0.268 OA
ATOM     14  C   UNL A   1      32.636  25.435  25.653  1.00  0.00     0.132 A 
ATOM     15  C   UNL A   1      30.945  26.357  24.359  1.00  0.00    -0.008 A 
ATOM     16  S   UNL A   1      32.800  27.107  25.966  1.00  0.00    -0.114 S 
ATOM     17  C   UNL A   1      31.516  27.488  24.915  1.00  0.00     0.065 A 
ATOM     18  C   UNL A   1      29.713  26.473  23.506  1.00  0.00     0.099 C 
ATOM     19  C   UNL A   1      31.030  28.898  24.697  1.00  0.00     0.310 C 
ATOM     20  C   UNL A   1      29.109  27.899  23.588  1.00  0.00     0.267 C 
ATOM     21  N   UNL A   1      30.098  28.998  23.547  1.00  0.00    -0.333 N 
ATOM     22  C   UNL A   1      30.801  29.058  22.269  1.00  0.00     0.333 C 
ATOM     23  H   UNL A   1      29.593  29.880  23.630  1.00  0.00     0.348 HD
BRANCH   9  24
ATOM     24  C   UNL A   1      32.304  21.509  24.338  1.00  0.00     0.052 A 
ATOM     25  C   UNL A   1      32.475  18.904  23.194  1.00  0.00     0.119 A 
ATOM     26  C   UNL A   1      32.563  19.084  24.574  1.00  0.00     0.048 A 
ATOM     27  C   UNL A   1      32.245  20.007  22.397  1.00  0.00     0.048 A 
ATOM     28  C   UNL A   1      32.476  20.372  25.139  1.00  0.00     0.030 A 
ATOM     29  C   UNL A   1      32.199  21.271  22.979  1.00  0.00     0.030 A 
BRANCH  25  30
ATOM     30  O   UNL A   1      32.639  17.635  22.713  1.00  0.00    -0.497 OA
ATOM     31  C   UNL A   1      33.717  16.909  23.312  1.00  0.00     0.278 C 
ENDBRANCH  25  30
ENDBRANCH   9  24
ENDBRANCH   7   8
ENDBRANCH   6   7
ENDBRANCH   4   6
ENDBRANCH   3   4
ENDBRANCH   2   3
ENDBRANCH   1   2
BRANCH   1  32
ATOM     32  O   UNL A   1      39.577  22.670  27.251  1.00  0.00    -0.374 OA
BRANCH  32  33
ATOM     33  C   UNL A   1      39.895  21.489  26.535  1.00  0.00     0.202 C 
BRANCH  33  34
ATOM     34  C   UNL A   1      41.072  20.622  27.000  1.00  0.00     0.261 C 
BRANCH  34  35
ATOM     35  O   UNL A   1      42.122  21.290  27.669  1.00  0.00    -0.460 OA
BRANCH  35  36
ATOM     36  C   UNL A   1      43.045  21.808  26.833  1.00  0.00     0.338 C 
ATOM     37  O   UNL A   1      43.737  21.222  26.026  1.00  0.00    -0.246 OA
BRANCH  36  38
ATOM     38  C   UNL A   1      42.985  23.256  27.009  1.00  0.00     0.060 A 
ATOM     39  C   UNL A   1      43.160  24.063  25.886  1.00  0.00     0.016 A 
ATOM     40  C   UNL A   1      42.814  23.790  28.287  1.00  0.00     0.016 A 
ATOM     41  C   UNL A   1      43.240  25.435  26.058  1.00  0.00     0.010 A 
ATOM     42  C   UNL A   1      42.923  25.162  28.457  1.00  0.00     0.010 A 
ATOM     43  C   UNL A   1      43.173  25.986  27.350  1.00  0.00    -0.014 A 
BRANCH  43  44
ATOM     44  C   UNL A   1      43.479  27.420  27.502  1.00  0.00     0.031 A 
ATOM     45  C   UNL A   1      42.321  28.358  27.525  1.00  0.00     0.074 A 
ATOM     46  C   UNL A   1      44.581  27.767  28.204  1.00  0.00     0.049 A 
ATOM     47  N   UNL A   1      41.548  28.478  28.564  1.00  0.00    -0.248 NA
ATOM     48  C   UNL A   1      41.812  29.027  26.330  1.00  0.00     0.031 C 
ATOM     49  C   UNL A   1      45.188  26.910  29.238  1.00  0.00     0.029 A 
ATOM     50  N   UNL A   1      45.230  28.968  28.338  1.00  0.00    -0.354 N 
ATOM     51  C   UNL A   1      40.423  29.168  28.164  1.00  0.00     0.074 A 
ATOM     52  C   UNL A   1      40.641  29.514  26.775  1.00  0.00     0.031 C 
ATOM     53  C   UNL A   1      45.980  27.668  30.019  1.00  0.00     0.029 A 
ATOM     54  C   UNL A   1      46.058  29.009  29.459  1.00  0.00     0.049 A 
ATOM     55  H   UNL A   1      45.123  29.719  27.710  1.00  0.00     0.167 HD
ATOM     56  C   UNL A   1      39.368  29.391  28.991  1.00  0.00     0.037 A 
ATOM     57  C   UNL A   1      46.335  30.131  30.177  1.00  0.00     0.037 A 
ATOM     58  C   UNL A   1      39.496  28.869  30.321  1.00  0.00     0.049 A 
ATOM     59  C   UNL A   1      44.997  30.370  30.839  1.00  0.00     0.074 A 
ATOM     60  C   UNL A   1      39.150  27.710  30.985  1.00  0.00     0.029 A 
ATOM     61  N   UNL A   1      40.207  29.599  31.244  1.00  0.00    -0.354 N 
ATOM     62  N   UNL A   1      44.532  29.738  31.887  1.00  0.00    -0.248 NA
ATOM     63  C   UNL A   1      43.984  31.108  30.082  1.00  0.00     0.031 C 
ATOM     64  C   UNL A   1      40.053  27.617  32.091  1.00  0.00     0.029 A 
ATOM     65  C   UNL A   1      40.928  28.698  31.994  1.00  0.00     0.049 A 
ATOM     66  H   UNL A   1      40.202  30.577  31.349  1.00  0.00     0.167 HD
ATOM     67  C   UNL A   1      43.141  29.776  31.761  1.00  0.00     0.074 A 
ATOM     68  C   UNL A   1      42.871  30.668  30.653  1.00  0.00     0.031 C 
ATOM     69  C   UNL A   1      42.289  28.943  32.429  1.00  0.00     0.037 A 
BRANCH  56  70
ATOM     70  C   UNL A   1      38.196  30.207  28.631  1.00  0.00     0.058 A 
ATOM     71  C   UNL A   1      38.185  31.557  29.009  1.00  0.00     0.135 A 
ATOM     72  C   UNL A   1      37.027  29.654  28.098  1.00  0.00     0.135 A 
ATOM     73  F   UNL A   1      39.292  32.118  29.526  1.00  0.00    -0.206 F 
ATOM     74  C   UNL A   1      37.039  32.329  28.908  1.00  0.00     0.059 A 
ATOM     75  C   UNL A   1      35.862  30.411  27.985  1.00  0.00     0.059 A 
ATOM     76  F   UNL A   1      36.995  28.365  27.727  1.00  0.00    -0.206 F 
ATOM     77  C   UNL A   1      35.873  31.739  28.416  1.00  0.00     0.060 A 
BRANCH  77  78
ATOM     78  S   UNL A   1      34.368  32.734  28.396  1.00  0.00     0.124 S 
ATOM     79  O   UNL A   1      34.123  32.934  29.821  1.00  0.00    -0.237 OA
ATOM     80  O   UNL A   1      34.796  33.914  27.652  1.00  0.00    -0.237 OA
ATOM     81  O   UNL A   1      33.405  31.879  27.708  1.00  0.00    -0.744 OA
ENDBRANCH  77  78
ENDBRANCH  56  70
BRANCH  57  82
ATOM     82  C   UNL A   1      47.095  31.162  29.397  1.00  0.00     0.058 A 
ATOM     83  C   UNL A   1      48.117  30.717  28.527  1.00  0.00     0.135 A 
ATOM     84  C   UNL A   1      46.861  32.544  29.413  1.00  0.00     0.135 A 
ATOM     85  F   UNL A   1      48.508  29.432  28.542  1.00  0.00    -0.206 F 
ATOM     86  C   UNL A   1      48.735  31.556  27.607  1.00  0.00     0.059 A 
ATOM     87  C   UNL A   1      47.448  33.404  28.483  1.00  0.00     0.059 A 
ATOM     88  F   UNL A   1      46.035  33.097  30.311  1.00  0.00    -0.206 F 
ATOM     89  C   UNL A   1      48.354  32.893  27.558  1.00  0.00     0.060 A 
BRANCH  89  90
ATOM     90  S   UNL A   1      49.004  33.922  26.228  1.00  0.00     0.124 S 
ATOM     91  O   UNL A   1      47.794  34.251  25.483  1.00  0.00    -0.237 OA
ATOM     92  O   UNL A   1      49.613  35.023  26.970  1.00  0.00    -0.237 OA
ATOM     93  O   UNL A   1      49.946  33.039  25.547  1.00  0.00    -0.744 OA
ENDBRANCH  89  90
ENDBRANCH  57  82
BRANCH  69  94
ATOM     94  C   UNL A   1      42.906  28.083  33.485  1.00  0.00     0.058 A 
ATOM     95  C   UNL A   1      43.503  26.861  33.142  1.00  0.00     0.135 A 
ATOM     96  C   UNL A   1      42.962  28.482  34.831  1.00  0.00     0.135 A 
ATOM     97  F   UNL A   1      43.491  26.434  31.869  1.00  0.00    -0.206 F 
ATOM     98  C   UNL A   1      44.156  26.079  34.091  1.00  0.00     0.059 A 
ATOM     99  C   UNL A   1      43.634  27.728  35.791  1.00  0.00     0.059 A 
ATOM    100  F   UNL A   1      42.393  29.630  35.232  1.00  0.00    -0.206 F 
ATOM    101  C   UNL A   1      44.230  26.527  35.411  1.00  0.00     0.060 A 
BRANCH 101 102
ATOM    102  S   UNL A   1      45.183  25.562  36.602  1.00  0.00     0.124 S 
ATOM    103  O   UNL A   1      44.134  24.931  37.395  1.00  0.00    -0.237 OA
ATOM    104  O   UNL A   1      45.948  24.666  35.739  1.00  0.00    -0.237 OA
ATOM    105  O   UNL A   1      45.978  26.568  37.301  1.00  0.00    -0.744 OA
ENDBRANCH 101 102
ENDBRANCH  69  94
ENDBRANCH  43  44
ENDBRANCH  36  38
ENDBRANCH  35  36
ENDBRANCH  34  35
ENDBRANCH  33  34
ENDBRANCH  32  33
ENDBRANCH   1  32
TORSDOF 21
ENDMDL
MODEL 2
REMARK VINA RESULT:     -10.1      3.811      9.032
REMARK SMILES COc1ccc(-n2c(SCC(=O)OCCOCCOC(=O)c3ccc(-c4c5nc(c(-c6c(F)cc(S(=O)(=O)[O-])cc6F)c6ccc([nH]6)c(-c6c(F)cc(S(=O)(=O)[O-])cc6F)c6nc(c(-c7c(F)cc(S(=O)(=O)[O-])cc7F)c7ccc4[nH]7)C=C6)C=C5)cc3)nc3sc4c(c3c2=O)CC[N@H+](C)C4)cc1
REMARK SMILES IDX 15 1 14 2 13 3 11 4 12 5 10 6 9 7 8 8 7 9 94 10 88 11 93 12
REMARK SMILES IDX 95 13 89 14 92 15 90 16 91 17 96 18 100 19 97 20 98 21 99 22
REMARK SMILES IDX 6 24 3 25 4 26 102 27 5 28 101 29 2 30 1 31 16 32 17 33
REMARK SMILES IDX 18 34 19 35 20 36 21 37 22 38 23 39 87 40 24 41 86 42 25 43
REMARK SMILES IDX 26 44 27 45 80 46 28 47 85 48 79 49 81 50 29 51 84 52 78 53
REMARK SMILES IDX 77 54 30 56 64 57 43 58 63 59 44 60 47 61 62 62 82 63 45 64
REMARK SMILES IDX 46 65 61 67 83 68 48 69 31 70 32 71 41 72 33 73 34 74 40 75
REMARK SMILES IDX 42 76 35 77 36 78 37 79 38 80 39 81 65 82 66 83 75 84 67 85
REMARK SMILES IDX 68 86 74 87 76 88 69 89 70 90 71 91 72 92 73 93 49 94 50 95
REMARK SMILES IDX 59 96 51 97 52 98 58 99 60 100 53 101 54 102 55 103 56 104
REMARK SMILES IDX 57 105
REMARK H PARENT 98 23 81 55 47 66
REMARK Flexibility Score: inf
ROOT
ATOM      1  C   UNL A   1      34.670  31.416  28.324  1.00  0.00     0.202 C 
ENDROOT
BRANCH   1   2
ATOM      2  C   UNL A   1      34.844  30.093  27.586  1.00  0.00     0.261 C 
BRANCH   2   3
ATOM      3  O   UNL A   1      33.952  29.906  26.453  1.00  0.00    -0.463 OA
BRANCH   3   4
ATOM      4  C   UNL A   1      32.902  29.111  26.794  1.00  0.00     0.316 C 
ATOM      5  O   UNL A   1      31.816  29.582  27.152  1.00  0.00    -0.251 OA
BRANCH   4   6
ATOM      6  C   UNL A   1      32.984  27.625  26.560  1.00  0.00     0.200 C 
BRANCH   6   7
ATOM      7  S   UNL A   1      34.027  26.652  25.523  1.00  0.00    -0.076 SA
BRANCH   7   8
ATOM      8  C   UNL A   1      33.581  25.099  24.859  1.00  0.00     0.177 A 
ATOM      9  N   UNL A   1      32.371  24.747  24.199  1.00  0.00    -0.255 N 
ATOM     10  C   UNL A   1      32.144  23.382  23.843  1.00  0.00     0.267 A 
ATOM     11  N   UNL A   1      34.444  24.219  25.285  1.00  0.00    -0.212 NA
ATOM     12  C   UNL A   1      33.120  22.430  24.338  1.00  0.00     0.081 A 
ATOM     13  O   UNL A   1      31.234  22.985  23.118  1.00  0.00    -0.268 OA
ATOM     14  C   UNL A   1      34.174  22.919  25.060  1.00  0.00     0.132 A 
ATOM     15  C   UNL A   1      33.224  21.015  24.135  1.00  0.00    -0.008 A 
ATOM     16  S   UNL A   1      35.148  21.670  25.702  1.00  0.00    -0.114 S 
ATOM     17  C   UNL A   1      34.236  20.472  24.908  1.00  0.00     0.065 A 
ATOM     18  C   UNL A   1      32.389  20.130  23.253  1.00  0.00     0.099 C 
ATOM     19  C   UNL A   1      34.566  19.004  24.993  1.00  0.00     0.310 C 
ATOM     20  C   UNL A   1      32.988  18.703  23.165  1.00  0.00     0.267 C 
ATOM     21  N   UNL A   1      33.479  18.153  24.447  1.00  0.00    -0.333 N 
ATOM     22  C   UNL A   1      32.400  17.951  25.409  1.00  0.00     0.333 C 
ATOM     23  H   UNL A   1      33.868  17.228  24.265  1.00  0.00     0.348 HD
BRANCH   9  24
ATOM     24  C   UNL A   1      31.362  25.675  23.740  1.00  0.00     0.052 A 
ATOM     25  C   UNL A   1      29.528  27.783  23.171  1.00  0.00     0.119 A 
ATOM     26  C   UNL A   1      30.614  27.535  22.331  1.00  0.00     0.048 A 
ATOM     27  C   UNL A   1      29.327  26.950  24.253  1.00  0.00     0.048 A 
ATOM     28  C   UNL A   1      31.518  26.492  22.611  1.00  0.00     0.030 A 
ATOM     29  C   UNL A   1      30.256  25.949  24.526  1.00  0.00     0.030 A 
BRANCH  25  30
ATOM     30  O   UNL A   1      28.735  28.856  22.874  1.00  0.00    -0.497 OA
ATOM     31  C   UNL A   1      29.162  30.088  23.460  1.00  0.00     0.278 C 
ENDBRANCH  25  30
ENDBRANCH   9  24
ENDBRANCH   7   8
ENDBRANCH   6   7
ENDBRANCH   4   6
ENDBRANCH   3   4
ENDBRANCH   2   3
ENDBRANCH   1   2
BRANCH   1  32
ATOM     32  O   UNL A   1      35.010  32.593  27.602  1.00  0.00    -0.374 OA
BRANCH  32  33
ATOM     33  C   UNL A   1      35.144  33.808  28.320  1.00  0.00     0.202 C 
BRANCH  33  34
ATOM     34  C   UNL A   1      34.489  33.942  29.700  1.00  0.00     0.261 C 
BRANCH  34  35
ATOM     35  O   UNL A   1      35.351  33.870  30.817  1.00  0.00    -0.460 OA
BRANCH  35  36
ATOM     36  C   UNL A   1      34.965  32.958  31.733  1.00  0.00     0.338 C 
ATOM     37  O   UNL A   1      33.842  32.721  32.127  1.00  0.00    -0.246 OA
BRANCH  36  38
ATOM     38  C   UNL A   1      36.168  32.217  32.099  1.00  0.00     0.060 A 
ATOM     39  C   UNL A   1      37.303  32.941  32.459  1.00  0.00     0.016 A 
ATOM     40  C   UNL A   1      36.170  30.823  32.027  1.00  0.00     0.016 A 
ATOM     41  C   UNL A   1      38.488  32.257  32.678  1.00  0.00     0.010 A 
ATOM     42  C   UNL A   1      37.364  30.146  32.220  1.00  0.00     0.010 A 
ATOM     43  C   UNL A   1      38.535  30.862  32.510  1.00  0.00    -0.014 A 
BRANCH  43  44
ATOM     44  C   UNL A   1      39.857  30.210  32.542  1.00  0.00     0.031 A 
ATOM     45  C   UNL A   1      40.893  30.741  31.611  1.00  0.00     0.074 A 
ATOM     46  C   UNL A   1      40.278  29.674  33.710  1.00  0.00     0.049 A 
ATOM     47  N   UNL A   1      41.511  31.862  31.833  1.00  0.00    -0.248 NA
ATOM     48  C   UNL A   1      41.123  30.192  30.277  1.00  0.00     0.031 C 
ATOM     49  C   UNL A   1      39.799  30.126  35.028  1.00  0.00     0.029 A 
ATOM     50  N   UNL A   1      41.329  28.842  33.999  1.00  0.00    -0.354 N 
ATOM     51  C   UNL A   1      42.156  32.216  30.666  1.00  0.00     0.074 A 
ATOM     52  C   UNL A   1      41.910  31.136  29.733  1.00  0.00     0.031 C 
ATOM     53  C   UNL A   1      40.671  29.718  35.969  1.00  0.00     0.029 A 
ATOM     54  C   UNL A   1      41.671  28.859  35.350  1.00  0.00     0.049 A 
ATOM     55  H   UNL A   1      41.791  28.292  33.326  1.00  0.00     0.167 HD
ATOM     56  C   UNL A   1      42.829  33.387  30.527  1.00  0.00     0.037 A 
ATOM     57  C   UNL A   1      42.927  28.664  35.834  1.00  0.00     0.037 A 
ATOM     58  C   UNL A   1      42.841  34.242  31.679  1.00  0.00     0.049 A 
ATOM     59  C   UNL A   1      43.595  29.944  35.386  1.00  0.00     0.074 A 
ATOM     60  C   UNL A   1      42.087  35.292  32.160  1.00  0.00     0.029 A 
ATOM     61  N   UNL A   1      43.753  33.984  32.675  1.00  0.00    -0.354 N 
ATOM     62  N   UNL A   1      43.486  31.113  35.965  1.00  0.00    -0.248 NA
ATOM     63  C   UNL A   1      44.130  29.993  34.024  1.00  0.00     0.031 C 
ATOM     64  C   UNL A   1      42.290  35.293  33.577  1.00  0.00     0.029 A 
ATOM     65  C   UNL A   1      43.110  34.205  33.871  1.00  0.00     0.049 A 
ATOM     66  H   UNL A   1      44.687  33.698  32.556  1.00  0.00     0.167 HD
ATOM     67  C   UNL A   1      43.679  32.054  34.949  1.00  0.00     0.074 A 
ATOM     68  C   UNL A   1      44.111  31.298  33.792  1.00  0.00     0.031 C 
ATOM     69  C   UNL A   1      43.299  33.363  35.036  1.00  0.00     0.037 A 
BRANCH  56  70
ATOM     70  C   UNL A   1      43.611  33.753  29.333  1.00  0.00     0.058 A 
ATOM     71  C   UNL A   1      44.914  33.252  29.213  1.00  0.00     0.135 A 
ATOM     72  C   UNL A   1      43.180  34.717  28.417  1.00  0.00     0.135 A 
ATOM     73  F   UNL A   1      45.360  32.326  30.079  1.00  0.00    -0.206 F 
ATOM     74  C   UNL A   1      45.786  33.724  28.244  1.00  0.00     0.059 A 
ATOM     75  C   UNL A   1      44.037  35.206  27.431  1.00  0.00     0.059 A 
ATOM     76  F   UNL A   1      41.940  35.225  28.498  1.00  0.00    -0.206 F 
ATOM     77  C   UNL A   1      45.344  34.719  27.371  1.00  0.00     0.060 A 
BRANCH  77  78
ATOM     78  S   UNL A   1      46.531  35.392  26.190  1.00  0.00     0.124 S 
ATOM     79  O   UNL A   1      46.094  36.780  26.084  1.00  0.00    -0.237 OA
ATOM     80  O   UNL A   1      47.799  35.175  26.879  1.00  0.00    -0.237 OA
ATOM     81  O   UNL A   1      46.323  34.576  24.997  1.00  0.00    -0.744 OA
ENDBRANCH  77  78
ENDBRANCH  56  70
BRANCH  57  82
ATOM     82  C   UNL A   1      43.459  27.288  35.567  1.00  0.00     0.058 A 
ATOM     83  C   UNL A   1      42.541  26.212  35.548  1.00  0.00     0.135 A 
ATOM     84  C   UNL A   1      44.794  26.960  35.287  1.00  0.00     0.135 A 
ATOM     85  F   UNL A   1      41.269  26.400  35.937  1.00  0.00    -0.206 F 
ATOM     86  C   UNL A   1      42.886  24.941  35.105  1.00  0.00     0.059 A 
ATOM     87  C   UNL A   1      45.162  25.699  34.815  1.00  0.00     0.059 A 
ATOM     88  F   UNL A   1      45.773  27.861  35.435  1.00  0.00    -0.206 F 
ATOM     89  C   UNL A   1      44.193  24.708  34.690  1.00  0.00     0.060 A 
BRANCH  89  90
ATOM     90  S   UNL A   1      44.580  23.123  33.922  1.00  0.00     0.124 S 
ATOM     91  O   UNL A   1      46.028  23.059  34.075  1.00  0.00    -0.237 OA
ATOM     92  O   UNL A   1      43.811  22.194  34.747  1.00  0.00    -0.237 OA
ATOM     93  O   UNL A   1      44.094  23.283  32.555  1.00  0.00    -0.744 OA
ENDBRANCH  89  90
ENDBRANCH  57  82
BRANCH  69  94
ATOM     94  C   UNL A   1      42.824  33.820  36.378  1.00  0.00     0.058 A 
ATOM     95  C   UNL A   1      41.471  33.701  36.729  1.00  0.00     0.135 A 
ATOM     96  C   UNL A   1      43.706  34.328  37.346  1.00  0.00     0.135 A 
ATOM     97  F   UNL A   1      40.583  33.211  35.849  1.00  0.00    -0.206 F 
ATOM     98  C   UNL A   1      41.016  34.043  37.999  1.00  0.00     0.059 A 
ATOM     99  C   UNL A   1      43.277  34.650  38.632  1.00  0.00     0.059 A 
ATOM    100  F   UNL A   1      45.011  34.488  37.070  1.00  0.00    -0.206 F 
ATOM    101  C   UNL A   1      41.928  34.503  38.950  1.00  0.00     0.060 A 
BRANCH 101 102
ATOM    102  S   UNL A   1      41.344  34.827  40.627  1.00  0.00     0.124 S 
ATOM    103  O   UNL A   1      41.729  33.606  41.327  1.00  0.00    -0.237 OA
ATOM    104  O   UNL A   1      42.091  36.028  40.993  1.00  0.00    -0.237 OA
ATOM    105  O   UNL A   1      39.908  35.027  40.457  1.00  0.00    -0.744 OA
ENDBRANCH 101 102
ENDBRANCH  69  94
ENDBRANCH  43  44
ENDBRANCH  36  38
ENDBRANCH  35  36
ENDBRANCH  34  35
ENDBRANCH  33  34
ENDBRANCH  32  33
ENDBRANCH   1  32
TORSDOF 21
ENDMDL
MODEL 3
REMARK VINA RESULT:      -9.8      7.945     15.018
REMARK SMILES COc1ccc(-n2c(SCC(=O)OCCOCCOC(=O)c3ccc(-c4c5nc(c(-c6c(F)cc(S(=O)(=O)[O-])cc6F)c6ccc([nH]6)c(-c6c(F)cc(S(=O)(=O)[O-])cc6F)c6nc(c(-c7c(F)cc(S(=O)(=O)[O-])cc7F)c7ccc4[nH]7)C=C6)C=C5)cc3)nc3sc4c(c3c2=O)CC[N@H+](C)C4)cc1
REMARK SMILES IDX 15 1 14 2 13 3 11 4 12 5 10 6 9 7 8 8 7 9 94 10 88 11 93 12
REMARK SMILES IDX 95 13 89 14 92 15 90 16 91 17 96 18 100 19 97 20 98 21 99 22
REMARK SMILES IDX 6 24 3 25 4 26 102 27 5 28 101 29 2 30 1 31 16 32 17 33
REMARK SMILES IDX 18 34 19 35 20 36 21 37 22 38 23 39 87 40 24 41 86 42 25 43
REMARK SMILES IDX 26 44 27 45 80 46 28 47 85 48 79 49 81 50 29 51 84 52 78 53
REMARK SMILES IDX 77 54 30 56 64 57 43 58 63 59 44 60 47 61 62 62 82 63 45 64
REMARK SMILES IDX 46 65 61 67 83 68 48 69 31 70 32 71 41 72 33 73 34 74 40 75
REMARK SMILES IDX 42 76 35 77 36 78 37 79 38 80 39 81 65 82 66 83 75 84 67 85
REMARK SMILES IDX 68 86 74 87 76 88 69 89 70 90 71 91 72 92 73 93 49 94 50 95
REMARK SMILES IDX 59 96 51 97 52 98 58 99 60 100 53 101 54 102 55 103 56 104
REMARK SMILES IDX 57 105
REMARK H PARENT 98 23 81 55 47 66
REMARK Flexibility Score: inf
ROOT
ATOM      1  C   UNL A   1      47.663  20.523  37.891  1.00  0.00     0.202 C 
ENDROOT
BRANCH   1   2
ATOM      2  C   UNL A   1      46.719  20.326  39.072  1.00  0.00     0.261 C 
BRANCH   2   3
ATOM      3  O   UNL A   1      46.026  19.047  39.091  1.00  0.00    -0.463 OA
BRANCH   3   4
ATOM      4  C   UNL A   1      45.853  18.612  40.367  1.00  0.00     0.316 C 
ATOM      5  O   UNL A   1      45.050  19.149  41.137  1.00  0.00    -0.251 OA
BRANCH   4   6
ATOM      6  C   UNL A   1      46.511  17.332  40.814  1.00  0.00     0.200 C 
BRANCH   6   7
ATOM      7  S   UNL A   1      46.088  16.165  42.067  1.00  0.00    -0.076 SA
BRANCH   7   8
ATOM      8  C   UNL A   1      45.757  16.584  43.730  1.00  0.00     0.177 A 
ATOM      9  N   UNL A   1      44.752  16.046  44.582  1.00  0.00    -0.255 N 
ATOM     10  C   UNL A   1      44.558  16.618  45.877  1.00  0.00     0.267 A 
ATOM     11  N   UNL A   1      46.425  17.668  44.011  1.00  0.00    -0.212 NA
ATOM     12  C   UNL A   1      45.313  17.825  46.153  1.00  0.00     0.081 A 
ATOM     13  O   UNL A   1      43.857  16.134  46.763  1.00  0.00    -0.268 OA
ATOM     14  C   UNL A   1      46.158  18.283  45.179  1.00  0.00     0.132 A 
ATOM     15  C   UNL A   1      45.393  18.620  47.343  1.00  0.00    -0.008 A 
ATOM     16  S   UNL A   1      46.856  19.788  45.588  1.00  0.00    -0.114 S 
ATOM     17  C   UNL A   1      46.129  19.772  47.127  1.00  0.00     0.065 A 
ATOM     18  C   UNL A   1      44.781  18.355  48.690  1.00  0.00     0.099 C 
ATOM     19  C   UNL A   1      46.347  20.863  48.144  1.00  0.00     0.310 C 
ATOM     20  C   UNL A   1      45.306  19.359  49.749  1.00  0.00     0.267 C 
ATOM     21  N   UNL A   1      45.404  20.760  49.286  1.00  0.00    -0.333 N 
ATOM     22  C   UNL A   1      44.096  21.329  48.976  1.00  0.00     0.333 C 
ATOM     23  H   UNL A   1      45.779  21.320  50.051  1.00  0.00     0.348 HD
BRANCH   9  24
ATOM     24  C   UNL A   1      43.954  14.873  44.305  1.00  0.00     0.052 A 
ATOM     25  C   UNL A   1      42.560  12.583  43.335  1.00  0.00     0.119 A 
ATOM     26  C   UNL A   1      43.640  12.444  44.207  1.00  0.00     0.048 A 
ATOM     27  C   UNL A   1      42.144  13.855  42.996  1.00  0.00     0.048 A 
ATOM     28  C   UNL A   1      44.327  13.576  44.689  1.00  0.00     0.030 A 
ATOM     29  C   UNL A   1      42.863  14.954  43.458  1.00  0.00     0.030 A 
BRANCH  25  30
ATOM     30  O   UNL A   1      41.989  11.438  42.854  1.00  0.00    -0.497 OA
ATOM     31  C   UNL A   1      42.862  10.306  42.826  1.00  0.00     0.278 C 
ENDBRANCH  25  30
ENDBRANCH   9  24
ENDBRANCH   7   8
ENDBRANCH   6   7
ENDBRANCH   4   6
ENDBRANCH   3   4
ENDBRANCH   2   3
ENDBRANCH   1   2
BRANCH   1  32
ATOM     32  O   UNL A   1      47.601  21.783  37.236  1.00  0.00    -0.374 OA
BRANCH  32  33
ATOM     33  C   UNL A   1      46.900  21.870  36.007  1.00  0.00     0.202 C 
BRANCH  33  34
ATOM     34  C   UNL A   1      45.383  22.091  36.021  1.00  0.00     0.261 C 
BRANCH  34  35
ATOM     35  O   UNL A   1      44.853  22.899  34.989  1.00  0.00    -0.460 OA
BRANCH  35  36
ATOM     36  C   UNL A   1      44.670  24.183  35.356  1.00  0.00     0.338 C 
ATOM     37  O   UNL A   1      44.549  24.631  36.477  1.00  0.00    -0.246 OA
BRANCH  36  38
ATOM     38  C   UNL A   1      44.749  24.971  34.130  1.00  0.00     0.060 A 
ATOM     39  C   UNL A   1      44.238  24.417  32.958  1.00  0.00     0.016 A 
ATOM     40  C   UNL A   1      45.377  26.218  34.148  1.00  0.00     0.016 A 
ATOM     41  C   UNL A   1      44.425  25.094  31.763  1.00  0.00     0.010 A 
ATOM     42  C   UNL A   1      45.586  26.878  32.947  1.00  0.00     0.010 A 
ATOM     43  C   UNL A   1      45.144  26.302  31.746  1.00  0.00    -0.014 A 
BRANCH  43  44
ATOM     44  C   UNL A   1      45.503  26.870  30.434  1.00  0.00     0.031 A 
ATOM     45  C   UNL A   1      45.400  25.963  29.256  1.00  0.00     0.074 A 
ATOM     46  C   UNL A   1      45.295  28.190  30.231  1.00  0.00     0.049 A 
ATOM     47  N   UNL A   1      44.255  25.639  28.731  1.00  0.00    -0.248 NA
ATOM     48  C   UNL A   1      46.524  25.178  28.752  1.00  0.00     0.031 C 
ATOM     49  C   UNL A   1      44.293  28.977  30.972  1.00  0.00     0.029 A 
ATOM     50  N   UNL A   1      45.708  29.029  29.227  1.00  0.00    -0.354 N 
ATOM     51  C   UNL A   1      44.476  24.573  27.885  1.00  0.00     0.074 A 
ATOM     52  C   UNL A   1      45.904  24.337  27.907  1.00  0.00     0.031 C 
ATOM     53  C   UNL A   1      44.034  30.105  30.286  1.00  0.00     0.029 A 
ATOM     54  C   UNL A   1      44.948  30.195  29.156  1.00  0.00     0.049 A 
ATOM     55  H   UNL A   1      46.460  28.830  28.624  1.00  0.00     0.167 HD
ATOM     56  C   UNL A   1      43.469  23.931  27.238  1.00  0.00     0.037 A 
ATOM     57  C   UNL A   1      44.696  30.887  28.012  1.00  0.00     0.037 A 
ATOM     58  C   UNL A   1      42.148  24.436  27.481  1.00  0.00     0.049 A 
ATOM     59  C   UNL A   1      43.757  29.928  27.314  1.00  0.00     0.074 A 
ATOM     60  C   UNL A   1      41.111  24.165  28.350  1.00  0.00     0.029 A 
ATOM     61  N   UNL A   1      41.728  25.536  26.771  1.00  0.00    -0.354 N 
ATOM     62  N   UNL A   1      42.484  29.770  27.574  1.00  0.00    -0.248 NA
ATOM     63  C   UNL A   1      44.351  28.846  26.526  1.00  0.00     0.031 C 
ATOM     64  C   UNL A   1      40.349  25.374  28.427  1.00  0.00     0.029 A 
ATOM     65  C   UNL A   1      41.007  26.320  27.642  1.00  0.00     0.049 A 
ATOM     66  H   UNL A   1      41.907  25.727  25.823  1.00  0.00     0.167 HD
ATOM     67  C   UNL A   1      42.191  28.450  27.220  1.00  0.00     0.074 A 
ATOM     68  C   UNL A   1      43.371  27.953  26.545  1.00  0.00     0.031 C 
ATOM     69  C   UNL A   1      41.090  27.767  27.655  1.00  0.00     0.037 A 
BRANCH  56  70
ATOM     70  C   UNL A   1      43.674  22.856  26.253  1.00  0.00     0.058 A 
ATOM     71  C   UNL A   1      43.289  21.554  26.599  1.00  0.00     0.135 A 
ATOM     72  C   UNL A   1      44.399  23.045  25.071  1.00  0.00     0.135 A 
ATOM     73  F   UNL A   1      42.593  21.338  27.728  1.00  0.00    -0.206 F 
ATOM     74  C   UNL A   1      43.649  20.461  25.826  1.00  0.00     0.059 A 
ATOM     75  C   UNL A   1      44.772  21.962  24.276  1.00  0.00     0.059 A 
ATOM     76  F   UNL A   1      44.790  24.275  24.705  1.00  0.00    -0.206 F 
ATOM     77  C   UNL A   1      44.412  20.674  24.677  1.00  0.00     0.060 A 
BRANCH  77  78
ATOM     78  S   UNL A   1      44.959  19.226  23.748  1.00  0.00     0.124 S 
ATOM     79  O   UNL A   1      44.490  19.540  22.403  1.00  0.00    -0.237 OA
ATOM     80  O   UNL A   1      46.405  19.271  23.945  1.00  0.00    -0.237 OA
ATOM     81  O   UNL A   1      44.274  18.119  24.409  1.00  0.00    -0.744 OA
ENDBRANCH  77  78
ENDBRANCH  56  70
BRANCH  57  82
ATOM     82  C   UNL A   1      45.926  31.476  27.390  1.00  0.00     0.058 A 
ATOM     83  C   UNL A   1      45.890  32.837  27.007  1.00  0.00     0.135 A 
ATOM     84  C   UNL A   1      47.144  30.813  27.186  1.00  0.00     0.135 A 
ATOM     85  F   UNL A   1      44.733  33.519  27.035  1.00  0.00    -0.206 F 
ATOM     86  C   UNL A   1      47.028  33.537  26.622  1.00  0.00     0.059 A 
ATOM     87  C   UNL A   1      48.307  31.497  26.825  1.00  0.00     0.059 A 
ATOM     88  F   UNL A   1      47.249  29.489  27.357  1.00  0.00    -0.206 F 
ATOM     89  C   UNL A   1      48.246  32.866  26.584  1.00  0.00     0.060 A 
BRANCH  89  90
ATOM     90  S   UNL A   1      49.745  33.825  26.290  1.00  0.00     0.124 S 
ATOM     91  O   UNL A   1      49.222  34.994  25.592  1.00  0.00    -0.237 OA
ATOM     92  O   UNL A   1      50.224  34.058  27.650  1.00  0.00    -0.237 OA
ATOM     93  O   UNL A   1      50.569  32.926  25.490  1.00  0.00    -0.744 OA
ENDBRANCH  89  90
ENDBRANCH  57  82
BRANCH  69  94
ATOM     94  C   UNL A   1      40.071  28.571  28.397  1.00  0.00     0.058 A 
ATOM     95  C   UNL A   1      39.145  29.359  27.698  1.00  0.00     0.135 A 
ATOM     96  C   UNL A   1      39.965  28.529  29.797  1.00  0.00     0.135 A 
ATOM     97  F   UNL A   1      39.190  29.429  26.358  1.00  0.00    -0.206 F 
ATOM     98  C   UNL A   1      38.135  30.054  28.358  1.00  0.00     0.059 A 
ATOM     99  C   UNL A   1      38.945  29.195  30.476  1.00  0.00     0.059 A 
ATOM    100  F   UNL A   1      40.832  27.812  30.530  1.00  0.00    -0.206 F 
ATOM    101  C   UNL A   1      38.033  29.954  29.746  1.00  0.00     0.060 A 
BRANCH 101 102
ATOM    102  S   UNL A   1      36.647  30.762  30.575  1.00  0.00     0.124 S 
ATOM    103  O   UNL A   1      35.554  30.533  29.637  1.00  0.00    -0.237 OA
ATOM    104  O   UNL A   1      36.564  30.027  31.834  1.00  0.00    -0.237 OA
ATOM    105  O   UNL A   1      37.085  32.149  30.702  1.00  0.00    -0.744 OA
ENDBRANCH 101 102
ENDBRANCH  69  94
ENDBRANCH  43  44
ENDBRANCH  36  38
ENDBRANCH  35  36
ENDBRANCH  34  35
ENDBRANCH  33  34
ENDBRANCH  32  33
ENDBRANCH   1  32
TORSDOF 21
ENDMDL
