MODEL 1
REMARK VINA RESULT:      -6.2      0.000      0.000
REMARK SMILES O=C(N[C@@H](Cc1ccc(O)cc1)C(=O)N[C@@H](Cc1c[nH]c2ccccc12)C(=O)N[C@@H](CO)C(=O)OCCOCCOC(=O)c1ccc(-c2c3nc(c(-c4c(F)cc(S(=O)(=O)[O-])cc4F)c4ccc([nH]4)c(-c4c(F)cc(S(=O)(=O)[O-])cc4F)c4nc(c(-c5c(F)cc(S(=O)(=O)[O-])cc5F)c5ccc2[nH]5)C=C4)C=C3)cc1)c1ccc(F)cc1
REMARK SMILES IDX 36 1 35 2 33 3 34 4 30 5 29 6 27 7 28 8 16 10 15 11 13 12
REMARK SMILES IDX 14 13 4 15 3 16 1 17 2 18 110 20 111 21 116 22 112 23 115 24
REMARK SMILES IDX 113 25 114 26 5 27 6 28 7 29 12 30 8 31 11 32 9 33 10 34
REMARK SMILES IDX 17 36 18 37 19 38 26 39 20 40 21 41 25 42 22 44 24 45 23 46
REMARK SMILES IDX 31 47 32 48 37 50 38 51 39 52 40 53 41 54 42 55 43 56 44 57
REMARK SMILES IDX 45 58 109 59 46 60 108 61 47 62 48 63 49 64 102 65 50 66
REMARK SMILES IDX 107 67 101 68 103 69 51 70 106 71 100 72 99 73 52 75 86 76
REMARK SMILES IDX 65 77 85 78 66 79 69 80 84 81 104 82 67 83 68 84 83 86
REMARK SMILES IDX 105 87 70 88 53 89 54 90 63 91 55 92 56 93 62 94 64 95 57 96
REMARK SMILES IDX 58 97 59 98 60 99 61 100 87 101 88 102 97 103 89 104 90 105
REMARK SMILES IDX 96 106 98 107 91 108 92 109 93 110 94 111 95 112 71 113
REMARK SMILES IDX 72 114 81 115 73 116 74 117 80 118 82 119 75 120 76 121
REMARK SMILES IDX 77 122 78 123 79 124
REMARK H PARENT 29 9 15 14 3 19 10 35 20 43 32 49 103 74 69 85
REMARK Flexibility Score: inf
ROOT
ATOM      1  C   UNL A   1      43.600  28.021  30.994  1.00  0.00     0.261 C 
ENDROOT
BRANCH   1   2
ATOM      2  O   UNL A   1      42.392  28.782  30.852  1.00  0.00    -0.462 OA
BRANCH   2   3
ATOM      3  C   UNL A   1      41.596  28.248  29.876  1.00  0.00     0.331 C 
ATOM      4  O   UNL A   1      41.469  27.029  29.722  1.00  0.00    -0.250 OA
BRANCH   3   5
ATOM      5  C   UNL A   1      40.738  29.434  28.940  1.00  0.00     0.218 C 
BRANCH   5   6
ATOM      6  N   UNL A   1      41.406  29.095  27.493  1.00  0.00    -0.339 N 
ATOM      7  C   UNL A   1      42.595  29.387  26.899  1.00  0.00     0.243 C 
ATOM      8  O   UNL A   1      42.447  29.405  25.668  1.00  0.00    -0.273 OA
ATOM      9  H   UNL A   1      40.815  28.556  26.918  1.00  0.00     0.164 HD
BRANCH   7  10
ATOM     10  C   UNL A   1      44.013  29.872  27.554  1.00  0.00     0.175 C 
BRANCH  10  11
ATOM     11  N   UNL A   1      45.152  29.879  26.585  1.00  0.00    -0.342 N 
ATOM     12  C   UNL A   1      45.714  29.083  25.644  1.00  0.00     0.243 C 
ATOM     13  O   UNL A   1      46.563  29.664  24.946  1.00  0.00    -0.273 OA
ATOM     14  H   UNL A   1      45.648  30.727  26.652  1.00  0.00     0.164 HD
BRANCH  12  15
ATOM     15  C   UNL A   1      45.454  27.572  25.350  1.00  0.00     0.176 C 
BRANCH  15  16
ATOM     16  N   UNL A   1      44.099  27.265  24.896  1.00  0.00    -0.340 N 
ATOM     17  O   UNL A   1      42.171  26.078  24.827  1.00  0.00    -0.269 OA
ATOM     18  C   UNL A   1      43.269  26.257  25.343  1.00  0.00     0.251 C 
ATOM     19  H   UNL A   1      43.736  27.845  24.188  1.00  0.00     0.164 HD
BRANCH  18  20
ATOM     20  C   UNL A   1      43.720  25.326  26.412  1.00  0.00     0.040 A 
ATOM     21  C   UNL A   1      44.065  23.997  26.130  1.00  0.00     0.017 A 
ATOM     22  C   UNL A   1      43.789  25.804  27.729  1.00  0.00     0.017 A 
ATOM     23  C   UNL A   1      44.408  23.132  27.175  1.00  0.00     0.040 A 
ATOM     24  C   UNL A   1      44.142  24.937  28.768  1.00  0.00     0.040 A 
ATOM     25  C   UNL A   1      44.435  23.607  28.482  1.00  0.00     0.123 A 
ATOM     26  F   UNL A   1      44.748  22.772  29.483  1.00  0.00    -0.207 F 
ENDBRANCH  18  20
ENDBRANCH  15  16
BRANCH  15  27
ATOM     27  C   UNL A   1      46.578  26.680  24.751  1.00  0.00     0.070 C 
BRANCH  27  28
ATOM     28  C   UNL A   1      47.605  26.071  25.666  1.00  0.00    -0.045 A 
ATOM     29  C   UNL A   1      48.941  26.288  25.391  1.00  0.00     0.007 A 
ATOM     30  C   UNL A   1      47.297  25.416  26.862  1.00  0.00     0.007 A 
ATOM     31  C   UNL A   1      49.970  25.769  26.174  1.00  0.00     0.046 A 
ATOM     32  C   UNL A   1      48.320  24.928  27.693  1.00  0.00     0.046 A 
ATOM     33  C   UNL A   1      49.650  25.087  27.328  1.00  0.00     0.115 A 
BRANCH  33  34
ATOM     34  O   UNL A   1      50.626  24.594  28.138  1.00  0.00    -0.508 OA
ATOM     35  H   UNL A   1      50.494  23.784  28.591  1.00  0.00     0.293 HD
ENDBRANCH  33  34
ENDBRANCH  27  28
ENDBRANCH  15  27
ENDBRANCH  12  15
ENDBRANCH  10  11
BRANCH  10  36
ATOM     36  C   UNL A   1      44.064  31.150  28.413  1.00  0.00     0.072 C 
BRANCH  36  37
ATOM     37  C   UNL A   1      45.411  31.802  28.688  1.00  0.00    -0.020 A 
ATOM     38  C   UNL A   1      45.817  32.965  28.017  1.00  0.00     0.087 A 
ATOM     39  C   UNL A   1      46.602  31.099  29.116  1.00  0.00     0.003 A 
ATOM     40  N   UNL A   1      47.166  32.983  27.650  1.00  0.00    -0.361 N 
ATOM     41  C   UNL A   1      47.743  31.773  27.942  1.00  0.00     0.046 A 
ATOM     42  C   UNL A   1      46.848  29.378  29.648  1.00  0.00     0.010 A 
ATOM     43  H   UNL A   1      47.632  33.748  27.242  1.00  0.00     0.166 HD
ATOM     44  C   UNL A   1      49.074  30.753  27.244  1.00  0.00     0.026 A 
ATOM     45  C   UNL A   1      48.081  28.332  28.875  1.00  0.00     0.001 A 
ATOM     46  C   UNL A   1      49.173  29.016  27.666  1.00  0.00     0.002 A 
ENDBRANCH  36  37
ENDBRANCH  10  36
ENDBRANCH   7  10
ENDBRANCH   5   6
BRANCH   5  47
ATOM     47  C   UNL A   1      38.844  30.471  29.364  1.00  0.00     0.193 C 
BRANCH  47  48
ATOM     48  O   UNL A   1      37.907  30.386  30.616  1.00  0.00    -0.394 OA
ATOM     49  H   UNL A   1      37.564  29.483  30.702  1.00  0.00     0.210 HD
ENDBRANCH  47  48
ENDBRANCH   5  47
ENDBRANCH   3   5
ENDBRANCH   2   3
ENDBRANCH   1   2
BRANCH   1  50
ATOM     50  C   UNL A   1      43.694  27.028  32.176  1.00  0.00     0.202 C 
BRANCH  50  51
ATOM     51  O   UNL A   1      42.963  27.256  33.372  1.00  0.00    -0.374 OA
BRANCH  51  52
ATOM     52  C   UNL A   1      43.066  26.313  34.435  1.00  0.00     0.202 C 
BRANCH  52  53
ATOM     53  C   UNL A   1      44.104  26.562  35.532  1.00  0.00     0.261 C 
BRANCH  53  54
ATOM     54  O   UNL A   1      45.364  25.936  35.228  1.00  0.00    -0.460 OA
BRANCH  54  55
ATOM     55  C   UNL A   1      46.443  26.528  35.799  1.00  0.00     0.338 C 
ATOM     56  O   UNL A   1      47.126  26.098  36.712  1.00  0.00    -0.246 OA
BRANCH  55  57
ATOM     57  C   UNL A   1      46.821  27.714  35.015  1.00  0.00     0.060 A 
ATOM     58  C   UNL A   1      46.951  28.936  35.690  1.00  0.00     0.016 A 
ATOM     59  C   UNL A   1      46.953  27.644  33.628  1.00  0.00     0.016 A 
ATOM     60  C   UNL A   1      47.193  30.104  34.974  1.00  0.00     0.010 A 
ATOM     61  C   UNL A   1      47.159  28.821  32.908  1.00  0.00     0.010 A 
ATOM     62  C   UNL A   1      47.248  30.056  33.577  1.00  0.00    -0.014 A 
BRANCH  62  63
ATOM     63  C   UNL A   1      47.192  31.319  32.809  1.00  0.00     0.031 A 
ATOM     64  C   UNL A   1      45.849  31.960  32.598  1.00  0.00     0.074 A 
ATOM     65  C   UNL A   1      48.313  31.882  32.325  1.00  0.00     0.049 A 
ATOM     66  N   UNL A   1      45.538  33.018  31.899  1.00  0.00    -0.248 NA
ATOM     67  C   UNL A   1      44.701  31.318  33.263  1.00  0.00     0.031 C 
ATOM     68  C   UNL A   1      49.668  31.365  32.516  1.00  0.00     0.029 A 
ATOM     69  N   UNL A   1      48.484  33.005  31.558  1.00  0.00    -0.354 N 
ATOM     70  C   UNL A   1      44.162  33.162  32.027  1.00  0.00     0.074 A 
ATOM     71  C   UNL A   1      43.693  32.080  32.862  1.00  0.00     0.031 C 
ATOM     72  C   UNL A   1      50.531  32.154  31.852  1.00  0.00     0.029 A 
ATOM     73  C   UNL A   1      49.786  33.208  31.168  1.00  0.00     0.049 A 
ATOM     74  H   UNL A   1      47.746  33.608  31.311  1.00  0.00     0.167 HD
ATOM     75  C   UNL A   1      43.364  34.115  31.493  1.00  0.00     0.037 A 
ATOM     76  C   UNL A   1      50.305  34.123  30.324  1.00  0.00     0.037 A 
ATOM     77  C   UNL A   1      43.846  35.188  30.666  1.00  0.00     0.049 A 
ATOM     78  C   UNL A   1      49.386  35.141  29.697  1.00  0.00     0.074 A 
ATOM     79  C   UNL A   1      43.126  36.221  30.092  1.00  0.00     0.029 A 
ATOM     80  N   UNL A   1      45.169  35.361  30.289  1.00  0.00    -0.354 N 
ATOM     81  N   UNL A   1      48.090  35.286  29.849  1.00  0.00    -0.248 NA
ATOM     82  C   UNL A   1      49.996  36.121  28.786  1.00  0.00     0.031 C 
ATOM     83  C   UNL A   1      44.008  36.991  29.328  1.00  0.00     0.029 A 
ATOM     84  C   UNL A   1      45.284  36.470  29.469  1.00  0.00     0.049 A 
ATOM     85  H   UNL A   1      45.916  34.781  30.564  1.00  0.00     0.167 HD
ATOM     86  C   UNL A   1      47.736  36.388  29.076  1.00  0.00     0.074 A 
ATOM     87  C   UNL A   1      48.954  36.878  28.465  1.00  0.00     0.031 C 
ATOM     88  C   UNL A   1      46.515  36.946  28.889  1.00  0.00     0.037 A 
BRANCH  75  89
ATOM     89  C   UNL A   1      41.888  34.025  31.755  1.00  0.00     0.058 A 
ATOM     90  C   UNL A   1      41.297  34.633  32.873  1.00  0.00     0.135 A 
ATOM     91  C   UNL A   1      41.046  33.367  30.844  1.00  0.00     0.135 A 
ATOM     92  F   UNL A   1      42.059  35.254  33.788  1.00  0.00    -0.206 F 
ATOM     93  C   UNL A   1      39.922  34.586  33.083  1.00  0.00     0.059 A 
ATOM     94  C   UNL A   1      39.668  33.327  31.021  1.00  0.00     0.059 A 
ATOM     95  F   UNL A   1      41.565  32.760  29.764  1.00  0.00    -0.206 F 
ATOM     96  C   UNL A   1      39.115  33.935  32.146  1.00  0.00     0.060 A 
BRANCH  96  97
ATOM     97  S   UNL A   1      37.329  33.915  32.412  1.00  0.00     0.124 S 
ATOM     98  O   UNL A   1      36.834  34.300  31.093  1.00  0.00    -0.237 OA
ATOM     99  O   UNL A   1      37.087  32.530  32.800  1.00  0.00    -0.237 OA
ATOM    100  O   UNL A   1      37.132  34.903  33.468  1.00  0.00    -0.744 OA
ENDBRANCH  96  97
ENDBRANCH  75  89
BRANCH  76 101
ATOM    101  C   UNL A   1      51.754  34.095  29.989  1.00  0.00     0.058 A 
ATOM    102  C   UNL A   1      52.237  33.362  28.897  1.00  0.00     0.135 A 
ATOM    103  C   UNL A   1      52.688  34.794  30.770  1.00  0.00     0.135 A 
ATOM    104  F   UNL A   1      51.386  32.670  28.124  1.00  0.00    -0.206 F 
ATOM    105  C   UNL A   1      53.597  33.299  28.604  1.00  0.00     0.059 A 
ATOM    106  C   UNL A   1      54.049  34.770  30.482  1.00  0.00     0.059 A 
ATOM    107  F   UNL A   1      52.277  35.523  31.820  1.00  0.00    -0.206 F 
ATOM    108  C   UNL A   1      54.495  34.007  29.405  1.00  0.00     0.060 A 
BRANCH 108 109
ATOM    109  S   UNL A   1      56.254  33.945  29.001  1.00  0.00     0.124 S 
ATOM    110  O   UNL A   1      56.216  33.752  27.557  1.00  0.00    -0.237 OA
ATOM    111  O   UNL A   1      56.721  35.249  29.461  1.00  0.00    -0.237 OA
ATOM    112  O   UNL A   1      56.735  32.806  29.778  1.00  0.00    -0.744 OA
ENDBRANCH 108 109
ENDBRANCH  76 101
BRANCH  88 113
ATOM    113  C   UNL A   1      46.435  38.175  28.027  1.00  0.00     0.058 A 
ATOM    114  C   UNL A   1      46.287  38.089  26.635  1.00  0.00     0.135 A 
ATOM    115  C   UNL A   1      46.425  39.450  28.613  1.00  0.00     0.135 A 
ATOM    116  F   UNL A   1      46.295  36.893  26.026  1.00  0.00    -0.206 F 
ATOM    117  C   UNL A   1      46.144  39.229  25.850  1.00  0.00     0.059 A 
ATOM    118  C   UNL A   1      46.257  40.601  27.852  1.00  0.00     0.059 A 
ATOM    119  F   UNL A   1      46.552  39.584  29.943  1.00  0.00    -0.206 F 
ATOM    120  C   UNL A   1      46.126  40.481  26.470  1.00  0.00     0.060 A 
BRANCH 120 121
ATOM    121  S   UNL A   1      45.889  41.949  25.447  1.00  0.00     0.124 S 
ATOM    122  O   UNL A   1      45.475  41.360  24.178  1.00  0.00    -0.237 OA
ATOM    123  O   UNL A   1      44.853  42.675  26.177  1.00  0.00    -0.237 OA
ATOM    124  O   UNL A   1      47.206  42.580  25.447  1.00  0.00    -0.744 OA
ENDBRANCH 120 121
ENDBRANCH  88 113
ENDBRANCH  62  63
ENDBRANCH  55  57
ENDBRANCH  54  55
ENDBRANCH  53  54
ENDBRANCH  52  53
ENDBRANCH  51  52
ENDBRANCH  50  51
ENDBRANCH   1  50
TORSDOF 30
ENDMDL
MODEL 2
REMARK VINA RESULT:      -6.1      4.665      9.657
REMARK SMILES O=C(N[C@@H](Cc1ccc(O)cc1)C(=O)N[C@@H](Cc1c[nH]c2ccccc12)C(=O)N[C@@H](CO)C(=O)OCCOCCOC(=O)c1ccc(-c2c3nc(c(-c4c(F)cc(S(=O)(=O)[O-])cc4F)c4ccc([nH]4)c(-c4c(F)cc(S(=O)(=O)[O-])cc4F)c4nc(c(-c5c(F)cc(S(=O)(=O)[O-])cc5F)c5ccc2[nH]5)C=C4)C=C3)cc1)c1ccc(F)cc1
REMARK SMILES IDX 36 1 35 2 33 3 34 4 30 5 29 6 27 7 28 8 16 10 15 11 13 12
REMARK SMILES IDX 14 13 4 15 3 16 1 17 2 18 110 20 111 21 116 22 112 23 115 24
REMARK SMILES IDX 113 25 114 26 5 27 6 28 7 29 12 30 8 31 11 32 9 33 10 34
REMARK SMILES IDX 17 36 18 37 19 38 26 39 20 40 21 41 25 42 22 44 24 45 23 46
REMARK SMILES IDX 31 47 32 48 37 50 38 51 39 52 40 53 41 54 42 55 43 56 44 57
REMARK SMILES IDX 45 58 109 59 46 60 108 61 47 62 48 63 49 64 102 65 50 66
REMARK SMILES IDX 107 67 101 68 103 69 51 70 106 71 100 72 99 73 52 75 86 76
REMARK SMILES IDX 65 77 85 78 66 79 69 80 84 81 104 82 67 83 68 84 83 86
REMARK SMILES IDX 105 87 70 88 53 89 54 90 63 91 55 92 56 93 62 94 64 95 57 96
REMARK SMILES IDX 58 97 59 98 60 99 61 100 87 101 88 102 97 103 89 104 90 105
REMARK SMILES IDX 96 106 98 107 91 108 92 109 93 110 94 111 95 112 71 113
REMARK SMILES IDX 72 114 81 115 73 116 74 117 80 118 82 119 75 120 76 121
REMARK SMILES IDX 77 122 78 123 79 124
REMARK H PARENT 29 9 15 14 3 19 10 35 20 43 32 49 103 74 69 85
REMARK Flexibility Score: inf
ROOT
ATOM      1  C   UNL A   1      45.693  25.751  28.436  1.00  0.00     0.261 C 
ENDROOT
BRANCH   1   2
ATOM      2  O   UNL A   1      46.067  27.109  28.705  1.00  0.00    -0.462 OA
BRANCH   2   3
ATOM      3  C   UNL A   1      46.208  27.811  27.539  1.00  0.00     0.331 C 
ATOM      4  O   UNL A   1      45.667  27.458  26.487  1.00  0.00    -0.250 OA
BRANCH   3   5
ATOM      5  C   UNL A   1      47.144  29.266  27.702  1.00  0.00     0.218 C 
BRANCH   5   6
ATOM      6  N   UNL A   1      48.621  28.581  27.651  1.00  0.00    -0.339 N 
ATOM      7  C   UNL A   1      49.781  28.762  28.341  1.00  0.00     0.243 C 
ATOM      8  O   UNL A   1      50.741  28.438  27.626  1.00  0.00    -0.273 OA
ATOM      9  H   UNL A   1      48.692  27.877  26.967  1.00  0.00     0.164 HD
BRANCH   7  10
ATOM     10  C   UNL A   1      50.051  29.479  29.786  1.00  0.00     0.175 C 
BRANCH  10  11
ATOM     11  N   UNL A   1      49.318  28.840  30.921  1.00  0.00    -0.342 N 
ATOM     12  C   UNL A   1      48.116  28.905  31.543  1.00  0.00     0.243 C 
ATOM     13  O   UNL A   1      47.923  27.975  32.346  1.00  0.00    -0.273 OA
ATOM     14  H   UNL A   1      49.886  28.160  31.351  1.00  0.00     0.164 HD
BRANCH  12  15
ATOM     15  C   UNL A   1      46.990  29.976  31.399  1.00  0.00     0.176 C 
BRANCH  15  16
ATOM     16  N   UNL A   1      47.429  31.245  30.823  1.00  0.00    -0.340 N 
ATOM     17  O   UNL A   1      48.024  33.431  30.869  1.00  0.00    -0.269 OA
ATOM     18  C   UNL A   1      47.722  32.418  31.490  1.00  0.00     0.251 C 
ATOM     19  H   UNL A   1      47.526  31.267  29.843  1.00  0.00     0.164 HD
BRANCH  18  20
ATOM     20  C   UNL A   1      47.610  32.490  32.972  1.00  0.00     0.040 A 
ATOM     21  C   UNL A   1      46.531  33.134  33.595  1.00  0.00     0.017 A 
ATOM     22  C   UNL A   1      48.619  31.903  33.749  1.00  0.00     0.017 A 
ATOM     23  C   UNL A   1      46.503  33.250  34.988  1.00  0.00     0.040 A 
ATOM     24  C   UNL A   1      48.580  32.014  35.142  1.00  0.00     0.040 A 
ATOM     25  C   UNL A   1      47.530  32.697  35.747  1.00  0.00     0.123 A 
ATOM     26  F   UNL A   1      47.508  32.824  37.081  1.00  0.00    -0.207 F 
ENDBRANCH  18  20
ENDBRANCH  15  16
BRANCH  15  27
ATOM     27  C   UNL A   1      45.536  29.551  31.050  1.00  0.00     0.070 C 
BRANCH  27  28
ATOM     28  C   UNL A   1      44.469  30.604  30.924  1.00  0.00    -0.045 A 
ATOM     29  C   UNL A   1      43.841  30.761  29.703  1.00  0.00     0.007 A 
ATOM     30  C   UNL A   1      43.967  31.342  32.000  1.00  0.00     0.007 A 
ATOM     31  C   UNL A   1      42.841  31.706  29.481  1.00  0.00     0.046 A 
ATOM     32  C   UNL A   1      42.924  32.265  31.808  1.00  0.00     0.046 A 
ATOM     33  C   UNL A   1      42.387  32.458  30.543  1.00  0.00     0.115 A 
BRANCH  33  34
ATOM     34  O   UNL A   1      41.389  33.367  30.375  1.00  0.00    -0.508 OA
ATOM     35  H   UNL A   1      41.096  33.881  31.102  1.00  0.00     0.293 HD
ENDBRANCH  33  34
ENDBRANCH  27  28
ENDBRANCH  15  27
ENDBRANCH  12  15
ENDBRANCH  10  11
BRANCH  10  36
ATOM     36  C   UNL A   1      51.492  29.801  30.225  1.00  0.00     0.072 C 
BRANCH  36  37
ATOM     37  C   UNL A   1      51.717  30.805  31.346  1.00  0.00    -0.020 A 
ATOM     38  C   UNL A   1      52.334  32.043  31.113  1.00  0.00     0.087 A 
ATOM     39  C   UNL A   1      51.919  30.464  32.738  1.00  0.00     0.003 A 
ATOM     40  N   UNL A   1      53.222  32.446  32.115  1.00  0.00    -0.361 N 
ATOM     41  C   UNL A   1      53.359  31.447  33.044  1.00  0.00     0.046 A 
ATOM     42  C   UNL A   1      51.770  28.877  33.613  1.00  0.00     0.010 A 
ATOM     43  H   UNL A   1      53.681  33.316  32.149  1.00  0.00     0.166 HD
ATOM     44  C   UNL A   1      54.675  30.853  34.147  1.00  0.00     0.026 A 
ATOM     45  C   UNL A   1      53.117  28.232  34.605  1.00  0.00     0.001 A 
ATOM     46  C   UNL A   1      54.568  29.210  34.851  1.00  0.00     0.002 A 
ENDBRANCH  36  37
ENDBRANCH  10  36
ENDBRANCH   7  10
ENDBRANCH   5   6
BRANCH   5  47
ATOM     47  C   UNL A   1      46.591  31.357  27.299  1.00  0.00     0.193 C 
BRANCH  47  48
ATOM     48  O   UNL A   1      46.378  32.551  28.291  1.00  0.00    -0.394 OA
ATOM     49  H   UNL A   1      46.892  33.316  27.992  1.00  0.00     0.210 HD
ENDBRANCH  47  48
ENDBRANCH   5  47
ENDBRANCH   3   5
ENDBRANCH   2   3
ENDBRANCH   1   2
BRANCH   1  50
ATOM     50  C   UNL A   1      46.784  24.792  27.905  1.00  0.00     0.202 C 
BRANCH  50  51
ATOM     51  O   UNL A   1      46.440  23.690  27.079  1.00  0.00    -0.374 OA
BRANCH  51  52
ATOM     52  C   UNL A   1      45.065  23.362  26.901  1.00  0.00     0.202 C 
BRANCH  52  53
ATOM     53  C   UNL A   1      44.347  23.883  25.653  1.00  0.00     0.261 C 
BRANCH  53  54
ATOM     54  O   UNL A   1      43.487  24.996  25.957  1.00  0.00    -0.460 OA
BRANCH  54  55
ATOM     55  C   UNL A   1      42.264  24.653  26.432  1.00  0.00     0.338 C 
ATOM     56  O   UNL A   1      41.671  23.603  26.259  1.00  0.00    -0.246 OA
BRANCH  55  57
ATOM     57  C   UNL A   1      41.806  25.674  27.387  1.00  0.00     0.060 A 
ATOM     58  C   UNL A   1      42.538  26.866  27.479  1.00  0.00     0.016 A 
ATOM     59  C   UNL A   1      40.733  25.424  28.242  1.00  0.00     0.016 A 
ATOM     60  C   UNL A   1      42.211  27.810  28.446  1.00  0.00     0.010 A 
ATOM     61  C   UNL A   1      40.430  26.356  29.236  1.00  0.00     0.010 A 
ATOM     62  C   UNL A   1      41.188  27.534  29.360  1.00  0.00    -0.014 A 
BRANCH  62  63
ATOM     63  C   UNL A   1      41.049  28.381  30.565  1.00  0.00     0.031 A 
ATOM     64  C   UNL A   1      39.993  29.450  30.561  1.00  0.00     0.074 A 
ATOM     65  C   UNL A   1      41.838  28.190  31.637  1.00  0.00     0.049 A 
ATOM     66  N   UNL A   1      39.733  30.359  31.461  1.00  0.00    -0.248 NA
ATOM     67  C   UNL A   1      39.112  29.501  29.380  1.00  0.00     0.031 C 
ATOM     68  C   UNL A   1      42.860  27.150  31.758  1.00  0.00     0.029 A 
ATOM     69  N   UNL A   1      41.914  28.878  32.819  1.00  0.00    -0.354 N 
ATOM     70  C   UNL A   1      38.672  31.100  30.952  1.00  0.00     0.074 A 
ATOM     71  C   UNL A   1      38.339  30.541  29.661  1.00  0.00     0.031 C 
ATOM     72  C   UNL A   1      43.485  27.291  32.940  1.00  0.00     0.029 A 
ATOM     73  C   UNL A   1      42.928  28.446  33.641  1.00  0.00     0.049 A 
ATOM     74  H   UNL A   1      41.300  29.610  33.058  1.00  0.00     0.167 HD
ATOM     75  C   UNL A   1      38.035  32.151  31.517  1.00  0.00     0.037 A 
ATOM     76  C   UNL A   1      43.374  28.955  34.807  1.00  0.00     0.037 A 
ATOM     77  C   UNL A   1      38.376  32.693  32.803  1.00  0.00     0.049 A 
ATOM     78  C   UNL A   1      42.682  30.162  35.388  1.00  0.00     0.074 A 
ATOM     79  C   UNL A   1      37.779  33.744  33.479  1.00  0.00     0.029 A 
ATOM     80  N   UNL A   1      39.410  32.235  33.605  1.00  0.00    -0.354 N 
ATOM     81  N   UNL A   1      41.660  30.835  34.913  1.00  0.00    -0.248 NA
ATOM     82  C   UNL A   1      43.200  30.679  36.663  1.00  0.00     0.031 C 
ATOM     83  C   UNL A   1      38.484  33.949  34.669  1.00  0.00     0.029 A 
ATOM     84  C   UNL A   1      39.485  32.995  34.759  1.00  0.00     0.049 A 
ATOM     85  H   UNL A   1      40.002  31.479  33.386  1.00  0.00     0.167 HD
ATOM     86  C   UNL A   1      41.397  31.836  35.843  1.00  0.00     0.074 A 
ATOM     87  C   UNL A   1      42.359  31.675  36.913  1.00  0.00     0.031 C 
ATOM     88  C   UNL A   1      40.444  32.800  35.817  1.00  0.00     0.037 A 
BRANCH  75  89
ATOM     89  C   UNL A   1      36.931  32.805  30.737  1.00  0.00     0.058 A 
ATOM     90  C   UNL A   1      35.580  32.508  30.975  1.00  0.00     0.135 A 
ATOM     91  C   UNL A   1      37.228  33.784  29.775  1.00  0.00     0.135 A 
ATOM     92  F   UNL A   1      35.242  31.562  31.866  1.00  0.00    -0.206 F 
ATOM     93  C   UNL A   1      34.561  33.155  30.281  1.00  0.00     0.059 A 
ATOM     94  C   UNL A   1      36.226  34.460  29.087  1.00  0.00     0.059 A 
ATOM     95  F   UNL A   1      38.505  34.097  29.503  1.00  0.00    -0.206 F 
ATOM     96  C   UNL A   1      34.895  34.135  29.343  1.00  0.00     0.060 A 
BRANCH  96  97
ATOM     97  S   UNL A   1      33.561  34.992  28.479  1.00  0.00     0.124 S 
ATOM     98  O   UNL A   1      34.211  35.348  27.221  1.00  0.00    -0.237 OA
ATOM     99  O   UNL A   1      32.534  33.960  28.392  1.00  0.00    -0.237 OA
ATOM    100  O   UNL A   1      33.249  36.111  29.362  1.00  0.00    -0.744 OA
ENDBRANCH  96  97
ENDBRANCH  75  89
BRANCH  76 101
ATOM    101  C   UNL A   1      44.555  28.354  35.482  1.00  0.00     0.058 A 
ATOM    102  C   UNL A   1      44.421  27.273  36.364  1.00  0.00     0.135 A 
ATOM    103  C   UNL A   1      45.845  28.865  35.268  1.00  0.00     0.135 A 
ATOM    104  F   UNL A   1      43.209  26.753  36.609  1.00  0.00    -0.206 F 
ATOM    105  C   UNL A   1      45.518  26.734  37.030  1.00  0.00     0.059 A 
ATOM    106  C   UNL A   1      46.962  28.327  35.901  1.00  0.00     0.059 A 
ATOM    107  F   UNL A   1      46.031  29.892  34.423  1.00  0.00    -0.206 F 
ATOM    108  C   UNL A   1      46.785  27.270  36.792  1.00  0.00     0.060 A 
BRANCH 108 109
ATOM    109  S   UNL A   1      48.208  26.547  37.637  1.00  0.00     0.124 S 
ATOM    110  O   UNL A   1      48.225  27.306  38.882  1.00  0.00    -0.237 OA
ATOM    111  O   UNL A   1      47.819  25.144  37.748  1.00  0.00    -0.237 OA
ATOM    112  O   UNL A   1      49.312  26.813  36.719  1.00  0.00    -0.744 OA
ENDBRANCH 108 109
ENDBRANCH  76 101
BRANCH  88 113
ATOM    113  C   UNL A   1      40.361  33.730  36.996  1.00  0.00     0.058 A 
ATOM    114  C   UNL A   1      41.120  34.908  37.059  1.00  0.00     0.135 A 
ATOM    115  C   UNL A   1      39.450  33.476  38.033  1.00  0.00     0.135 A 
ATOM    116  F   UNL A   1      42.008  35.193  36.094  1.00  0.00    -0.206 F 
ATOM    117  C   UNL A   1      40.987  35.799  38.119  1.00  0.00     0.059 A 
ATOM    118  C   UNL A   1      39.282  34.365  39.089  1.00  0.00     0.059 A 
ATOM    119  F   UNL A   1      38.693  32.368  38.012  1.00  0.00    -0.206 F 
ATOM    120  C   UNL A   1      40.062  35.520  39.128  1.00  0.00     0.060 A 
BRANCH 120 121
ATOM    121  S   UNL A   1      39.862  36.708  40.472  1.00  0.00     0.124 S 
ATOM    122  O   UNL A   1      38.478  36.474  40.868  1.00  0.00    -0.237 OA
ATOM    123  O   UNL A   1      40.877  36.273  41.427  1.00  0.00    -0.237 OA
ATOM    124  O   UNL A   1      40.124  37.993  39.831  1.00  0.00    -0.744 OA
ENDBRANCH 120 121
ENDBRANCH  88 113
ENDBRANCH  62  63
ENDBRANCH  55  57
ENDBRANCH  54  55
ENDBRANCH  53  54
ENDBRANCH  52  53
ENDBRANCH  51  52
ENDBRANCH  50  51
ENDBRANCH   1  50
TORSDOF 30
ENDMDL
MODEL 3
REMARK VINA RESULT:      -6.0      4.152     11.208
REMARK SMILES O=C(N[C@@H](Cc1ccc(O)cc1)C(=O)N[C@@H](Cc1c[nH]c2ccccc12)C(=O)N[C@@H](CO)C(=O)OCCOCCOC(=O)c1ccc(-c2c3nc(c(-c4c(F)cc(S(=O)(=O)[O-])cc4F)c4ccc([nH]4)c(-c4c(F)cc(S(=O)(=O)[O-])cc4F)c4nc(c(-c5c(F)cc(S(=O)(=O)[O-])cc5F)c5ccc2[nH]5)C=C4)C=C3)cc1)c1ccc(F)cc1
REMARK SMILES IDX 36 1 35 2 33 3 34 4 30 5 29 6 27 7 28 8 16 10 15 11 13 12
REMARK SMILES IDX 14 13 4 15 3 16 1 17 2 18 110 20 111 21 116 22 112 23 115 24
REMARK SMILES IDX 113 25 114 26 5 27 6 28 7 29 12 30 8 31 11 32 9 33 10 34
REMARK SMILES IDX 17 36 18 37 19 38 26 39 20 40 21 41 25 42 22 44 24 45 23 46
REMARK SMILES IDX 31 47 32 48 37 50 38 51 39 52 40 53 41 54 42 55 43 56 44 57
REMARK SMILES IDX 45 58 109 59 46 60 108 61 47 62 48 63 49 64 102 65 50 66
REMARK SMILES IDX 107 67 101 68 103 69 51 70 106 71 100 72 99 73 52 75 86 76
REMARK SMILES IDX 65 77 85 78 66 79 69 80 84 81 104 82 67 83 68 84 83 86
REMARK SMILES IDX 105 87 70 88 53 89 54 90 63 91 55 92 56 93 62 94 64 95 57 96
REMARK SMILES IDX 58 97 59 98 60 99 61 100 87 101 88 102 97 103 89 104 90 105
REMARK SMILES IDX 96 106 98 107 91 108 92 109 93 110 94 111 95 112 71 113
REMARK SMILES IDX 72 114 81 115 73 116 74 117 80 118 82 119 75 120 76 121
REMARK SMILES IDX 77 122 78 123 79 124
REMARK H PARENT 29 9 15 14 3 19 10 35 20 43 32 49 103 74 69 85
REMARK Flexibility Score: inf
ROOT
ATOM      1  C   UNL A   1      45.067  25.044  27.905  1.00  0.00     0.261 C 
ENDROOT
BRANCH   1   2
ATOM      2  O   UNL A   1      45.468  26.383  27.579  1.00  0.00    -0.462 OA
BRANCH   2   3
ATOM      3  C   UNL A   1      45.687  26.507  26.235  1.00  0.00     0.331 C 
ATOM      4  O   UNL A   1      44.804  26.286  25.400  1.00  0.00    -0.250 OA
BRANCH   3   5
ATOM      5  C   UNL A   1      47.279  27.072  25.829  1.00  0.00     0.218 C 
BRANCH   5   6
ATOM      6  N   UNL A   1      47.930  26.978  27.319  1.00  0.00    -0.339 N 
ATOM      7  C   UNL A   1      48.717  27.796  28.070  1.00  0.00     0.243 C 
ATOM      8  O   UNL A   1      49.388  27.112  28.858  1.00  0.00    -0.273 OA
ATOM      9  H   UNL A   1      47.704  26.139  27.781  1.00  0.00     0.164 HD
BRANCH   7  10
ATOM     10  C   UNL A   1      49.010  29.399  27.933  1.00  0.00     0.175 C 
BRANCH  10  11
ATOM     11  N   UNL A   1      48.890  30.145  29.223  1.00  0.00    -0.342 N 
ATOM     12  C   UNL A   1      48.176  31.160  29.767  1.00  0.00     0.243 C 
ATOM     13  O   UNL A   1      48.326  31.265  30.997  1.00  0.00    -0.273 OA
ATOM     14  H   UNL A   1      49.529  29.788  29.882  1.00  0.00     0.164 HD
BRANCH  12  15
ATOM     15  C   UNL A   1      47.240  32.193  29.065  1.00  0.00     0.176 C 
BRANCH  15  16
ATOM     16  N   UNL A   1      47.918  33.393  28.578  1.00  0.00    -0.340 N 
ATOM     17  O   UNL A   1      48.555  35.566  28.640  1.00  0.00    -0.269 OA
ATOM     18  C   UNL A   1      48.001  34.624  29.196  1.00  0.00     0.251 C 
ATOM     19  H   UNL A   1      48.366  33.314  27.705  1.00  0.00     0.164 HD
BRANCH  18  20
ATOM     20  C   UNL A   1      47.359  34.848  30.519  1.00  0.00     0.040 A 
ATOM     21  C   UNL A   1      46.017  35.241  30.626  1.00  0.00     0.017 A 
ATOM     22  C   UNL A   1      48.130  34.665  31.677  1.00  0.00     0.017 A 
ATOM     23  C   UNL A   1      45.473  35.519  31.885  1.00  0.00     0.040 A 
ATOM     24  C   UNL A   1      47.578  34.935  32.932  1.00  0.00     0.040 A 
ATOM     25  C   UNL A   1      46.260  35.371  33.023  1.00  0.00     0.123 A 
ATOM     26  F   UNL A   1      45.741  35.654  34.226  1.00  0.00    -0.207 F 
ENDBRANCH  18  20
ENDBRANCH  15  16
BRANCH  15  27
ATOM     27  C   UNL A   1      46.035  31.712  28.210  1.00  0.00     0.070 C 
BRANCH  27  28
ATOM     28  C   UNL A   1      45.161  32.729  27.527  1.00  0.00    -0.045 A 
ATOM     29  C   UNL A   1      44.964  32.617  26.164  1.00  0.00     0.007 A 
ATOM     30  C   UNL A   1      44.417  33.701  28.203  1.00  0.00     0.007 A 
ATOM     31  C   UNL A   1      44.174  33.505  25.437  1.00  0.00     0.046 A 
ATOM     32  C   UNL A   1      43.575  34.575  27.494  1.00  0.00     0.046 A 
ATOM     33  C   UNL A   1      43.481  34.486  26.112  1.00  0.00     0.115 A 
BRANCH  33  34
ATOM     34  O   UNL A   1      42.673  35.353  25.443  1.00  0.00    -0.508 OA
ATOM     35  H   UNL A   1      42.961  35.738  24.639  1.00  0.00     0.293 HD
ENDBRANCH  33  34
ENDBRANCH  27  28
ENDBRANCH  15  27
ENDBRANCH  12  15
ENDBRANCH  10  11
BRANCH  10  36
ATOM     36  C   UNL A   1      50.258  29.889  27.174  1.00  0.00     0.072 C 
BRANCH  36  37
ATOM     37  C   UNL A   1      51.577  29.154  27.367  1.00  0.00    -0.020 A 
ATOM     38  C   UNL A   1      52.528  29.582  28.305  1.00  0.00     0.087 A 
ATOM     39  C   UNL A   1      52.273  28.411  26.338  1.00  0.00     0.003 A 
ATOM     40  N   UNL A   1      53.853  29.495  27.868  1.00  0.00    -0.361 N 
ATOM     41  C   UNL A   1      53.885  29.111  26.552  1.00  0.00     0.046 A 
ATOM     42  C   UNL A   1      51.767  27.940  24.656  1.00  0.00     0.010 A 
ATOM     43  H   UNL A   1      54.646  29.681  28.422  1.00  0.00     0.166 HD
ATOM     44  C   UNL A   1      54.969  29.408  25.125  1.00  0.00     0.026 A 
ATOM     45  C   UNL A   1      52.781  28.342  23.233  1.00  0.00     0.001 A 
ATOM     46  C   UNL A   1      54.364  29.089  23.470  1.00  0.00     0.002 A 
ENDBRANCH  36  37
ENDBRANCH  10  36
ENDBRANCH   7  10
ENDBRANCH   5   6
BRANCH   5  47
ATOM     47  C   UNL A   1      48.310  27.123  23.885  1.00  0.00     0.193 C 
BRANCH  47  48
ATOM     48  O   UNL A   1      48.309  26.080  22.717  1.00  0.00    -0.394 OA
ATOM     49  H   UNL A   1      48.575  26.516  21.893  1.00  0.00     0.210 HD
ENDBRANCH  47  48
ENDBRANCH   5  47
ENDBRANCH   3   5
ENDBRANCH   2   3
ENDBRANCH   1   2
BRANCH   1  50
ATOM     50  C   UNL A   1      45.957  23.882  27.408  1.00  0.00     0.202 C 
BRANCH  50  51
ATOM     51  O   UNL A   1      45.375  22.703  26.870  1.00  0.00    -0.374 OA
BRANCH  51  52
ATOM     52  C   UNL A   1      43.957  22.575  26.859  1.00  0.00     0.202 C 
BRANCH  52  53
ATOM     53  C   UNL A   1      43.242  22.505  25.507  1.00  0.00     0.261 C 
BRANCH  53  54
ATOM     54  O   UNL A   1      42.279  23.564  25.355  1.00  0.00    -0.460 OA
BRANCH  54  55
ATOM     55  C   UNL A   1      41.162  23.425  26.113  1.00  0.00     0.338 C 
ATOM     56  O   UNL A   1      40.514  22.410  26.297  1.00  0.00    -0.246 OA
BRANCH  55  57
ATOM     57  C   UNL A   1      40.932  24.662  26.875  1.00  0.00     0.060 A 
ATOM     58  C   UNL A   1      41.721  25.780  26.571  1.00  0.00     0.016 A 
ATOM     59  C   UNL A   1      40.022  24.693  27.932  1.00  0.00     0.016 A 
ATOM     60  C   UNL A   1      41.620  26.933  27.342  1.00  0.00     0.010 A 
ATOM     61  C   UNL A   1      39.948  25.838  28.727  1.00  0.00     0.010 A 
ATOM     62  C   UNL A   1      40.768  26.947  28.452  1.00  0.00    -0.014 A 
BRANCH  62  63
ATOM     63  C   UNL A   1      40.889  28.041  29.441  1.00  0.00     0.031 A 
ATOM     64  C   UNL A   1      42.004  27.966  30.445  1.00  0.00     0.074 A 
ATOM     65  C   UNL A   1      40.033  29.077  29.431  1.00  0.00     0.049 A 
ATOM     66  N   UNL A   1      42.267  28.758  31.450  1.00  0.00    -0.248 NA
ATOM     67  C   UNL A   1      42.951  26.846  30.298  1.00  0.00     0.031 C 
ATOM     68  C   UNL A   1      38.947  29.266  28.469  1.00  0.00     0.029 A 
ATOM     69  N   UNL A   1      39.933  30.155  30.271  1.00  0.00    -0.354 N 
ATOM     70  C   UNL A   1      43.395  28.226  32.063  1.00  0.00     0.074 A 
ATOM     71  C   UNL A   1      43.766  27.040  31.325  1.00  0.00     0.031 C 
ATOM     72  C   UNL A   1      38.268  30.379  28.795  1.00  0.00     0.029 A 
ATOM     73  C   UNL A   1      38.851  30.961  30.001  1.00  0.00     0.049 A 
ATOM     74  H   UNL A   1      40.573  30.337  30.995  1.00  0.00     0.167 HD
ATOM     75  C   UNL A   1      44.060  28.691  33.146  1.00  0.00     0.037 A 
ATOM     76  C   UNL A   1      38.372  32.023  30.679  1.00  0.00     0.037 A 
ATOM     77  C   UNL A   1      43.682  29.874  33.868  1.00  0.00     0.049 A 
ATOM     78  C   UNL A   1      39.100  32.488  31.916  1.00  0.00     0.074 A 
ATOM     79  C   UNL A   1      44.300  30.447  34.965  1.00  0.00     0.029 A 
ATOM     80  N   UNL A   1      42.580  30.662  33.570  1.00  0.00    -0.354 N 
ATOM     81  N   UNL A   1      40.184  31.995  32.469  1.00  0.00    -0.248 NA
ATOM     82  C   UNL A   1      38.544  33.652  32.620  1.00  0.00     0.031 C 
ATOM     83  C   UNL A   1      43.544  31.554  35.360  1.00  0.00     0.029 A 
ATOM     84  C   UNL A   1      42.486  31.703  34.477  1.00  0.00     0.049 A 
ATOM     85  H   UNL A   1      41.958  30.505  32.823  1.00  0.00     0.167 HD
ATOM     86  C   UNL A   1      40.453  32.805  33.567  1.00  0.00     0.074 A 
ATOM     87  C   UNL A   1      39.426  33.825  33.596  1.00  0.00     0.031 C 
ATOM     88  C   UNL A   1      41.461  32.716  34.470  1.00  0.00     0.037 A 
BRANCH  75  89
ATOM     89  C   UNL A   1      45.242  27.904  33.636  1.00  0.00     0.058 A 
ATOM     90  C   UNL A   1      45.105  26.867  34.571  1.00  0.00     0.135 A 
ATOM     91  C   UNL A   1      46.524  28.158  33.120  1.00  0.00     0.135 A 
ATOM     92  F   UNL A   1      43.906  26.599  35.114  1.00  0.00    -0.206 F 
ATOM     93  C   UNL A   1      46.199  26.111  34.982  1.00  0.00     0.059 A 
ATOM     94  C   UNL A   1      47.627  27.401  33.500  1.00  0.00     0.059 A 
ATOM     95  F   UNL A   1      46.709  29.147  32.231  1.00  0.00    -0.206 F 
ATOM     96  C   UNL A   1      47.456  26.383  34.435  1.00  0.00     0.060 A 
BRANCH  96  97
ATOM     97  S   UNL A   1      48.858  25.369  34.951  1.00  0.00     0.124 S 
ATOM     98  O   UNL A   1      49.684  26.349  35.649  1.00  0.00    -0.237 OA
ATOM     99  O   UNL A   1      48.221  24.362  35.793  1.00  0.00    -0.237 OA
ATOM    100  O   UNL A   1      49.401  24.875  33.690  1.00  0.00    -0.744 OA
ENDBRANCH  96  97
ENDBRANCH  75  89
BRANCH  76 101
ATOM    101  C   UNL A   1      37.123  32.694  30.232  1.00  0.00     0.058 A 
ATOM    102  C   UNL A   1      37.139  33.681  29.237  1.00  0.00     0.135 A 
ATOM    103  C   UNL A   1      35.884  32.370  30.808  1.00  0.00     0.135 A 
ATOM    104  F   UNL A   1      38.299  34.034  28.662  1.00  0.00    -0.206 F 
ATOM    105  C   UNL A   1      35.978  34.341  28.845  1.00  0.00     0.059 A 
ATOM    106  C   UNL A   1      34.705  32.996  30.414  1.00  0.00     0.059 A 
ATOM    107  F   UNL A   1      35.810  31.422  31.756  1.00  0.00    -0.206 F 
ATOM    108  C   UNL A   1      34.766  33.992  29.441  1.00  0.00     0.060 A 
BRANCH 108 109
ATOM    109  S   UNL A   1      33.260  34.832  28.907  1.00  0.00     0.124 S 
ATOM    110  O   UNL A   1      33.798  36.057  28.326  1.00  0.00    -0.237 OA
ATOM    111  O   UNL A   1      32.691  33.874  27.963  1.00  0.00    -0.237 OA
ATOM    112  O   UNL A   1      32.510  34.998  30.149  1.00  0.00    -0.744 OA
ENDBRANCH 108 109
ENDBRANCH  76 101
BRANCH  88 113
ATOM    113  C   UNL A   1      41.532  33.770  35.540  1.00  0.00     0.058 A 
ATOM    114  C   UNL A   1      40.946  33.580  36.801  1.00  0.00     0.135 A 
ATOM    115  C   UNL A   1      42.267  34.946  35.326  1.00  0.00     0.135 A 
ATOM    116  F   UNL A   1      40.229  32.474  37.054  1.00  0.00    -0.206 F 
ATOM    117  C   UNL A   1      41.075  34.530  37.809  1.00  0.00     0.059 A 
ATOM    118  C   UNL A   1      42.432  35.896  36.327  1.00  0.00     0.059 A 
ATOM    119  F   UNL A   1      42.857  35.167  34.140  1.00  0.00    -0.206 F 
ATOM    120  C   UNL A   1      41.824  35.683  37.563  1.00  0.00     0.060 A 
BRANCH 120 121
ATOM    121  S   UNL A   1      42.028  36.884  38.896  1.00  0.00     0.124 S 
ATOM    122  O   UNL A   1      43.055  37.762  38.346  1.00  0.00    -0.237 OA
ATOM    123  O   UNL A   1      40.691  37.461  39.004  1.00  0.00    -0.237 OA
ATOM    124  O   UNL A   1      42.443  36.064  40.031  1.00  0.00    -0.744 OA
ENDBRANCH 120 121
ENDBRANCH  88 113
ENDBRANCH  62  63
ENDBRANCH  55  57
ENDBRANCH  54  55
ENDBRANCH  53  54
ENDBRANCH  52  53
ENDBRANCH  51  52
ENDBRANCH  50  51
ENDBRANCH   1  50
TORSDOF 30
ENDMDL
