MODEL 1
REMARK VINA RESULT:      -9.9      0.000      0.000
REMARK SMILES C[C@H](C(=O)OCCOCCOC(=O)c1ccc(-c2c3nc(c(-c4c(F)cc(S(=O)(=O)[O-])cc4F)c4ccc([nH]4)c(-c4c(F)cc(S(=O)(=O)[O-])cc4F)c4nc(c(-c5c(F)cc(S(=O)(=O)[O-])cc5F)c5ccc2[nH]5)C=C4)C=C3)cc1)c1ccc(-c2ccccc2)c(F)c1
REMARK SMILES IDX 9 1 8 2 7 3 6 4 5 5 3 6 4 7 2 8 1 9 80 10 81 11 92 12 82 13
REMARK SMILES IDX 90 14 83 15 91 16 84 17 85 18 89 19 86 20 88 21 87 22 10 23
REMARK SMILES IDX 11 24 12 25 13 26 14 27 15 28 79 29 16 30 78 31 17 32 18 33
REMARK SMILES IDX 19 34 72 35 20 36 77 37 71 38 73 39 21 40 76 41 70 42 69 43
REMARK SMILES IDX 22 45 56 46 35 47 55 48 36 49 39 50 54 51 74 52 37 53 38 54
REMARK SMILES IDX 53 56 75 57 40 58 23 59 24 60 33 61 25 62 26 63 32 64 34 65
REMARK SMILES IDX 27 66 28 67 29 68 30 69 31 70 57 71 58 72 67 73 59 74 60 75
REMARK SMILES IDX 66 76 68 77 61 78 62 79 63 80 64 81 65 82 41 83 42 84 51 85
REMARK SMILES IDX 43 86 44 87 50 88 52 89 45 90 46 91 47 92 48 93 49 94
REMARK H PARENT 73 44 39 55
REMARK Flexibility Score: inf
ROOT
ATOM      1  C   UNL A   1      41.838  19.964  26.486  1.00  0.00     0.202 C 
ENDROOT
BRANCH   1   2
ATOM      2  O   UNL A   1      42.273  19.237  25.342  1.00  0.00    -0.374 OA
BRANCH   2   3
ATOM      3  C   UNL A   1      43.591  18.684  25.380  1.00  0.00     0.202 C 
BRANCH   3   4
ATOM      4  C   UNL A   1      44.624  19.324  24.446  1.00  0.00     0.261 C 
BRANCH   4   5
ATOM      5  O   UNL A   1      44.413  20.743  24.329  1.00  0.00    -0.463 OA
BRANCH   5   6
ATOM      6  C   UNL A   1      45.140  21.535  25.166  1.00  0.00     0.313 C 
ATOM      7  O   UNL A   1      46.189  21.206  25.709  1.00  0.00    -0.252 OA
BRANCH   6   8
ATOM      8  C   UNL A   1      44.491  22.899  25.383  1.00  0.00     0.126 C 
ATOM      9  C   UNL A   1      43.097  23.065  24.776  1.00  0.00     0.025 C 
BRANCH   8  10
ATOM     10  C   UNL A   1      44.494  23.300  26.841  1.00  0.00    -0.031 A 
ATOM     11  C   UNL A   1      43.342  23.100  27.613  1.00  0.00     0.005 A 
ATOM     12  C   UNL A   1      45.629  23.852  27.450  1.00  0.00     0.044 A 
ATOM     13  C   UNL A   1      43.317  23.471  28.958  1.00  0.00     0.012 A 
ATOM     14  C   UNL A   1      45.590  24.229  28.789  1.00  0.00     0.131 A 
ATOM     15  C   UNL A   1      44.439  24.054  29.566  1.00  0.00     0.017 A 
ATOM     16  F   UNL A   1      46.694  24.771  29.325  1.00  0.00    -0.206 F 
BRANCH  15  17
ATOM     17  C   UNL A   1      44.377  24.490  30.963  1.00  0.00    -0.015 A 
ATOM     18  C   UNL A   1      44.332  23.556  32.010  1.00  0.00     0.009 A 
ATOM     19  C   UNL A   1      44.329  25.856  31.284  1.00  0.00     0.009 A 
ATOM     20  C   UNL A   1      44.237  23.976  33.338  1.00  0.00     0.001 A 
ATOM     21  C   UNL A   1      44.229  26.277  32.610  1.00  0.00     0.001 A 
ATOM     22  C   UNL A   1      44.181  25.336  33.636  1.00  0.00     0.000 A 
ENDBRANCH  15  17
ENDBRANCH   8  10
ENDBRANCH   6   8
ENDBRANCH   5   6
ENDBRANCH   4   5
ENDBRANCH   3   4
ENDBRANCH   2   3
ENDBRANCH   1   2
BRANCH   1  23
ATOM     23  C   UNL A   1      40.396  20.486  26.476  1.00  0.00     0.261 C 
BRANCH  23  24
ATOM     24  O   UNL A   1      40.267  21.775  27.101  1.00  0.00    -0.460 OA
BRANCH  24  25
ATOM     25  C   UNL A   1      39.430  22.623  26.452  1.00  0.00     0.338 C 
ATOM     26  O   UNL A   1      38.545  22.320  25.668  1.00  0.00    -0.246 OA
BRANCH  25  27
ATOM     27  C   UNL A   1      39.601  24.004  26.943  1.00  0.00     0.060 A 
ATOM     28  C   UNL A   1      40.072  24.949  26.024  1.00  0.00     0.016 A 
ATOM     29  C   UNL A   1      39.410  24.350  28.283  1.00  0.00     0.016 A 
ATOM     30  C   UNL A   1      40.423  26.226  26.454  1.00  0.00     0.010 A 
ATOM     31  C   UNL A   1      39.768  25.633  28.715  1.00  0.00     0.010 A 
ATOM     32  C   UNL A   1      40.319  26.560  27.809  1.00  0.00    -0.014 A 
BRANCH  32  33
ATOM     33  C   UNL A   1      40.949  27.816  28.290  1.00  0.00     0.031 A 
ATOM     34  C   UNL A   1      42.441  27.975  28.164  1.00  0.00     0.074 A 
ATOM     35  C   UNL A   1      40.197  28.823  28.768  1.00  0.00     0.049 A 
ATOM     36  N   UNL A   1      43.199  28.984  28.505  1.00  0.00    -0.248 NA
ATOM     37  C   UNL A   1      43.175  26.844  27.571  1.00  0.00     0.031 C 
ATOM     38  C   UNL A   1      38.741  28.802  28.899  1.00  0.00     0.029 A 
ATOM     39  N   UNL A   1      40.559  30.062  29.232  1.00  0.00    -0.354 N 
ATOM     40  C   UNL A   1      44.497  28.611  28.173  1.00  0.00     0.074 A 
ATOM     41  C   UNL A   1      44.428  27.272  27.632  1.00  0.00     0.031 C 
ATOM     42  C   UNL A   1      38.333  29.973  29.418  1.00  0.00     0.029 A 
ATOM     43  C   UNL A   1      39.498  30.814  29.680  1.00  0.00     0.049 A 
ATOM     44  H   UNL A   1      41.490  30.384  29.244  1.00  0.00     0.167 HD
ATOM     45  C   UNL A   1      45.641  29.327  28.296  1.00  0.00     0.037 A 
ATOM     46  C   UNL A   1      39.476  32.035  30.251  1.00  0.00     0.037 A 
ATOM     47  C   UNL A   1      45.704  30.661  28.831  1.00  0.00     0.049 A 
ATOM     48  C   UNL A   1      40.768  32.789  30.432  1.00  0.00     0.074 A 
ATOM     49  C   UNL A   1      46.812  31.475  28.989  1.00  0.00     0.029 A 
ATOM     50  N   UNL A   1      44.613  31.376  29.302  1.00  0.00    -0.354 N 
ATOM     51  N   UNL A   1      41.985  32.431  30.098  1.00  0.00    -0.248 NA
ATOM     52  C   UNL A   1      40.683  34.113  31.064  1.00  0.00     0.031 C 
ATOM     53  C   UNL A   1      46.398  32.665  29.594  1.00  0.00     0.029 A 
ATOM     54  C   UNL A   1      45.023  32.613  29.770  1.00  0.00     0.049 A 
ATOM     55  H   UNL A   1      43.683  31.053  29.303  1.00  0.00     0.167 HD
ATOM     56  C   UNL A   1      42.807  33.495  30.457  1.00  0.00     0.074 A 
ATOM     57  C   UNL A   1      41.947  34.513  31.023  1.00  0.00     0.031 C 
ATOM     58  C   UNL A   1      44.152  33.619  30.327  1.00  0.00     0.037 A 
BRANCH  45  59
ATOM     59  C   UNL A   1      46.922  28.668  27.863  1.00  0.00     0.058 A 
ATOM     60  C   UNL A   1      47.421  28.807  26.558  1.00  0.00     0.135 A 
ATOM     61  C   UNL A   1      47.674  27.908  28.774  1.00  0.00     0.135 A 
ATOM     62  F   UNL A   1      46.733  29.507  25.642  1.00  0.00    -0.206 F 
ATOM     63  C   UNL A   1      48.608  28.196  26.163  1.00  0.00     0.059 A 
ATOM     64  C   UNL A   1      48.876  27.310  28.409  1.00  0.00     0.059 A 
ATOM     65  F   UNL A   1      47.242  27.741  30.033  1.00  0.00    -0.206 F 
ATOM     66  C   UNL A   1      49.327  27.447  27.096  1.00  0.00     0.060 A 
BRANCH  66  67
ATOM     67  S   UNL A   1      50.864  26.658  26.571  1.00  0.00     0.124 S 
ATOM     68  O   UNL A   1      50.749  25.348  27.204  1.00  0.00    -0.237 OA
ATOM     69  O   UNL A   1      50.742  26.672  25.117  1.00  0.00    -0.237 OA
ATOM     70  O   UNL A   1      51.899  27.530  27.119  1.00  0.00    -0.744 OA
ENDBRANCH  66  67
ENDBRANCH  45  59
BRANCH  46  71
ATOM     71  C   UNL A   1      38.184  32.616  30.704  1.00  0.00     0.058 A 
ATOM     72  C   UNL A   1      37.370  33.353  29.832  1.00  0.00     0.135 A 
ATOM     73  C   UNL A   1      37.736  32.437  32.023  1.00  0.00     0.135 A 
ATOM     74  F   UNL A   1      37.760  33.561  28.566  1.00  0.00    -0.206 F 
ATOM     75  C   UNL A   1      36.162  33.902  30.253  1.00  0.00     0.059 A 
ATOM     76  C   UNL A   1      36.521  32.955  32.460  1.00  0.00     0.059 A 
ATOM     77  F   UNL A   1      38.475  31.732  32.894  1.00  0.00    -0.206 F 
ATOM     78  C   UNL A   1      35.746  33.695  31.569  1.00  0.00     0.060 A 
BRANCH  78  79
ATOM     79  S   UNL A   1      34.153  34.368  32.091  1.00  0.00     0.124 S 
ATOM     80  O   UNL A   1      33.463  34.512  30.814  1.00  0.00    -0.237 OA
ATOM     81  O   UNL A   1      33.650  33.318  32.973  1.00  0.00    -0.237 OA
ATOM     82  O   UNL A   1      34.516  35.614  32.758  1.00  0.00    -0.744 OA
ENDBRANCH  78  79
ENDBRANCH  46  71
BRANCH  58  83
ATOM     83  C   UNL A   1      44.777  34.910  30.777  1.00  0.00     0.058 A 
ATOM     84  C   UNL A   1      44.878  36.018  29.922  1.00  0.00     0.135 A 
ATOM     85  C   UNL A   1      45.229  35.058  32.099  1.00  0.00     0.135 A 
ATOM     86  F   UNL A   1      44.465  35.927  28.648  1.00  0.00    -0.206 F 
ATOM     87  C   UNL A   1      45.426  37.222  30.353  1.00  0.00     0.059 A 
ATOM     88  C   UNL A   1      45.757  36.260  32.559  1.00  0.00     0.059 A 
ATOM     89  F   UNL A   1      45.144  34.033  32.962  1.00  0.00    -0.206 F 
ATOM     90  C   UNL A   1      45.862  37.333  31.676  1.00  0.00     0.060 A 
BRANCH  90  91
ATOM     91  S   UNL A   1      46.541  38.910  32.234  1.00  0.00     0.124 S 
ATOM     92  O   UNL A   1      47.497  39.211  31.174  1.00  0.00    -0.237 OA
ATOM     93  O   UNL A   1      45.356  39.762  32.280  1.00  0.00    -0.237 OA
ATOM     94  O   UNL A   1      47.124  38.588  33.533  1.00  0.00    -0.744 OA
ENDBRANCH  90  91
ENDBRANCH  58  83
ENDBRANCH  32  33
ENDBRANCH  25  27
ENDBRANCH  24  25
ENDBRANCH  23  24
ENDBRANCH   1  23
TORSDOF 19
ENDMDL
MODEL 2
REMARK VINA RESULT:      -9.8      1.524      2.394
REMARK SMILES C[C@H](C(=O)OCCOCCOC(=O)c1ccc(-c2c3nc(c(-c4c(F)cc(S(=O)(=O)[O-])cc4F)c4ccc([nH]4)c(-c4c(F)cc(S(=O)(=O)[O-])cc4F)c4nc(c(-c5c(F)cc(S(=O)(=O)[O-])cc5F)c5ccc2[nH]5)C=C4)C=C3)cc1)c1ccc(-c2ccccc2)c(F)c1
REMARK SMILES IDX 9 1 8 2 7 3 6 4 5 5 3 6 4 7 2 8 1 9 80 10 81 11 92 12 82 13
REMARK SMILES IDX 90 14 83 15 91 16 84 17 85 18 89 19 86 20 88 21 87 22 10 23
REMARK SMILES IDX 11 24 12 25 13 26 14 27 15 28 79 29 16 30 78 31 17 32 18 33
REMARK SMILES IDX 19 34 72 35 20 36 77 37 71 38 73 39 21 40 76 41 70 42 69 43
REMARK SMILES IDX 22 45 56 46 35 47 55 48 36 49 39 50 54 51 74 52 37 53 38 54
REMARK SMILES IDX 53 56 75 57 40 58 23 59 24 60 33 61 25 62 26 63 32 64 34 65
REMARK SMILES IDX 27 66 28 67 29 68 30 69 31 70 57 71 58 72 67 73 59 74 60 75
REMARK SMILES IDX 66 76 68 77 61 78 62 79 63 80 64 81 65 82 41 83 42 84 51 85
REMARK SMILES IDX 43 86 44 87 50 88 52 89 45 90 46 91 47 92 48 93 49 94
REMARK H PARENT 73 44 39 55
REMARK Flexibility Score: inf
ROOT
ATOM      1  C   UNL A   1      41.938  19.580  26.405  1.00  0.00     0.202 C 
ENDROOT
BRANCH   1   2
ATOM      2  O   UNL A   1      42.521  19.391  25.119  1.00  0.00    -0.374 OA
BRANCH   2   3
ATOM      3  C   UNL A   1      43.781  18.720  25.064  1.00  0.00     0.202 C 
BRANCH   3   4
ATOM      4  C   UNL A   1      44.749  19.181  23.969  1.00  0.00     0.261 C 
BRANCH   4   5
ATOM      5  O   UNL A   1      44.720  20.612  23.815  1.00  0.00    -0.463 OA
BRANCH   5   6
ATOM      6  C   UNL A   1      45.441  21.333  24.717  1.00  0.00     0.313 C 
ATOM      7  O   UNL A   1      46.404  20.908  25.348  1.00  0.00    -0.252 OA
BRANCH   6   8
ATOM      8  C   UNL A   1      44.908  22.754  24.884  1.00  0.00     0.126 C 
ATOM      9  C   UNL A   1      43.387  22.872  24.996  1.00  0.00     0.025 C 
BRANCH   8  10
ATOM     10  C   UNL A   1      45.589  23.482  26.021  1.00  0.00    -0.031 A 
ATOM     11  C   UNL A   1      46.720  24.266  25.758  1.00  0.00     0.005 A 
ATOM     12  C   UNL A   1      45.108  23.407  27.335  1.00  0.00     0.044 A 
ATOM     13  C   UNL A   1      47.371  24.940  26.792  1.00  0.00     0.012 A 
ATOM     14  C   UNL A   1      45.772  24.073  28.361  1.00  0.00     0.131 A 
ATOM     15  C   UNL A   1      46.914  24.843  28.115  1.00  0.00     0.017 A 
ATOM     16  F   UNL A   1      45.287  23.957  29.606  1.00  0.00    -0.206 F 
BRANCH  15  17
ATOM     17  C   UNL A   1      47.644  25.509  29.197  1.00  0.00    -0.015 A 
ATOM     18  C   UNL A   1      46.971  26.302  30.141  1.00  0.00     0.009 A 
ATOM     19  C   UNL A   1      49.040  25.394  29.295  1.00  0.00     0.009 A 
ATOM     20  C   UNL A   1      47.675  26.964  31.148  1.00  0.00     0.001 A 
ATOM     21  C   UNL A   1      49.744  26.059  30.299  1.00  0.00     0.001 A 
ATOM     22  C   UNL A   1      49.061  26.845  31.223  1.00  0.00     0.000 A 
ENDBRANCH  15  17
ENDBRANCH   8  10
ENDBRANCH   6   8
ENDBRANCH   5   6
ENDBRANCH   4   5
ENDBRANCH   3   4
ENDBRANCH   2   3
ENDBRANCH   1   2
BRANCH   1  23
ATOM     23  C   UNL A   1      40.470  20.021  26.449  1.00  0.00     0.261 C 
BRANCH  23  24
ATOM     24  O   UNL A   1      40.262  21.177  27.279  1.00  0.00    -0.460 OA
BRANCH  24  25
ATOM     25  C   UNL A   1      39.653  22.210  26.644  1.00  0.00     0.338 C 
ATOM     26  O   UNL A   1      38.821  22.134  25.755  1.00  0.00    -0.246 OA
BRANCH  25  27
ATOM     27  C   UNL A   1      39.997  23.494  27.286  1.00  0.00     0.060 A 
ATOM     28  C   UNL A   1      39.289  24.625  26.861  1.00  0.00     0.016 A 
ATOM     29  C   UNL A   1      41.047  23.615  28.199  1.00  0.00     0.016 A 
ATOM     30  C   UNL A   1      39.674  25.891  27.291  1.00  0.00     0.010 A 
ATOM     31  C   UNL A   1      41.436  24.890  28.627  1.00  0.00     0.010 A 
ATOM     32  C   UNL A   1      40.780  26.036  28.138  1.00  0.00    -0.014 A 
BRANCH  32  33
ATOM     33  C   UNL A   1      41.340  27.392  28.362  1.00  0.00     0.031 A 
ATOM     34  C   UNL A   1      42.745  27.684  27.905  1.00  0.00     0.074 A 
ATOM     35  C   UNL A   1      40.586  28.366  28.904  1.00  0.00     0.049 A 
ATOM     36  N   UNL A   1      43.430  28.794  27.987  1.00  0.00    -0.248 NA
ATOM     37  C   UNL A   1      43.472  26.574  27.267  1.00  0.00     0.031 C 
ATOM     38  C   UNL A   1      39.202  28.215  29.346  1.00  0.00     0.029 A 
ATOM     39  N   UNL A   1      40.885  29.678  29.172  1.00  0.00    -0.354 N 
ATOM     40  C   UNL A   1      44.668  28.518  27.416  1.00  0.00     0.074 A 
ATOM     41  C   UNL A   1      44.650  27.128  27.019  1.00  0.00     0.031 C 
ATOM     42  C   UNL A   1      38.771  29.389  29.840  1.00  0.00     0.029 A 
ATOM     43  C   UNL A   1      39.856  30.365  29.772  1.00  0.00     0.049 A 
ATOM     44  H   UNL A   1      41.753  30.089  28.955  1.00  0.00     0.167 HD
ATOM     45  C   UNL A   1      45.718  29.353  27.229  1.00  0.00     0.037 A 
ATOM     46  C   UNL A   1      39.804  31.633  30.228  1.00  0.00     0.037 A 
ATOM     47  C   UNL A   1      45.729  30.737  27.622  1.00  0.00     0.049 A 
ATOM     48  C   UNL A   1      41.006  32.526  30.062  1.00  0.00     0.074 A 
ATOM     49  C   UNL A   1      46.740  31.669  27.467  1.00  0.00     0.029 A 
ATOM     50  N   UNL A   1      44.680  31.387  28.254  1.00  0.00    -0.354 N 
ATOM     51  N   UNL A   1      42.163  32.256  29.505  1.00  0.00    -0.248 NA
ATOM     52  C   UNL A   1      40.895  33.896  30.582  1.00  0.00     0.031 C 
ATOM     53  C   UNL A   1      46.319  32.871  28.044  1.00  0.00     0.029 A 
ATOM     54  C   UNL A   1      45.026  32.702  28.516  1.00  0.00     0.049 A 
ATOM     55  H   UNL A   1      43.815  30.976  28.483  1.00  0.00     0.167 HD
ATOM     56  C   UNL A   1      42.908  33.429  29.586  1.00  0.00     0.074 A 
ATOM     57  C   UNL A   1      42.066  34.412  30.236  1.00  0.00     0.031 C 
ATOM     58  C   UNL A   1      44.173  33.671  29.160  1.00  0.00     0.037 A 
BRANCH  45  59
ATOM     59  C   UNL A   1      46.953  28.781  26.588  1.00  0.00     0.058 A 
ATOM     60  C   UNL A   1      48.140  28.587  27.313  1.00  0.00     0.135 A 
ATOM     61  C   UNL A   1      46.941  28.397  25.237  1.00  0.00     0.135 A 
ATOM     62  F   UNL A   1      48.212  28.953  28.602  1.00  0.00    -0.206 F 
ATOM     63  C   UNL A   1      49.279  28.056  26.715  1.00  0.00     0.059 A 
ATOM     64  C   UNL A   1      48.060  27.840  24.625  1.00  0.00     0.059 A 
ATOM     65  F   UNL A   1      45.833  28.563  24.498  1.00  0.00    -0.206 F 
ATOM     66  C   UNL A   1      49.230  27.688  25.369  1.00  0.00     0.060 A 
BRANCH  66  67
ATOM     67  S   UNL A   1      50.715  27.002  24.605  1.00  0.00     0.124 S 
ATOM     68  O   UNL A   1      51.689  28.057  24.865  1.00  0.00    -0.237 OA
ATOM     69  O   UNL A   1      50.908  25.763  25.354  1.00  0.00    -0.237 OA
ATOM     70  O   UNL A   1      50.331  26.832  23.207  1.00  0.00    -0.744 OA
ENDBRANCH  66  67
ENDBRANCH  45  59
BRANCH  46  71
ATOM     71  C   UNL A   1      38.573  32.128  30.898  1.00  0.00     0.058 A 
ATOM     72  C   UNL A   1      37.540  32.735  30.169  1.00  0.00     0.135 A 
ATOM     73  C   UNL A   1      38.403  31.997  32.286  1.00  0.00     0.135 A 
ATOM     74  F   UNL A   1      37.660  32.894  28.842  1.00  0.00    -0.206 F 
ATOM     75  C   UNL A   1      36.387  33.204  30.792  1.00  0.00     0.059 A 
ATOM     76  C   UNL A   1      37.250  32.436  32.927  1.00  0.00     0.059 A 
ATOM     77  F   UNL A   1      39.359  31.416  33.027  1.00  0.00    -0.206 F 
ATOM     78  C   UNL A   1      36.251  33.047  32.172  1.00  0.00     0.060 A 
BRANCH  78  79
ATOM     79  S   UNL A   1      34.729  33.613  32.964  1.00  0.00     0.124 S 
ATOM     80  O   UNL A   1      35.054  33.448  34.376  1.00  0.00    -0.237 OA
ATOM     81  O   UNL A   1      34.629  34.989  32.488  1.00  0.00    -0.237 OA
ATOM     82  O   UNL A   1      33.718  32.701  32.438  1.00  0.00    -0.744 OA
ENDBRANCH  78  79
ENDBRANCH  46  71
BRANCH  58  83
ATOM     83  C   UNL A   1      44.717  35.059  29.353  1.00  0.00     0.058 A 
ATOM     84  C   UNL A   1      45.495  35.397  30.471  1.00  0.00     0.135 A 
ATOM     85  C   UNL A   1      44.503  36.049  28.379  1.00  0.00     0.135 A 
ATOM     86  F   UNL A   1      45.725  34.490  31.434  1.00  0.00    -0.206 F 
ATOM     87  C   UNL A   1      46.024  36.675  30.628  1.00  0.00     0.059 A 
ATOM     88  C   UNL A   1      45.044  37.324  28.503  1.00  0.00     0.059 A 
ATOM     89  F   UNL A   1      43.776  35.773  27.284  1.00  0.00    -0.206 F 
ATOM     90  C   UNL A   1      45.794  37.631  29.637  1.00  0.00     0.060 A 
BRANCH  90  91
ATOM     91  S   UNL A   1      46.514  39.275  29.835  1.00  0.00     0.124 S 
ATOM     92  O   UNL A   1      45.329  40.086  30.095  1.00  0.00    -0.237 OA
ATOM     93  O   UNL A   1      47.414  39.088  30.969  1.00  0.00    -0.237 OA
ATOM     94  O   UNL A   1      47.171  39.515  28.554  1.00  0.00    -0.744 OA
ENDBRANCH  90  91
ENDBRANCH  58  83
ENDBRANCH  32  33
ENDBRANCH  25  27
ENDBRANCH  24  25
ENDBRANCH  23  24
ENDBRANCH   1  23
TORSDOF 19
ENDMDL
MODEL 3
REMARK VINA RESULT:      -9.4      5.295      8.324
REMARK SMILES C[C@H](C(=O)OCCOCCOC(=O)c1ccc(-c2c3nc(c(-c4c(F)cc(S(=O)(=O)[O-])cc4F)c4ccc([nH]4)c(-c4c(F)cc(S(=O)(=O)[O-])cc4F)c4nc(c(-c5c(F)cc(S(=O)(=O)[O-])cc5F)c5ccc2[nH]5)C=C4)C=C3)cc1)c1ccc(-c2ccccc2)c(F)c1
REMARK SMILES IDX 9 1 8 2 7 3 6 4 5 5 3 6 4 7 2 8 1 9 80 10 81 11 92 12 82 13
REMARK SMILES IDX 90 14 83 15 91 16 84 17 85 18 89 19 86 20 88 21 87 22 10 23
REMARK SMILES IDX 11 24 12 25 13 26 14 27 15 28 79 29 16 30 78 31 17 32 18 33
REMARK SMILES IDX 19 34 72 35 20 36 77 37 71 38 73 39 21 40 76 41 70 42 69 43
REMARK SMILES IDX 22 45 56 46 35 47 55 48 36 49 39 50 54 51 74 52 37 53 38 54
REMARK SMILES IDX 53 56 75 57 40 58 23 59 24 60 33 61 25 62 26 63 32 64 34 65
REMARK SMILES IDX 27 66 28 67 29 68 30 69 31 70 57 71 58 72 67 73 59 74 60 75
REMARK SMILES IDX 66 76 68 77 61 78 62 79 63 80 64 81 65 82 41 83 42 84 51 85
REMARK SMILES IDX 43 86 44 87 50 88 52 89 45 90 46 91 47 92 48 93 49 94
REMARK H PARENT 73 44 39 55
REMARK Flexibility Score: inf
ROOT
ATOM      1  C   UNL A   1      38.267  22.956  26.485  1.00  0.00     0.202 C 
ENDROOT
BRANCH   1   2
ATOM      2  O   UNL A   1      37.741  23.650  25.358  1.00  0.00    -0.374 OA
BRANCH   2   3
ATOM      3  C   UNL A   1      36.326  23.599  25.160  1.00  0.00     0.202 C 
BRANCH   3   4
ATOM      4  C   UNL A   1      35.849  23.178  23.766  1.00  0.00     0.261 C 
BRANCH   4   5
ATOM      5  O   UNL A   1      34.488  22.710  23.800  1.00  0.00    -0.463 OA
BRANCH   5   6
ATOM      6  C   UNL A   1      33.627  23.288  22.916  1.00  0.00     0.313 C 
ATOM      7  O   UNL A   1      33.795  23.335  21.702  1.00  0.00    -0.252 OA
BRANCH   6   8
ATOM      8  C   UNL A   1      32.412  23.902  23.606  1.00  0.00     0.126 C 
ATOM      9  C   UNL A   1      31.630  22.956  24.519  1.00  0.00     0.025 C 
BRANCH   8  10
ATOM     10  C   UNL A   1      32.764  25.181  24.332  1.00  0.00    -0.031 A 
ATOM     11  C   UNL A   1      32.498  25.290  25.703  1.00  0.00     0.005 A 
ATOM     12  C   UNL A   1      33.368  26.259  23.672  1.00  0.00     0.044 A 
ATOM     13  C   UNL A   1      32.804  26.464  26.394  1.00  0.00     0.012 A 
ATOM     14  C   UNL A   1      33.659  27.430  24.367  1.00  0.00     0.131 A 
ATOM     15  C   UNL A   1      33.379  27.559  25.732  1.00  0.00     0.017 A 
ATOM     16  F   UNL A   1      34.219  28.443  23.690  1.00  0.00    -0.206 F 
BRANCH  15  17
ATOM     17  C   UNL A   1      33.640  28.805  26.459  1.00  0.00    -0.015 A 
ATOM     18  C   UNL A   1      32.647  29.788  26.588  1.00  0.00     0.009 A 
ATOM     19  C   UNL A   1      34.905  29.055  27.015  1.00  0.00     0.009 A 
ATOM     20  C   UNL A   1      32.912  30.988  27.250  1.00  0.00     0.001 A 
ATOM     21  C   UNL A   1      35.172  30.256  27.673  1.00  0.00     0.001 A 
ATOM     22  C   UNL A   1      34.176  31.222  27.787  1.00  0.00     0.000 A 
ENDBRANCH  15  17
ENDBRANCH   8  10
ENDBRANCH   6   8
ENDBRANCH   5   6
ENDBRANCH   4   5
ENDBRANCH   3   4
ENDBRANCH   2   3
ENDBRANCH   1   2
BRANCH   1  23
ATOM     23  C   UNL A   1      39.768  22.640  26.473  1.00  0.00     0.261 C 
BRANCH  23  24
ATOM     24  O   UNL A   1      40.458  23.175  27.616  1.00  0.00    -0.460 OA
BRANCH  24  25
ATOM     25  C   UNL A   1      41.302  24.196  27.323  1.00  0.00     0.338 C 
ATOM     26  O   UNL A   1      42.181  24.200  26.477  1.00  0.00    -0.246 OA
BRANCH  25  27
ATOM     27  C   UNL A   1      40.918  25.417  28.058  1.00  0.00     0.060 A 
ATOM     28  C   UNL A   1      41.922  26.370  28.270  1.00  0.00     0.016 A 
ATOM     29  C   UNL A   1      39.649  25.586  28.616  1.00  0.00     0.016 A 
ATOM     30  C   UNL A   1      41.684  27.462  29.100  1.00  0.00     0.010 A 
ATOM     31  C   UNL A   1      39.412  26.682  29.455  1.00  0.00     0.010 A 
ATOM     32  C   UNL A   1      40.443  27.599  29.736  1.00  0.00    -0.014 A 
BRANCH  32  33
ATOM     33  C   UNL A   1      40.299  28.603  30.820  1.00  0.00     0.031 A 
ATOM     34  C   UNL A   1      41.183  28.493  32.035  1.00  0.00     0.074 A 
ATOM     35  C   UNL A   1      39.443  29.632  30.695  1.00  0.00     0.049 A 
ATOM     36  N   UNL A   1      41.238  29.260  33.092  1.00  0.00    -0.248 NA
ATOM     37  C   UNL A   1      42.134  27.369  32.057  1.00  0.00     0.031 C 
ATOM     38  C   UNL A   1      38.567  29.866  29.548  1.00  0.00     0.029 A 
ATOM     39  N   UNL A   1      39.172  30.674  31.544  1.00  0.00    -0.354 N 
ATOM     40  C   UNL A   1      42.223  28.712  33.906  1.00  0.00     0.074 A 
ATOM     41  C   UNL A   1      42.719  27.531  33.235  1.00  0.00     0.031 C 
ATOM     42  C   UNL A   1      37.848  30.980  29.770  1.00  0.00     0.029 A 
ATOM     43  C   UNL A   1      38.193  31.522  31.082  1.00  0.00     0.049 A 
ATOM     44  H   UNL A   1      39.635  30.804  32.404  1.00  0.00     0.167 HD
ATOM     45  C   UNL A   1      42.682  29.161  35.099  1.00  0.00     0.037 A 
ATOM     46  C   UNL A   1      37.631  32.601  31.662  1.00  0.00     0.037 A 
ATOM     47  C   UNL A   1      42.189  30.340  35.761  1.00  0.00     0.049 A 
ATOM     48  C   UNL A   1      38.115  33.049  33.016  1.00  0.00     0.074 A 
ATOM     49  C   UNL A   1      42.594  30.884  36.967  1.00  0.00     0.029 A 
ATOM     50  N   UNL A   1      41.176  31.154  35.275  1.00  0.00    -0.354 N 
ATOM     51  N   UNL A   1      39.060  32.530  33.766  1.00  0.00    -0.248 NA
ATOM     52  C   UNL A   1      37.463  34.228  33.601  1.00  0.00     0.031 C 
ATOM     53  C   UNL A   1      41.797  32.003  37.231  1.00  0.00     0.029 A 
ATOM     54  C   UNL A   1      40.927  32.184  36.167  1.00  0.00     0.049 A 
ATOM     55  H   UNL A   1      40.703  31.020  34.422  1.00  0.00     0.167 HD
ATOM     56  C   UNL A   1      39.130  33.334  34.900  1.00  0.00     0.074 A 
ATOM     57  C   UNL A   1      38.142  34.379  34.731  1.00  0.00     0.031 C 
ATOM     58  C   UNL A   1      39.941  33.220  35.981  1.00  0.00     0.037 A 
BRANCH  45  59
ATOM     59  C   UNL A   1      43.760  28.359  35.775  1.00  0.00     0.058 A 
ATOM     60  C   UNL A   1      43.456  27.326  36.677  1.00  0.00     0.135 A 
ATOM     61  C   UNL A   1      45.113  28.609  35.497  1.00  0.00     0.135 A 
ATOM     62  F   UNL A   1      42.180  27.056  36.992  1.00  0.00    -0.206 F 
ATOM     63  C   UNL A   1      44.458  26.585  37.298  1.00  0.00     0.059 A 
ATOM     64  C   UNL A   1      46.130  27.864  36.088  1.00  0.00     0.059 A 
ATOM     65  F   UNL A   1      45.459  29.586  34.645  1.00  0.00    -0.206 F 
ATOM     66  C   UNL A   1      45.793  26.864  36.999  1.00  0.00     0.060 A 
BRANCH  66  67
ATOM     67  S   UNL A   1      47.082  25.897  37.813  1.00  0.00     0.124 S 
ATOM     68  O   UNL A   1      48.216  26.813  37.750  1.00  0.00    -0.237 OA
ATOM     69  O   UNL A   1      46.517  25.679  39.142  1.00  0.00    -0.237 OA
ATOM     70  O   UNL A   1      47.191  24.704  36.979  1.00  0.00    -0.744 OA
ENDBRANCH  66  67
ENDBRANCH  45  59
BRANCH  46  71
ATOM     71  C   UNL A   1      36.534  33.327  30.967  1.00  0.00     0.058 A 
ATOM     72  C   UNL A   1      36.798  34.197  29.900  1.00  0.00     0.135 A 
ATOM     73  C   UNL A   1      35.195  33.156  31.356  1.00  0.00     0.135 A 
ATOM     74  F   UNL A   1      38.062  34.402  29.498  1.00  0.00    -0.206 F 
ATOM     75  C   UNL A   1      35.775  34.882  29.249  1.00  0.00     0.059 A 
ATOM     76  C   UNL A   1      34.155  33.810  30.705  1.00  0.00     0.059 A 
ATOM     77  F   UNL A   1      34.890  32.327  32.366  1.00  0.00    -0.206 F 
ATOM     78  C   UNL A   1      34.456  34.679  29.658  1.00  0.00     0.060 A 
BRANCH  78  79
ATOM     79  S   UNL A   1      33.133  35.532  28.773  1.00  0.00     0.124 S 
ATOM     80  O   UNL A   1      33.882  36.518  28.004  1.00  0.00    -0.237 OA
ATOM     81  O   UNL A   1      32.529  34.448  28.005  1.00  0.00    -0.237 OA
ATOM     82  O   UNL A   1      32.301  36.067  29.847  1.00  0.00    -0.744 OA
ENDBRANCH  78  79
ENDBRANCH  46  71
BRANCH  58  83
ATOM     83  C   UNL A   1      39.818  34.265  37.055  1.00  0.00     0.058 A 
ATOM     84  C   UNL A   1      40.509  35.484  36.980  1.00  0.00     0.135 A 
ATOM     85  C   UNL A   1      38.954  34.067  38.145  1.00  0.00     0.135 A 
ATOM     86  F   UNL A   1      41.351  35.722  35.962  1.00  0.00    -0.206 F 
ATOM     87  C   UNL A   1      40.366  36.462  37.959  1.00  0.00     0.059 A 
ATOM     88  C   UNL A   1      38.775  35.041  39.121  1.00  0.00     0.059 A 
ATOM     89  F   UNL A   1      38.260  32.923  38.257  1.00  0.00    -0.206 F 
ATOM     90  C   UNL A   1      39.494  36.231  39.026  1.00  0.00     0.060 A 
BRANCH  90  91
ATOM     91  S   UNL A   1      39.290  37.521  40.273  1.00  0.00     0.124 S 
ATOM     92  O   UNL A   1      38.235  38.337  39.683  1.00  0.00    -0.237 OA
ATOM     93  O   UNL A   1      38.911  36.755  41.457  1.00  0.00    -0.237 OA
ATOM     94  O   UNL A   1      40.608  38.145  40.334  1.00  0.00    -0.744 OA
ENDBRANCH  90  91
ENDBRANCH  58  83
ENDBRANCH  32  33
ENDBRANCH  25  27
ENDBRANCH  24  25
ENDBRANCH  23  24
ENDBRANCH   1  23
TORSDOF 19
ENDMDL
