MODEL 1
REMARK VINA RESULT:     -10.7      0.000      0.000
REMARK SMILES C[C@@H](C(=O)OCCOCCOC(=O)c1ccc(-c2c3nc(c(-c4c(F)cc(S(=O)(=O)[O-])cc4F)c4ccc([nH]4)c(-c4c(F)cc(S(=O)(=O)[O-])cc4F)c4nc(c(-c5c(F)cc(S(=O)(=O)[O-])cc5F)c5ccc2[nH]5)C=C4)C=C3)cc1)c1ccc(C[C@@H]2CCC[C@@H]2O)cc1Br
REMARK SMILES IDX 7 1 6 2 5 3 3 4 4 5 2 6 1 7 80 8 81 9 92 10 82 11 91 12
REMARK SMILES IDX 93 13 83 14 84 15 85 16 86 17 89 18 87 19 88 20 90 21 8 23
REMARK SMILES IDX 9 24 10 25 11 26 12 27 13 28 14 29 15 30 79 31 16 32 78 33
REMARK SMILES IDX 17 34 18 35 19 36 72 37 20 38 77 39 71 40 73 41 21 42 76 43
REMARK SMILES IDX 70 44 69 45 22 47 56 48 35 49 55 50 36 51 39 52 54 53 74 54
REMARK SMILES IDX 37 55 38 56 53 58 75 59 40 60 23 61 24 62 33 63 25 64 26 65
REMARK SMILES IDX 32 66 34 67 27 68 28 69 29 70 30 71 31 72 57 73 58 74 67 75
REMARK SMILES IDX 59 76 60 77 66 78 68 79 61 80 62 81 63 82 64 83 65 84 41 85
REMARK SMILES IDX 42 86 51 87 43 88 44 89 50 90 52 91 45 92 46 93 47 94 48 95
REMARK SMILES IDX 49 96
REMARK H PARENT 90 22 73 46 39 57
REMARK Flexibility Score: inf
ROOT
ATOM      1  C   UNL A   1      38.506  20.969  25.672  1.00  0.00     0.202 C 
ENDROOT
BRANCH   1   2
ATOM      2  C   UNL A   1      37.273  21.527  24.954  1.00  0.00     0.261 C 
BRANCH   2   3
ATOM      3  O   UNL A   1      36.049  20.870  25.322  1.00  0.00    -0.463 OA
BRANCH   3   4
ATOM      4  C   UNL A   1      35.067  21.718  25.740  1.00  0.00     0.313 C 
ATOM      5  O   UNL A   1      35.294  22.720  26.408  1.00  0.00    -0.252 OA
BRANCH   4   6
ATOM      6  C   UNL A   1      33.656  21.278  25.285  1.00  0.00     0.127 C 
ATOM      7  C   UNL A   1      33.648  19.860  24.685  1.00  0.00     0.025 C 
BRANCH   6   8
ATOM      8  C   UNL A   1      33.054  22.353  24.362  1.00  0.00    -0.020 A 
ATOM      9  C   UNL A   1      33.688  22.731  23.165  1.00  0.00     0.006 A 
ATOM     10  C   UNL A   1      31.906  23.083  24.731  1.00  0.00     0.022 A 
ATOM     11  C   UNL A   1      33.252  23.836  22.422  1.00  0.00     0.004 A 
ATOM     12  C   UNL A   1      31.531  24.239  24.031  1.00  0.00     0.019 A 
ATOM     13  Br  UNL A   1      30.750  22.550  26.151  1.00  0.00    -0.050 Br
ATOM     14  C   UNL A   1      32.224  24.655  22.888  1.00  0.00    -0.047 A 
BRANCH  14  15
ATOM     15  C   UNL A   1      31.797  25.912  22.167  1.00  0.00     0.041 C 
BRANCH  15  16
ATOM     16  C   UNL A   1      32.410  27.282  22.544  1.00  0.00     0.022 C 
ATOM     17  C   UNL A   1      33.160  27.324  23.879  1.00  0.00     0.007 C 
ATOM     18  C   UNL A   1      31.466  28.485  22.647  1.00  0.00     0.117 C 
ATOM     19  C   UNL A   1      32.233  28.016  24.884  1.00  0.00     0.003 C 
ATOM     20  C   UNL A   1      31.015  28.495  24.100  1.00  0.00     0.032 C 
BRANCH  18  21
ATOM     21  O   UNL A   1      30.378  28.436  21.754  1.00  0.00    -0.393 OA
ATOM     22  H   UNL A   1      29.554  28.322  22.252  1.00  0.00     0.210 HD
ENDBRANCH  18  21
ENDBRANCH  15  16
ENDBRANCH  14  15
ENDBRANCH   6   8
ENDBRANCH   4   6
ENDBRANCH   3   4
ENDBRANCH   2   3
ENDBRANCH   1   2
BRANCH   1  23
ATOM     23  O   UNL A   1      39.649  21.811  25.793  1.00  0.00    -0.374 OA
BRANCH  23  24
ATOM     24  C   UNL A   1      39.669  22.757  26.861  1.00  0.00     0.202 C 
BRANCH  24  25
ATOM     25  C   UNL A   1      41.038  23.124  27.444  1.00  0.00     0.261 C 
BRANCH  25  26
ATOM     26  O   UNL A   1      41.803  23.952  26.548  1.00  0.00    -0.460 OA
BRANCH  26  27
ATOM     27  C   UNL A   1      41.299  25.196  26.358  1.00  0.00     0.338 C 
ATOM     28  O   UNL A   1      40.759  25.624  25.347  1.00  0.00    -0.246 OA
BRANCH  27  29
ATOM     29  C   UNL A   1      41.304  25.949  27.627  1.00  0.00     0.060 A 
ATOM     30  C   UNL A   1      40.100  26.018  28.339  1.00  0.00     0.016 A 
ATOM     31  C   UNL A   1      42.434  26.635  28.076  1.00  0.00     0.016 A 
ATOM     32  C   UNL A   1      40.003  26.820  29.473  1.00  0.00     0.010 A 
ATOM     33  C   UNL A   1      42.330  27.451  29.210  1.00  0.00     0.010 A 
ATOM     34  C   UNL A   1      41.104  27.576  29.890  1.00  0.00    -0.014 A 
BRANCH  34  35
ATOM     35  C   UNL A   1      40.919  28.617  30.931  1.00  0.00     0.031 A 
ATOM     36  C   UNL A   1      41.812  28.600  32.143  1.00  0.00     0.074 A 
ATOM     37  C   UNL A   1      40.000  29.588  30.781  1.00  0.00     0.049 A 
ATOM     38  N   UNL A   1      41.816  29.393  33.181  1.00  0.00    -0.248 NA
ATOM     39  C   UNL A   1      42.839  27.545  32.187  1.00  0.00     0.031 C 
ATOM     40  C   UNL A   1      39.106  29.732  29.634  1.00  0.00     0.029 A 
ATOM     41  N   UNL A   1      39.666  30.633  31.604  1.00  0.00    -0.354 N 
ATOM     42  C   UNL A   1      42.840  28.936  34.004  1.00  0.00     0.074 A 
ATOM     43  C   UNL A   1      43.414  27.775  33.358  1.00  0.00     0.031 C 
ATOM     44  C   UNL A   1      38.312  30.799  29.833  1.00  0.00     0.029 A 
ATOM     45  C   UNL A   1      38.624  31.395  31.132  1.00  0.00     0.049 A 
ATOM     46  H   UNL A   1      40.129  30.820  32.453  1.00  0.00     0.167 HD
ATOM     47  C   UNL A   1      43.269  29.443  35.184  1.00  0.00     0.037 A 
ATOM     48  C   UNL A   1      37.983  32.439  31.693  1.00  0.00     0.037 A 
ATOM     49  C   UNL A   1      42.694  30.597  35.823  1.00  0.00     0.049 A 
ATOM     50  C   UNL A   1      38.437  32.950  33.037  1.00  0.00     0.074 A 
ATOM     51  C   UNL A   1      43.062  31.194  37.017  1.00  0.00     0.029 A 
ATOM     52  N   UNL A   1      41.623  31.326  35.326  1.00  0.00    -0.354 N 
ATOM     53  N   UNL A   1      39.415  32.516  33.796  1.00  0.00    -0.248 NA
ATOM     54  C   UNL A   1      37.702  34.092  33.599  1.00  0.00     0.031 C 
ATOM     55  C   UNL A   1      42.187  32.257  37.262  1.00  0.00     0.029 A 
ATOM     56  C   UNL A   1      41.305  32.354  36.197  1.00  0.00     0.049 A 
ATOM     57  H   UNL A   1      41.159  31.141  34.477  1.00  0.00     0.167 HD
ATOM     58  C   UNL A   1      39.429  33.348  34.912  1.00  0.00     0.074 A 
ATOM     59  C   UNL A   1      38.368  34.316  34.724  1.00  0.00     0.031 C 
ATOM     60  C   UNL A   1      40.248  33.314  35.993  1.00  0.00     0.037 A 
BRANCH  47  61
ATOM     61  C   UNL A   1      44.404  28.734  35.870  1.00  0.00     0.058 A 
ATOM     62  C   UNL A   1      45.739  29.131  35.690  1.00  0.00     0.135 A 
ATOM     63  C   UNL A   1      44.152  27.659  36.738  1.00  0.00     0.135 A 
ATOM     64  F   UNL A   1      46.037  30.141  34.858  1.00  0.00    -0.206 F 
ATOM     65  C   UNL A   1      46.786  28.468  36.323  1.00  0.00     0.059 A 
ATOM     66  C   UNL A   1      45.182  26.999  37.401  1.00  0.00     0.059 A 
ATOM     67  F   UNL A   1      42.894  27.238  36.943  1.00  0.00    -0.206 F 
ATOM     68  C   UNL A   1      46.497  27.402  37.176  1.00  0.00     0.060 A 
BRANCH  68  69
ATOM     69  S   UNL A   1      47.866  26.549  37.988  1.00  0.00     0.124 S 
ATOM     70  O   UNL A   1      49.012  27.075  37.252  1.00  0.00    -0.237 OA
ATOM     71  O   UNL A   1      47.739  26.998  39.371  1.00  0.00    -0.237 OA
ATOM     72  O   UNL A   1      47.570  25.138  37.761  1.00  0.00    -0.744 OA
ENDBRANCH  68  69
ENDBRANCH  47  61
BRANCH  48  73
ATOM     73  C   UNL A   1      36.830  33.063  30.991  1.00  0.00     0.058 A 
ATOM     74  C   UNL A   1      35.509  32.761  31.351  1.00  0.00     0.135 A 
ATOM     75  C   UNL A   1      37.032  33.980  29.948  1.00  0.00     0.135 A 
ATOM     76  F   UNL A   1      35.264  31.881  32.333  1.00  0.00    -0.206 F 
ATOM     77  C   UNL A   1      34.426  33.340  30.695  1.00  0.00     0.059 A 
ATOM     78  C   UNL A   1      35.966  34.590  29.294  1.00  0.00     0.059 A 
ATOM     79  F   UNL A   1      38.277  34.308  29.572  1.00  0.00    -0.206 F 
ATOM     80  C   UNL A   1      34.666  34.257  29.670  1.00  0.00     0.060 A 
BRANCH  80  81
ATOM     81  S   UNL A   1      33.256  35.047  28.863  1.00  0.00     0.124 S 
ATOM     82  O   UNL A   1      32.443  35.439  30.009  1.00  0.00    -0.237 OA
ATOM     83  O   UNL A   1      33.893  36.136  28.130  1.00  0.00    -0.237 OA
ATOM     84  O   UNL A   1      32.705  33.980  28.033  1.00  0.00    -0.744 OA
ENDBRANCH  80  81
ENDBRANCH  48  73
BRANCH  60  85
ATOM     85  C   UNL A   1      40.053  34.372  37.045  1.00  0.00     0.058 A 
ATOM     86  C   UNL A   1      40.767  35.579  37.019  1.00  0.00     0.135 A 
ATOM     87  C   UNL A   1      39.098  34.197  38.059  1.00  0.00     0.135 A 
ATOM     88  F   UNL A   1      41.695  35.796  36.073  1.00  0.00    -0.206 F 
ATOM     89  C   UNL A   1      40.557  36.569  37.975  1.00  0.00     0.059 A 
ATOM     90  C   UNL A   1      38.852  35.182  39.010  1.00  0.00     0.059 A 
ATOM     91  F   UNL A   1      38.379  33.064  38.123  1.00  0.00    -0.206 F 
ATOM     92  C   UNL A   1      39.595  36.360  38.967  1.00  0.00     0.060 A 
BRANCH  92  93
ATOM     93  S   UNL A   1      39.307  37.666  40.181  1.00  0.00     0.124 S 
ATOM     94  O   UNL A   1      38.186  38.382  39.583  1.00  0.00    -0.237 OA
ATOM     95  O   UNL A   1      39.002  36.907  41.391  1.00  0.00    -0.237 OA
ATOM     96  O   UNL A   1      40.575  38.390  40.207  1.00  0.00    -0.744 OA
ENDBRANCH  92  93
ENDBRANCH  60  85
ENDBRANCH  34  35
ENDBRANCH  27  29
ENDBRANCH  26  27
ENDBRANCH  25  26
ENDBRANCH  24  25
ENDBRANCH  23  24
ENDBRANCH   1  23
TORSDOF 21
ENDMDL
MODEL 2
REMARK VINA RESULT:     -10.6      6.735     13.509
REMARK SMILES C[C@@H](C(=O)OCCOCCOC(=O)c1ccc(-c2c3nc(c(-c4c(F)cc(S(=O)(=O)[O-])cc4F)c4ccc([nH]4)c(-c4c(F)cc(S(=O)(=O)[O-])cc4F)c4nc(c(-c5c(F)cc(S(=O)(=O)[O-])cc5F)c5ccc2[nH]5)C=C4)C=C3)cc1)c1ccc(C[C@@H]2CCC[C@@H]2O)cc1Br
REMARK SMILES IDX 7 1 6 2 5 3 3 4 4 5 2 6 1 7 80 8 81 9 92 10 82 11 91 12
REMARK SMILES IDX 93 13 83 14 84 15 85 16 86 17 89 18 87 19 88 20 90 21 8 23
REMARK SMILES IDX 9 24 10 25 11 26 12 27 13 28 14 29 15 30 79 31 16 32 78 33
REMARK SMILES IDX 17 34 18 35 19 36 72 37 20 38 77 39 71 40 73 41 21 42 76 43
REMARK SMILES IDX 70 44 69 45 22 47 56 48 35 49 55 50 36 51 39 52 54 53 74 54
REMARK SMILES IDX 37 55 38 56 53 58 75 59 40 60 23 61 24 62 33 63 25 64 26 65
REMARK SMILES IDX 32 66 34 67 27 68 28 69 29 70 30 71 31 72 57 73 58 74 67 75
REMARK SMILES IDX 59 76 60 77 66 78 68 79 61 80 62 81 63 82 64 83 65 84 41 85
REMARK SMILES IDX 42 86 51 87 43 88 44 89 50 90 52 91 45 92 46 93 47 94 48 95
REMARK SMILES IDX 49 96
REMARK H PARENT 90 22 73 46 39 57
REMARK Flexibility Score: inf
ROOT
ATOM      1  C   UNL A   1      40.123  34.121  31.352  1.00  0.00     0.202 C 
ENDROOT
BRANCH   1   2
ATOM      2  C   UNL A   1      41.244  33.544  32.224  1.00  0.00     0.261 C 
BRANCH   2   3
ATOM      3  O   UNL A   1      40.844  32.390  32.981  1.00  0.00    -0.463 OA
BRANCH   3   4
ATOM      4  C   UNL A   1      40.901  32.564  34.332  1.00  0.00     0.313 C 
ATOM      5  O   UNL A   1      41.665  33.359  34.868  1.00  0.00    -0.252 OA
BRANCH   4   6
ATOM      6  C   UNL A   1      39.911  31.659  35.100  1.00  0.00     0.127 C 
ATOM      7  C   UNL A   1      40.072  30.171  34.736  1.00  0.00     0.025 C 
BRANCH   6   8
ATOM      8  C   UNL A   1      38.479  32.196  34.924  1.00  0.00    -0.020 A 
ATOM      9  C   UNL A   1      37.603  31.650  33.971  1.00  0.00     0.006 A 
ATOM     10  C   UNL A   1      38.025  33.329  35.630  1.00  0.00     0.022 A 
ATOM     11  C   UNL A   1      36.374  32.255  33.673  1.00  0.00     0.004 A 
ATOM     12  C   UNL A   1      36.837  33.978  35.264  1.00  0.00     0.019 A 
ATOM     13  Br  UNL A   1      38.935  34.038  37.149  1.00  0.00    -0.050 Br
ATOM     14  C   UNL A   1      36.013  33.471  34.252  1.00  0.00    -0.047 A 
BRANCH  14  15
ATOM     15  C   UNL A   1      34.746  34.204  33.878  1.00  0.00     0.041 C 
BRANCH  15  16
ATOM     16  C   UNL A   1      34.777  35.350  32.838  1.00  0.00     0.022 C 
ATOM     17  C   UNL A   1      34.143  36.669  33.293  1.00  0.00     0.007 C 
ATOM     18  C   UNL A   1      34.112  35.104  31.481  1.00  0.00     0.117 C 
ATOM     19  C   UNL A   1      32.771  36.754  32.617  1.00  0.00     0.003 C 
ATOM     20  C   UNL A   1      32.674  35.562  31.670  1.00  0.00     0.032 C 
BRANCH  18  21
ATOM     21  O   UNL A   1      34.189  33.768  31.039  1.00  0.00    -0.393 OA
ATOM     22  H   UNL A   1      33.386  33.543  30.544  1.00  0.00     0.210 HD
ENDBRANCH  18  21
ENDBRANCH  15  16
ENDBRANCH  14  15
ENDBRANCH   6   8
ENDBRANCH   4   6
ENDBRANCH   3   4
ENDBRANCH   2   3
ENDBRANCH   1   2
BRANCH   1  23
ATOM     23  O   UNL A   1      38.780  33.980  31.806  1.00  0.00    -0.374 OA
BRANCH  23  24
ATOM     24  C   UNL A   1      37.732  34.322  30.900  1.00  0.00     0.202 C 
BRANCH  24  25
ATOM     25  C   UNL A   1      37.770  33.674  29.511  1.00  0.00     0.261 C 
BRANCH  25  26
ATOM     26  O   UNL A   1      36.646  32.802  29.290  1.00  0.00    -0.460 OA
BRANCH  26  27
ATOM     27  C   UNL A   1      36.660  31.662  30.023  1.00  0.00     0.338 C 
ATOM     28  O   UNL A   1      35.774  31.251  30.762  1.00  0.00    -0.246 OA
BRANCH  27  29
ATOM     29  C   UNL A   1      37.833  30.841  29.669  1.00  0.00     0.060 A 
ATOM     30  C   UNL A   1      38.805  30.646  30.659  1.00  0.00     0.016 A 
ATOM     31  C   UNL A   1      38.021  30.335  28.382  1.00  0.00     0.016 A 
ATOM     32  C   UNL A   1      39.996  29.993  30.351  1.00  0.00     0.010 A 
ATOM     33  C   UNL A   1      39.225  29.690  28.071  1.00  0.00     0.010 A 
ATOM     34  C   UNL A   1      40.232  29.550  29.045  1.00  0.00    -0.014 A 
BRANCH  34  35
ATOM     35  C   UNL A   1      41.593  29.097  28.666  1.00  0.00     0.031 A 
ATOM     36  C   UNL A   1      42.717  30.098  28.658  1.00  0.00     0.074 A 
ATOM     37  C   UNL A   1      41.834  27.805  28.375  1.00  0.00     0.049 A 
ATOM     38  N   UNL A   1      43.974  29.931  28.342  1.00  0.00    -0.248 NA
ATOM     39  C   UNL A   1      42.374  31.472  29.062  1.00  0.00     0.031 C 
ATOM     40  C   UNL A   1      40.837  26.737  28.388  1.00  0.00     0.029 A 
ATOM     41  N   UNL A   1      42.998  27.177  28.008  1.00  0.00    -0.354 N 
ATOM     42  C   UNL A   1      44.574  31.174  28.506  1.00  0.00     0.074 A 
ATOM     43  C   UNL A   1      43.535  32.095  28.918  1.00  0.00     0.031 C 
ATOM     44  C   UNL A   1      41.429  25.584  28.029  1.00  0.00     0.029 A 
ATOM     45  C   UNL A   1      42.839  25.840  27.735  1.00  0.00     0.049 A 
ATOM     46  H   UNL A   1      43.864  27.641  27.945  1.00  0.00     0.167 HD
ATOM     47  C   UNL A   1      45.874  31.517  28.338  1.00  0.00     0.037 A 
ATOM     48  C   UNL A   1      43.725  24.932  27.281  1.00  0.00     0.037 A 
ATOM     49  C   UNL A   1      46.903  30.599  27.926  1.00  0.00     0.049 A 
ATOM     50  C   UNL A   1      45.154  25.348  27.041  1.00  0.00     0.074 A 
ATOM     51  C   UNL A   1      48.251  30.847  27.735  1.00  0.00     0.029 A 
ATOM     52  N   UNL A   1      46.698  29.258  27.635  1.00  0.00    -0.354 N 
ATOM     53  N   UNL A   1      45.709  26.524  27.214  1.00  0.00    -0.248 NA
ATOM     54  C   UNL A   1      46.075  24.315  26.548  1.00  0.00     0.031 C 
ATOM     55  C   UNL A   1      48.853  29.666  27.287  1.00  0.00     0.029 A 
ATOM     56  C   UNL A   1      47.890  28.670  27.247  1.00  0.00     0.049 A 
ATOM     57  H   UNL A   1      45.833  28.793  27.698  1.00  0.00     0.167 HD
ATOM     58  C   UNL A   1      47.050  26.365  26.874  1.00  0.00     0.074 A 
ATOM     59  C   UNL A   1      47.223  24.978  26.497  1.00  0.00     0.031 C 
ATOM     60  C   UNL A   1      48.048  27.285  26.878  1.00  0.00     0.037 A 
BRANCH  47  61
ATOM     61  C   UNL A   1      46.248  32.954  28.579  1.00  0.00     0.058 A 
ATOM     62  C   UNL A   1      46.672  33.405  29.839  1.00  0.00     0.135 A 
ATOM     63  C   UNL A   1      46.204  33.886  27.529  1.00  0.00     0.135 A 
ATOM     64  F   UNL A   1      46.715  32.559  30.880  1.00  0.00    -0.206 F 
ATOM     65  C   UNL A   1      47.012  34.736  30.057  1.00  0.00     0.059 A 
ATOM     66  C   UNL A   1      46.565  35.217  27.720  1.00  0.00     0.059 A 
ATOM     67  F   UNL A   1      45.803  33.508  26.306  1.00  0.00    -0.206 F 
ATOM     68  C   UNL A   1      46.953  35.635  28.991  1.00  0.00     0.060 A 
BRANCH  68  69
ATOM     69  S   UNL A   1      47.394  37.361  29.291  1.00  0.00     0.124 S 
ATOM     70  O   UNL A   1      46.115  37.916  29.724  1.00  0.00    -0.237 OA
ATOM     71  O   UNL A   1      48.418  37.248  30.324  1.00  0.00    -0.237 OA
ATOM     72  O   UNL A   1      47.869  37.821  27.989  1.00  0.00    -0.744 OA
ENDBRANCH  68  69
ENDBRANCH  47  61
BRANCH  48  73
ATOM     73  C   UNL A   1      43.281  23.539  27.007  1.00  0.00     0.058 A 
ATOM     74  C   UNL A   1      43.065  23.087  25.698  1.00  0.00     0.135 A 
ATOM     75  C   UNL A   1      43.071  22.630  28.056  1.00  0.00     0.135 A 
ATOM     76  F   UNL A   1      43.241  23.922  24.662  1.00  0.00    -0.206 F 
ATOM     77  C   UNL A   1      42.648  21.785  25.436  1.00  0.00     0.059 A 
ATOM     78  C   UNL A   1      42.678  21.317  27.818  1.00  0.00     0.059 A 
ATOM     79  F   UNL A   1      43.273  23.011  29.327  1.00  0.00    -0.206 F 
ATOM     80  C   UNL A   1      42.461  20.906  26.504  1.00  0.00     0.060 A 
BRANCH  80  81
ATOM     81  S   UNL A   1      41.974  19.203  26.152  1.00  0.00     0.124 S 
ATOM     82  O   UNL A   1      42.364  18.526  27.384  1.00  0.00    -0.237 OA
ATOM     83  O   UNL A   1      40.538  19.335  25.924  1.00  0.00    -0.237 OA
ATOM     84  O   UNL A   1      42.761  18.867  24.970  1.00  0.00    -0.744 OA
ENDBRANCH  80  81
ENDBRANCH  48  73
BRANCH  60  85
ATOM     85  C   UNL A   1      49.424  26.818  26.492  1.00  0.00     0.058 A 
ATOM     86  C   UNL A   1      50.262  26.156  27.402  1.00  0.00     0.135 A 
ATOM     87  C   UNL A   1      49.887  26.984  25.176  1.00  0.00     0.135 A 
ATOM     88  F   UNL A   1      49.870  25.975  28.673  1.00  0.00    -0.206 F 
ATOM     89  C   UNL A   1      51.521  25.695  27.029  1.00  0.00     0.059 A 
ATOM     90  C   UNL A   1      51.131  26.509  24.774  1.00  0.00     0.059 A 
ATOM     91  F   UNL A   1      49.120  27.601  24.262  1.00  0.00    -0.206 F 
ATOM     92  C   UNL A   1      51.946  25.875  25.710  1.00  0.00     0.060 A 
BRANCH  92  93
ATOM     93  S   UNL A   1      53.567  25.242  25.228  1.00  0.00     0.124 S 
ATOM     94  O   UNL A   1      54.439  25.901  26.194  1.00  0.00    -0.237 OA
ATOM     95  O   UNL A   1      53.405  23.801  25.400  1.00  0.00    -0.237 OA
ATOM     96  O   UNL A   1      53.708  25.690  23.845  1.00  0.00    -0.744 OA
ENDBRANCH  92  93
ENDBRANCH  60  85
ENDBRANCH  34  35
ENDBRANCH  27  29
ENDBRANCH  26  27
ENDBRANCH  25  26
ENDBRANCH  24  25
ENDBRANCH  23  24
ENDBRANCH   1  23
TORSDOF 21
ENDMDL
MODEL 3
REMARK VINA RESULT:     -10.6      6.407     12.054
REMARK SMILES C[C@@H](C(=O)OCCOCCOC(=O)c1ccc(-c2c3nc(c(-c4c(F)cc(S(=O)(=O)[O-])cc4F)c4ccc([nH]4)c(-c4c(F)cc(S(=O)(=O)[O-])cc4F)c4nc(c(-c5c(F)cc(S(=O)(=O)[O-])cc5F)c5ccc2[nH]5)C=C4)C=C3)cc1)c1ccc(C[C@@H]2CCC[C@@H]2O)cc1Br
REMARK SMILES IDX 7 1 6 2 5 3 3 4 4 5 2 6 1 7 80 8 81 9 92 10 82 11 91 12
REMARK SMILES IDX 93 13 83 14 84 15 85 16 86 17 89 18 87 19 88 20 90 21 8 23
REMARK SMILES IDX 9 24 10 25 11 26 12 27 13 28 14 29 15 30 79 31 16 32 78 33
REMARK SMILES IDX 17 34 18 35 19 36 72 37 20 38 77 39 71 40 73 41 21 42 76 43
REMARK SMILES IDX 70 44 69 45 22 47 56 48 35 49 55 50 36 51 39 52 54 53 74 54
REMARK SMILES IDX 37 55 38 56 53 58 75 59 40 60 23 61 24 62 33 63 25 64 26 65
REMARK SMILES IDX 32 66 34 67 27 68 28 69 29 70 30 71 31 72 57 73 58 74 67 75
REMARK SMILES IDX 59 76 60 77 66 78 68 79 61 80 62 81 63 82 64 83 65 84 41 85
REMARK SMILES IDX 42 86 51 87 43 88 44 89 50 90 52 91 45 92 46 93 47 94 48 95
REMARK SMILES IDX 49 96
REMARK H PARENT 90 22 73 46 39 57
REMARK Flexibility Score: inf
ROOT
ATOM      1  C   UNL A   1      33.650  30.600  27.183  1.00  0.00     0.202 C 
ENDROOT
BRANCH   1   2
ATOM      2  C   UNL A   1      32.368  30.078  26.524  1.00  0.00     0.261 C 
BRANCH   2   3
ATOM      3  O   UNL A   1      32.594  28.993  25.610  1.00  0.00    -0.463 OA
BRANCH   3   4
ATOM      4  C   UNL A   1      31.642  28.875  24.642  1.00  0.00     0.313 C 
ATOM      5  O   UNL A   1      30.751  29.702  24.480  1.00  0.00    -0.252 OA
BRANCH   4   6
ATOM      6  C   UNL A   1      31.808  27.599  23.784  1.00  0.00     0.127 C 
ATOM      7  C   UNL A   1      30.483  27.147  23.142  1.00  0.00     0.025 C 
BRANCH   6   8
ATOM      8  C   UNL A   1      32.507  26.508  24.614  1.00  0.00    -0.020 A 
ATOM      9  C   UNL A   1      33.881  26.246  24.472  1.00  0.00     0.006 A 
ATOM     10  C   UNL A   1      31.781  25.651  25.467  1.00  0.00     0.022 A 
ATOM     11  C   UNL A   1      34.482  25.134  25.077  1.00  0.00     0.004 A 
ATOM     12  C   UNL A   1      32.369  24.493  25.995  1.00  0.00     0.019 A 
ATOM     13  Br  UNL A   1      29.989  26.005  26.013  1.00  0.00    -0.050 Br
ATOM     14  C   UNL A   1      33.720  24.197  25.775  1.00  0.00    -0.047 A 
BRANCH  14  15
ATOM     15  C   UNL A   1      34.315  22.934  26.351  1.00  0.00     0.041 C 
BRANCH  15  16
ATOM     16  C   UNL A   1      34.477  21.668  25.475  1.00  0.00     0.022 C 
ATOM     17  C   UNL A   1      34.254  21.873  23.973  1.00  0.00     0.007 C 
ATOM     18  C   UNL A   1      33.588  20.461  25.788  1.00  0.00     0.117 C 
ATOM     19  C   UNL A   1      32.863  21.316  23.654  1.00  0.00     0.003 C 
ATOM     20  C   UNL A   1      32.346  20.667  24.935  1.00  0.00     0.032 C 
BRANCH  18  21
ATOM     21  O   UNL A   1      33.276  20.320  27.155  1.00  0.00    -0.393 OA
ATOM     22  H   UNL A   1      32.314  20.247  27.262  1.00  0.00     0.210 HD
ENDBRANCH  18  21
ENDBRANCH  15  16
ENDBRANCH  14  15
ENDBRANCH   6   8
ENDBRANCH   4   6
ENDBRANCH   3   4
ENDBRANCH   2   3
ENDBRANCH   1   2
BRANCH   1  23
ATOM     23  O   UNL A   1      33.608  31.876  27.814  1.00  0.00    -0.374 OA
BRANCH  23  24
ATOM     24  C   UNL A   1      34.839  32.432  28.274  1.00  0.00     0.202 C 
BRANCH  24  25
ATOM     25  C   UNL A   1      35.053  32.495  29.792  1.00  0.00     0.261 C 
BRANCH  25  26
ATOM     26  O   UNL A   1      35.836  31.387  30.274  1.00  0.00    -0.460 OA
BRANCH  26  27
ATOM     27  C   UNL A   1      36.992  31.736  30.890  1.00  0.00     0.338 C 
ATOM     28  O   UNL A   1      37.115  32.479  31.856  1.00  0.00    -0.246 OA
BRANCH  27  29
ATOM     29  C   UNL A   1      38.114  30.937  30.363  1.00  0.00     0.060 A 
ATOM     30  C   UNL A   1      39.102  30.537  31.272  1.00  0.00     0.016 A 
ATOM     31  C   UNL A   1      38.241  30.646  29.004  1.00  0.00     0.016 A 
ATOM     32  C   UNL A   1      40.251  29.894  30.818  1.00  0.00     0.010 A 
ATOM     33  C   UNL A   1      39.403  30.011  28.548  1.00  0.00     0.010 A 
ATOM     34  C   UNL A   1      40.429  29.667  29.449  1.00  0.00    -0.014 A 
BRANCH  34  35
ATOM     35  C   UNL A   1      41.756  29.225  28.952  1.00  0.00     0.031 A 
ATOM     36  C   UNL A   1      42.870  30.233  28.861  1.00  0.00     0.074 A 
ATOM     37  C   UNL A   1      41.978  27.939  28.628  1.00  0.00     0.049 A 
ATOM     38  N   UNL A   1      44.097  30.076  28.439  1.00  0.00    -0.248 NA
ATOM     39  C   UNL A   1      42.556  31.601  29.308  1.00  0.00     0.031 C 
ATOM     40  C   UNL A   1      40.990  26.865  28.712  1.00  0.00     0.029 A 
ATOM     41  N   UNL A   1      43.109  27.321  28.157  1.00  0.00    -0.354 N 
ATOM     42  C   UNL A   1      44.703  31.322  28.565  1.00  0.00     0.074 A 
ATOM     43  C   UNL A   1      43.697  32.231  29.074  1.00  0.00     0.031 C 
ATOM     44  C   UNL A   1      41.555  25.719  28.292  1.00  0.00     0.029 A 
ATOM     45  C   UNL A   1      42.935  25.986  27.883  1.00  0.00     0.049 A 
ATOM     46  H   UNL A   1      43.965  27.790  28.027  1.00  0.00     0.167 HD
ATOM     47  C   UNL A   1      45.982  31.674  28.293  1.00  0.00     0.037 A 
ATOM     48  C   UNL A   1      43.783  25.088  27.346  1.00  0.00     0.037 A 
ATOM     49  C   UNL A   1      46.977  30.766  27.786  1.00  0.00     0.049 A 
ATOM     50  C   UNL A   1      45.185  25.515  26.992  1.00  0.00     0.074 A 
ATOM     51  C   UNL A   1      48.304  31.024  27.485  1.00  0.00     0.029 A 
ATOM     52  N   UNL A   1      46.756  29.427  27.499  1.00  0.00    -0.354 N 
ATOM     53  N   UNL A   1      45.747  26.692  27.131  1.00  0.00    -0.248 NA
ATOM     54  C   UNL A   1      46.067  24.492  26.412  1.00  0.00     0.031 C 
ATOM     55  C   UNL A   1      48.871  29.851  26.975  1.00  0.00     0.029 A 
ATOM     56  C   UNL A   1      47.913  28.850  27.005  1.00  0.00     0.049 A 
ATOM     57  H   UNL A   1      45.900  28.956  27.628  1.00  0.00     0.167 HD
ATOM     58  C   UNL A   1      47.056  26.545  26.678  1.00  0.00     0.074 A 
ATOM     59  C   UNL A   1      47.203  25.162  26.272  1.00  0.00     0.031 C 
ATOM     60  C   UNL A   1      48.046  27.470  26.609  1.00  0.00     0.037 A 
BRANCH  47  61
ATOM     61  C   UNL A   1      46.368  33.109  28.518  1.00  0.00     0.058 A 
ATOM     62  C   UNL A   1      46.250  34.073  27.503  1.00  0.00     0.135 A 
ATOM     63  C   UNL A   1      46.842  33.532  29.770  1.00  0.00     0.135 A 
ATOM     64  F   UNL A   1      45.820  33.719  26.282  1.00  0.00    -0.206 F 
ATOM     65  C   UNL A   1      46.613  35.399  27.715  1.00  0.00     0.059 A 
ATOM     66  C   UNL A   1      47.187  34.859  30.011  1.00  0.00     0.059 A 
ATOM     67  F   UNL A   1      46.976  32.651  30.774  1.00  0.00    -0.206 F 
ATOM     68  C   UNL A   1      47.083  35.782  28.972  1.00  0.00     0.060 A 
BRANCH  68  69
ATOM     69  S   UNL A   1      47.555  37.506  29.230  1.00  0.00     0.124 S 
ATOM     70  O   UNL A   1      48.250  37.806  27.981  1.00  0.00    -0.237 OA
ATOM     71  O   UNL A   1      46.263  38.161  29.411  1.00  0.00    -0.237 OA
ATOM     72  O   UNL A   1      48.399  37.452  30.420  1.00  0.00    -0.744 OA
ENDBRANCH  68  69
ENDBRANCH  47  61
BRANCH  48  73
ATOM     73  C   UNL A   1      43.325  23.695  27.095  1.00  0.00     0.058 A 
ATOM     74  C   UNL A   1      43.141  22.789  28.148  1.00  0.00     0.135 A 
ATOM     75  C   UNL A   1      43.055  23.249  25.791  1.00  0.00     0.135 A 
ATOM     76  F   UNL A   1      43.397  23.164  29.410  1.00  0.00    -0.206 F 
ATOM     77  C   UNL A   1      42.714  21.484  27.918  1.00  0.00     0.059 A 
ATOM     78  C   UNL A   1      42.604  21.958  25.540  1.00  0.00     0.059 A 
ATOM     79  F   UNL A   1      43.208  24.082  24.750  1.00  0.00    -0.206 F 
ATOM     80  C   UNL A   1      42.444  21.079  26.610  1.00  0.00     0.060 A 
BRANCH  80  81
ATOM     81  S   UNL A   1      41.836  19.402  26.327  1.00  0.00     0.124 S 
ATOM     82  O   UNL A   1      40.397  19.622  26.239  1.00  0.00    -0.237 OA
ATOM     83  O   UNL A   1      42.504  19.040  25.080  1.00  0.00    -0.237 OA
ATOM     84  O   UNL A   1      42.294  18.676  27.508  1.00  0.00    -0.744 OA
ENDBRANCH  80  81
ENDBRANCH  48  73
BRANCH  60  85
ATOM     85  C   UNL A   1      49.387  27.015  26.103  1.00  0.00     0.058 A 
ATOM     86  C   UNL A   1      49.739  27.118  24.748  1.00  0.00     0.135 A 
ATOM     87  C   UNL A   1      50.353  26.523  26.995  1.00  0.00     0.135 A 
ATOM     88  F   UNL A   1      48.852  27.579  23.853  1.00  0.00    -0.206 F 
ATOM     89  C   UNL A   1      50.995  26.729  24.292  1.00  0.00     0.059 A 
ATOM     90  C   UNL A   1      51.623  26.151  26.566  1.00  0.00     0.059 A 
ATOM     91  F   UNL A   1      50.072  26.414  28.304  1.00  0.00    -0.206 F 
ATOM     92  C   UNL A   1      51.931  26.247  25.210  1.00  0.00     0.060 A 
BRANCH  92  93
ATOM     93  S   UNL A   1      53.568  25.776  24.611  1.00  0.00     0.124 S 
ATOM     94  O   UNL A   1      53.493  26.170  23.209  1.00  0.00    -0.237 OA
ATOM     95  O   UNL A   1      54.453  26.581  25.450  1.00  0.00    -0.237 OA
ATOM     96  O   UNL A   1      53.619  24.338  24.859  1.00  0.00    -0.744 OA
ENDBRANCH  92  93
ENDBRANCH  60  85
ENDBRANCH  34  35
ENDBRANCH  27  29
ENDBRANCH  26  27
ENDBRANCH  25  26
ENDBRANCH  24  25
ENDBRANCH  23  24
ENDBRANCH   1  23
TORSDOF 21
ENDMDL
