MODEL 1
REMARK VINA RESULT:     -11.7      0.000      0.000
REMARK SMILES Cc1ccc(C(=O)NC2(CC(=O)OCCOCCOC(=O)c3ccc(-c4c5nc(c(-c6c(F)cc(S(=O)(=O)[O-])cc6F)c6ccc([nH]6)c(-c6c(F)cc(S(=O)(=O)[O-])cc6F)c6nc(c(-c7c(F)cc(S(=O)(=O)[O-])cc7F)c7ccc4[nH]7)C=C6)C=C5)cc3)CCC2)cc1
REMARK SMILES IDX 16 1 15 2 14 3 13 4 11 5 12 6 10 7 9 8 88 9 90 10 89 11 8 12
REMARK SMILES IDX 6 13 7 14 5 16 1 17 2 18 3 19 92 20 4 21 91 22 17 23 18 24
REMARK SMILES IDX 19 25 20 26 21 27 22 28 23 29 87 30 24 31 86 32 25 33 26 34
REMARK SMILES IDX 27 35 80 36 28 37 85 38 79 39 81 40 29 41 84 42 78 43 77 44
REMARK SMILES IDX 30 46 64 47 43 48 63 49 44 50 47 51 62 52 82 53 45 54 46 55
REMARK SMILES IDX 61 57 83 58 48 59 31 60 32 61 41 62 33 63 34 64 40 65 42 66
REMARK SMILES IDX 35 67 36 68 37 69 38 70 39 71 65 72 66 73 75 74 67 75 68 76
REMARK SMILES IDX 74 77 76 78 69 79 70 80 71 81 72 82 73 83 49 84 50 85 59 86
REMARK SMILES IDX 51 87 52 88 58 89 60 90 53 91 54 92 55 93 56 94 57 95
REMARK H PARENT 8 15 81 45 47 56
REMARK Flexibility Score: inf
ROOT
ATOM      1  O   UNL A   1      34.926  32.379  27.556  1.00  0.00    -0.374 OA
ENDROOT
BRANCH   1   2
ATOM      2  C   UNL A   1      34.285  31.203  28.016  1.00  0.00     0.202 C 
BRANCH   2   3
ATOM      3  C   UNL A   1      34.186  29.848  27.234  1.00  0.00     0.261 C 
BRANCH   3   4
ATOM      4  O   UNL A   1      32.628  28.549  26.959  1.00  0.00    -0.463 OA
BRANCH   4   5
ATOM      5  C   UNL A   1      31.736  27.769  26.077  1.00  0.00     0.308 C 
ATOM      6  O   UNL A   1      31.116  26.819  26.575  1.00  0.00    -0.252 OA
BRANCH   5   7
ATOM      7  C   UNL A   1      31.481  28.072  24.534  1.00  0.00     0.151 C 
BRANCH   7   8
ATOM      8  C   UNL A   1      30.800  27.114  23.448  1.00  0.00     0.051 C 
ATOM      9  C   UNL A   1      29.332  27.610  23.132  1.00  0.00     0.029 C 
ATOM     10  C   UNL A   1      29.975  25.683  23.604  1.00  0.00     0.029 C 
ATOM     11  C   UNL A   1      28.835  26.544  24.140  1.00  0.00     0.005 C 
BRANCH   8  12
ATOM     12  N   UNL A   1      31.624  27.040  22.231  1.00  0.00    -0.346 N 
ATOM     13  C   UNL A   1      32.685  26.206  22.094  1.00  0.00     0.251 C 
ATOM     14  O   UNL A   1      33.420  26.213  21.117  1.00  0.00    -0.269 OA
ATOM     15  H   UNL A   1      31.393  27.626  21.475  1.00  0.00     0.164 HD
BRANCH  13  16
ATOM     16  C   UNL A   1      32.974  25.381  23.250  1.00  0.00     0.039 A 
ATOM     17  C   UNL A   1      34.482  21.860  26.621  1.00  0.00     0.044 C 
ATOM     18  C   UNL A   1      34.018  22.821  25.561  1.00  0.00    -0.051 A 
ATOM     19  C   UNL A   1      32.977  22.456  24.197  1.00  0.00     0.004 A 
ATOM     20  C   UNL A   1      34.688  24.443  25.677  1.00  0.00     0.004 A 
ATOM     21  C   UNL A   1      32.463  23.686  23.013  1.00  0.00     0.014 A 
ATOM     22  C   UNL A   1      34.166  25.747  24.601  1.00  0.00     0.014 A 
ENDBRANCH  13  16
ENDBRANCH   8  12
ENDBRANCH   7   8
ENDBRANCH   5   7
ENDBRANCH   4   5
ENDBRANCH   3   4
ENDBRANCH   2   3
ENDBRANCH   1   2
BRANCH   1  23
ATOM     23  C   UNL A   1      35.357  33.176  28.650  1.00  0.00     0.202 C 
BRANCH  23  24
ATOM     24  C   UNL A   1      36.896  33.199  28.806  1.00  0.00     0.261 C 
BRANCH  24  25
ATOM     25  O   UNL A   1      37.407  31.894  28.390  1.00  0.00    -0.460 OA
BRANCH  25  26
ATOM     26  C   UNL A   1      37.537  30.891  29.316  1.00  0.00     0.338 C 
ATOM     27  O   UNL A   1      37.258  30.998  30.500  1.00  0.00    -0.246 OA
BRANCH  26  28
ATOM     28  C   UNL A   1      38.249  29.688  28.724  1.00  0.00     0.060 A 
ATOM     29  C   UNL A   1      38.487  28.524  29.472  1.00  0.00     0.016 A 
ATOM     30  C   UNL A   1      38.912  29.773  27.510  1.00  0.00     0.016 A 
ATOM     31  C   UNL A   1      39.592  27.663  29.179  1.00  0.00     0.010 A 
ATOM     32  C   UNL A   1      40.029  28.935  27.266  1.00  0.00     0.010 A 
ATOM     33  C   UNL A   1      40.562  28.073  28.266  1.00  0.00    -0.014 A 
BRANCH  33  34
ATOM     34  C   UNL A   1      42.133  27.821  28.341  1.00  0.00     0.031 A 
ATOM     35  C   UNL A   1      42.383  26.452  27.903  1.00  0.00     0.074 A 
ATOM     36  C   UNL A   1      43.300  28.536  28.619  1.00  0.00     0.049 A 
ATOM     37  N   UNL A   1      42.282  25.433  28.697  1.00  0.00    -0.248 NA
ATOM     38  C   UNL A   1      42.452  26.149  26.464  1.00  0.00     0.031 C 
ATOM     39  C   UNL A   1      44.734  28.205  28.432  1.00  0.00     0.029 A 
ATOM     40  N   UNL A   1      43.482  29.879  28.988  1.00  0.00    -0.354 N 
ATOM     41  C   UNL A   1      42.600  24.384  27.874  1.00  0.00     0.074 A 
ATOM     42  C   UNL A   1      42.235  24.835  26.531  1.00  0.00     0.031 C 
ATOM     43  C   UNL A   1      45.543  29.205  28.905  1.00  0.00     0.029 A 
ATOM     44  C   UNL A   1      44.733  30.320  29.463  1.00  0.00     0.049 A 
ATOM     45  H   UNL A   1      42.733  30.512  28.916  1.00  0.00     0.167 HD
ATOM     46  C   UNL A   1      43.780  23.705  28.018  1.00  0.00     0.037 A 
ATOM     47  C   UNL A   1      44.849  30.971  30.685  1.00  0.00     0.037 A 
ATOM     48  C   UNL A   1      44.792  24.461  28.800  1.00  0.00     0.049 A 
ATOM     49  C   UNL A   1      44.930  29.797  31.660  1.00  0.00     0.074 A 
ATOM     50  C   UNL A   1      46.062  24.944  28.519  1.00  0.00     0.029 A 
ATOM     51  N   UNL A   1      44.448  25.111  30.001  1.00  0.00    -0.354 N 
ATOM     52  N   UNL A   1      44.983  28.563  31.228  1.00  0.00    -0.248 NA
ATOM     53  C   UNL A   1      44.991  29.839  33.111  1.00  0.00     0.031 C 
ATOM     54  C   UNL A   1      46.509  25.764  29.607  1.00  0.00     0.029 A 
ATOM     55  C   UNL A   1      45.496  25.845  30.550  1.00  0.00     0.049 A 
ATOM     56  H   UNL A   1      43.555  25.052  30.411  1.00  0.00     0.167 HD
ATOM     57  C   UNL A   1      45.166  27.672  32.213  1.00  0.00     0.074 A 
ATOM     58  C   UNL A   1      45.078  28.521  33.403  1.00  0.00     0.031 C 
ATOM     59  C   UNL A   1      45.422  26.353  31.935  1.00  0.00     0.037 A 
BRANCH  46  60
ATOM     60  C   UNL A   1      43.985  22.560  27.024  1.00  0.00     0.058 A 
ATOM     61  C   UNL A   1      43.121  21.464  26.907  1.00  0.00     0.135 A 
ATOM     62  C   UNL A   1      45.097  22.535  26.128  1.00  0.00     0.135 A 
ATOM     63  F   UNL A   1      41.997  21.381  27.627  1.00  0.00    -0.206 F 
ATOM     64  C   UNL A   1      43.366  20.398  26.030  1.00  0.00     0.059 A 
ATOM     65  C   UNL A   1      45.385  21.465  25.276  1.00  0.00     0.059 A 
ATOM     66  F   UNL A   1      45.968  23.559  26.078  1.00  0.00    -0.206 F 
ATOM     67  C   UNL A   1      44.499  20.403  25.222  1.00  0.00     0.060 A 
BRANCH  67  68
ATOM     68  S   UNL A   1      44.760  19.042  24.065  1.00  0.00     0.124 S 
ATOM     69  O   UNL A   1      43.842  18.024  24.566  1.00  0.00    -0.237 OA
ATOM     70  O   UNL A   1      44.390  19.660  22.796  1.00  0.00    -0.237 OA
ATOM     71  O   UNL A   1      46.177  18.726  24.218  1.00  0.00    -0.744 OA
ENDBRANCH  67  68
ENDBRANCH  46  60
BRANCH  47  72
ATOM     72  C   UNL A   1      44.256  32.441  30.953  1.00  0.00     0.058 A 
ATOM     73  C   UNL A   1      44.964  33.613  30.530  1.00  0.00     0.135 A 
ATOM     74  C   UNL A   1      42.895  32.722  31.215  1.00  0.00     0.135 A 
ATOM     75  F   UNL A   1      46.287  33.540  30.307  1.00  0.00    -0.206 F 
ATOM     76  C   UNL A   1      44.319  34.812  30.051  1.00  0.00     0.059 A 
ATOM     77  C   UNL A   1      42.216  33.868  30.667  1.00  0.00     0.059 A 
ATOM     78  F   UNL A   1      42.122  31.781  31.777  1.00  0.00    -0.206 F 
ATOM     79  C   UNL A   1      42.924  34.859  29.987  1.00  0.00     0.060 A 
BRANCH  79  80
ATOM     80  S   UNL A   1      42.085  35.835  28.625  1.00  0.00     0.124 S 
ATOM     81  O   UNL A   1      40.673  35.571  28.862  1.00  0.00    -0.237 OA
ATOM     82  O   UNL A   1      42.512  37.211  28.883  1.00  0.00    -0.237 OA
ATOM     83  O   UNL A   1      42.640  35.252  27.407  1.00  0.00    -0.744 OA
ENDBRANCH  79  80
ENDBRANCH  47  72
BRANCH  59  84
ATOM     84  C   UNL A   1      45.698  25.373  33.024  1.00  0.00     0.058 A 
ATOM     85  C   UNL A   1      44.685  24.797  33.799  1.00  0.00     0.135 A 
ATOM     86  C   UNL A   1      47.022  25.018  33.358  1.00  0.00     0.135 A 
ATOM     87  F   UNL A   1      43.419  25.237  33.736  1.00  0.00    -0.206 F 
ATOM     88  C   UNL A   1      44.951  23.759  34.677  1.00  0.00     0.059 A 
ATOM     89  C   UNL A   1      47.316  24.042  34.285  1.00  0.00     0.059 A 
ATOM     90  F   UNL A   1      48.093  25.582  32.787  1.00  0.00    -0.206 F 
ATOM     91  C   UNL A   1      46.270  23.367  34.883  1.00  0.00     0.060 A 
BRANCH  91  92
ATOM     92  S   UNL A   1      46.615  21.967  35.941  1.00  0.00     0.124 S 
ATOM     93  O   UNL A   1      46.806  22.603  37.241  1.00  0.00    -0.237 OA
ATOM     94  O   UNL A   1      45.392  21.188  35.788  1.00  0.00    -0.237 OA
ATOM     95  O   UNL A   1      47.815  21.384  35.351  1.00  0.00    -0.744 OA
ENDBRANCH  91  92
ENDBRANCH  59  84
ENDBRANCH  33  34
ENDBRANCH  26  28
ENDBRANCH  25  26
ENDBRANCH  24  25
ENDBRANCH  23  24
ENDBRANCH   1  23
TORSDOF 20
ENDMDL
MODEL 2
REMARK VINA RESULT:     -11.7      3.607      5.830
REMARK SMILES Cc1ccc(C(=O)NC2(CC(=O)OCCOCCOC(=O)c3ccc(-c4c5nc(c(-c6c(F)cc(S(=O)(=O)[O-])cc6F)c6ccc([nH]6)c(-c6c(F)cc(S(=O)(=O)[O-])cc6F)c6nc(c(-c7c(F)cc(S(=O)(=O)[O-])cc7F)c7ccc4[nH]7)C=C6)C=C5)cc3)CCC2)cc1
REMARK SMILES IDX 16 1 15 2 14 3 13 4 11 5 12 6 10 7 9 8 88 9 90 10 89 11 8 12
REMARK SMILES IDX 6 13 7 14 5 16 1 17 2 18 3 19 92 20 4 21 91 22 17 23 18 24
REMARK SMILES IDX 19 25 20 26 21 27 22 28 23 29 87 30 24 31 86 32 25 33 26 34
REMARK SMILES IDX 27 35 80 36 28 37 85 38 79 39 81 40 29 41 84 42 78 43 77 44
REMARK SMILES IDX 30 46 64 47 43 48 63 49 44 50 47 51 62 52 82 53 45 54 46 55
REMARK SMILES IDX 61 57 83 58 48 59 31 60 32 61 41 62 33 63 34 64 40 65 42 66
REMARK SMILES IDX 35 67 36 68 37 69 38 70 39 71 65 72 66 73 75 74 67 75 68 76
REMARK SMILES IDX 74 77 76 78 69 79 70 80 71 81 72 82 73 83 49 84 50 85 59 86
REMARK SMILES IDX 51 87 52 88 58 89 60 90 53 91 54 92 55 93 56 94 57 95
REMARK H PARENT 8 15 81 45 47 56
REMARK Flexibility Score: inf
ROOT
ATOM      1  O   UNL A   1      36.790  22.366  24.047  1.00  0.00    -0.374 OA
ENDROOT
BRANCH   1   2
ATOM      2  C   UNL A   1      35.477  22.757  24.405  1.00  0.00     0.202 C 
BRANCH   2   3
ATOM      3  C   UNL A   1      35.071  23.517  25.714  1.00  0.00     0.261 C 
BRANCH   3   4
ATOM      4  O   UNL A   1      33.250  24.133  26.418  1.00  0.00    -0.463 OA
BRANCH   4   5
ATOM      5  C   UNL A   1      31.799  23.927  26.602  1.00  0.00     0.308 C 
ATOM      6  O   UNL A   1      31.419  23.401  27.657  1.00  0.00    -0.252 OA
BRANCH   5   7
ATOM      7  C   UNL A   1      30.674  24.361  25.561  1.00  0.00     0.151 C 
BRANCH   7   8
ATOM      8  C   UNL A   1      30.849  24.663  24.000  1.00  0.00     0.051 C 
ATOM      9  C   UNL A   1      30.644  23.336  23.164  1.00  0.00     0.029 C 
ATOM     10  C   UNL A   1      32.197  24.723  23.034  1.00  0.00     0.029 C 
ATOM     11  C   UNL A   1      32.188  23.201  23.142  1.00  0.00     0.005 C 
BRANCH   8  12
ATOM     12  N   UNL A   1      29.927  25.726  23.569  1.00  0.00    -0.346 N 
ATOM     13  C   UNL A   1      30.068  27.028  23.921  1.00  0.00     0.251 C 
ATOM     14  O   UNL A   1      29.249  27.890  23.636  1.00  0.00    -0.269 OA
ATOM     15  H   UNL A   1      29.167  25.479  22.994  1.00  0.00     0.164 HD
BRANCH  13  16
ATOM     16  C   UNL A   1      31.201  27.317  24.777  1.00  0.00     0.039 A 
ATOM     17  C   UNL A   1      35.128  29.293  27.367  1.00  0.00     0.044 C 
ATOM     18  C   UNL A   1      34.002  28.764  26.521  1.00  0.00    -0.051 A 
ATOM     19  C   UNL A   1      33.956  28.681  24.769  1.00  0.00     0.004 A 
ATOM     20  C   UNL A   1      32.563  28.280  27.408  1.00  0.00     0.004 A 
ATOM     21  C   UNL A   1      32.576  28.002  23.867  1.00  0.00     0.014 A 
ATOM     22  C   UNL A   1      31.185  27.515  26.605  1.00  0.00     0.014 A 
ENDBRANCH  13  16
ENDBRANCH   8  12
ENDBRANCH   7   8
ENDBRANCH   5   7
ENDBRANCH   4   5
ENDBRANCH   3   4
ENDBRANCH   2   3
ENDBRANCH   1   2
BRANCH   1  23
ATOM     23  C   UNL A   1      37.118  21.113  24.631  1.00  0.00     0.202 C 
BRANCH  23  24
ATOM     24  C   UNL A   1      38.357  21.188  25.554  1.00  0.00     0.261 C 
BRANCH  24  25
ATOM     25  O   UNL A   1      38.530  22.582  25.960  1.00  0.00    -0.460 OA
BRANCH  25  26
ATOM     26  C   UNL A   1      39.624  22.939  26.704  1.00  0.00     0.338 C 
ATOM     27  O   UNL A   1      40.382  22.151  27.248  1.00  0.00    -0.246 OA
BRANCH  26  28
ATOM     28  C   UNL A   1      39.668  24.440  26.927  1.00  0.00     0.060 A 
ATOM     29  C   UNL A   1      40.427  25.290  26.107  1.00  0.00     0.016 A 
ATOM     30  C   UNL A   1      39.168  25.008  28.089  1.00  0.00     0.016 A 
ATOM     31  C   UNL A   1      40.943  26.532  26.597  1.00  0.00     0.010 A 
ATOM     32  C   UNL A   1      39.729  26.218  28.570  1.00  0.00     0.010 A 
ATOM     33  C   UNL A   1      40.861  26.825  27.956  1.00  0.00    -0.014 A 
BRANCH  33  34
ATOM     34  C   UNL A   1      41.941  27.577  28.853  1.00  0.00     0.031 A 
ATOM     35  C   UNL A   1      43.260  27.264  28.313  1.00  0.00     0.074 A 
ATOM     36  C   UNL A   1      41.979  28.482  29.917  1.00  0.00     0.049 A 
ATOM     37  N   UNL A   1      43.904  26.182  28.621  1.00  0.00    -0.248 NA
ATOM     38  C   UNL A   1      43.769  28.014  27.153  1.00  0.00     0.031 C 
ATOM     39  C   UNL A   1      43.086  29.270  30.510  1.00  0.00     0.029 A 
ATOM     40  N   UNL A   1      40.936  29.080  30.643  1.00  0.00    -0.354 N 
ATOM     41  C   UNL A   1      45.062  26.311  27.900  1.00  0.00     0.074 A 
ATOM     42  C   UNL A   1      44.700  27.146  26.755  1.00  0.00     0.031 C 
ATOM     43  C   UNL A   1      42.660  29.995  31.591  1.00  0.00     0.029 A 
ATOM     44  C   UNL A   1      41.212  29.769  31.840  1.00  0.00     0.049 A 
ATOM     45  H   UNL A   1      40.011  29.016  30.315  1.00  0.00     0.167 HD
ATOM     46  C   UNL A   1      46.256  26.563  28.519  1.00  0.00     0.037 A 
ATOM     47  C   UNL A   1      40.559  29.446  33.024  1.00  0.00     0.037 A 
ATOM     48  C   UNL A   1      46.094  27.093  29.899  1.00  0.00     0.049 A 
ATOM     49  C   UNL A   1      41.402  28.280  33.539  1.00  0.00     0.074 A 
ATOM     50  C   UNL A   1      46.464  28.272  30.527  1.00  0.00     0.029 A 
ATOM     51  N   UNL A   1      45.185  26.508  30.801  1.00  0.00    -0.354 N 
ATOM     52  N   UNL A   1      42.499  27.916  32.925  1.00  0.00    -0.248 NA
ATOM     53  C   UNL A   1      41.175  27.460  34.717  1.00  0.00     0.031 C 
ATOM     54  C   UNL A   1      45.883  28.315  31.837  1.00  0.00     0.029 A 
ATOM     55  C   UNL A   1      45.096  27.187  32.013  1.00  0.00     0.049 A 
ATOM     56  H   UNL A   1      44.663  25.698  30.594  1.00  0.00     0.167 HD
ATOM     57  C   UNL A   1      43.170  26.956  33.577  1.00  0.00     0.074 A 
ATOM     58  C   UNL A   1      42.246  26.636  34.667  1.00  0.00     0.031 C 
ATOM     59  C   UNL A   1      44.427  26.575  33.179  1.00  0.00     0.037 A 
BRANCH  46  60
ATOM     60  C   UNL A   1      47.456  26.678  27.576  1.00  0.00     0.058 A 
ATOM     61  C   UNL A   1      48.129  25.576  27.033  1.00  0.00     0.135 A 
ATOM     62  C   UNL A   1      47.977  27.946  27.177  1.00  0.00     0.135 A 
ATOM     63  F   UNL A   1      47.714  24.325  27.256  1.00  0.00    -0.206 F 
ATOM     64  C   UNL A   1      49.263  25.710  26.220  1.00  0.00     0.059 A 
ATOM     65  C   UNL A   1      49.129  28.104  26.403  1.00  0.00     0.059 A 
ATOM     66  F   UNL A   1      47.383  29.090  27.562  1.00  0.00    -0.206 F 
ATOM     67  C   UNL A   1      49.760  26.973  25.912  1.00  0.00     0.060 A 
BRANCH  67  68
ATOM     68  S   UNL A   1      51.189  27.113  24.820  1.00  0.00     0.124 S 
ATOM     69  O   UNL A   1      50.570  27.196  23.500  1.00  0.00    -0.237 OA
ATOM     70  O   UNL A   1      51.812  28.340  25.307  1.00  0.00    -0.237 OA
ATOM     71  O   UNL A   1      51.939  25.887  25.074  1.00  0.00    -0.744 OA
ENDBRANCH  67  68
ENDBRANCH  46  60
BRANCH  47  72
ATOM     72  C   UNL A   1      38.990  29.712  33.259  1.00  0.00     0.058 A 
ATOM     73  C   UNL A   1      38.533  30.899  33.920  1.00  0.00     0.135 A 
ATOM     74  C   UNL A   1      37.952  29.091  32.528  1.00  0.00     0.135 A 
ATOM     75  F   UNL A   1      39.375  31.576  34.717  1.00  0.00    -0.206 F 
ATOM     76  C   UNL A   1      37.313  31.589  33.576  1.00  0.00     0.059 A 
ATOM     77  C   UNL A   1      36.770  29.794  32.101  1.00  0.00     0.059 A 
ATOM     78  F   UNL A   1      38.158  27.882  31.983  1.00  0.00    -0.206 F 
ATOM     79  C   UNL A   1      36.512  31.091  32.545  1.00  0.00     0.060 A 
BRANCH  79  80
ATOM     80  S   UNL A   1      35.551  32.275  31.457  1.00  0.00     0.124 S 
ATOM     81  O   UNL A   1      36.405  33.454  31.430  1.00  0.00    -0.237 OA
ATOM     82  O   UNL A   1      35.445  31.557  30.186  1.00  0.00    -0.237 OA
ATOM     83  O   UNL A   1      34.285  32.429  32.167  1.00  0.00    -0.744 OA
ENDBRANCH  79  80
ENDBRANCH  47  72
BRANCH  59  84
ATOM     84  C   UNL A   1      45.205  25.560  33.943  1.00  0.00     0.058 A 
ATOM     85  C   UNL A   1      45.102  24.186  33.700  1.00  0.00     0.135 A 
ATOM     86  C   UNL A   1      46.057  25.948  34.999  1.00  0.00     0.135 A 
ATOM     87  F   UNL A   1      44.153  23.686  32.893  1.00  0.00    -0.206 F 
ATOM     88  C   UNL A   1      45.965  23.281  34.295  1.00  0.00     0.059 A 
ATOM     89  C   UNL A   1      46.870  25.054  35.661  1.00  0.00     0.059 A 
ATOM     90  F   UNL A   1      46.160  27.213  35.424  1.00  0.00    -0.206 F 
ATOM     91  C   UNL A   1      46.870  23.736  35.249  1.00  0.00     0.060 A 
BRANCH  91  92
ATOM     92  S   UNL A   1      48.052  22.594  35.953  1.00  0.00     0.124 S 
ATOM     93  O   UNL A   1      47.732  22.657  37.376  1.00  0.00    -0.237 OA
ATOM     94  O   UNL A   1      47.689  21.355  35.274  1.00  0.00    -0.237 OA
ATOM     95  O   UNL A   1      49.342  23.165  35.579  1.00  0.00    -0.744 OA
ENDBRANCH  91  92
ENDBRANCH  59  84
ENDBRANCH  33  34
ENDBRANCH  26  28
ENDBRANCH  25  26
ENDBRANCH  24  25
ENDBRANCH  23  24
ENDBRANCH   1  23
TORSDOF 20
ENDMDL
MODEL 3
REMARK VINA RESULT:     -11.6      3.219      4.387
REMARK SMILES Cc1ccc(C(=O)NC2(CC(=O)OCCOCCOC(=O)c3ccc(-c4c5nc(c(-c6c(F)cc(S(=O)(=O)[O-])cc6F)c6ccc([nH]6)c(-c6c(F)cc(S(=O)(=O)[O-])cc6F)c6nc(c(-c7c(F)cc(S(=O)(=O)[O-])cc7F)c7ccc4[nH]7)C=C6)C=C5)cc3)CCC2)cc1
REMARK SMILES IDX 16 1 15 2 14 3 13 4 11 5 12 6 10 7 9 8 88 9 90 10 89 11 8 12
REMARK SMILES IDX 6 13 7 14 5 16 1 17 2 18 3 19 92 20 4 21 91 22 17 23 18 24
REMARK SMILES IDX 19 25 20 26 21 27 22 28 23 29 87 30 24 31 86 32 25 33 26 34
REMARK SMILES IDX 27 35 80 36 28 37 85 38 79 39 81 40 29 41 84 42 78 43 77 44
REMARK SMILES IDX 30 46 64 47 43 48 63 49 44 50 47 51 62 52 82 53 45 54 46 55
REMARK SMILES IDX 61 57 83 58 48 59 31 60 32 61 41 62 33 63 34 64 40 65 42 66
REMARK SMILES IDX 35 67 36 68 37 69 38 70 39 71 65 72 66 73 75 74 67 75 68 76
REMARK SMILES IDX 74 77 76 78 69 79 70 80 71 81 72 82 73 83 49 84 50 85 59 86
REMARK SMILES IDX 51 87 52 88 58 89 60 90 53 91 54 92 55 93 56 94 57 95
REMARK H PARENT 8 15 81 45 47 56
REMARK Flexibility Score: inf
ROOT
ATOM      1  O   UNL A   1      32.669  34.074  28.313  1.00  0.00    -0.374 OA
ENDROOT
BRANCH   1   2
ATOM      2  C   UNL A   1      32.544  33.316  27.124  1.00  0.00     0.202 C 
BRANCH   2   3
ATOM      3  C   UNL A   1      31.443  32.239  26.834  1.00  0.00     0.261 C 
BRANCH   3   4
ATOM      4  O   UNL A   1      31.502  30.488  25.775  1.00  0.00    -0.463 OA
BRANCH   4   5
ATOM      5  C   UNL A   1      31.042  29.637  24.659  1.00  0.00     0.308 C 
ATOM      6  O   UNL A   1      30.214  30.115  23.870  1.00  0.00    -0.252 OA
BRANCH   5   7
ATOM      7  C   UNL A   1      31.551  28.156  24.366  1.00  0.00     0.151 C 
BRANCH   7   8
ATOM      8  C   UNL A   1      30.888  27.066  23.401  1.00  0.00     0.051 C 
ATOM      9  C   UNL A   1      29.359  27.400  23.175  1.00  0.00     0.029 C 
ATOM     10  C   UNL A   1      30.222  25.578  23.713  1.00  0.00     0.029 C 
ATOM     11  C   UNL A   1      29.046  26.365  24.285  1.00  0.00     0.005 C 
BRANCH   8  12
ATOM     12  N   UNL A   1      31.622  26.984  22.127  1.00  0.00    -0.346 N 
ATOM     13  C   UNL A   1      32.664  26.142  21.916  1.00  0.00     0.251 C 
ATOM     14  O   UNL A   1      33.326  26.142  20.888  1.00  0.00    -0.269 OA
ATOM     15  H   UNL A   1      31.341  27.571  21.389  1.00  0.00     0.164 HD
BRANCH  13  16
ATOM     16  C   UNL A   1      33.029  25.316  23.049  1.00  0.00     0.039 A 
ATOM     17  C   UNL A   1      34.925  21.909  26.342  1.00  0.00     0.044 C 
ATOM     18  C   UNL A   1      34.361  22.838  25.301  1.00  0.00    -0.051 A 
ATOM     19  C   UNL A   1      33.448  22.384  23.874  1.00  0.00     0.004 A 
ATOM     20  C   UNL A   1      34.766  24.536  25.516  1.00  0.00     0.004 A 
ATOM     21  C   UNL A   1      32.798  23.576  22.719  1.00  0.00     0.014 A 
ATOM     22  C   UNL A   1      34.093  25.795  24.471  1.00  0.00     0.014 A 
ENDBRANCH  13  16
ENDBRANCH   8  12
ENDBRANCH   7   8
ENDBRANCH   5   7
ENDBRANCH   4   5
ENDBRANCH   3   4
ENDBRANCH   2   3
ENDBRANCH   1   2
BRANCH   1  23
ATOM     23  C   UNL A   1      33.895  33.784  28.968  1.00  0.00     0.202 C 
BRANCH  23  24
ATOM     24  C   UNL A   1      34.995  33.300  27.995  1.00  0.00     0.261 C 
BRANCH  24  25
ATOM     25  O   UNL A   1      35.613  32.108  28.573  1.00  0.00    -0.460 OA
BRANCH  25  26
ATOM     26  C   UNL A   1      35.371  30.881  28.011  1.00  0.00     0.338 C 
ATOM     27  O   UNL A   1      34.342  30.573  27.429  1.00  0.00    -0.246 OA
BRANCH  26  28
ATOM     28  C   UNL A   1      36.466  29.891  28.365  1.00  0.00     0.060 A 
ATOM     29  C   UNL A   1      36.576  29.335  29.650  1.00  0.00     0.016 A 
ATOM     30  C   UNL A   1      37.546  29.683  27.522  1.00  0.00     0.016 A 
ATOM     31  C   UNL A   1      37.838  28.899  30.168  1.00  0.00     0.010 A 
ATOM     32  C   UNL A   1      38.794  29.292  28.070  1.00  0.00     0.010 A 
ATOM     33  C   UNL A   1      39.008  29.200  29.474  1.00  0.00    -0.014 A 
BRANCH  33  34
ATOM     34  C   UNL A   1      40.424  29.596  30.088  1.00  0.00     0.031 A 
ATOM     35  C   UNL A   1      41.445  28.842  29.368  1.00  0.00     0.074 A 
ATOM     36  C   UNL A   1      40.952  30.485  31.027  1.00  0.00     0.049 A 
ATOM     37  N   UNL A   1      41.763  27.624  29.675  1.00  0.00    -0.248 NA
ATOM     38  C   UNL A   1      41.927  29.330  28.065  1.00  0.00     0.031 C 
ATOM     39  C   UNL A   1      42.344  30.892  31.335  1.00  0.00     0.029 A 
ATOM     40  N   UNL A   1      40.313  31.426  31.853  1.00  0.00    -0.354 N 
ATOM     41  C   UNL A   1      42.739  27.333  28.757  1.00  0.00     0.074 A 
ATOM     42  C   UNL A   1      42.440  28.187  27.608  1.00  0.00     0.031 C 
ATOM     43  C   UNL A   1      42.388  31.765  32.389  1.00  0.00     0.029 A 
ATOM     44  C   UNL A   1      41.021  32.040  32.904  1.00  0.00     0.049 A 
ATOM     45  H   UNL A   1      39.370  31.654  31.696  1.00  0.00     0.167 HD
ATOM     46  C   UNL A   1      44.049  27.206  29.133  1.00  0.00     0.037 A 
ATOM     47  C   UNL A   1      40.544  32.003  34.209  1.00  0.00     0.037 A 
ATOM     48  C   UNL A   1      44.334  27.822  30.456  1.00  0.00     0.049 A 
ATOM     49  C   UNL A   1      41.062  30.650  34.695  1.00  0.00     0.074 A 
ATOM     50  C   UNL A   1      45.172  28.841  30.882  1.00  0.00     0.029 A 
ATOM     51  N   UNL A   1      43.483  27.610  31.557  1.00  0.00    -0.354 N 
ATOM     52  N   UNL A   1      41.847  29.918  33.945  1.00  0.00    -0.248 NA
ATOM     53  C   UNL A   1      40.825  30.006  35.975  1.00  0.00     0.031 C 
ATOM     54  C   UNL A   1      44.902  29.133  32.259  1.00  0.00     0.029 A 
ATOM     55  C   UNL A   1      43.852  28.336  32.687  1.00  0.00     0.049 A 
ATOM     56  H   UNL A   1      42.704  27.008  31.530  1.00  0.00     0.167 HD
ATOM     57  C   UNL A   1      42.296  28.822  34.572  1.00  0.00     0.074 A 
ATOM     58  C   UNL A   1      41.551  28.873  35.832  1.00  0.00     0.031 C 
ATOM     59  C   UNL A   1      43.266  28.032  34.008  1.00  0.00     0.037 A 
BRANCH  46  60
ATOM     60  C   UNL A   1      45.014  26.877  27.992  1.00  0.00     0.058 A 
ATOM     61  C   UNL A   1      45.784  27.836  27.322  1.00  0.00     0.135 A 
ATOM     62  C   UNL A   1      45.196  25.539  27.527  1.00  0.00     0.135 A 
ATOM     63  F   UNL A   1      45.776  29.120  27.691  1.00  0.00    -0.206 F 
ATOM     64  C   UNL A   1      46.614  27.514  26.239  1.00  0.00     0.059 A 
ATOM     65  C   UNL A   1      45.985  25.201  26.425  1.00  0.00     0.059 A 
ATOM     66  F   UNL A   1      44.576  24.507  28.128  1.00  0.00    -0.206 F 
ATOM     67  C   UNL A   1      46.707  26.199  25.794  1.00  0.00     0.060 A 
BRANCH  67  68
ATOM     68  S   UNL A   1      47.826  25.809  24.432  1.00  0.00     0.124 S 
ATOM     69  O   UNL A   1      47.675  26.969  23.559  1.00  0.00    -0.237 OA
ATOM     70  O   UNL A   1      49.105  25.697  25.124  1.00  0.00    -0.237 OA
ATOM     71  O   UNL A   1      47.293  24.559  23.895  1.00  0.00    -0.744 OA
ENDBRANCH  67  68
ENDBRANCH  46  60
BRANCH  47  72
ATOM     72  C   UNL A   1      39.217  32.781  34.678  1.00  0.00     0.058 A 
ATOM     73  C   UNL A   1      39.077  34.193  34.475  1.00  0.00     0.135 A 
ATOM     74  C   UNL A   1      37.969  32.164  34.923  1.00  0.00     0.135 A 
ATOM     75  F   UNL A   1      40.175  34.947  34.300  1.00  0.00    -0.206 F 
ATOM     76  C   UNL A   1      37.824  34.838  34.162  1.00  0.00     0.059 A 
ATOM     77  C   UNL A   1      36.716  32.757  34.533  1.00  0.00     0.059 A 
ATOM     78  F   UNL A   1      37.930  30.876  35.297  1.00  0.00    -0.206 F 
ATOM     79  C   UNL A   1      36.666  34.064  34.046  1.00  0.00     0.060 A 
BRANCH  79  80
ATOM     80  S   UNL A   1      35.337  34.552  32.819  1.00  0.00     0.124 S 
ATOM     81  O   UNL A   1      34.186  33.781  33.267  1.00  0.00    -0.237 OA
ATOM     82  O   UNL A   1      35.224  35.999  33.001  1.00  0.00    -0.237 OA
ATOM     83  O   UNL A   1      35.905  34.150  31.536  1.00  0.00    -0.744 OA
ENDBRANCH  79  80
ENDBRANCH  47  72
BRANCH  59  84
ATOM     84  C   UNL A   1      43.820  26.853  34.733  1.00  0.00     0.058 A 
ATOM     85  C   UNL A   1      43.078  25.690  34.964  1.00  0.00     0.135 A 
ATOM     86  C   UNL A   1      45.125  26.882  35.269  1.00  0.00     0.135 A 
ATOM     87  F   UNL A   1      41.760  25.637  34.717  1.00  0.00    -0.206 F 
ATOM     88  C   UNL A   1      43.670  24.546  35.476  1.00  0.00     0.059 A 
ATOM     89  C   UNL A   1      45.710  25.781  35.854  1.00  0.00     0.059 A 
ATOM     90  F   UNL A   1      45.902  27.971  35.232  1.00  0.00    -0.206 F 
ATOM     91  C   UNL A   1      44.999  24.597  35.883  1.00  0.00     0.060 A 
BRANCH  91  92
ATOM     92  S   UNL A   1      45.800  23.104  36.457  1.00  0.00     0.124 S 
ATOM     93  O   UNL A   1      45.664  23.218  37.905  1.00  0.00    -0.237 OA
ATOM     94  O   UNL A   1      44.979  22.080  35.820  1.00  0.00    -0.237 OA
ATOM     95  O   UNL A   1      47.161  23.231  35.946  1.00  0.00    -0.744 OA
ENDBRANCH  91  92
ENDBRANCH  59  84
ENDBRANCH  33  34
ENDBRANCH  26  28
ENDBRANCH  25  26
ENDBRANCH  24  25
ENDBRANCH  23  24
ENDBRANCH   1  23
TORSDOF 20
ENDMDL
