MODEL 1
REMARK VINA RESULT:     -11.4      0.000      0.000
REMARK SMILES CCc1cc(OC(F)(F)F)cc2c1O[C@@H](C(F)(F)F)C(C(=O)OCCOCCOC(=O)c1ccc(-c3c4nc(c(-c5c(F)cc(S(=O)(=O)[O-])cc5F)c5ccc([nH]5)c(-c5c(F)cc(S(=O)(=O)[O-])cc5F)c5nc(c(-c6c(F)cc(S(=O)(=O)[O-])cc6F)c6ccc3[nH]6)C=C5)C=C4)cc1)=C2
REMARK SMILES IDX 27 1 26 2 25 3 24 4 23 5 21 6 22 7 20 8 3 9 4 10 13 11 5 12
REMARK SMILES IDX 12 13 14 14 11 15 98 16 15 17 2 18 1 19 6 20 7 21 8 22 9 23
REMARK SMILES IDX 10 24 16 25 17 26 18 27 19 28 28 29 29 30 30 31 31 32 32 33
REMARK SMILES IDX 33 34 97 35 34 36 96 37 35 38 36 39 37 40 90 41 38 42 95 43
REMARK SMILES IDX 89 44 91 45 39 46 94 47 88 48 87 49 40 51 74 52 53 53 73 54
REMARK SMILES IDX 54 55 57 56 72 57 92 58 55 59 56 60 71 62 93 63 58 64 41 65
REMARK SMILES IDX 42 66 51 67 43 68 44 69 50 70 52 71 45 72 46 73 47 74 48 75
REMARK SMILES IDX 49 76 75 77 76 78 85 79 77 80 78 81 84 82 86 83 79 84 80 85
REMARK SMILES IDX 81 86 82 87 83 88 59 89 60 90 69 91 61 92 62 93 68 94 70 95
REMARK SMILES IDX 63 96 64 97 65 98 66 99 67 100
REMARK H PARENT 91 50 57 61
REMARK Flexibility Score: inf
ROOT
ATOM      1  C   UNL A   1      39.176  21.926  25.983  1.00  0.00     0.202 C 
ENDROOT
BRANCH   1   2
ATOM      2  O   UNL A   1      37.987  22.239  25.262  1.00  0.00    -0.374 OA
BRANCH   2   3
ATOM      3  C   UNL A   1      36.774  21.587  25.631  1.00  0.00     0.202 C 
BRANCH   3   4
ATOM      4  C   UNL A   1      35.550  22.458  25.926  1.00  0.00     0.261 C 
BRANCH   4   5
ATOM      5  O   UNL A   1      34.557  22.369  24.893  1.00  0.00    -0.460 OA
BRANCH   5   6
ATOM      6  C   UNL A   1      34.636  23.341  23.955  1.00  0.00     0.338 C 
ATOM      7  O   UNL A   1      35.255  23.291  22.905  1.00  0.00    -0.246 OA
BRANCH   6   8
ATOM      8  C   UNL A   1      33.747  24.465  24.287  1.00  0.00     0.087 C 
ATOM      9  C   UNL A   1      31.153  27.717  24.085  1.00  0.00    -0.002 A 
ATOM     10  C   UNL A   1      31.526  28.935  24.673  1.00  0.00     0.054 A 
ATOM     11  C   UNL A   1      32.039  26.638  24.168  1.00  0.00     0.131 A 
ATOM     12  C   UNL A   1      32.762  29.072  25.315  1.00  0.00     0.130 A 
ATOM     13  C   UNL A   1      33.286  26.757  24.805  1.00  0.00     0.021 A 
ATOM     14  O   UNL A   1      31.675  25.477  23.528  1.00  0.00    -0.475 OA
ATOM     15  C   UNL A   1      33.633  27.975  25.392  1.00  0.00     0.058 A 
ATOM     16  C   UNL A   1      34.238  25.644  24.707  1.00  0.00     0.027 C 
ATOM     17  C   UNL A   1      32.257  24.290  24.117  1.00  0.00     0.316 C 
BRANCH   9  18
ATOM     18  C   UNL A   1      29.843  27.598  23.339  1.00  0.00     0.036 C 
ATOM     19  C   UNL A   1      29.465  28.860  22.574  1.00  0.00     0.009 C 
ENDBRANCH   9  18
BRANCH  12  20
ATOM     20  O   UNL A   1      33.243  30.218  25.889  1.00  0.00    -0.406 OA
BRANCH  20  21
ATOM     21  C   UNL A   1      32.590  30.689  27.058  1.00  0.00     0.573 C 
ATOM     22  F   UNL A   1      33.439  31.370  27.859  1.00  0.00    -0.132 F 
ATOM     23  F   UNL A   1      31.543  31.481  26.740  1.00  0.00    -0.132 F 
ATOM     24  F   UNL A   1      32.118  29.631  27.753  1.00  0.00    -0.132 F 
ENDBRANCH  20  21
ENDBRANCH  12  20
BRANCH  17  25
ATOM     25  C   UNL A   1      31.708  23.062  23.374  1.00  0.00     0.430 C 
ATOM     26  F   UNL A   1      31.632  21.983  24.188  1.00  0.00    -0.167 F 
ATOM     27  F   UNL A   1      30.430  23.307  22.969  1.00  0.00    -0.167 F 
ATOM     28  F   UNL A   1      32.408  22.738  22.270  1.00  0.00    -0.167 F 
ENDBRANCH  17  25
ENDBRANCH   6   8
ENDBRANCH   5   6
ENDBRANCH   4   5
ENDBRANCH   3   4
ENDBRANCH   2   3
ENDBRANCH   1   2
BRANCH   1  29
ATOM     29  C   UNL A   1      39.913  23.055  26.716  1.00  0.00     0.261 C 
BRANCH  29  30
ATOM     30  O   UNL A   1      39.372  24.357  26.445  1.00  0.00    -0.460 OA
BRANCH  30  31
ATOM     31  C   UNL A   1      40.309  25.325  26.275  1.00  0.00     0.338 C 
ATOM     32  O   UNL A   1      40.854  25.646  25.233  1.00  0.00    -0.246 OA
BRANCH  31  33
ATOM     33  C   UNL A   1      40.462  26.103  27.518  1.00  0.00     0.060 A 
ATOM     34  C   UNL A   1      39.488  25.932  28.510  1.00  0.00     0.016 A 
ATOM     35  C   UNL A   1      41.480  27.045  27.673  1.00  0.00     0.016 A 
ATOM     36  C   UNL A   1      39.502  26.738  29.644  1.00  0.00     0.010 A 
ATOM     37  C   UNL A   1      41.485  27.860  28.810  1.00  0.00     0.010 A 
ATOM     38  C   UNL A   1      40.476  27.735  29.782  1.00  0.00    -0.014 A 
BRANCH  38  39
ATOM     39  C   UNL A   1      40.342  28.730  30.872  1.00  0.00     0.031 A 
ATOM     40  C   UNL A   1      41.233  28.615  32.081  1.00  0.00     0.074 A 
ATOM     41  C   UNL A   1      39.471  29.749  30.764  1.00  0.00     0.049 A 
ATOM     42  N   UNL A   1      41.283  29.370  33.147  1.00  0.00    -0.248 NA
ATOM     43  C   UNL A   1      42.193  27.499  32.088  1.00  0.00     0.031 C 
ATOM     44  C   UNL A   1      38.581  29.980  29.628  1.00  0.00     0.029 A 
ATOM     45  N   UNL A   1      39.190  30.779  31.627  1.00  0.00    -0.354 N 
ATOM     46  C   UNL A   1      42.271  28.819  33.955  1.00  0.00     0.074 A 
ATOM     47  C   UNL A   1      42.772  27.647  33.271  1.00  0.00     0.031 C 
ATOM     48  C   UNL A   1      37.846  31.079  29.866  1.00  0.00     0.029 A 
ATOM     49  C   UNL A   1      38.190  31.611  31.183  1.00  0.00     0.049 A 
ATOM     50  H   UNL A   1      39.660  30.910  32.482  1.00  0.00     0.167 HD
ATOM     51  C   UNL A   1      42.724  29.257  35.154  1.00  0.00     0.037 A 
ATOM     52  C   UNL A   1      37.607  32.669  31.781  1.00  0.00     0.037 A 
ATOM     53  C   UNL A   1      42.225  30.430  35.823  1.00  0.00     0.049 A 
ATOM     54  C   UNL A   1      38.093  33.107  33.138  1.00  0.00     0.074 A 
ATOM     55  C   UNL A   1      42.640  30.975  37.025  1.00  0.00     0.029 A 
ATOM     56  N   UNL A   1      41.196  31.234  35.355  1.00  0.00    -0.354 N 
ATOM     57  N   UNL A   1      39.052  32.597  33.876  1.00  0.00    -0.248 NA
ATOM     58  C   UNL A   1      37.424  34.266  33.744  1.00  0.00     0.031 C 
ATOM     59  C   UNL A   1      41.825  32.075  37.311  1.00  0.00     0.029 A 
ATOM     60  C   UNL A   1      40.941  32.252  36.259  1.00  0.00     0.049 A 
ATOM     61  H   UNL A   1      40.717  31.100  34.506  1.00  0.00     0.167 HD
ATOM     62  C   UNL A   1      39.118  33.389  35.018  1.00  0.00     0.074 A 
ATOM     63  C   UNL A   1      38.112  34.420  34.868  1.00  0.00     0.031 C 
ATOM     64  C   UNL A   1      39.937  33.275  36.094  1.00  0.00     0.037 A 
BRANCH  51  65
ATOM     65  C   UNL A   1      43.798  28.453  35.834  1.00  0.00     0.058 A 
ATOM     66  C   UNL A   1      45.163  28.696  35.612  1.00  0.00     0.135 A 
ATOM     67  C   UNL A   1      43.455  27.451  36.757  1.00  0.00     0.135 A 
ATOM     68  F   UNL A   1      45.547  29.629  34.726  1.00  0.00    -0.206 F 
ATOM     69  C   UNL A   1      46.149  27.962  36.263  1.00  0.00     0.059 A 
ATOM     70  C   UNL A   1      44.424  26.723  37.441  1.00  0.00     0.059 A 
ATOM     71  F   UNL A   1      42.165  27.173  37.006  1.00  0.00    -0.206 F 
ATOM     72  C   UNL A   1      45.769  26.978  37.179  1.00  0.00     0.060 A 
BRANCH  72  73
ATOM     73  S   UNL A   1      47.061  26.044  38.027  1.00  0.00     0.124 S 
ATOM     74  O   UNL A   1      47.722  25.381  36.908  1.00  0.00    -0.237 OA
ATOM     75  O   UNL A   1      47.828  27.098  38.682  1.00  0.00    -0.237 OA
ATOM     76  O   UNL A   1      46.314  25.166  38.923  1.00  0.00    -0.744 OA
ENDBRANCH  72  73
ENDBRANCH  51  65
BRANCH  52  77
ATOM     77  C   UNL A   1      36.488  33.380  31.107  1.00  0.00     0.058 A 
ATOM     78  C   UNL A   1      36.712  34.208  29.997  1.00  0.00     0.135 A 
ATOM     79  C   UNL A   1      35.167  33.245  31.564  1.00  0.00     0.135 A 
ATOM     80  F   UNL A   1      37.957  34.379  29.529  1.00  0.00    -0.206 F 
ATOM     81  C   UNL A   1      35.672  34.890  29.375  1.00  0.00     0.059 A 
ATOM     82  C   UNL A   1      34.106  33.893  30.941  1.00  0.00     0.059 A 
ATOM     83  F   UNL A   1      34.896  32.455  32.615  1.00  0.00    -0.206 F 
ATOM     84  C   UNL A   1      34.370  34.723  29.852  1.00  0.00     0.060 A 
BRANCH  84  85
ATOM     85  S   UNL A   1      33.021  35.576  29.009  1.00  0.00     0.124 S 
ATOM     86  O   UNL A   1      32.447  34.500  28.209  1.00  0.00    -0.237 OA
ATOM     87  O   UNL A   1      32.209  36.044  30.128  1.00  0.00    -0.237 OA
ATOM     88  O   UNL A   1      33.705  36.626  28.259  1.00  0.00    -0.744 OA
ENDBRANCH  84  85
ENDBRANCH  52  77
BRANCH  64  89
ATOM     89  C   UNL A   1      39.805  34.307  37.181  1.00  0.00     0.058 A 
ATOM     90  C   UNL A   1      39.132  34.033  38.382  1.00  0.00     0.135 A 
ATOM     91  C   UNL A   1      40.407  35.568  37.041  1.00  0.00     0.135 A 
ATOM     92  F   UNL A   1      38.534  32.846  38.567  1.00  0.00    -0.206 F 
ATOM     93  C   UNL A   1      39.036  34.983  39.395  1.00  0.00     0.059 A 
ATOM     94  C   UNL A   1      40.350  36.523  38.052  1.00  0.00     0.059 A 
ATOM     95  F   UNL A   1      41.074  35.879  35.918  1.00  0.00    -0.206 F 
ATOM     96  C   UNL A   1      39.651  36.224  39.221  1.00  0.00     0.060 A 
BRANCH  96  97
ATOM     97  S   UNL A   1      39.545  37.437  40.554  1.00  0.00     0.124 S 
ATOM     98  O   UNL A   1      38.669  36.756  41.503  1.00  0.00    -0.237 OA
ATOM     99  O   UNL A   1      40.940  37.572  40.965  1.00  0.00    -0.237 OA
ATOM    100  O   UNL A   1      38.974  38.611  39.903  1.00  0.00    -0.744 OA
ENDBRANCH  96  97
ENDBRANCH  64  89
ENDBRANCH  38  39
ENDBRANCH  31  33
ENDBRANCH  30  31
ENDBRANCH  29  30
ENDBRANCH   1  29
TORSDOF 21
ENDMDL
MODEL 2
REMARK VINA RESULT:     -10.9      0.705      8.043
REMARK SMILES CCc1cc(OC(F)(F)F)cc2c1O[C@@H](C(F)(F)F)C(C(=O)OCCOCCOC(=O)c1ccc(-c3c4nc(c(-c5c(F)cc(S(=O)(=O)[O-])cc5F)c5ccc([nH]5)c(-c5c(F)cc(S(=O)(=O)[O-])cc5F)c5nc(c(-c6c(F)cc(S(=O)(=O)[O-])cc6F)c6ccc3[nH]6)C=C5)C=C4)cc1)=C2
REMARK SMILES IDX 27 1 26 2 25 3 24 4 23 5 21 6 22 7 20 8 3 9 4 10 13 11 5 12
REMARK SMILES IDX 12 13 14 14 11 15 98 16 15 17 2 18 1 19 6 20 7 21 8 22 9 23
REMARK SMILES IDX 10 24 16 25 17 26 18 27 19 28 28 29 29 30 30 31 31 32 32 33
REMARK SMILES IDX 33 34 97 35 34 36 96 37 35 38 36 39 37 40 90 41 38 42 95 43
REMARK SMILES IDX 89 44 91 45 39 46 94 47 88 48 87 49 40 51 74 52 53 53 73 54
REMARK SMILES IDX 54 55 57 56 72 57 92 58 55 59 56 60 71 62 93 63 58 64 41 65
REMARK SMILES IDX 42 66 51 67 43 68 44 69 50 70 52 71 45 72 46 73 47 74 48 75
REMARK SMILES IDX 49 76 75 77 76 78 85 79 77 80 78 81 84 82 86 83 79 84 80 85
REMARK SMILES IDX 81 86 82 87 83 88 59 89 60 90 69 91 61 92 62 93 68 94 70 95
REMARK SMILES IDX 63 96 64 97 65 98 66 99 67 100
REMARK H PARENT 91 50 57 61
REMARK Flexibility Score: inf
ROOT
ATOM      1  C   UNL A   1      39.310  22.085  25.949  1.00  0.00     0.202 C 
ENDROOT
BRANCH   1   2
ATOM      2  O   UNL A   1      37.991  22.319  25.463  1.00  0.00    -0.374 OA
BRANCH   2   3
ATOM      3  C   UNL A   1      37.011  21.298  25.636  1.00  0.00     0.202 C 
BRANCH   3   4
ATOM      4  C   UNL A   1      35.535  21.706  25.606  1.00  0.00     0.261 C 
BRANCH   4   5
ATOM      5  O   UNL A   1      35.020  21.786  24.268  1.00  0.00    -0.460 OA
BRANCH   5   6
ATOM      6  C   UNL A   1      35.056  23.026  23.726  1.00  0.00     0.338 C 
ATOM      7  O   UNL A   1      35.722  23.383  22.769  1.00  0.00    -0.246 OA
BRANCH   6   8
ATOM      8  C   UNL A   1      34.062  23.906  24.360  1.00  0.00     0.087 C 
ATOM      9  C   UNL A   1      31.077  26.723  25.067  1.00  0.00    -0.002 A 
ATOM     10  C   UNL A   1      31.338  27.806  25.919  1.00  0.00     0.054 A 
ATOM     11  C   UNL A   1      32.094  25.787  24.846  1.00  0.00     0.131 A 
ATOM     12  C   UNL A   1      32.592  27.957  26.524  1.00  0.00     0.130 A 
ATOM     13  C   UNL A   1      33.360  25.923  25.441  1.00  0.00     0.021 A 
ATOM     14  O   UNL A   1      31.830  24.772  23.959  1.00  0.00    -0.475 OA
ATOM     15  C   UNL A   1      33.595  27.004  26.293  1.00  0.00     0.058 A 
ATOM     16  C   UNL A   1      34.432  25.008  25.035  1.00  0.00     0.027 C 
ATOM     17  C   UNL A   1      32.596  23.571  24.215  1.00  0.00     0.316 C 
BRANCH   9  18
ATOM     18  C   UNL A   1      29.741  26.603  24.370  1.00  0.00     0.036 C 
ATOM     19  C   UNL A   1      29.541  27.631  23.264  1.00  0.00     0.009 C 
ENDBRANCH   9  18
BRANCH  12  20
ATOM     20  O   UNL A   1      32.967  28.989  27.340  1.00  0.00    -0.406 OA
BRANCH  20  21
ATOM     21  C   UNL A   1      33.059  30.281  26.761  1.00  0.00     0.573 C 
ATOM     22  F   UNL A   1      33.244  30.212  25.424  1.00  0.00    -0.132 F 
ATOM     23  F   UNL A   1      31.951  31.007  27.023  1.00  0.00    -0.132 F 
ATOM     24  F   UNL A   1      34.119  30.927  27.296  1.00  0.00    -0.132 F 
ENDBRANCH  20  21
ENDBRANCH  12  20
BRANCH  17  25
ATOM     25  C   UNL A   1      32.151  22.490  23.217  1.00  0.00     0.430 C 
ATOM     26  F   UNL A   1      32.246  21.251  23.754  1.00  0.00    -0.167 F 
ATOM     27  F   UNL A   1      30.833  22.661  22.918  1.00  0.00    -0.167 F 
ATOM     28  F   UNL A   1      32.820  22.521  22.049  1.00  0.00    -0.167 F 
ENDBRANCH  17  25
ENDBRANCH   6   8
ENDBRANCH   5   6
ENDBRANCH   4   5
ENDBRANCH   3   4
ENDBRANCH   2   3
ENDBRANCH   1   2
BRANCH   1  29
ATOM     29  C   UNL A   1      39.989  23.170  26.795  1.00  0.00     0.261 C 
BRANCH  29  30
ATOM     30  O   UNL A   1      39.461  24.485  26.562  1.00  0.00    -0.460 OA
BRANCH  30  31
ATOM     31  C   UNL A   1      40.407  25.449  26.423  1.00  0.00     0.338 C 
ATOM     32  O   UNL A   1      40.933  25.819  25.387  1.00  0.00    -0.246 OA
BRANCH  31  33
ATOM     33  C   UNL A   1      40.600  26.155  27.702  1.00  0.00     0.060 A 
ATOM     34  C   UNL A   1      39.594  26.027  28.668  1.00  0.00     0.016 A 
ATOM     35  C   UNL A   1      41.692  26.997  27.918  1.00  0.00     0.016 A 
ATOM     36  C   UNL A   1      39.653  26.778  29.838  1.00  0.00     0.010 A 
ATOM     37  C   UNL A   1      41.744  27.758  29.090  1.00  0.00     0.010 A 
ATOM     38  C   UNL A   1      40.707  27.679  30.038  1.00  0.00    -0.014 A 
BRANCH  38  39
ATOM     39  C   UNL A   1      40.637  28.634  31.170  1.00  0.00     0.031 A 
ATOM     40  C   UNL A   1      39.622  29.745  31.126  1.00  0.00     0.074 A 
ATOM     41  C   UNL A   1      41.435  28.484  32.241  1.00  0.00     0.049 A 
ATOM     42  N   UNL A   1      39.390  30.689  32.001  1.00  0.00    -0.248 NA
ATOM     43  C   UNL A   1      38.754  29.800  29.938  1.00  0.00     0.031 C 
ATOM     44  C   UNL A   1      42.433  27.428  32.408  1.00  0.00     0.029 A 
ATOM     45  N   UNL A   1      41.535  29.225  33.392  1.00  0.00    -0.354 N 
ATOM     46  C   UNL A   1      38.358  31.454  31.469  1.00  0.00     0.074 A 
ATOM     47  C   UNL A   1      38.031  30.884  30.180  1.00  0.00     0.031 C 
ATOM     48  C   UNL A   1      43.050  27.593  33.590  1.00  0.00     0.029 A 
ATOM     49  C   UNL A   1      42.514  28.783  34.249  1.00  0.00     0.049 A 
ATOM     50  H   UNL A   1      40.959  30.000  33.586  1.00  0.00     0.167 HD
ATOM     51  C   UNL A   1      37.736  32.528  32.010  1.00  0.00     0.037 A 
ATOM     52  C   UNL A   1      42.941  29.292  35.422  1.00  0.00     0.037 A 
ATOM     53  C   UNL A   1      38.064  33.083  33.298  1.00  0.00     0.049 A 
ATOM     54  C   UNL A   1      42.267  30.519  35.980  1.00  0.00     0.074 A 
ATOM     55  C   UNL A   1      37.470  34.150  33.949  1.00  0.00     0.029 A 
ATOM     56  N   UNL A   1      39.077  32.623  34.126  1.00  0.00    -0.354 N 
ATOM     57  N   UNL A   1      41.269  31.211  35.482  1.00  0.00    -0.248 NA
ATOM     58  C   UNL A   1      42.772  31.031  37.261  1.00  0.00     0.031 C 
ATOM     59  C   UNL A   1      38.160  34.371  35.145  1.00  0.00     0.029 A 
ATOM     60  C   UNL A   1      39.146  33.405  35.268  1.00  0.00     0.049 A 
ATOM     61  H   UNL A   1      39.661  31.856  33.931  1.00  0.00     0.167 HD
ATOM     62  C   UNL A   1      41.011  32.224  36.401  1.00  0.00     0.074 A 
ATOM     63  C   UNL A   1      41.947  32.044  37.492  1.00  0.00     0.031 C 
ATOM     64  C   UNL A   1      40.082  33.212  36.348  1.00  0.00     0.037 A 
BRANCH  51  65
ATOM     65  C   UNL A   1      36.653  33.191  31.203  1.00  0.00     0.058 A 
ATOM     66  C   UNL A   1      36.942  33.992  30.088  1.00  0.00     0.135 A 
ATOM     67  C   UNL A   1      35.302  32.984  31.527  1.00  0.00     0.135 A 
ATOM     68  F   UNL A   1      38.217  34.239  29.744  1.00  0.00    -0.206 F 
ATOM     69  C   UNL A   1      35.933  34.582  29.333  1.00  0.00     0.059 A 
ATOM     70  C   UNL A   1      34.275  33.541  30.770  1.00  0.00     0.059 A 
ATOM     71  F   UNL A   1      34.967  32.230  32.586  1.00  0.00    -0.206 F 
ATOM     72  C   UNL A   1      34.600  34.349  29.682  1.00  0.00     0.060 A 
BRANCH  72  73
ATOM     73  S   UNL A   1      33.302  35.109  28.685  1.00  0.00     0.124 S 
ATOM     74  O   UNL A   1      32.440  35.679  29.715  1.00  0.00    -0.237 OA
ATOM     75  O   UNL A   1      34.049  36.070  27.880  1.00  0.00    -0.237 OA
ATOM     76  O   UNL A   1      32.735  33.984  27.947  1.00  0.00    -0.744 OA
ENDBRANCH  72  73
ENDBRANCH  51  65
BRANCH  52  77
ATOM     77  C   UNL A   1      44.074  28.652  36.141  1.00  0.00     0.058 A 
ATOM     78  C   UNL A   1      43.874  27.550  36.985  1.00  0.00     0.135 A 
ATOM     79  C   UNL A   1      45.386  29.134  35.997  1.00  0.00     0.135 A 
ATOM     80  F   UNL A   1      42.639  27.058  37.165  1.00  0.00    -0.206 F 
ATOM     81  C   UNL A   1      44.928  26.959  37.675  1.00  0.00     0.059 A 
ATOM     82  C   UNL A   1      46.460  28.542  36.653  1.00  0.00     0.059 A 
ATOM     83  F   UNL A   1      45.634  30.179  35.191  1.00  0.00    -0.206 F 
ATOM     84  C   UNL A   1      46.219  27.461  37.499  1.00  0.00     0.060 A 
BRANCH  84  85
ATOM     85  S   UNL A   1      47.587  26.658  38.363  1.00  0.00     0.124 S 
ATOM     86  O   UNL A   1      46.903  25.567  39.047  1.00  0.00    -0.237 OA
ATOM     87  O   UNL A   1      48.461  26.275  37.259  1.00  0.00    -0.237 OA
ATOM     88  O   UNL A   1      48.106  27.717  39.224  1.00  0.00    -0.744 OA
ENDBRANCH  84  85
ENDBRANCH  52  77
BRANCH  64  89
ATOM     89  C   UNL A   1      40.007  34.159  37.516  1.00  0.00     0.058 A 
ATOM     90  C   UNL A   1      40.714  35.371  37.530  1.00  0.00     0.135 A 
ATOM     91  C   UNL A   1      39.175  33.873  38.611  1.00  0.00     0.135 A 
ATOM     92  F   UNL A   1      41.528  35.691  36.513  1.00  0.00    -0.206 F 
ATOM     93  C   UNL A   1      40.620  36.255  38.601  1.00  0.00     0.059 A 
ATOM     94  C   UNL A   1      39.041  34.755  39.678  1.00  0.00     0.059 A 
ATOM     95  F   UNL A   1      38.466  32.733  38.642  1.00  0.00    -0.206 F 
ATOM     96  C   UNL A   1      39.778  35.939  39.670  1.00  0.00     0.060 A 
BRANCH  96  97
ATOM     97  S   UNL A   1      39.642  37.107  41.039  1.00  0.00     0.124 S 
ATOM     98  O   UNL A   1      41.039  37.467  41.260  1.00  0.00    -0.237 OA
ATOM     99  O   UNL A   1      38.800  38.156  40.471  1.00  0.00    -0.237 OA
ATOM    100  O   UNL A   1      39.021  36.320  42.099  1.00  0.00    -0.744 OA
ENDBRANCH  96  97
ENDBRANCH  64  89
ENDBRANCH  38  39
ENDBRANCH  31  33
ENDBRANCH  30  31
ENDBRANCH  29  30
ENDBRANCH   1  29
TORSDOF 21
ENDMDL
MODEL 3
REMARK VINA RESULT:     -10.8      6.763     12.130
REMARK SMILES CCc1cc(OC(F)(F)F)cc2c1O[C@@H](C(F)(F)F)C(C(=O)OCCOCCOC(=O)c1ccc(-c3c4nc(c(-c5c(F)cc(S(=O)(=O)[O-])cc5F)c5ccc([nH]5)c(-c5c(F)cc(S(=O)(=O)[O-])cc5F)c5nc(c(-c6c(F)cc(S(=O)(=O)[O-])cc6F)c6ccc3[nH]6)C=C5)C=C4)cc1)=C2
REMARK SMILES IDX 27 1 26 2 25 3 24 4 23 5 21 6 22 7 20 8 3 9 4 10 13 11 5 12
REMARK SMILES IDX 12 13 14 14 11 15 98 16 15 17 2 18 1 19 6 20 7 21 8 22 9 23
REMARK SMILES IDX 10 24 16 25 17 26 18 27 19 28 28 29 29 30 30 31 31 32 32 33
REMARK SMILES IDX 33 34 97 35 34 36 96 37 35 38 36 39 37 40 90 41 38 42 95 43
REMARK SMILES IDX 89 44 91 45 39 46 94 47 88 48 87 49 40 51 74 52 53 53 73 54
REMARK SMILES IDX 54 55 57 56 72 57 92 58 55 59 56 60 71 62 93 63 58 64 41 65
REMARK SMILES IDX 42 66 51 67 43 68 44 69 50 70 52 71 45 72 46 73 47 74 48 75
REMARK SMILES IDX 49 76 75 77 76 78 85 79 77 80 78 81 84 82 86 83 79 84 80 85
REMARK SMILES IDX 81 86 82 87 83 88 59 89 60 90 69 91 61 92 62 93 68 94 70 95
REMARK SMILES IDX 63 96 64 97 65 98 66 99 67 100
REMARK H PARENT 91 50 57 61
REMARK Flexibility Score: inf
ROOT
ATOM      1  C   UNL A   1      33.514  29.605  27.613  1.00  0.00     0.202 C 
ENDROOT
BRANCH   1   2
ATOM      2  O   UNL A   1      33.063  30.392  26.513  1.00  0.00    -0.374 OA
BRANCH   2   3
ATOM      3  C   UNL A   1      31.740  30.184  26.024  1.00  0.00     0.202 C 
BRANCH   3   4
ATOM      4  C   UNL A   1      31.547  29.193  24.872  1.00  0.00     0.261 C 
BRANCH   4   5
ATOM      5  O   UNL A   1      32.275  27.973  25.076  1.00  0.00    -0.460 OA
BRANCH   5   6
ATOM      6  C   UNL A   1      33.358  27.827  24.276  1.00  0.00     0.338 C 
ATOM      7  O   UNL A   1      34.115  28.709  23.909  1.00  0.00    -0.246 OA
BRANCH   6   8
ATOM      8  C   UNL A   1      33.614  26.406  23.993  1.00  0.00     0.087 C 
ATOM      9  C   UNL A   1      33.272  22.274  23.605  1.00  0.00    -0.002 A 
ATOM     10  C   UNL A   1      34.191  21.441  24.260  1.00  0.00     0.054 A 
ATOM     11  C   UNL A   1      33.408  23.659  23.748  1.00  0.00     0.131 A 
ATOM     12  C   UNL A   1      35.213  21.982  25.050  1.00  0.00     0.130 A 
ATOM     13  C   UNL A   1      34.424  24.221  24.539  1.00  0.00     0.021 A 
ATOM     14  O   UNL A   1      32.456  24.447  23.147  1.00  0.00    -0.475 OA
ATOM     15  C   UNL A   1      35.334  23.373  25.174  1.00  0.00     0.058 A 
ATOM     16  C   UNL A   1      34.408  25.667  24.787  1.00  0.00     0.027 C 
ATOM     17  C   UNL A   1      32.938  25.768  22.803  1.00  0.00     0.316 C 
BRANCH   9  18
ATOM     18  C   UNL A   1      32.135  21.679  22.806  1.00  0.00     0.036 C 
ATOM     19  C   UNL A   1      32.166  20.157  22.751  1.00  0.00     0.009 C 
ENDBRANCH   9  18
BRANCH  12  20
ATOM     20  O   UNL A   1      36.138  21.266  25.760  1.00  0.00    -0.406 OA
BRANCH  20  21
ATOM     21  C   UNL A   1      37.417  21.086  25.173  1.00  0.00     0.573 C 
ATOM     22  F   UNL A   1      37.434  21.502  23.887  1.00  0.00    -0.132 F 
ATOM     23  F   UNL A   1      38.366  21.750  25.869  1.00  0.00    -0.132 F 
ATOM     24  F   UNL A   1      37.727  19.772  25.191  1.00  0.00    -0.132 F 
ENDBRANCH  20  21
ENDBRANCH  12  20
BRANCH  17  25
ATOM     25  C   UNL A   1      31.817  26.516  22.064  1.00  0.00     0.430 C 
ATOM     26  F   UNL A   1      31.540  25.942  20.871  1.00  0.00    -0.167 F 
ATOM     27  F   UNL A   1      30.664  26.436  22.786  1.00  0.00    -0.167 F 
ATOM     28  F   UNL A   1      32.068  27.826  21.880  1.00  0.00    -0.167 F 
ENDBRANCH  17  25
ENDBRANCH   6   8
ENDBRANCH   5   6
ENDBRANCH   4   5
ENDBRANCH   3   4
ENDBRANCH   2   3
ENDBRANCH   1   2
BRANCH   1  29
ATOM     29  C   UNL A   1      35.012  29.301  27.739  1.00  0.00     0.261 C 
BRANCH  29  30
ATOM     30  O   UNL A   1      35.744  30.324  28.432  1.00  0.00    -0.460 OA
BRANCH  30  31
ATOM     31  C   UNL A   1      36.400  29.887  29.537  1.00  0.00     0.338 C 
ATOM     32  O   UNL A   1      35.904  29.463  30.568  1.00  0.00    -0.246 OA
BRANCH  31  33
ATOM     33  C   UNL A   1      37.846  29.806  29.267  1.00  0.00     0.060 A 
ATOM     34  C   UNL A   1      38.248  29.698  27.929  1.00  0.00     0.016 A 
ATOM     35  C   UNL A   1      38.783  29.745  30.300  1.00  0.00     0.016 A 
ATOM     36  C   UNL A   1      39.587  29.481  27.620  1.00  0.00     0.010 A 
ATOM     37  C   UNL A   1      40.127  29.517  29.986  1.00  0.00     0.010 A 
ATOM     38  C   UNL A   1      40.529  29.348  28.649  1.00  0.00    -0.014 A 
BRANCH  38  39
ATOM     39  C   UNL A   1      41.899  28.889  28.318  1.00  0.00     0.031 A 
ATOM     40  C   UNL A   1      43.024  29.890  28.313  1.00  0.00     0.074 A 
ATOM     41  C   UNL A   1      42.144  27.590  28.071  1.00  0.00     0.049 A 
ATOM     42  N   UNL A   1      44.292  29.708  28.051  1.00  0.00    -0.248 NA
ATOM     43  C   UNL A   1      42.672  31.279  28.647  1.00  0.00     0.031 C 
ATOM     44  C   UNL A   1      41.140  26.526  28.079  1.00  0.00     0.029 A 
ATOM     45  N   UNL A   1      43.315  26.944  27.762  1.00  0.00    -0.354 N 
ATOM     46  C   UNL A   1      44.888  30.958  28.180  1.00  0.00     0.074 A 
ATOM     47  C   UNL A   1      43.837  31.895  28.511  1.00  0.00     0.031 C 
ATOM     48  C   UNL A   1      41.738  25.360  27.780  1.00  0.00     0.029 A 
ATOM     49  C   UNL A   1      43.158  25.599  27.529  1.00  0.00     0.049 A 
ATOM     50  H   UNL A   1      44.186  27.401  27.711  1.00  0.00     0.167 HD
ATOM     51  C   UNL A   1      46.194  31.290  28.042  1.00  0.00     0.037 A 
ATOM     52  C   UNL A   1      44.054  24.671  27.140  1.00  0.00     0.037 A 
ATOM     53  C   UNL A   1      47.234  30.348  27.719  1.00  0.00     0.049 A 
ATOM     54  C   UNL A   1      45.492  25.074  26.943  1.00  0.00     0.074 A 
ATOM     55  C   UNL A   1      48.592  30.579  27.589  1.00  0.00     0.029 A 
ATOM     56  N   UNL A   1      47.033  28.998  27.468  1.00  0.00    -0.354 N 
ATOM     57  N   UNL A   1      46.048  26.253  27.102  1.00  0.00    -0.248 NA
ATOM     58  C   UNL A   1      46.427  24.023  26.519  1.00  0.00     0.031 C 
ATOM     59  C   UNL A   1      49.204  29.383  27.204  1.00  0.00     0.029 A 
ATOM     60  C   UNL A   1      48.237  28.391  27.152  1.00  0.00     0.049 A 
ATOM     61  H   UNL A   1      46.163  28.541  27.507  1.00  0.00     0.167 HD
ATOM     62  C   UNL A   1      47.401  26.078  26.824  1.00  0.00     0.074 A 
ATOM     63  C   UNL A   1      47.581  24.678  26.501  1.00  0.00     0.031 C 
ATOM     64  C   UNL A   1      48.402  26.993  26.835  1.00  0.00     0.037 A 
BRANCH  51  65
ATOM     65  C   UNL A   1      46.571  32.736  28.214  1.00  0.00     0.058 A 
ATOM     66  C   UNL A   1      46.463  33.663  27.166  1.00  0.00     0.135 A 
ATOM     67  C   UNL A   1      47.005  33.209  29.464  1.00  0.00     0.135 A 
ATOM     68  F   UNL A   1      46.071  33.261  25.947  1.00  0.00    -0.206 F 
ATOM     69  C   UNL A   1      46.792  35.003  27.343  1.00  0.00     0.059 A 
ATOM     70  C   UNL A   1      47.313  34.551  29.671  1.00  0.00     0.059 A 
ATOM     71  F   UNL A   1      47.131  32.366  30.501  1.00  0.00    -0.206 F 
ATOM     72  C   UNL A   1      47.215  35.439  28.601  1.00  0.00     0.060 A 
BRANCH  72  73
ATOM     73  S   UNL A   1      47.624  37.183  28.818  1.00  0.00     0.124 S 
ATOM     74  O   UNL A   1      46.302  37.800  28.763  1.00  0.00    -0.237 OA
ATOM     75  O   UNL A   1      48.273  37.192  30.125  1.00  0.00    -0.237 OA
ATOM     76  O   UNL A   1      48.497  37.472  27.685  1.00  0.00    -0.744 OA
ENDBRANCH  72  73
ENDBRANCH  51  65
BRANCH  52  77
ATOM     77  C   UNL A   1      43.616  23.271  26.897  1.00  0.00     0.058 A 
ATOM     78  C   UNL A   1      43.340  22.397  27.958  1.00  0.00     0.135 A 
ATOM     79  C   UNL A   1      43.466  22.778  25.590  1.00  0.00     0.135 A 
ATOM     80  F   UNL A   1      43.479  22.815  29.225  1.00  0.00    -0.206 F 
ATOM     81  C   UNL A   1      42.948  21.081  27.736  1.00  0.00     0.059 A 
ATOM     82  C   UNL A   1      43.047  21.475  25.342  1.00  0.00     0.059 A 
ATOM     83  F   UNL A   1      43.705  23.577  24.537  1.00  0.00    -0.206 F 
ATOM     84  C   UNL A   1      42.801  20.630  26.423  1.00  0.00     0.060 A 
BRANCH  84  85
ATOM     85  S   UNL A   1      42.247  18.934  26.145  1.00  0.00     0.124 S 
ATOM     86  O   UNL A   1      43.179  18.485  25.117  1.00  0.00    -0.237 OA
ATOM     87  O   UNL A   1      42.415  18.338  27.466  1.00  0.00    -0.237 OA
ATOM     88  O   UNL A   1      40.862  19.101  25.712  1.00  0.00    -0.744 OA
ENDBRANCH  84  85
ENDBRANCH  52  77
BRANCH  64  89
ATOM     89  C   UNL A   1      49.792  26.508  26.521  1.00  0.00     0.058 A 
ATOM     90  C   UNL A   1      50.286  26.482  25.207  1.00  0.00     0.135 A 
ATOM     91  C   UNL A   1      50.658  26.113  27.554  1.00  0.00     0.135 A 
ATOM     92  F   UNL A   1      49.499  26.843  24.182  1.00  0.00    -0.206 F 
ATOM     93  C   UNL A   1      51.580  26.057  24.926  1.00  0.00     0.059 A 
ATOM     94  C   UNL A   1      51.966  25.713  27.300  1.00  0.00     0.059 A 
ATOM     95  F   UNL A   1      50.241  26.130  28.830  1.00  0.00    -0.206 F 
ATOM     96  C   UNL A   1      52.414  25.676  25.979  1.00  0.00     0.060 A 
BRANCH  96  97
ATOM     97  S   UNL A   1      54.101  25.155  25.604  1.00  0.00     0.124 S 
ATOM     98  O   UNL A   1      54.562  26.242  24.747  1.00  0.00    -0.237 OA
ATOM     99  O   UNL A   1      54.710  25.091  26.929  1.00  0.00    -0.237 OA
ATOM    100  O   UNL A   1      53.921  23.867  24.941  1.00  0.00    -0.744 OA
ENDBRANCH  96  97
ENDBRANCH  64  89
ENDBRANCH  38  39
ENDBRANCH  31  33
ENDBRANCH  30  31
ENDBRANCH  29  30
ENDBRANCH   1  29
TORSDOF 21
ENDMDL
