MODEL 1
REMARK VINA RESULT:     -10.9      0.000      0.000
REMARK SMILES COc1ccc(OC)c(S(=O)(=O)Nc2ccc(N3CCC(C)CC3)c(C(=O)OCCOCCOC(=O)c3ccc(-c4c5nc(c(-c6c(F)cc(S(=O)(=O)[O-])cc6F)c6ccc([nH]6)c(-c6c(F)cc(S(=O)(=O)[O-])cc6F)c6nc(c(-c7c(F)cc(S(=O)(=O)[O-])cc7F)c7ccc4[nH]7)C=C6)C=C5)cc3)c2)c1
REMARK SMILES IDX 30 1 29 2 28 3 26 4 27 5 25 6 14 7 15 8 103 9 16 10 17 11
REMARK SMILES IDX 13 12 10 14 11 15 12 16 9 17 3 18 4 19 104 20 5 21 6 22 2 23
REMARK SMILES IDX 1 24 7 25 8 26 18 27 19 28 24 29 20 30 23 31 21 32 22 33
REMARK SMILES IDX 31 34 32 35 33 36 34 37 35 38 36 39 37 40 38 41 102 42 39 43
REMARK SMILES IDX 101 44 40 45 41 46 42 47 95 48 43 49 100 50 94 51 96 52
REMARK SMILES IDX 44 53 99 54 93 55 92 56 45 58 79 59 58 60 78 61 59 62 62 63
REMARK SMILES IDX 77 64 97 65 60 66 61 67 76 69 98 70 63 71 46 72 47 73 56 74
REMARK SMILES IDX 48 75 49 76 55 77 57 78 50 79 51 80 52 81 53 82 54 83 80 84
REMARK SMILES IDX 81 85 90 86 82 87 83 88 89 89 91 90 84 91 85 92 86 93 87 94
REMARK SMILES IDX 88 95 64 96 65 97 74 98 66 99 67 100 73 101 75 102 68 103
REMARK SMILES IDX 69 104 70 105 71 106 72 107
REMARK H PARENT 13 13 96 57 62 68
REMARK Flexibility Score: inf
ROOT
ATOM      1  C   UNL A   1      32.841  30.416  27.076  1.00  0.00     0.202 C 
ENDROOT
BRANCH   1   2
ATOM      2  C   UNL A   1      32.243  29.034  27.340  1.00  0.00     0.261 C 
BRANCH   2   3
ATOM      3  O   UNL A   1      31.541  28.549  26.190  1.00  0.00    -0.460 OA
BRANCH   3   4
ATOM      4  C   UNL A   1      31.354  27.207  26.175  1.00  0.00     0.340 C 
ATOM      5  O   UNL A   1      30.411  26.613  26.673  1.00  0.00    -0.246 OA
BRANCH   4   6
ATOM      6  C   UNL A   1      32.462  26.545  25.440  1.00  0.00     0.085 A 
ATOM      7  C   UNL A   1      34.068  24.748  25.581  1.00  0.00     0.050 A 
ATOM      8  C   UNL A   1      34.122  24.711  24.188  1.00  0.00     0.029 A 
ATOM      9  C   UNL A   1      33.328  25.744  26.205  1.00  0.00     0.044 A 
ATOM     10  C   UNL A   1      33.355  25.594  23.424  1.00  0.00     0.029 A 
ATOM     11  C   UNL A   1      32.474  26.502  24.027  1.00  0.00     0.051 A 
BRANCH   7  12
ATOM     12  N   UNL A   1      34.533  23.586  26.253  1.00  0.00    -0.279 N 
ATOM     13  H   UNL A   1      35.457  23.616  26.591  1.00  0.00     0.180 HD
BRANCH  12  14
ATOM     14  S   UNL A   1      33.682  22.171  26.534  1.00  0.00     0.265 S 
ATOM     15  O   UNL A   1      32.315  22.424  26.144  1.00  0.00    -0.201 OA
ATOM     16  O   UNL A   1      34.040  21.828  27.897  1.00  0.00    -0.201 OA
BRANCH  14  17
ATOM     17  C   UNL A   1      34.354  20.896  25.479  1.00  0.00     0.133 A 
ATOM     18  C   UNL A   1      34.131  18.645  24.595  1.00  0.00     0.120 A 
ATOM     19  C   UNL A   1      35.522  18.555  24.528  1.00  0.00     0.050 A 
ATOM     20  C   UNL A   1      33.545  19.842  25.013  1.00  0.00     0.072 A 
ATOM     21  C   UNL A   1      36.323  19.647  24.857  1.00  0.00     0.052 A 
ATOM     22  C   UNL A   1      35.743  20.826  25.325  1.00  0.00     0.139 A 
BRANCH  18  23
ATOM     23  O   UNL A   1      33.488  17.482  24.284  1.00  0.00    -0.497 OA
ATOM     24  C   UNL A   1      34.046  16.617  23.307  1.00  0.00     0.278 C 
ENDBRANCH  18  23
BRANCH  22  25
ATOM     25  O   UNL A   1      36.622  21.806  25.692  1.00  0.00    -0.495 OA
ATOM     26  C   UNL A   1      37.876  21.736  25.009  1.00  0.00     0.278 C 
ENDBRANCH  22  25
ENDBRANCH  14  17
ENDBRANCH  12  14
ENDBRANCH   7  12
BRANCH  11  27
ATOM     27  N   UNL A   1      31.660  27.263  23.214  1.00  0.00    -0.371 N 
ATOM     28  C   UNL A   1      32.102  28.528  22.653  1.00  0.00     0.117 C 
ATOM     29  C   UNL A   1      30.329  26.803  22.841  1.00  0.00     0.117 C 
ATOM     30  C   UNL A   1      31.136  29.634  23.071  1.00  0.00     0.025 C 
ATOM     31  C   UNL A   1      29.287  27.869  23.191  1.00  0.00     0.025 C 
ATOM     32  C   UNL A   1      29.678  29.285  22.728  1.00  0.00    -0.011 C 
ATOM     33  C   UNL A   1      28.736  30.321  23.346  1.00  0.00     0.008 C 
ENDBRANCH  11  27
ENDBRANCH   4   6
ENDBRANCH   3   4
ENDBRANCH   2   3
ENDBRANCH   1   2
BRANCH   1  34
ATOM     34  O   UNL A   1      34.250  30.556  26.900  1.00  0.00    -0.374 OA
BRANCH  34  35
ATOM     35  C   UNL A   1      34.969  31.435  27.755  1.00  0.00     0.202 C 
BRANCH  35  36
ATOM     36  C   UNL A   1      35.085  31.169  29.262  1.00  0.00     0.261 C 
BRANCH  36  37
ATOM     37  O   UNL A   1      36.393  31.324  29.804  1.00  0.00    -0.460 OA
BRANCH  37  38
ATOM     38  C   UNL A   1      36.900  30.185  30.337  1.00  0.00     0.338 C 
ATOM     39  O   UNL A   1      36.299  29.324  30.959  1.00  0.00    -0.246 OA
BRANCH  38  40
ATOM     40  C   UNL A   1      38.290  30.042  29.887  1.00  0.00     0.060 A 
ATOM     41  C   UNL A   1      38.528  29.933  28.510  1.00  0.00     0.016 A 
ATOM     42  C   UNL A   1      39.339  30.002  30.806  1.00  0.00     0.016 A 
ATOM     43  C   UNL A   1      39.827  29.773  28.044  1.00  0.00     0.010 A 
ATOM     44  C   UNL A   1      40.637  29.813  30.339  1.00  0.00     0.010 A 
ATOM     45  C   UNL A   1      40.880  29.676  28.961  1.00  0.00    -0.014 A 
BRANCH  45  46
ATOM     46  C   UNL A   1      42.221  29.274  28.492  1.00  0.00     0.031 A 
ATOM     47  C   UNL A   1      42.448  27.833  28.139  1.00  0.00     0.074 A 
ATOM     48  C   UNL A   1      43.204  30.183  28.382  1.00  0.00     0.049 A 
ATOM     49  N   UNL A   1      43.557  27.226  27.811  1.00  0.00    -0.248 NA
ATOM     50  C   UNL A   1      41.263  26.957  28.161  1.00  0.00     0.031 C 
ATOM     51  C   UNL A   1      43.065  31.615  28.650  1.00  0.00     0.029 A 
ATOM     52  N   UNL A   1      44.519  30.032  28.030  1.00  0.00    -0.354 N 
ATOM     53  C   UNL A   1      43.207  25.901  27.590  1.00  0.00     0.074 A 
ATOM     54  C   UNL A   1      41.791  25.781  27.853  1.00  0.00     0.031 C 
ATOM     55  C   UNL A   1      44.257  32.209  28.467  1.00  0.00     0.029 A 
ATOM     56  C   UNL A   1      45.247  31.194  28.117  1.00  0.00     0.049 A 
ATOM     57  H   UNL A   1      44.906  29.173  27.742  1.00  0.00     0.167 HD
ATOM     58  C   UNL A   1      44.001  24.878  27.193  1.00  0.00     0.037 A 
ATOM     59  C   UNL A   1      46.570  31.398  27.967  1.00  0.00     0.037 A 
ATOM     60  C   UNL A   1      45.412  25.016  26.950  1.00  0.00     0.049 A 
ATOM     61  C   UNL A   1      47.452  30.219  27.634  1.00  0.00     0.074 A 
ATOM     62  C   UNL A   1      46.317  24.047  26.557  1.00  0.00     0.029 A 
ATOM     63  N   UNL A   1      46.125  26.199  27.084  1.00  0.00    -0.354 N 
ATOM     64  N   UNL A   1      47.114  28.968  27.421  1.00  0.00    -0.248 NA
ATOM     65  C   UNL A   1      48.894  30.478  27.530  1.00  0.00     0.031 C 
ATOM     66  C   UNL A   1      47.585  24.634  26.500  1.00  0.00     0.029 A 
ATOM     67  C   UNL A   1      47.463  25.980  26.803  1.00  0.00     0.049 A 
ATOM     68  H   UNL A   1      45.736  27.067  27.341  1.00  0.00     0.167 HD
ATOM     69  C   UNL A   1      48.298  28.299  27.126  1.00  0.00     0.074 A 
ATOM     70  C   UNL A   1      49.357  29.286  27.175  1.00  0.00     0.031 C 
ATOM     71  C   UNL A   1      48.496  26.987  26.843  1.00  0.00     0.037 A 
BRANCH  58  72
ATOM     72  C   UNL A   1      43.366  23.527  27.016  1.00  0.00     0.058 A 
ATOM     73  C   UNL A   1      43.162  22.662  28.102  1.00  0.00     0.135 A 
ATOM     74  C   UNL A   1      42.915  23.109  25.753  1.00  0.00     0.135 A 
ATOM     75  F   UNL A   1      43.594  23.001  29.328  1.00  0.00    -0.206 F 
ATOM     76  C   UNL A   1      42.550  21.423  27.942  1.00  0.00     0.059 A 
ATOM     77  C   UNL A   1      42.275  21.887  25.574  1.00  0.00     0.059 A 
ATOM     78  F   UNL A   1      43.091  23.894  24.679  1.00  0.00    -0.206 F 
ATOM     79  C   UNL A   1      42.105  21.047  26.673  1.00  0.00     0.060 A 
BRANCH  79  80
ATOM     80  S   UNL A   1      41.288  19.447  26.488  1.00  0.00     0.124 S 
ATOM     81  O   UNL A   1      42.362  18.634  25.925  1.00  0.00    -0.237 OA
ATOM     82  O   UNL A   1      40.910  19.132  27.862  1.00  0.00    -0.237 OA
ATOM     83  O   UNL A   1      40.178  19.733  25.584  1.00  0.00    -0.744 OA
ENDBRANCH  79  80
ENDBRANCH  58  72
BRANCH  59  84
ATOM     84  C   UNL A   1      47.151  32.754  28.153  1.00  0.00     0.058 A 
ATOM     85  C   UNL A   1      47.663  33.155  29.396  1.00  0.00     0.135 A 
ATOM     86  C   UNL A   1      47.179  33.689  27.105  1.00  0.00     0.135 A 
ATOM     87  F   UNL A   1      47.652  32.303  30.433  1.00  0.00    -0.206 F 
ATOM     88  C   UNL A   1      48.155  34.440  29.603  1.00  0.00     0.059 A 
ATOM     89  C   UNL A   1      47.696  34.969  27.278  1.00  0.00     0.059 A 
ATOM     90  F   UNL A   1      46.711  33.356  25.892  1.00  0.00    -0.206 F 
ATOM     91  C   UNL A   1      48.165  35.341  28.537  1.00  0.00     0.060 A 
BRANCH  91  92
ATOM     92  S   UNL A   1      48.817  37.002  28.814  1.00  0.00     0.124 S 
ATOM     93  O   UNL A   1      47.816  37.826  28.148  1.00  0.00    -0.237 OA
ATOM     94  O   UNL A   1      48.844  37.081  30.271  1.00  0.00    -0.237 OA
ATOM     95  O   UNL A   1      50.128  36.959  28.172  1.00  0.00    -0.744 OA
ENDBRANCH  91  92
ENDBRANCH  59  84
BRANCH  71  96
ATOM     96  C   UNL A   1      49.898  26.549  26.524  1.00  0.00     0.058 A 
ATOM     97  C   UNL A   1      50.801  26.173  27.530  1.00  0.00     0.135 A 
ATOM     98  C   UNL A   1      50.321  26.438  25.189  1.00  0.00     0.135 A 
ATOM     99  F   UNL A   1      50.451  26.268  28.823  1.00  0.00    -0.206 F 
ATOM    100  C   UNL A   1      52.080  25.720  27.226  1.00  0.00     0.059 A 
ATOM    101  C   UNL A   1      51.583  25.957  24.860  1.00  0.00     0.059 A 
ATOM    102  F   UNL A   1      49.493  26.774  24.187  1.00  0.00    -0.206 F 
ATOM    103  C   UNL A   1      52.460  25.608  25.887  1.00  0.00     0.060 A 
BRANCH 103 104
ATOM    104  S   UNL A   1      54.104  24.967  25.507  1.00  0.00     0.124 S 
ATOM    105  O   UNL A   1      54.728  24.956  26.826  1.00  0.00    -0.237 OA
ATOM    106  O   UNL A   1      53.803  23.657  24.936  1.00  0.00    -0.237 OA
ATOM    107  O   UNL A   1      54.642  25.945  24.566  1.00  0.00    -0.744 OA
ENDBRANCH 103 104
ENDBRANCH  71  96
ENDBRANCH  45  46
ENDBRANCH  38  40
ENDBRANCH  37  38
ENDBRANCH  36  37
ENDBRANCH  35  36
ENDBRANCH  34  35
ENDBRANCH   1  34
TORSDOF 23
ENDMDL
MODEL 2
REMARK VINA RESULT:     -10.7      2.333      9.166
REMARK SMILES COc1ccc(OC)c(S(=O)(=O)Nc2ccc(N3CCC(C)CC3)c(C(=O)OCCOCCOC(=O)c3ccc(-c4c5nc(c(-c6c(F)cc(S(=O)(=O)[O-])cc6F)c6ccc([nH]6)c(-c6c(F)cc(S(=O)(=O)[O-])cc6F)c6nc(c(-c7c(F)cc(S(=O)(=O)[O-])cc7F)c7ccc4[nH]7)C=C6)C=C5)cc3)c2)c1
REMARK SMILES IDX 30 1 29 2 28 3 26 4 27 5 25 6 14 7 15 8 103 9 16 10 17 11
REMARK SMILES IDX 13 12 10 14 11 15 12 16 9 17 3 18 4 19 104 20 5 21 6 22 2 23
REMARK SMILES IDX 1 24 7 25 8 26 18 27 19 28 24 29 20 30 23 31 21 32 22 33
REMARK SMILES IDX 31 34 32 35 33 36 34 37 35 38 36 39 37 40 38 41 102 42 39 43
REMARK SMILES IDX 101 44 40 45 41 46 42 47 95 48 43 49 100 50 94 51 96 52
REMARK SMILES IDX 44 53 99 54 93 55 92 56 45 58 79 59 58 60 78 61 59 62 62 63
REMARK SMILES IDX 77 64 97 65 60 66 61 67 76 69 98 70 63 71 46 72 47 73 56 74
REMARK SMILES IDX 48 75 49 76 55 77 57 78 50 79 51 80 52 81 53 82 54 83 80 84
REMARK SMILES IDX 81 85 90 86 82 87 83 88 89 89 91 90 84 91 85 92 86 93 87 94
REMARK SMILES IDX 88 95 64 96 65 97 74 98 66 99 67 100 73 101 75 102 68 103
REMARK SMILES IDX 69 104 70 105 71 106 72 107
REMARK H PARENT 13 13 96 57 62 68
REMARK Flexibility Score: inf
ROOT
ATOM      1  C   UNL A   1      37.911  23.441  25.925  1.00  0.00     0.202 C 
ENDROOT
BRANCH   1   2
ATOM      2  C   UNL A   1      36.897  23.683  24.808  1.00  0.00     0.261 C 
BRANCH   2   3
ATOM      3  O   UNL A   1      35.716  24.314  25.315  1.00  0.00    -0.460 OA
BRANCH   3   4
ATOM      4  C   UNL A   1      34.628  24.187  24.516  1.00  0.00     0.340 C 
ATOM      5  O   UNL A   1      34.601  23.626  23.433  1.00  0.00    -0.246 OA
BRANCH   4   6
ATOM      6  C   UNL A   1      33.446  24.818  25.157  1.00  0.00     0.085 A 
ATOM      7  C   UNL A   1      32.024  26.768  25.086  1.00  0.00     0.050 A 
ATOM      8  C   UNL A   1      30.998  26.018  25.661  1.00  0.00     0.029 A 
ATOM      9  C   UNL A   1      33.283  26.199  24.944  1.00  0.00     0.044 A 
ATOM     10  C   UNL A   1      31.200  24.676  25.992  1.00  0.00     0.029 A 
ATOM     11  C   UNL A   1      32.411  24.031  25.709  1.00  0.00     0.051 A 
BRANCH   7  12
ATOM     12  N   UNL A   1      31.627  27.957  24.416  1.00  0.00    -0.279 N 
ATOM     13  H   UNL A   1      31.397  28.725  24.988  1.00  0.00     0.180 HD
BRANCH  12  14
ATOM     14  S   UNL A   1      31.505  28.194  22.763  1.00  0.00     0.265 S 
ATOM     15  O   UNL A   1      31.502  26.884  22.155  1.00  0.00    -0.201 OA
ATOM     16  O   UNL A   1      32.546  29.165  22.485  1.00  0.00    -0.201 OA
BRANCH  14  17
ATOM     17  C   UNL A   1      29.942  28.989  22.426  1.00  0.00     0.133 A 
ATOM     18  C   UNL A   1      28.765  31.051  21.913  1.00  0.00     0.120 A 
ATOM     19  C   UNL A   1      27.653  30.564  22.600  1.00  0.00     0.050 A 
ATOM     20  C   UNL A   1      29.891  30.236  21.773  1.00  0.00     0.072 A 
ATOM     21  C   UNL A   1      27.651  29.273  23.128  1.00  0.00     0.052 A 
ATOM     22  C   UNL A   1      28.792  28.476  23.036  1.00  0.00     0.139 A 
BRANCH  18  23
ATOM     23  O   UNL A   1      28.631  32.343  21.494  1.00  0.00    -0.497 OA
ATOM     24  C   UNL A   1      27.657  32.659  20.511  1.00  0.00     0.278 C 
ENDBRANCH  18  23
BRANCH  22  25
ATOM     25  O   UNL A   1      28.709  27.261  23.653  1.00  0.00    -0.495 OA
ATOM     26  C   UNL A   1      27.367  26.824  23.880  1.00  0.00     0.278 C 
ENDBRANCH  22  25
ENDBRANCH  14  17
ENDBRANCH  12  14
ENDBRANCH   7  12
BRANCH  11  27
ATOM     27  N   UNL A   1      32.503  22.676  25.952  1.00  0.00    -0.371 N 
ATOM     28  C   UNL A   1      33.445  22.131  26.914  1.00  0.00     0.117 C 
ATOM     29  C   UNL A   1      31.618  21.731  25.284  1.00  0.00     0.117 C 
ATOM     30  C   UNL A   1      34.350  21.117  26.219  1.00  0.00     0.025 C 
ATOM     31  C   UNL A   1      32.440  20.646  24.583  1.00  0.00     0.025 C 
ATOM     32  C   UNL A   1      33.544  20.042  25.472  1.00  0.00    -0.011 C 
ATOM     33  C   UNL A   1      34.485  19.178  24.630  1.00  0.00     0.008 C 
ENDBRANCH  11  27
ENDBRANCH   4   6
ENDBRANCH   3   4
ENDBRANCH   2   3
ENDBRANCH   1   2
BRANCH   1  34
ATOM     34  O   UNL A   1      38.438  22.131  26.131  1.00  0.00    -0.374 OA
BRANCH  34  35
ATOM     35  C   UNL A   1      39.738  21.988  26.687  1.00  0.00     0.202 C 
BRANCH  35  36
ATOM     36  C   UNL A   1      40.455  20.631  26.712  1.00  0.00     0.261 C 
BRANCH  36  37
ATOM     37  O   UNL A   1      41.201  20.320  25.538  1.00  0.00    -0.460 OA
BRANCH  37  38
ATOM     38  C   UNL A   1      42.512  20.074  25.777  1.00  0.00     0.338 C 
ATOM     39  O   UNL A   1      43.103  19.013  25.654  1.00  0.00    -0.246 OA
BRANCH  38  40
ATOM     40  C   UNL A   1      43.184  21.354  26.037  1.00  0.00     0.060 A 
ATOM     41  C   UNL A   1      43.575  21.636  27.353  1.00  0.00     0.016 A 
ATOM     42  C   UNL A   1      43.413  22.264  25.005  1.00  0.00     0.016 A 
ATOM     43  C   UNL A   1      44.192  22.845  27.646  1.00  0.00     0.010 A 
ATOM     44  C   UNL A   1      44.006  23.487  25.306  1.00  0.00     0.010 A 
ATOM     45  C   UNL A   1      44.375  23.788  26.628  1.00  0.00    -0.014 A 
BRANCH  45  46
ATOM     46  C   UNL A   1      44.813  25.156  26.971  1.00  0.00     0.031 A 
ATOM     47  C   UNL A   1      43.772  26.149  27.397  1.00  0.00     0.074 A 
ATOM     48  C   UNL A   1      46.112  25.491  26.906  1.00  0.00     0.049 A 
ATOM     49  N   UNL A   1      43.896  27.426  27.641  1.00  0.00    -0.248 NA
ATOM     50  C   UNL A   1      42.402  25.632  27.569  1.00  0.00     0.031 C 
ATOM     51  C   UNL A   1      47.204  24.581  26.556  1.00  0.00     0.029 A 
ATOM     52  N   UNL A   1      46.731  26.695  27.119  1.00  0.00    -0.354 N 
ATOM     53  C   UNL A   1      42.627  27.866  27.992  1.00  0.00     0.074 A 
ATOM     54  C   UNL A   1      41.738  26.730  27.898  1.00  0.00     0.031 C 
ATOM     55  C   UNL A   1      48.360  25.268  26.562  1.00  0.00     0.029 A 
ATOM     56  C   UNL A   1      48.082  26.668  26.869  1.00  0.00     0.049 A 
ATOM     57  H   UNL A   1      46.254  27.502  27.421  1.00  0.00     0.167 HD
ATOM     58  C   UNL A   1      42.243  29.109  28.367  1.00  0.00     0.037 A 
ATOM     59  C   UNL A   1      48.978  27.674  26.856  1.00  0.00     0.037 A 
ATOM     60  C   UNL A   1      43.143  30.230  28.441  1.00  0.00     0.049 A 
ATOM     61  C   UNL A   1      48.504  29.072  27.169  1.00  0.00     0.074 A 
ATOM     62  C   UNL A   1      42.863  31.536  28.797  1.00  0.00     0.029 A 
ATOM     63  N   UNL A   1      44.498  30.176  28.145  1.00  0.00    -0.354 N 
ATOM     64  N   UNL A   1      47.303  29.481  27.506  1.00  0.00    -0.248 NA
ATOM     65  C   UNL A   1      49.504  30.145  27.093  1.00  0.00     0.031 C 
ATOM     66  C   UNL A   1      44.039  32.282  28.670  1.00  0.00     0.029 A 
ATOM     67  C   UNL A   1      45.064  31.431  28.289  1.00  0.00     0.049 A 
ATOM     68  H   UNL A   1      44.985  29.364  27.873  1.00  0.00     0.167 HD
ATOM     69  C   UNL A   1      47.411  30.853  27.713  1.00  0.00     0.074 A 
ATOM     70  C   UNL A   1      48.797  31.200  27.477  1.00  0.00     0.031 C 
ATOM     71  C   UNL A   1      46.453  31.747  28.063  1.00  0.00     0.037 A 
BRANCH  58  72
ATOM     72  C   UNL A   1      40.795  29.321  28.709  1.00  0.00     0.058 A 
ATOM     73  C   UNL A   1      40.367  29.469  30.038  1.00  0.00     0.135 A 
ATOM     74  C   UNL A   1      39.828  29.422  27.695  1.00  0.00     0.135 A 
ATOM     75  F   UNL A   1      41.244  29.360  31.048  1.00  0.00    -0.206 F 
ATOM     76  C   UNL A   1      39.030  29.692  30.351  1.00  0.00     0.059 A 
ATOM     77  C   UNL A   1      38.491  29.672  27.983  1.00  0.00     0.059 A 
ATOM     78  F   UNL A   1      40.182  29.280  26.408  1.00  0.00    -0.206 F 
ATOM     79  C   UNL A   1      38.099  29.798  29.315  1.00  0.00     0.060 A 
BRANCH  79  80
ATOM     80  S   UNL A   1      36.374  30.115  29.739  1.00  0.00     0.124 S 
ATOM     81  O   UNL A   1      36.224  29.331  30.962  1.00  0.00    -0.237 OA
ATOM     82  O   UNL A   1      36.358  31.564  29.912  1.00  0.00    -0.237 OA
ATOM     83  O   UNL A   1      35.640  29.615  28.581  1.00  0.00    -0.744 OA
ENDBRANCH  79  80
ENDBRANCH  58  72
BRANCH  59  84
ATOM     84  C   UNL A   1      50.402  27.413  26.511  1.00  0.00     0.058 A 
ATOM     85  C   UNL A   1      50.824  27.374  25.174  1.00  0.00     0.135 A 
ATOM     86  C   UNL A   1      51.362  27.165  27.505  1.00  0.00     0.135 A 
ATOM     87  F   UNL A   1      49.944  27.594  24.185  1.00  0.00    -0.206 F 
ATOM     88  C   UNL A   1      52.139  27.072  24.832  1.00  0.00     0.059 A 
ATOM     89  C   UNL A   1      52.690  26.893  27.191  1.00  0.00     0.059 A 
ATOM     90  F   UNL A   1      51.015  27.199  28.802  1.00  0.00    -0.206 F 
ATOM     91  C   UNL A   1      53.064  26.831  25.850  1.00  0.00     0.060 A 
BRANCH  91  92
ATOM     92  S   UNL A   1      54.770  26.451  25.394  1.00  0.00     0.124 S 
ATOM     93  O   UNL A   1      54.579  25.581  24.240  1.00  0.00    -0.237 OA
ATOM     94  O   UNL A   1      55.314  27.776  25.113  1.00  0.00    -0.237 OA
ATOM     95  O   UNL A   1      55.301  25.805  26.591  1.00  0.00    -0.744 OA
ENDBRANCH  91  92
ENDBRANCH  59  84
BRANCH  71  96
ATOM     96  C   UNL A   1      46.875  33.177  28.254  1.00  0.00     0.058 A 
ATOM     97  C   UNL A   1      46.791  34.116  27.214  1.00  0.00     0.135 A 
ATOM     98  C   UNL A   1      47.304  33.630  29.513  1.00  0.00     0.135 A 
ATOM     99  F   UNL A   1      46.397  33.734  25.988  1.00  0.00    -0.206 F 
ATOM    100  C   UNL A   1      47.134  35.449  27.410  1.00  0.00     0.059 A 
ATOM    101  C   UNL A   1      47.620  34.965  29.740  1.00  0.00     0.059 A 
ATOM    102  F   UNL A   1      47.391  32.776  30.544  1.00  0.00    -0.206 F 
ATOM    103  C   UNL A   1      47.541  35.866  28.679  1.00  0.00     0.060 A 
BRANCH 103 104
ATOM    104  S   UNL A   1      47.931  37.610  28.931  1.00  0.00     0.124 S 
ATOM    105  O   UNL A   1      48.132  38.068  27.560  1.00  0.00    -0.237 OA
ATOM    106  O   UNL A   1      46.728  38.105  29.595  1.00  0.00    -0.237 OA
ATOM    107  O   UNL A   1      49.130  37.575  29.764  1.00  0.00    -0.744 OA
ENDBRANCH 103 104
ENDBRANCH  71  96
ENDBRANCH  45  46
ENDBRANCH  38  40
ENDBRANCH  37  38
ENDBRANCH  36  37
ENDBRANCH  35  36
ENDBRANCH  34  35
ENDBRANCH   1  34
TORSDOF 23
ENDMDL
MODEL 3
REMARK VINA RESULT:     -10.4      1.186      2.163
REMARK SMILES COc1ccc(OC)c(S(=O)(=O)Nc2ccc(N3CCC(C)CC3)c(C(=O)OCCOCCOC(=O)c3ccc(-c4c5nc(c(-c6c(F)cc(S(=O)(=O)[O-])cc6F)c6ccc([nH]6)c(-c6c(F)cc(S(=O)(=O)[O-])cc6F)c6nc(c(-c7c(F)cc(S(=O)(=O)[O-])cc7F)c7ccc4[nH]7)C=C6)C=C5)cc3)c2)c1
REMARK SMILES IDX 30 1 29 2 28 3 26 4 27 5 25 6 14 7 15 8 103 9 16 10 17 11
REMARK SMILES IDX 13 12 10 14 11 15 12 16 9 17 3 18 4 19 104 20 5 21 6 22 2 23
REMARK SMILES IDX 1 24 7 25 8 26 18 27 19 28 24 29 20 30 23 31 21 32 22 33
REMARK SMILES IDX 31 34 32 35 33 36 34 37 35 38 36 39 37 40 38 41 102 42 39 43
REMARK SMILES IDX 101 44 40 45 41 46 42 47 95 48 43 49 100 50 94 51 96 52
REMARK SMILES IDX 44 53 99 54 93 55 92 56 45 58 79 59 58 60 78 61 59 62 62 63
REMARK SMILES IDX 77 64 97 65 60 66 61 67 76 69 98 70 63 71 46 72 47 73 56 74
REMARK SMILES IDX 48 75 49 76 55 77 57 78 50 79 51 80 52 81 53 82 54 83 80 84
REMARK SMILES IDX 81 85 90 86 82 87 83 88 89 89 91 90 84 91 85 92 86 93 87 94
REMARK SMILES IDX 88 95 64 96 65 97 74 98 66 99 67 100 73 101 75 102 68 103
REMARK SMILES IDX 69 104 70 105 71 106 72 107
REMARK H PARENT 13 13 96 57 62 68
REMARK Flexibility Score: inf
ROOT
ATOM      1  C   UNL A   1      32.688  30.203  27.227  1.00  0.00     0.202 C 
ENDROOT
BRANCH   1   2
ATOM      2  C   UNL A   1      32.146  28.792  27.452  1.00  0.00     0.261 C 
BRANCH   2   3
ATOM      3  O   UNL A   1      31.483  28.303  26.280  1.00  0.00    -0.460 OA
BRANCH   3   4
ATOM      4  C   UNL A   1      31.432  26.952  26.189  1.00  0.00     0.340 C 
ATOM      5  O   UNL A   1      30.484  26.252  26.507  1.00  0.00    -0.246 OA
BRANCH   4   6
ATOM      6  C   UNL A   1      32.701  26.429  25.623  1.00  0.00     0.085 A 
ATOM      7  C   UNL A   1      34.429  24.776  25.960  1.00  0.00     0.050 A 
ATOM      8  C   UNL A   1      34.707  24.815  24.595  1.00  0.00     0.029 A 
ATOM      9  C   UNL A   1      33.506  25.669  26.490  1.00  0.00     0.044 A 
ATOM     10  C   UNL A   1      33.992  25.665  23.748  1.00  0.00     0.029 A 
ATOM     11  C   UNL A   1      32.943  26.460  24.231  1.00  0.00     0.051 A 
BRANCH   7  12
ATOM     12  N   UNL A   1      34.888  23.626  26.657  1.00  0.00    -0.279 N 
ATOM     13  H   UNL A   1      35.684  23.748  27.225  1.00  0.00     0.180 HD
BRANCH  12  14
ATOM     14  S   UNL A   1      34.227  22.088  26.621  1.00  0.00     0.265 S 
ATOM     15  O   UNL A   1      33.653  21.852  27.925  1.00  0.00    -0.201 OA
ATOM     16  O   UNL A   1      35.305  21.271  26.099  1.00  0.00    -0.201 OA
BRANCH  14  17
ATOM     17  C   UNL A   1      32.919  22.071  25.405  1.00  0.00     0.133 A 
ATOM     18  C   UNL A   1      32.308  22.183  23.057  1.00  0.00     0.120 A 
ATOM     19  C   UNL A   1      31.108  22.794  23.419  1.00  0.00     0.050 A 
ATOM     20  C   UNL A   1      33.189  21.765  24.057  1.00  0.00     0.072 A 
ATOM     21  C   UNL A   1      30.776  22.973  24.761  1.00  0.00     0.052 A 
ATOM     22  C   UNL A   1      31.675  22.604  25.761  1.00  0.00     0.139 A 
BRANCH  18  23
ATOM     23  O   UNL A   1      32.509  22.120  21.708  1.00  0.00    -0.497 OA
ATOM     24  C   UNL A   1      33.185  23.181  21.053  1.00  0.00     0.278 C 
ENDBRANCH  18  23
BRANCH  22  25
ATOM     25  O   UNL A   1      31.284  22.892  27.037  1.00  0.00    -0.495 OA
ATOM     26  C   UNL A   1      29.865  22.955  27.201  1.00  0.00     0.278 C 
ENDBRANCH  22  25
ENDBRANCH  14  17
ENDBRANCH  12  14
ENDBRANCH   7  12
BRANCH  11  27
ATOM     27  N   UNL A   1      32.201  27.186  23.324  1.00  0.00    -0.371 N 
ATOM     28  C   UNL A   1      32.596  28.519  22.900  1.00  0.00     0.117 C 
ATOM     29  C   UNL A   1      31.006  26.624  22.709  1.00  0.00     0.117 C 
ATOM     30  C   UNL A   1      31.464  29.500  23.193  1.00  0.00     0.025 C 
ATOM     31  C   UNL A   1      29.815  27.563  22.920  1.00  0.00     0.025 C 
ATOM     32  C   UNL A   1      30.128  29.035  22.590  1.00  0.00    -0.011 C 
ATOM     33  C   UNL A   1      28.994  29.938  23.082  1.00  0.00     0.008 C 
ENDBRANCH  11  27
ENDBRANCH   4   6
ENDBRANCH   3   4
ENDBRANCH   2   3
ENDBRANCH   1   2
BRANCH   1  34
ATOM     34  O   UNL A   1      34.069  30.391  26.921  1.00  0.00    -0.374 OA
BRANCH  34  35
ATOM     35  C   UNL A   1      34.842  31.267  27.730  1.00  0.00     0.202 C 
BRANCH  35  36
ATOM     36  C   UNL A   1      35.012  31.026  29.237  1.00  0.00     0.261 C 
BRANCH  36  37
ATOM     37  O   UNL A   1      36.323  31.263  29.743  1.00  0.00    -0.460 OA
BRANCH  37  38
ATOM     38  C   UNL A   1      36.867  30.189  30.365  1.00  0.00     0.338 C 
ATOM     39  O   UNL A   1      36.297  29.367  31.065  1.00  0.00    -0.246 OA
BRANCH  38  40
ATOM     40  C   UNL A   1      38.257  30.047  29.913  1.00  0.00     0.060 A 
ATOM     41  C   UNL A   1      38.503  30.033  28.533  1.00  0.00     0.016 A 
ATOM     42  C   UNL A   1      39.298  29.917  30.832  1.00  0.00     0.016 A 
ATOM     43  C   UNL A   1      39.800  29.877  28.064  1.00  0.00     0.010 A 
ATOM     44  C   UNL A   1      40.595  29.733  30.360  1.00  0.00     0.010 A 
ATOM     45  C   UNL A   1      40.844  29.690  28.977  1.00  0.00    -0.014 A 
BRANCH  45  46
ATOM     46  C   UNL A   1      42.180  29.294  28.488  1.00  0.00     0.031 A 
ATOM     47  C   UNL A   1      42.405  27.854  28.128  1.00  0.00     0.074 A 
ATOM     48  C   UNL A   1      43.159  30.205  28.366  1.00  0.00     0.049 A 
ATOM     49  N   UNL A   1      43.511  27.251  27.782  1.00  0.00    -0.248 NA
ATOM     50  C   UNL A   1      41.224  26.975  28.165  1.00  0.00     0.031 C 
ATOM     51  C   UNL A   1      43.020  31.636  28.639  1.00  0.00     0.029 A 
ATOM     52  N   UNL A   1      44.469  30.058  27.995  1.00  0.00    -0.354 N 
ATOM     53  C   UNL A   1      43.161  25.925  27.563  1.00  0.00     0.074 A 
ATOM     54  C   UNL A   1      41.749  25.801  27.846  1.00  0.00     0.031 C 
ATOM     55  C   UNL A   1      44.208  32.234  28.441  1.00  0.00     0.029 A 
ATOM     56  C   UNL A   1      45.195  31.222  28.074  1.00  0.00     0.049 A 
ATOM     57  H   UNL A   1      44.854  29.201  27.699  1.00  0.00     0.167 HD
ATOM     58  C   UNL A   1      43.952  24.906  27.152  1.00  0.00     0.037 A 
ATOM     59  C   UNL A   1      46.515  31.430  27.905  1.00  0.00     0.037 A 
ATOM     60  C   UNL A   1      45.359  25.048  26.889  1.00  0.00     0.049 A 
ATOM     61  C   UNL A   1      47.396  30.255  27.557  1.00  0.00     0.074 A 
ATOM     62  C   UNL A   1      46.261  24.082  26.480  1.00  0.00     0.029 A 
ATOM     63  N   UNL A   1      46.071  26.233  27.015  1.00  0.00    -0.354 N 
ATOM     64  N   UNL A   1      47.058  29.003  27.345  1.00  0.00    -0.248 NA
ATOM     65  C   UNL A   1      48.835  30.517  27.432  1.00  0.00     0.031 C 
ATOM     66  C   UNL A   1      47.527  24.672  26.406  1.00  0.00     0.029 A 
ATOM     67  C   UNL A   1      47.405  26.018  26.715  1.00  0.00     0.049 A 
ATOM     68  H   UNL A   1      45.684  27.099  27.280  1.00  0.00     0.167 HD
ATOM     69  C   UNL A   1      48.239  28.338  27.031  1.00  0.00     0.074 A 
ATOM     70  C   UNL A   1      49.296  29.328  27.068  1.00  0.00     0.031 C 
ATOM     71  C   UNL A   1      48.436  27.027  26.742  1.00  0.00     0.037 A 
BRANCH  58  72
ATOM     72  C   UNL A   1      43.318  23.554  26.981  1.00  0.00     0.058 A 
ATOM     73  C   UNL A   1      43.133  22.685  28.068  1.00  0.00     0.135 A 
ATOM     74  C   UNL A   1      42.850  23.137  25.724  1.00  0.00     0.135 A 
ATOM     75  F   UNL A   1      43.581  23.022  29.288  1.00  0.00    -0.206 F 
ATOM     76  C   UNL A   1      42.522  21.445  27.913  1.00  0.00     0.059 A 
ATOM     77  C   UNL A   1      42.211  21.914  25.551  1.00  0.00     0.059 A 
ATOM     78  F   UNL A   1      43.009  23.925  24.649  1.00  0.00    -0.206 F 
ATOM     79  C   UNL A   1      42.059  21.071  26.650  1.00  0.00     0.060 A 
BRANCH  79  80
ATOM     80  S   UNL A   1      41.244  19.469  26.473  1.00  0.00     0.124 S 
ATOM     81  O   UNL A   1      40.854  19.185  27.852  1.00  0.00    -0.237 OA
ATOM     82  O   UNL A   1      40.150  19.777  25.558  1.00  0.00    -0.237 OA
ATOM     83  O   UNL A   1      42.292  18.611  25.929  1.00  0.00    -0.744 OA
ENDBRANCH  79  80
ENDBRANCH  58  72
BRANCH  59  84
ATOM     84  C   UNL A   1      47.095  32.788  28.086  1.00  0.00     0.058 A 
ATOM     85  C   UNL A   1      47.115  33.711  27.030  1.00  0.00     0.135 A 
ATOM     86  C   UNL A   1      47.670  33.181  29.306  1.00  0.00     0.135 A 
ATOM     87  F   UNL A   1      46.588  33.381  25.841  1.00  0.00    -0.206 F 
ATOM     88  C   UNL A   1      47.708  34.963  27.165  1.00  0.00     0.059 A 
ATOM     89  C   UNL A   1      48.239  34.439  29.476  1.00  0.00     0.059 A 
ATOM     90  F   UNL A   1      47.670  32.342  30.353  1.00  0.00    -0.206 F 
ATOM     91  C   UNL A   1      48.269  35.317  28.393  1.00  0.00     0.060 A 
BRANCH  91  92
ATOM     92  S   UNL A   1      49.024  36.948  28.560  1.00  0.00     0.124 S 
ATOM     93  O   UNL A   1      47.885  37.757  28.979  1.00  0.00    -0.237 OA
ATOM     94  O   UNL A   1      50.047  36.711  29.573  1.00  0.00    -0.237 OA
ATOM     95  O   UNL A   1      49.532  37.221  27.218  1.00  0.00    -0.744 OA
ENDBRANCH  91  92
ENDBRANCH  59  84
BRANCH  71  96
ATOM     96  C   UNL A   1      49.835  26.594  26.401  1.00  0.00     0.058 A 
ATOM     97  C   UNL A   1      50.378  26.795  25.123  1.00  0.00     0.135 A 
ATOM     98  C   UNL A   1      50.666  26.035  27.387  1.00  0.00     0.135 A 
ATOM     99  F   UNL A   1      49.625  27.317  24.142  1.00  0.00    -0.206 F 
ATOM    100  C   UNL A   1      51.690  26.440  24.829  1.00  0.00     0.059 A 
ATOM    101  C   UNL A   1      51.990  25.703  27.124  1.00  0.00     0.059 A 
ATOM    102  F   UNL A   1      50.199  25.832  28.629  1.00  0.00    -0.206 F 
ATOM    103  C   UNL A   1      52.491  25.901  25.838  1.00  0.00     0.060 A 
BRANCH 103 104
ATOM    104  S   UNL A   1      54.207  25.496  25.453  1.00  0.00     0.124 S 
ATOM    105  O   UNL A   1      54.930  26.426  26.315  1.00  0.00    -0.237 OA
ATOM    106  O   UNL A   1      54.287  24.088  25.832  1.00  0.00    -0.237 OA
ATOM    107  O   UNL A   1      54.308  25.760  24.021  1.00  0.00    -0.744 OA
ENDBRANCH 103 104
ENDBRANCH  71  96
ENDBRANCH  45  46
ENDBRANCH  38  40
ENDBRANCH  37  38
ENDBRANCH  36  37
ENDBRANCH  35  36
ENDBRANCH  34  35
ENDBRANCH   1  34
TORSDOF 23
ENDMDL
