MODEL 1
REMARK VINA RESULT:     -11.0      0.000      0.000
REMARK SMILES C[C@@H](C(=O)OCCOCCOC(=O)c1ccc(-c2c3nc(c(-c4c(F)cc(S(=O)(=O)[O-])cc4F)c4ccc([nH]4)c(-c4c(F)cc(S(=O)(=O)[O-])cc4F)c4nc(c(-c5c(F)cc(S(=O)(=O)[O-])cc5F)c5ccc2[nH]5)C=C4)C=C3)cc1)c1ccc(-c2cccc(OC(=O)NC3CC3)c2)c(F)c1
REMARK SMILES IDX 7 1 6 2 5 3 3 4 4 5 2 6 1 7 80 8 81 9 99 10 82 11 97 12
REMARK SMILES IDX 83 13 98 14 84 15 85 16 96 17 86 18 88 19 87 20 89 21 90 22
REMARK SMILES IDX 91 23 92 24 93 26 94 27 95 28 8 29 9 30 10 31 11 32 12 33
REMARK SMILES IDX 13 34 14 35 15 36 79 37 16 38 78 39 17 40 18 41 19 42 72 43
REMARK SMILES IDX 20 44 77 45 71 46 73 47 21 48 76 49 70 50 69 51 22 53 56 54
REMARK SMILES IDX 35 55 55 56 36 57 39 58 54 59 74 60 37 61 38 62 53 64 75 65
REMARK SMILES IDX 40 66 23 67 24 68 33 69 25 70 26 71 32 72 34 73 27 74 28 75
REMARK SMILES IDX 29 76 30 77 31 78 57 79 58 80 67 81 59 82 60 83 66 84 68 85
REMARK SMILES IDX 61 86 62 87 63 88 64 89 65 90 41 91 42 92 51 93 43 94 44 95
REMARK SMILES IDX 50 96 52 97 45 98 46 99 47 100 48 101 49 102
REMARK H PARENT 92 25 73 52 39 63
REMARK Flexibility Score: inf
ROOT
ATOM      1  C   UNL A   1      33.618  34.712  29.938  1.00  0.00     0.202 C 
ENDROOT
BRANCH   1   2
ATOM      2  C   UNL A   1      33.715  34.705  28.409  1.00  0.00     0.261 C 
BRANCH   2   3
ATOM      3  O   UNL A   1      34.262  33.468  27.915  1.00  0.00    -0.463 OA
BRANCH   3   4
ATOM      4  C   UNL A   1      33.357  32.484  27.659  1.00  0.00     0.313 C 
ATOM      5  O   UNL A   1      32.210  32.687  27.273  1.00  0.00    -0.252 OA
BRANCH   4   6
ATOM      6  C   UNL A   1      33.926  31.072  27.878  1.00  0.00     0.126 C 
ATOM      7  C   UNL A   1      35.451  30.955  27.790  1.00  0.00     0.025 C 
BRANCH   6   8
ATOM      8  C   UNL A   1      33.197  30.077  26.975  1.00  0.00    -0.031 A 
ATOM      9  C   UNL A   1      31.969  29.489  27.314  1.00  0.00     0.005 A 
ATOM     10  C   UNL A   1      33.842  29.625  25.815  1.00  0.00     0.044 A 
ATOM     11  C   UNL A   1      31.436  28.436  26.557  1.00  0.00     0.012 A 
ATOM     12  C   UNL A   1      33.299  28.588  25.059  1.00  0.00     0.131 A 
ATOM     13  C   UNL A   1      32.105  27.950  25.427  1.00  0.00     0.018 A 
ATOM     14  F   UNL A   1      33.972  28.185  23.971  1.00  0.00    -0.206 F 
BRANCH  13  15
ATOM     15  C   UNL A   1      31.622  26.761  24.709  1.00  0.00    -0.012 A 
ATOM     16  C   UNL A   1      31.365  26.778  23.330  1.00  0.00     0.009 A 
ATOM     17  C   UNL A   1      31.384  25.570  25.418  1.00  0.00     0.056 A 
ATOM     18  C   UNL A   1      30.903  25.633  22.674  1.00  0.00     0.004 A 
ATOM     19  C   UNL A   1      30.926  24.430  24.765  1.00  0.00     0.133 A 
ATOM     20  C   UNL A   1      30.687  24.457  23.392  1.00  0.00     0.047 A 
BRANCH  19  21
ATOM     21  O   UNL A   1      30.679  23.189  25.403  1.00  0.00    -0.410 OA
BRANCH  21  22
ATOM     22  C   UNL A   1      30.597  22.970  26.775  1.00  0.00     0.412 C 
ATOM     23  O   UNL A   1      29.612  23.156  27.486  1.00  0.00    -0.224 OA
ATOM     24  N   UNL A   1      31.758  22.517  27.342  1.00  0.00    -0.318 N 
ATOM     25  H   UNL A   1      31.725  22.397  28.319  1.00  0.00     0.167 HD
BRANCH  24  26
ATOM     26  C   UNL A   1      33.006  22.193  26.739  1.00  0.00     0.085 C 
ATOM     27  C   UNL A   1      34.303  22.933  26.890  1.00  0.00     0.027 C 
ATOM     28  C   UNL A   1      34.101  21.640  27.616  1.00  0.00     0.027 C 
ENDBRANCH  24  26
ENDBRANCH  21  22
ENDBRANCH  19  21
ENDBRANCH  13  15
ENDBRANCH   6   8
ENDBRANCH   4   6
ENDBRANCH   3   4
ENDBRANCH   2   3
ENDBRANCH   1   2
BRANCH   1  29
ATOM     29  O   UNL A   1      34.078  33.561  30.644  1.00  0.00    -0.374 OA
BRANCH  29  30
ATOM     30  C   UNL A   1      35.312  33.662  31.347  1.00  0.00     0.202 C 
BRANCH  30  31
ATOM     31  C   UNL A   1      36.441  32.689  30.981  1.00  0.00     0.261 C 
BRANCH  31  32
ATOM     32  O   UNL A   1      36.541  31.571  31.878  1.00  0.00    -0.460 OA
BRANCH  32  33
ATOM     33  C   UNL A   1      36.764  30.384  31.257  1.00  0.00     0.338 C 
ATOM     34  O   UNL A   1      35.934  29.536  30.972  1.00  0.00    -0.246 OA
BRANCH  33  35
ATOM     35  C   UNL A   1      38.157  30.314  30.778  1.00  0.00     0.060 A 
ATOM     36  C   UNL A   1      38.353  30.201  29.396  1.00  0.00     0.016 A 
ATOM     37  C   UNL A   1      39.239  30.271  31.658  1.00  0.00     0.016 A 
ATOM     38  C   UNL A   1      39.631  29.991  28.888  1.00  0.00     0.010 A 
ATOM     39  C   UNL A   1      40.522  30.051  31.145  1.00  0.00     0.010 A 
ATOM     40  C   UNL A   1      40.718  29.871  29.763  1.00  0.00    -0.014 A 
BRANCH  40  41
ATOM     41  C   UNL A   1      42.026  29.410  29.237  1.00  0.00     0.031 A 
ATOM     42  C   UNL A   1      43.168  30.388  29.167  1.00  0.00     0.074 A 
ATOM     43  C   UNL A   1      42.203  28.129  28.869  1.00  0.00     0.049 A 
ATOM     44  N   UNL A   1      44.382  30.213  28.716  1.00  0.00    -0.248 NA
ATOM     45  C   UNL A   1      42.904  31.746  29.671  1.00  0.00     0.031 C 
ATOM     46  C   UNL A   1      41.183  27.083  28.938  1.00  0.00     0.029 A 
ATOM     47  N   UNL A   1      43.306  27.491  28.359  1.00  0.00    -0.354 N 
ATOM     48  C   UNL A   1      45.024  31.438  28.868  1.00  0.00     0.074 A 
ATOM     49  C   UNL A   1      44.054  32.355  29.425  1.00  0.00     0.031 C 
ATOM     50  C   UNL A   1      41.707  25.933  28.481  1.00  0.00     0.029 A 
ATOM     51  C   UNL A   1      43.084  26.170  28.050  1.00  0.00     0.049 A 
ATOM     52  H   UNL A   1      44.173  27.937  28.228  1.00  0.00     0.167 HD
ATOM     53  C   UNL A   1      46.305  31.762  28.575  1.00  0.00     0.037 A 
ATOM     54  C   UNL A   1      43.893  25.265  27.465  1.00  0.00     0.037 A 
ATOM     55  C   UNL A   1      47.263  30.837  28.027  1.00  0.00     0.049 A 
ATOM     56  C   UNL A   1      45.294  25.669  27.084  1.00  0.00     0.074 A 
ATOM     57  C   UNL A   1      48.593  31.059  27.718  1.00  0.00     0.029 A 
ATOM     58  N   UNL A   1      46.993  29.517  27.696  1.00  0.00    -0.354 N 
ATOM     59  N   UNL A   1      45.896  26.823  27.255  1.00  0.00    -0.248 NA
ATOM     60  C   UNL A   1      46.129  24.648  26.437  1.00  0.00     0.031 C 
ATOM     61  C   UNL A   1      49.109  29.893  27.143  1.00  0.00     0.029 A 
ATOM     62  C   UNL A   1      48.121  28.922  27.156  1.00  0.00     0.049 A 
ATOM     63  H   UNL A   1      46.126  29.068  27.825  1.00  0.00     0.167 HD
ATOM     64  C   UNL A   1      47.188  26.656  26.765  1.00  0.00     0.074 A 
ATOM     65  C   UNL A   1      47.282  25.287  26.302  1.00  0.00     0.031 C 
ATOM     66  C   UNL A   1      48.203  27.553  26.707  1.00  0.00     0.037 A 
BRANCH  53  67
ATOM     67  C   UNL A   1      46.742  33.183  28.811  1.00  0.00     0.058 A 
ATOM     68  C   UNL A   1      46.619  34.175  27.826  1.00  0.00     0.135 A 
ATOM     69  C   UNL A   1      47.258  33.567  30.062  1.00  0.00     0.135 A 
ATOM     70  F   UNL A   1      46.149  33.865  26.607  1.00  0.00    -0.206 F 
ATOM     71  C   UNL A   1      47.011  35.491  28.062  1.00  0.00     0.059 A 
ATOM     72  C   UNL A   1      47.627  34.881  30.330  1.00  0.00     0.059 A 
ATOM     73  F   UNL A   1      47.402  32.659  31.039  1.00  0.00    -0.206 F 
ATOM     74  C   UNL A   1      47.513  35.833  29.319  1.00  0.00     0.060 A 
BRANCH  74  75
ATOM     75  S   UNL A   1      48.008  37.544  29.613  1.00  0.00     0.124 S 
ATOM     76  O   UNL A   1      49.227  37.365  30.396  1.00  0.00    -0.237 OA
ATOM     77  O   UNL A   1      48.196  38.050  28.257  1.00  0.00    -0.237 OA
ATOM     78  O   UNL A   1      46.874  38.108  30.338  1.00  0.00    -0.744 OA
ENDBRANCH  74  75
ENDBRANCH  53  67
BRANCH  54  79
ATOM     79  C   UNL A   1      43.395  23.890  27.191  1.00  0.00     0.058 A 
ATOM     80  C   UNL A   1      43.351  22.918  28.200  1.00  0.00     0.135 A 
ATOM     81  C   UNL A   1      42.955  23.519  25.910  1.00  0.00     0.135 A 
ATOM     82  F   UNL A   1      43.770  23.218  29.439  1.00  0.00    -0.206 F 
ATOM     83  C   UNL A   1      42.904  21.624  27.949  1.00  0.00     0.059 A 
ATOM     84  C   UNL A   1      42.475  22.242  25.641  1.00  0.00     0.059 A 
ATOM     85  F   UNL A   1      42.966  24.414  24.909  1.00  0.00    -0.206 F 
ATOM     86  C   UNL A   1      42.464  21.298  26.665  1.00  0.00     0.060 A 
BRANCH  86  87
ATOM     87  S   UNL A   1      41.844  19.628  26.362  1.00  0.00     0.124 S 
ATOM     88  O   UNL A   1      42.293  18.926  27.559  1.00  0.00    -0.237 OA
ATOM     89  O   UNL A   1      40.407  19.853  26.253  1.00  0.00    -0.237 OA
ATOM     90  O   UNL A   1      42.509  19.245  25.119  1.00  0.00    -0.744 OA
ENDBRANCH  86  87
ENDBRANCH  54  79
BRANCH  66  91
ATOM     91  C   UNL A   1      49.525  27.076  26.164  1.00  0.00     0.058 A 
ATOM     92  C   UNL A   1      50.515  26.527  26.994  1.00  0.00     0.135 A 
ATOM     93  C   UNL A   1      49.779  27.120  24.782  1.00  0.00     0.135 A 
ATOM     94  F   UNL A   1      50.327  26.465  28.322  1.00  0.00    -0.206 F 
ATOM     95  C   UNL A   1      51.721  26.063  26.477  1.00  0.00     0.059 A 
ATOM     96  C   UNL A   1      50.964  26.631  24.240  1.00  0.00     0.059 A 
ATOM     97  F   UNL A   1      48.863  27.623  23.941  1.00  0.00    -0.206 F 
ATOM     98  C   UNL A   1      51.935  26.116  25.098  1.00  0.00     0.060 A 
BRANCH  98  99
ATOM     99  S   UNL A   1      53.491  25.480  24.439  1.00  0.00     0.124 S 
ATOM    100  O   UNL A   1      53.413  25.899  23.044  1.00  0.00    -0.237 OA
ATOM    101  O   UNL A   1      54.482  26.175  25.256  1.00  0.00    -0.237 OA
ATOM    102  O   UNL A   1      53.396  24.042  24.668  1.00  0.00    -0.744 OA
ENDBRANCH  98  99
ENDBRANCH  66  91
ENDBRANCH  40  41
ENDBRANCH  33  35
ENDBRANCH  32  33
ENDBRANCH  31  32
ENDBRANCH  30  31
ENDBRANCH  29  30
ENDBRANCH   1  29
TORSDOF 22
ENDMDL
MODEL 2
REMARK VINA RESULT:     -10.8      1.708      3.083
REMARK SMILES C[C@@H](C(=O)OCCOCCOC(=O)c1ccc(-c2c3nc(c(-c4c(F)cc(S(=O)(=O)[O-])cc4F)c4ccc([nH]4)c(-c4c(F)cc(S(=O)(=O)[O-])cc4F)c4nc(c(-c5c(F)cc(S(=O)(=O)[O-])cc5F)c5ccc2[nH]5)C=C4)C=C3)cc1)c1ccc(-c2cccc(OC(=O)NC3CC3)c2)c(F)c1
REMARK SMILES IDX 7 1 6 2 5 3 3 4 4 5 2 6 1 7 80 8 81 9 99 10 82 11 97 12
REMARK SMILES IDX 83 13 98 14 84 15 85 16 96 17 86 18 88 19 87 20 89 21 90 22
REMARK SMILES IDX 91 23 92 24 93 26 94 27 95 28 8 29 9 30 10 31 11 32 12 33
REMARK SMILES IDX 13 34 14 35 15 36 79 37 16 38 78 39 17 40 18 41 19 42 72 43
REMARK SMILES IDX 20 44 77 45 71 46 73 47 21 48 76 49 70 50 69 51 22 53 56 54
REMARK SMILES IDX 35 55 55 56 36 57 39 58 54 59 74 60 37 61 38 62 53 64 75 65
REMARK SMILES IDX 40 66 23 67 24 68 33 69 25 70 26 71 32 72 34 73 27 74 28 75
REMARK SMILES IDX 29 76 30 77 31 78 57 79 58 80 67 81 59 82 60 83 66 84 68 85
REMARK SMILES IDX 61 86 62 87 63 88 64 89 65 90 41 91 42 92 51 93 43 94 44 95
REMARK SMILES IDX 50 96 52 97 45 98 46 99 47 100 48 101 49 102
REMARK H PARENT 92 25 73 52 39 63
REMARK Flexibility Score: inf
ROOT
ATOM      1  C   UNL A   1      34.809  35.028  32.280  1.00  0.00     0.202 C 
ENDROOT
BRANCH   1   2
ATOM      2  C   UNL A   1      33.905  35.162  31.050  1.00  0.00     0.261 C 
BRANCH   2   3
ATOM      3  O   UNL A   1      33.806  33.922  30.323  1.00  0.00    -0.463 OA
BRANCH   3   4
ATOM      4  C   UNL A   1      34.393  33.912  29.095  1.00  0.00     0.313 C 
ATOM      5  O   UNL A   1      34.088  34.669  28.179  1.00  0.00    -0.252 OA
BRANCH   4   6
ATOM      6  C   UNL A   1      35.510  32.862  28.973  1.00  0.00     0.126 C 
ATOM      7  C   UNL A   1      36.775  33.325  28.242  1.00  0.00     0.025 C 
BRANCH   6   8
ATOM      8  C   UNL A   1      34.935  31.563  28.407  1.00  0.00    -0.031 A 
ATOM      9  C   UNL A   1      35.733  30.472  28.026  1.00  0.00     0.005 A 
ATOM     10  C   UNL A   1      33.563  31.501  28.127  1.00  0.00     0.044 A 
ATOM     11  C   UNL A   1      35.188  29.385  27.329  1.00  0.00     0.012 A 
ATOM     12  C   UNL A   1      33.026  30.410  27.447  1.00  0.00     0.131 A 
ATOM     13  C   UNL A   1      33.826  29.346  27.005  1.00  0.00     0.018 A 
ATOM     14  F   UNL A   1      31.709  30.417  27.190  1.00  0.00    -0.206 F 
BRANCH  13  15
ATOM     15  C   UNL A   1      33.275  28.277  26.159  1.00  0.00    -0.012 A 
ATOM     16  C   UNL A   1      33.895  27.023  26.046  1.00  0.00     0.009 A 
ATOM     17  C   UNL A   1      32.103  28.512  25.417  1.00  0.00     0.056 A 
ATOM     18  C   UNL A   1      33.349  26.026  25.232  1.00  0.00     0.004 A 
ATOM     19  C   UNL A   1      31.560  27.519  24.608  1.00  0.00     0.133 A 
ATOM     20  C   UNL A   1      32.179  26.273  24.514  1.00  0.00     0.047 A 
BRANCH  19  21
ATOM     21  O   UNL A   1      30.376  27.670  23.844  1.00  0.00    -0.410 OA
BRANCH  21  22
ATOM     22  C   UNL A   1      30.303  28.016  22.498  1.00  0.00     0.412 C 
ATOM     23  O   UNL A   1      30.754  27.373  21.553  1.00  0.00    -0.224 OA
ATOM     24  N   UNL A   1      29.669  29.207  22.257  1.00  0.00    -0.318 N 
ATOM     25  H   UNL A   1      29.647  29.483  21.313  1.00  0.00     0.167 HD
BRANCH  24  26
ATOM     26  C   UNL A   1      29.038  30.107  23.161  1.00  0.00     0.085 C 
ATOM     27  C   UNL A   1      28.362  31.404  22.823  1.00  0.00     0.027 C 
ATOM     28  C   UNL A   1      27.533  30.200  23.143  1.00  0.00     0.027 C 
ENDBRANCH  24  26
ENDBRANCH  21  22
ENDBRANCH  19  21
ENDBRANCH  13  15
ENDBRANCH   6   8
ENDBRANCH   4   6
ENDBRANCH   3   4
ENDBRANCH   2   3
ENDBRANCH   1   2
BRANCH   1  29
ATOM     29  O   UNL A   1      34.450  34.069  33.274  1.00  0.00    -0.374 OA
BRANCH  29  30
ATOM     30  C   UNL A   1      35.387  33.039  33.570  1.00  0.00     0.202 C 
BRANCH  30  31
ATOM     31  C   UNL A   1      36.058  32.305  32.400  1.00  0.00     0.261 C 
BRANCH  31  32
ATOM     32  O   UNL A   1      36.814  31.155  32.810  1.00  0.00    -0.460 OA
BRANCH  32  33
ATOM     33  C   UNL A   1      36.934  30.202  31.849  1.00  0.00     0.338 C 
ATOM     34  O   UNL A   1      36.032  29.567  31.328  1.00  0.00    -0.246 OA
BRANCH  33  35
ATOM     35  C   UNL A   1      38.320  30.153  31.351  1.00  0.00     0.060 A 
ATOM     36  C   UNL A   1      38.507  30.267  29.967  1.00  0.00     0.016 A 
ATOM     37  C   UNL A   1      39.402  29.915  32.199  1.00  0.00     0.016 A 
ATOM     38  C   UNL A   1      39.773  30.090  29.418  1.00  0.00     0.010 A 
ATOM     39  C   UNL A   1      40.672  29.728  31.643  1.00  0.00     0.010 A 
ATOM     40  C   UNL A   1      40.856  29.775  30.248  1.00  0.00    -0.014 A 
BRANCH  40  41
ATOM     41  C   UNL A   1      42.140  29.353  29.639  1.00  0.00     0.031 A 
ATOM     42  C   UNL A   1      43.270  30.344  29.562  1.00  0.00     0.074 A 
ATOM     43  C   UNL A   1      42.308  28.093  29.200  1.00  0.00     0.049 A 
ATOM     44  N   UNL A   1      44.462  30.202  29.045  1.00  0.00    -0.248 NA
ATOM     45  C   UNL A   1      43.021  31.673  30.144  1.00  0.00     0.031 C 
ATOM     46  C   UNL A   1      41.300  27.035  29.267  1.00  0.00     0.029 A 
ATOM     47  N   UNL A   1      43.389  27.491  28.608  1.00  0.00    -0.354 N 
ATOM     48  C   UNL A   1      45.102  31.424  29.226  1.00  0.00     0.074 A 
ATOM     49  C   UNL A   1      44.154  32.305  29.873  1.00  0.00     0.031 C 
ATOM     50  C   UNL A   1      41.810  25.914  28.729  1.00  0.00     0.029 A 
ATOM     51  C   UNL A   1      43.162  26.185  28.245  1.00  0.00     0.049 A 
ATOM     52  H   UNL A   1      44.247  27.950  28.457  1.00  0.00     0.167 HD
ATOM     53  C   UNL A   1      46.366  31.775  28.888  1.00  0.00     0.037 A 
ATOM     54  C   UNL A   1      43.948  25.316  27.579  1.00  0.00     0.037 A 
ATOM     55  C   UNL A   1      47.302  30.886  28.251  1.00  0.00     0.049 A 
ATOM     56  C   UNL A   1      45.327  25.752  27.152  1.00  0.00     0.074 A 
ATOM     57  C   UNL A   1      48.615  31.135  27.889  1.00  0.00     0.029 A 
ATOM     58  N   UNL A   1      47.026  29.581  27.868  1.00  0.00    -0.354 N 
ATOM     59  N   UNL A   1      45.928  26.902  27.349  1.00  0.00    -0.248 NA
ATOM     60  C   UNL A   1      46.136  24.771  26.416  1.00  0.00     0.031 C 
ATOM     61  C   UNL A   1      49.110  30.003  27.234  1.00  0.00     0.029 A 
ATOM     62  C   UNL A   1      48.131  29.024  27.247  1.00  0.00     0.049 A 
ATOM     63  H   UNL A   1      46.169  29.118  28.017  1.00  0.00     0.167 HD
ATOM     64  C   UNL A   1      47.196  26.771  26.791  1.00  0.00     0.074 A 
ATOM     65  C   UNL A   1      47.278  25.427  26.258  1.00  0.00     0.031 C 
ATOM     66  C   UNL A   1      48.201  27.679  26.728  1.00  0.00     0.037 A 
BRANCH  53  67
ATOM     67  C   UNL A   1      46.803  33.187  29.173  1.00  0.00     0.058 A 
ATOM     68  C   UNL A   1      47.404  33.551  30.388  1.00  0.00     0.135 A 
ATOM     69  C   UNL A   1      46.654  34.184  28.194  1.00  0.00     0.135 A 
ATOM     70  F   UNL A   1      47.558  32.645  31.366  1.00  0.00    -0.206 F 
ATOM     71  C   UNL A   1      47.820  34.858  30.632  1.00  0.00     0.059 A 
ATOM     72  C   UNL A   1      47.090  35.489  28.405  1.00  0.00     0.059 A 
ATOM     73  F   UNL A   1      46.082  33.893  27.015  1.00  0.00    -0.206 F 
ATOM     74  C   UNL A   1      47.660  35.819  29.632  1.00  0.00     0.060 A 
BRANCH  74  75
ATOM     75  S   UNL A   1      48.213  37.505  29.960  1.00  0.00     0.124 S 
ATOM     76  O   UNL A   1      48.219  38.078  28.618  1.00  0.00    -0.237 OA
ATOM     77  O   UNL A   1      47.175  38.004  30.857  1.00  0.00    -0.237 OA
ATOM     78  O   UNL A   1      49.527  37.321  30.569  1.00  0.00    -0.744 OA
ENDBRANCH  74  75
ENDBRANCH  53  67
BRANCH  54  79
ATOM     79  C   UNL A   1      43.447  23.952  27.262  1.00  0.00     0.058 A 
ATOM     80  C   UNL A   1      42.904  23.650  26.005  1.00  0.00     0.135 A 
ATOM     81  C   UNL A   1      43.498  22.921  28.215  1.00  0.00     0.135 A 
ATOM     82  F   UNL A   1      42.823  24.603  25.064  1.00  0.00    -0.206 F 
ATOM     83  C   UNL A   1      42.416  22.382  25.706  1.00  0.00     0.059 A 
ATOM     84  C   UNL A   1      43.044  21.637  27.930  1.00  0.00     0.059 A 
ATOM     85  F   UNL A   1      44.016  23.152  29.431  1.00  0.00    -0.206 F 
ATOM     86  C   UNL A   1      42.495  21.380  26.676  1.00  0.00     0.060 A 
BRANCH  86  87
ATOM     87  S   UNL A   1      41.899  19.726  26.261  1.00  0.00     0.124 S 
ATOM     88  O   UNL A   1      42.284  18.969  27.446  1.00  0.00    -0.237 OA
ATOM     89  O   UNL A   1      40.468  19.954  26.083  1.00  0.00    -0.237 OA
ATOM     90  O   UNL A   1      42.632  19.403  25.040  1.00  0.00    -0.744 OA
ENDBRANCH  86  87
ENDBRANCH  54  79
BRANCH  66  91
ATOM     91  C   UNL A   1      49.498  27.241  26.099  1.00  0.00     0.058 A 
ATOM     92  C   UNL A   1      50.518  26.634  26.848  1.00  0.00     0.135 A 
ATOM     93  C   UNL A   1      49.697  27.384  24.716  1.00  0.00     0.135 A 
ATOM     94  F   UNL A   1      50.384  26.477  28.174  1.00  0.00    -0.206 F 
ATOM     95  C   UNL A   1      51.702  26.207  26.251  1.00  0.00     0.059 A 
ATOM     96  C   UNL A   1      50.857  26.935  24.093  1.00  0.00     0.059 A 
ATOM     97  F   UNL A   1      48.750  27.947  23.950  1.00  0.00    -0.206 F 
ATOM     98  C   UNL A   1      51.860  26.359  24.872  1.00  0.00     0.060 A 
BRANCH  98  99
ATOM     99  S   UNL A   1      53.386  25.771  24.107  1.00  0.00     0.124 S 
ATOM    100  O   UNL A   1      53.475  24.413  24.631  1.00  0.00    -0.237 OA
ATOM    101  O   UNL A   1      53.083  25.883  22.683  1.00  0.00    -0.237 OA
ATOM    102  O   UNL A   1      54.397  26.701  24.601  1.00  0.00    -0.744 OA
ENDBRANCH  98  99
ENDBRANCH  66  91
ENDBRANCH  40  41
ENDBRANCH  33  35
ENDBRANCH  32  33
ENDBRANCH  31  32
ENDBRANCH  30  31
ENDBRANCH  29  30
ENDBRANCH   1  29
TORSDOF 22
ENDMDL
MODEL 3
REMARK VINA RESULT:     -10.5      1.451      2.403
REMARK SMILES C[C@@H](C(=O)OCCOCCOC(=O)c1ccc(-c2c3nc(c(-c4c(F)cc(S(=O)(=O)[O-])cc4F)c4ccc([nH]4)c(-c4c(F)cc(S(=O)(=O)[O-])cc4F)c4nc(c(-c5c(F)cc(S(=O)(=O)[O-])cc5F)c5ccc2[nH]5)C=C4)C=C3)cc1)c1ccc(-c2cccc(OC(=O)NC3CC3)c2)c(F)c1
REMARK SMILES IDX 7 1 6 2 5 3 3 4 4 5 2 6 1 7 80 8 81 9 99 10 82 11 97 12
REMARK SMILES IDX 83 13 98 14 84 15 85 16 96 17 86 18 88 19 87 20 89 21 90 22
REMARK SMILES IDX 91 23 92 24 93 26 94 27 95 28 8 29 9 30 10 31 11 32 12 33
REMARK SMILES IDX 13 34 14 35 15 36 79 37 16 38 78 39 17 40 18 41 19 42 72 43
REMARK SMILES IDX 20 44 77 45 71 46 73 47 21 48 76 49 70 50 69 51 22 53 56 54
REMARK SMILES IDX 35 55 55 56 36 57 39 58 54 59 74 60 37 61 38 62 53 64 75 65
REMARK SMILES IDX 40 66 23 67 24 68 33 69 25 70 26 71 32 72 34 73 27 74 28 75
REMARK SMILES IDX 29 76 30 77 31 78 57 79 58 80 67 81 59 82 60 83 66 84 68 85
REMARK SMILES IDX 61 86 62 87 63 88 64 89 65 90 41 91 42 92 51 93 43 94 44 95
REMARK SMILES IDX 50 96 52 97 45 98 46 99 47 100 48 101 49 102
REMARK H PARENT 92 25 73 52 39 63
REMARK Flexibility Score: inf
ROOT
ATOM      1  C   UNL A   1      34.758  35.046  32.349  1.00  0.00     0.202 C 
ENDROOT
BRANCH   1   2
ATOM      2  C   UNL A   1      33.831  35.277  31.150  1.00  0.00     0.261 C 
BRANCH   2   3
ATOM      3  O   UNL A   1      33.645  34.074  30.379  1.00  0.00    -0.463 OA
BRANCH   3   4
ATOM      4  C   UNL A   1      34.294  34.037  29.183  1.00  0.00     0.313 C 
ATOM      5  O   UNL A   1      34.135  34.859  28.287  1.00  0.00    -0.252 OA
BRANCH   4   6
ATOM      6  C   UNL A   1      35.279  32.860  29.071  1.00  0.00     0.126 C 
ATOM      7  C   UNL A   1      36.689  33.223  28.596  1.00  0.00     0.025 C 
BRANCH   6   8
ATOM      8  C   UNL A   1      34.644  31.734  28.255  1.00  0.00    -0.031 A 
ATOM      9  C   UNL A   1      35.384  30.677  27.701  1.00  0.00     0.005 A 
ATOM     10  C   UNL A   1      33.285  31.824  27.928  1.00  0.00     0.044 A 
ATOM     11  C   UNL A   1      34.799  29.780  26.796  1.00  0.00     0.012 A 
ATOM     12  C   UNL A   1      32.707  30.920  27.039  1.00  0.00     0.131 A 
ATOM     13  C   UNL A   1      33.453  29.901  26.430  1.00  0.00     0.018 A 
ATOM     14  F   UNL A   1      31.405  31.070  26.750  1.00  0.00    -0.206 F 
BRANCH  13  15
ATOM     15  C   UNL A   1      32.870  29.049  25.382  1.00  0.00    -0.012 A 
ATOM     16  C   UNL A   1      31.577  29.266  24.880  1.00  0.00     0.009 A 
ATOM     17  C   UNL A   1      33.612  27.967  24.874  1.00  0.00     0.056 A 
ATOM     18  C   UNL A   1      31.049  28.438  23.886  1.00  0.00     0.004 A 
ATOM     19  C   UNL A   1      33.085  27.145  23.883  1.00  0.00     0.133 A 
ATOM     20  C   UNL A   1      31.804  27.378  23.384  1.00  0.00     0.047 A 
BRANCH  19  21
ATOM     21  O   UNL A   1      33.773  26.047  23.308  1.00  0.00    -0.410 OA
BRANCH  21  22
ATOM     22  C   UNL A   1      33.368  25.313  22.197  1.00  0.00     0.412 C 
ATOM     23  O   UNL A   1      33.337  25.708  21.033  1.00  0.00    -0.224 OA
ATOM     24  N   UNL A   1      32.961  24.037  22.484  1.00  0.00    -0.318 N 
ATOM     25  H   UNL A   1      32.634  23.521  21.712  1.00  0.00     0.167 HD
BRANCH  24  26
ATOM     26  C   UNL A   1      32.937  23.341  23.725  1.00  0.00     0.085 C 
ATOM     27  C   UNL A   1      32.230  23.758  24.983  1.00  0.00     0.027 C 
ATOM     28  C   UNL A   1      31.656  22.663  24.140  1.00  0.00     0.027 C 
ENDBRANCH  24  26
ENDBRANCH  21  22
ENDBRANCH  19  21
ENDBRANCH  13  15
ENDBRANCH   6   8
ENDBRANCH   4   6
ENDBRANCH   3   4
ENDBRANCH   2   3
ENDBRANCH   1   2
BRANCH   1  29
ATOM     29  O   UNL A   1      34.377  34.063  33.310  1.00  0.00    -0.374 OA
BRANCH  29  30
ATOM     30  C   UNL A   1      35.271  32.980  33.541  1.00  0.00     0.202 C 
BRANCH  30  31
ATOM     31  C   UNL A   1      35.913  32.293  32.327  1.00  0.00     0.261 C 
BRANCH  31  32
ATOM     32  O   UNL A   1      36.618  31.088  32.662  1.00  0.00    -0.460 OA
BRANCH  32  33
ATOM     33  C   UNL A   1      36.734  30.211  31.632  1.00  0.00     0.338 C 
ATOM     34  O   UNL A   1      35.827  29.651  31.038  1.00  0.00    -0.246 OA
BRANCH  33  35
ATOM     35  C   UNL A   1      38.132  30.152  31.168  1.00  0.00     0.060 A 
ATOM     36  C   UNL A   1      38.360  30.335  29.798  1.00  0.00     0.016 A 
ATOM     37  C   UNL A   1      39.184  29.841  32.030  1.00  0.00     0.016 A 
ATOM     38  C   UNL A   1      39.636  30.155  29.273  1.00  0.00     0.010 A 
ATOM     39  C   UNL A   1      40.464  29.652  31.499  1.00  0.00     0.010 A 
ATOM     40  C   UNL A   1      40.687  29.768  30.114  1.00  0.00    -0.014 A 
BRANCH  40  41
ATOM     41  C   UNL A   1      41.977  29.346  29.516  1.00  0.00     0.031 A 
ATOM     42  C   UNL A   1      43.100  30.344  29.427  1.00  0.00     0.074 A 
ATOM     43  C   UNL A   1      42.157  28.080  29.099  1.00  0.00     0.049 A 
ATOM     44  N   UNL A   1      44.295  30.203  28.918  1.00  0.00    -0.248 NA
ATOM     45  C   UNL A   1      42.838  31.681  29.986  1.00  0.00     0.031 C 
ATOM     46  C   UNL A   1      41.157  27.016  29.180  1.00  0.00     0.029 A 
ATOM     47  N   UNL A   1      43.245  27.477  28.521  1.00  0.00    -0.354 N 
ATOM     48  C   UNL A   1      44.925  31.433  29.080  1.00  0.00     0.074 A 
ATOM     49  C   UNL A   1      43.968  32.317  29.710  1.00  0.00     0.031 C 
ATOM     50  C   UNL A   1      41.677  25.890  28.662  1.00  0.00     0.029 A 
ATOM     51  C   UNL A   1      43.029  26.163  28.179  1.00  0.00     0.049 A 
ATOM     52  H   UNL A   1      44.099  27.940  28.366  1.00  0.00     0.167 HD
ATOM     53  C   UNL A   1      46.187  31.787  28.742  1.00  0.00     0.037 A 
ATOM     54  C   UNL A   1      43.824  25.290  27.531  1.00  0.00     0.037 A 
ATOM     55  C   UNL A   1      47.133  30.896  28.123  1.00  0.00     0.049 A 
ATOM     56  C   UNL A   1      45.201  25.729  27.102  1.00  0.00     0.074 A 
ATOM     57  C   UNL A   1      48.445  31.149  27.762  1.00  0.00     0.029 A 
ATOM     58  N   UNL A   1      46.868  29.582  27.761  1.00  0.00    -0.354 N 
ATOM     59  N   UNL A   1      45.792  26.886  27.282  1.00  0.00    -0.248 NA
ATOM     60  C   UNL A   1      46.021  24.742  26.385  1.00  0.00     0.031 C 
ATOM     61  C   UNL A   1      48.951  30.010  27.128  1.00  0.00     0.029 A 
ATOM     62  C   UNL A   1      47.979  29.023  27.153  1.00  0.00     0.049 A 
ATOM     63  H   UNL A   1      46.014  29.116  27.914  1.00  0.00     0.167 HD
ATOM     64  C   UNL A   1      47.064  26.756  26.731  1.00  0.00     0.074 A 
ATOM     65  C   UNL A   1      47.158  25.404  26.220  1.00  0.00     0.031 C 
ATOM     66  C   UNL A   1      48.062  27.671  26.657  1.00  0.00     0.037 A 
BRANCH  53  67
ATOM     67  C   UNL A   1      46.613  33.207  29.005  1.00  0.00     0.058 A 
ATOM     68  C   UNL A   1      46.400  34.235  28.072  1.00  0.00     0.135 A 
ATOM     69  C   UNL A   1      47.210  33.552  30.230  1.00  0.00     0.135 A 
ATOM     70  F   UNL A   1      45.849  33.962  26.878  1.00  0.00    -0.206 F 
ATOM     71  C   UNL A   1      46.783  35.548  28.333  1.00  0.00     0.059 A 
ATOM     72  C   UNL A   1      47.573  34.863  30.524  1.00  0.00     0.059 A 
ATOM     73  F   UNL A   1      47.441  32.610  31.156  1.00  0.00    -0.206 F 
ATOM     74  C   UNL A   1      47.368  35.851  29.565  1.00  0.00     0.060 A 
BRANCH  74  75
ATOM     75  S   UNL A   1      47.850  37.559  29.892  1.00  0.00     0.124 S 
ATOM     76  O   UNL A   1      46.587  38.140  30.338  1.00  0.00    -0.237 OA
ATOM     77  O   UNL A   1      48.873  37.401  30.921  1.00  0.00    -0.237 OA
ATOM     78  O   UNL A   1      48.334  38.031  28.598  1.00  0.00    -0.744 OA
ENDBRANCH  74  75
ENDBRANCH  53  67
BRANCH  54  79
ATOM     79  C   UNL A   1      43.335  23.916  27.235  1.00  0.00     0.058 A 
ATOM     80  C   UNL A   1      42.876  23.568  25.957  1.00  0.00     0.135 A 
ATOM     81  C   UNL A   1      43.313  22.924  28.228  1.00  0.00     0.135 A 
ATOM     82  F   UNL A   1      42.866  24.482  24.975  1.00  0.00    -0.206 F 
ATOM     83  C   UNL A   1      42.399  22.291  25.675  1.00  0.00     0.059 A 
ATOM     84  C   UNL A   1      42.869  21.632  27.964  1.00  0.00     0.059 A 
ATOM     85  F   UNL A   1      43.749  23.201  29.467  1.00  0.00    -0.206 F 
ATOM     86  C   UNL A   1      42.404  21.329  26.687  1.00  0.00     0.060 A 
BRANCH  86  87
ATOM     87  S   UNL A   1      41.824  19.663  26.297  1.00  0.00     0.124 S 
ATOM     88  O   UNL A   1      42.603  19.352  25.104  1.00  0.00    -0.237 OA
ATOM     89  O   UNL A   1      42.183  18.926  27.505  1.00  0.00    -0.237 OA
ATOM     90  O   UNL A   1      40.391  19.848  26.086  1.00  0.00    -0.744 OA
ENDBRANCH  86  87
ENDBRANCH  54  79
BRANCH  66  91
ATOM     91  C   UNL A   1      49.365  27.233  26.041  1.00  0.00     0.058 A 
ATOM     92  C   UNL A   1      49.572  27.246  24.653  1.00  0.00     0.135 A 
ATOM     93  C   UNL A   1      50.440  26.846  26.859  1.00  0.00     0.135 A 
ATOM     94  F   UNL A   1      48.577  27.602  23.824  1.00  0.00    -0.206 F 
ATOM     95  C   UNL A   1      50.790  26.866  24.095  1.00  0.00     0.059 A 
ATOM     96  C   UNL A   1      51.676  26.494  26.326  1.00  0.00     0.059 A 
ATOM     97  F   UNL A   1      50.302  26.826  28.194  1.00  0.00    -0.206 F 
ATOM     98  C   UNL A   1      51.837  26.495  24.941  1.00  0.00     0.060 A 
BRANCH  98  99
ATOM     99  S   UNL A   1      53.421  26.036  24.206  1.00  0.00     0.124 S 
ATOM    100  O   UNL A   1      53.280  26.559  22.851  1.00  0.00    -0.237 OA
ATOM    101  O   UNL A   1      54.375  26.737  25.061  1.00  0.00    -0.237 OA
ATOM    102  O   UNL A   1      53.441  24.581  24.317  1.00  0.00    -0.744 OA
ENDBRANCH  98  99
ENDBRANCH  66  91
ENDBRANCH  40  41
ENDBRANCH  33  35
ENDBRANCH  32  33
ENDBRANCH  31  32
ENDBRANCH  30  31
ENDBRANCH  29  30
ENDBRANCH   1  29
TORSDOF 22
ENDMDL
