MODEL 1
REMARK VINA RESULT:     -11.3      0.000      0.000
REMARK SMILES COc1cc([C@H]2[NH2+]CCC3=c4ccccc4=N[C@H]32)ccc1OCC(=O)OCCOCCOC(=O)c1ccc(-c2c3nc(c(-c4c(F)cc(S(=O)(=O)[O-])cc4F)c4ccc([nH]4)c(-c4c(F)cc(S(=O)(=O)[O-])cc4F)c4nc(c(-c5c(F)cc(S(=O)(=O)[O-])cc5F)c5ccc2[nH]5)C=C4)C=C3)cc1
REMARK SMILES IDX 29 1 28 2 27 3 26 4 24 5 25 6 23 7 22 8 21 9 3 10 4 11 5 12
REMARK SMILES IDX 20 13 19 14 2 15 1 16 6 17 7 18 18 19 8 20 10 23 17 24 9 25
REMARK SMILES IDX 11 26 16 27 12 28 15 29 13 30 14 31 30 32 31 33 32 34 33 35
REMARK SMILES IDX 34 36 35 37 36 38 100 39 37 40 99 41 38 42 39 43 40 44 93 45
REMARK SMILES IDX 41 46 98 47 92 48 94 49 42 50 97 51 91 52 90 53 43 55 77 56
REMARK SMILES IDX 56 57 76 58 57 59 60 60 75 61 95 62 58 63 59 64 74 66 96 67
REMARK SMILES IDX 61 68 44 69 45 70 54 71 46 72 47 73 53 74 55 75 48 76 49 77
REMARK SMILES IDX 50 78 51 79 52 80 78 81 79 82 88 83 80 84 81 85 87 86 89 87
REMARK SMILES IDX 82 88 83 89 84 90 85 91 86 92 62 93 63 94 72 95 64 96 65 97
REMARK SMILES IDX 71 98 73 99 66 100 67 101 68 102 69 103 70 104
REMARK H PARENT 7 21 7 22 94 54 60 65
REMARK Flexibility Score: inf
ROOT
ATOM      1  O   UNL A   1      44.150  21.580  25.882  1.00  0.00    -0.374 OA
ENDROOT
BRANCH   1   2
ATOM      2  C   UNL A   1      43.079  20.637  25.783  1.00  0.00     0.202 C 
BRANCH   2   3
ATOM      3  C   UNL A   1      41.919  20.888  26.754  1.00  0.00     0.261 C 
BRANCH   3   4
ATOM      4  O   UNL A   1      40.630  20.756  26.117  1.00  0.00    -0.461 OA
BRANCH   4   5
ATOM      5  C   UNL A   1      39.739  21.742  26.411  1.00  0.00     0.344 C 
ATOM      6  O   UNL A   1      39.925  22.609  27.261  1.00  0.00    -0.248 OA
BRANCH   5   7
ATOM      7  C   UNL A   1      38.456  21.709  25.569  1.00  0.00     0.352 C 
BRANCH   7   8
ATOM      8  O   UNL A   1      37.192  21.957  26.129  1.00  0.00    -0.478 OA
BRANCH   8   9
ATOM      9  C   UNL A   1      36.198  22.619  25.478  1.00  0.00     0.162 A 
ATOM     10  C   UNL A   1      34.981  23.142  25.928  1.00  0.00     0.161 A 
ATOM     11  C   UNL A   1      34.038  23.655  24.987  1.00  0.00     0.060 A 
ATOM     12  C   UNL A   1      34.309  23.690  23.594  1.00  0.00     0.016 A 
ATOM     13  C   UNL A   1      36.464  22.672  24.113  1.00  0.00     0.051 A 
ATOM     14  C   UNL A   1      35.567  23.234  23.207  1.00  0.00     0.014 A 
BRANCH  10  15
ATOM     15  O   UNL A   1      34.566  23.003  27.228  1.00  0.00    -0.493 OA
ATOM     16  C   UNL A   1      33.881  21.775  27.471  1.00  0.00     0.278 C 
ENDBRANCH  10  15
BRANCH  12  17
ATOM     17  C   UNL A   1      33.266  24.196  22.565  1.00  0.00     0.243 C 
ATOM     18  N   UNL A   1      32.159  23.213  22.376  1.00  0.00    -0.338 N 
ATOM     19  C   UNL A   1      32.665  25.666  22.700  1.00  0.00     0.196 C 
ATOM     20  C   UNL A   1      31.092  23.317  23.391  1.00  0.00     0.265 C 
ATOM     21  H   UNL A   1      32.554  22.273  22.418  1.00  0.00     0.346 HD
ATOM     22  H   UNL A   1      31.732  23.416  21.473  1.00  0.00     0.346 HD
ATOM     23  C   UNL A   1      31.536  25.708  23.695  1.00  0.00    -0.025 C 
ATOM     24  N   UNL A   1      33.654  26.669  23.188  1.00  0.00    -0.270 NA
ATOM     25  C   UNL A   1      30.453  24.707  23.510  1.00  0.00     0.095 C 
ATOM     26  C   UNL A   1      31.817  26.522  24.706  1.00  0.00     0.001 A 
ATOM     27  C   UNL A   1      33.133  27.067  24.313  1.00  0.00     0.066 A 
ATOM     28  C   UNL A   1      31.262  26.737  26.003  1.00  0.00     0.010 A 
ATOM     29  C   UNL A   1      33.799  27.934  25.308  1.00  0.00     0.028 A 
ATOM     30  C   UNL A   1      31.974  27.453  26.889  1.00  0.00     0.001 A 
ATOM     31  C   UNL A   1      33.245  28.063  26.526  1.00  0.00     0.002 A 
ENDBRANCH  12  17
ENDBRANCH   8   9
ENDBRANCH   7   8
ENDBRANCH   5   7
ENDBRANCH   4   5
ENDBRANCH   3   4
ENDBRANCH   2   3
ENDBRANCH   1   2
BRANCH   1  32
ATOM     32  C   UNL A   1      44.975  21.693  24.725  1.00  0.00     0.202 C 
BRANCH  32  33
ATOM     33  C   UNL A   1      44.754  22.949  23.901  1.00  0.00     0.261 C 
BRANCH  33  34
ATOM     34  O   UNL A   1      43.831  23.826  24.559  1.00  0.00    -0.460 OA
BRANCH  34  35
ATOM     35  C   UNL A   1      44.391  24.967  25.002  1.00  0.00     0.338 C 
ATOM     36  O   UNL A   1      45.482  25.430  24.685  1.00  0.00    -0.246 OA
BRANCH  35  37
ATOM     37  C   UNL A   1      43.423  25.712  25.808  1.00  0.00     0.060 A 
ATOM     38  C   UNL A   1      43.742  27.045  26.084  1.00  0.00     0.016 A 
ATOM     39  C   UNL A   1      42.303  25.099  26.380  1.00  0.00     0.016 A 
ATOM     40  C   UNL A   1      43.014  27.738  27.036  1.00  0.00     0.010 A 
ATOM     41  C   UNL A   1      41.569  25.800  27.341  1.00  0.00     0.010 A 
ATOM     42  C   UNL A   1      41.975  27.090  27.721  1.00  0.00    -0.014 A 
BRANCH  42  43
ATOM     43  C   UNL A   1      41.529  27.697  28.995  1.00  0.00     0.031 A 
ATOM     44  C   UNL A   1      42.359  27.438  30.228  1.00  0.00     0.074 A 
ATOM     45  C   UNL A   1      40.516  28.579  29.005  1.00  0.00     0.049 A 
ATOM     46  N   UNL A   1      42.246  27.945  31.426  1.00  0.00    -0.248 NA
ATOM     47  C   UNL A   1      43.476  26.485  30.087  1.00  0.00     0.031 C 
ATOM     48  C   UNL A   1      39.695  28.933  27.846  1.00  0.00     0.029 A 
ATOM     49  N   UNL A   1      40.026  29.364  30.015  1.00  0.00    -0.354 N 
ATOM     50  C   UNL A   1      43.282  27.390  32.172  1.00  0.00     0.074 A 
ATOM     51  C   UNL A   1      43.982  26.466  31.311  1.00  0.00     0.031 C 
ATOM     52  C   UNL A   1      38.811  29.878  28.209  1.00  0.00     0.029 A 
ATOM     53  C   UNL A   1      38.991  30.180  29.626  1.00  0.00     0.049 A 
ATOM     54  H   UNL A   1      40.381  29.344  30.933  1.00  0.00     0.167 HD
ATOM     55  C   UNL A   1      43.632  27.649  33.453  1.00  0.00     0.037 A 
ATOM     56  C   UNL A   1      38.278  31.070  30.342  1.00  0.00     0.037 A 
ATOM     57  C   UNL A   1      42.926  28.578  34.294  1.00  0.00     0.049 A 
ATOM     58  C   UNL A   1      38.653  31.293  31.784  1.00  0.00     0.074 A 
ATOM     59  C   UNL A   1      43.159  28.896  35.619  1.00  0.00     0.029 A 
ATOM     60  N   UNL A   1      41.851  29.351  33.878  1.00  0.00    -0.354 N 
ATOM     61  N   UNL A   1      39.623  30.744  32.480  1.00  0.00    -0.248 NA
ATOM     62  C   UNL A   1      37.848  32.264  32.536  1.00  0.00     0.031 C 
ATOM     63  C   UNL A   1      42.203  29.839  36.014  1.00  0.00     0.029 A 
ATOM     64  C   UNL A   1      41.405  30.141  34.922  1.00  0.00     0.049 A 
ATOM     65  H   UNL A   1      41.461  29.338  32.974  1.00  0.00     0.167 HD
ATOM     66  C   UNL A   1      39.560  31.324  33.743  1.00  0.00     0.074 A 
ATOM     67  C   UNL A   1      38.472  32.282  33.704  1.00  0.00     0.031 C 
ATOM     68  C   UNL A   1      40.323  31.089  34.840  1.00  0.00     0.037 A 
BRANCH  55  69
ATOM     69  C   UNL A   1      44.820  26.920  34.019  1.00  0.00     0.058 A 
ATOM     70  C   UNL A   1      44.693  25.647  34.600  1.00  0.00     0.135 A 
ATOM     71  C   UNL A   1      46.106  27.480  33.945  1.00  0.00     0.135 A 
ATOM     72  F   UNL A   1      43.484  25.077  34.722  1.00  0.00    -0.206 F 
ATOM     73  C   UNL A   1      45.797  24.960  35.096  1.00  0.00     0.059 A 
ATOM     74  C   UNL A   1      47.227  26.800  34.414  1.00  0.00     0.059 A 
ATOM     75  F   UNL A   1      46.281  28.698  33.412  1.00  0.00    -0.206 F 
ATOM     76  C   UNL A   1      47.062  25.543  34.993  1.00  0.00     0.060 A 
BRANCH  76  77
ATOM     77  S   UNL A   1      48.488  24.625  35.613  1.00  0.00     0.124 S 
ATOM     78  O   UNL A   1      49.481  25.686  35.749  1.00  0.00    -0.237 OA
ATOM     79  O   UNL A   1      47.981  24.069  36.864  1.00  0.00    -0.237 OA
ATOM     80  O   UNL A   1      48.750  23.651  34.558  1.00  0.00    -0.744 OA
ENDBRANCH  76  77
ENDBRANCH  55  69
BRANCH  56  81
ATOM     81  C   UNL A   1      37.140  31.802  29.723  1.00  0.00     0.058 A 
ATOM     82  C   UNL A   1      37.285  33.110  29.235  1.00  0.00     0.135 A 
ATOM     83  C   UNL A   1      35.866  31.217  29.643  1.00  0.00     0.135 A 
ATOM     84  F   UNL A   1      38.480  33.716  29.288  1.00  0.00    -0.206 F 
ATOM     85  C   UNL A   1      36.202  33.826  28.731  1.00  0.00     0.059 A 
ATOM     86  C   UNL A   1      34.776  31.900  29.116  1.00  0.00     0.059 A 
ATOM     87  F   UNL A   1      35.674  29.961  30.077  1.00  0.00    -0.206 F 
ATOM     88  C   UNL A   1      34.949  33.213  28.683  1.00  0.00     0.060 A 
BRANCH  88  89
ATOM     89  S   UNL A   1      33.546  34.146  28.034  1.00  0.00     0.124 S 
ATOM     90  O   UNL A   1      34.219  35.185  27.263  1.00  0.00    -0.237 OA
ATOM     91  O   UNL A   1      32.834  33.135  27.259  1.00  0.00    -0.237 OA
ATOM     92  O   UNL A   1      32.859  34.599  29.240  1.00  0.00    -0.744 OA
ENDBRANCH  88  89
ENDBRANCH  56  81
BRANCH  68  93
ATOM     93  C   UNL A   1      40.022  31.910  36.062  1.00  0.00     0.058 A 
ATOM     94  C   UNL A   1      40.815  33.011  36.421  1.00  0.00     0.135 A 
ATOM     95  C   UNL A   1      38.922  31.595  36.874  1.00  0.00     0.135 A 
ATOM     96  F   UNL A   1      41.877  33.351  35.675  1.00  0.00    -0.206 F 
ATOM     97  C   UNL A   1      40.555  33.743  37.573  1.00  0.00     0.059 A 
ATOM     98  C   UNL A   1      38.626  32.332  38.015  1.00  0.00     0.059 A 
ATOM     99  F   UNL A   1      38.123  30.562  36.562  1.00  0.00    -0.206 F 
ATOM    100  C   UNL A   1      39.462  33.390  38.368  1.00  0.00     0.060 A 
BRANCH 100 101
ATOM    101  S   UNL A   1      39.141  34.339  39.868  1.00  0.00     0.124 S 
ATOM    102  O   UNL A   1      37.866  33.778  40.301  1.00  0.00    -0.237 OA
ATOM    103  O   UNL A   1      40.295  34.010  40.700  1.00  0.00    -0.237 OA
ATOM    104  O   UNL A   1      39.093  35.718  39.393  1.00  0.00    -0.744 OA
ENDBRANCH 100 101
ENDBRANCH  68  93
ENDBRANCH  42  43
ENDBRANCH  35  37
ENDBRANCH  34  35
ENDBRANCH  33  34
ENDBRANCH  32  33
ENDBRANCH   1  32
TORSDOF 21
ENDMDL
MODEL 2
REMARK VINA RESULT:     -11.2      2.053      3.260
REMARK SMILES COc1cc([C@H]2[NH2+]CCC3=c4ccccc4=N[C@H]32)ccc1OCC(=O)OCCOCCOC(=O)c1ccc(-c2c3nc(c(-c4c(F)cc(S(=O)(=O)[O-])cc4F)c4ccc([nH]4)c(-c4c(F)cc(S(=O)(=O)[O-])cc4F)c4nc(c(-c5c(F)cc(S(=O)(=O)[O-])cc5F)c5ccc2[nH]5)C=C4)C=C3)cc1
REMARK SMILES IDX 29 1 28 2 27 3 26 4 24 5 25 6 23 7 22 8 21 9 3 10 4 11 5 12
REMARK SMILES IDX 20 13 19 14 2 15 1 16 6 17 7 18 18 19 8 20 10 23 17 24 9 25
REMARK SMILES IDX 11 26 16 27 12 28 15 29 13 30 14 31 30 32 31 33 32 34 33 35
REMARK SMILES IDX 34 36 35 37 36 38 100 39 37 40 99 41 38 42 39 43 40 44 93 45
REMARK SMILES IDX 41 46 98 47 92 48 94 49 42 50 97 51 91 52 90 53 43 55 77 56
REMARK SMILES IDX 56 57 76 58 57 59 60 60 75 61 95 62 58 63 59 64 74 66 96 67
REMARK SMILES IDX 61 68 44 69 45 70 54 71 46 72 47 73 53 74 55 75 48 76 49 77
REMARK SMILES IDX 50 78 51 79 52 80 78 81 79 82 88 83 80 84 81 85 87 86 89 87
REMARK SMILES IDX 82 88 83 89 84 90 85 91 86 92 62 93 63 94 72 95 64 96 65 97
REMARK SMILES IDX 71 98 73 99 66 100 67 101 68 102 69 103 70 104
REMARK H PARENT 7 21 7 22 94 54 60 65
REMARK Flexibility Score: inf
ROOT
ATOM      1  O   UNL A   1      44.156  20.837  24.639  1.00  0.00    -0.374 OA
ENDROOT
BRANCH   1   2
ATOM      2  C   UNL A   1      44.545  19.527  25.062  1.00  0.00     0.202 C 
BRANCH   2   3
ATOM      3  C   UNL A   1      43.390  18.650  25.559  1.00  0.00     0.261 C 
BRANCH   3   4
ATOM      4  O   UNL A   1      42.099  19.248  25.308  1.00  0.00    -0.461 OA
BRANCH   4   5
ATOM      5  C   UNL A   1      41.390  19.577  26.422  1.00  0.00     0.344 C 
ATOM      6  O   UNL A   1      41.897  19.961  27.473  1.00  0.00    -0.248 OA
BRANCH   5   7
ATOM      7  C   UNL A   1      39.869  19.452  26.265  1.00  0.00     0.352 C 
BRANCH   7   8
ATOM      8  O   UNL A   1      39.202  19.890  25.108  1.00  0.00    -0.478 OA
BRANCH   8   9
ATOM      9  C   UNL A   1      38.068  20.640  25.132  1.00  0.00     0.162 A 
ATOM     10  C   UNL A   1      37.831  21.952  25.556  1.00  0.00     0.161 A 
ATOM     11  C   UNL A   1      36.493  22.446  25.621  1.00  0.00     0.060 A 
ATOM     12  C   UNL A   1      35.380  21.657  25.230  1.00  0.00     0.016 A 
ATOM     13  C   UNL A   1      36.974  19.878  24.733  1.00  0.00     0.051 A 
ATOM     14  C   UNL A   1      35.678  20.387  24.737  1.00  0.00     0.014 A 
BRANCH  10  15
ATOM     15  O   UNL A   1      38.821  22.728  26.105  1.00  0.00    -0.493 OA
ATOM     16  C   UNL A   1      38.362  24.015  26.515  1.00  0.00     0.278 C 
ENDBRANCH  10  15
BRANCH  12  17
ATOM     17  C   UNL A   1      33.923  22.171  25.351  1.00  0.00     0.243 C 
ATOM     18  N   UNL A   1      33.647  23.272  24.382  1.00  0.00    -0.338 N 
ATOM     19  C   UNL A   1      32.712  21.136  25.351  1.00  0.00     0.196 C 
ATOM     20  C   UNL A   1      33.284  22.798  23.031  1.00  0.00     0.265 C 
ATOM     21  H   UNL A   1      34.484  23.851  24.306  1.00  0.00     0.346 HD
ATOM     22  H   UNL A   1      32.847  23.790  24.741  1.00  0.00     0.346 HD
ATOM     23  C   UNL A   1      32.334  20.734  23.950  1.00  0.00    -0.025 C 
ATOM     24  N   UNL A   1      33.023  19.858  26.053  1.00  0.00    -0.270 NA
ATOM     25  C   UNL A   1      32.086  21.841  22.988  1.00  0.00     0.095 C 
ATOM     26  C   UNL A   1      32.489  19.429  23.766  1.00  0.00     0.001 A 
ATOM     27  C   UNL A   1      32.914  18.972  25.105  1.00  0.00     0.066 A 
ATOM     28  C   UNL A   1      32.536  18.577  22.622  1.00  0.00     0.010 A 
ATOM     29  C   UNL A   1      33.299  17.549  25.213  1.00  0.00     0.028 A 
ATOM     30  C   UNL A   1      32.994  17.324  22.781  1.00  0.00     0.001 A 
ATOM     31  C   UNL A   1      33.364  16.810  24.092  1.00  0.00     0.002 A 
ENDBRANCH  12  17
ENDBRANCH   8   9
ENDBRANCH   7   8
ENDBRANCH   5   7
ENDBRANCH   4   5
ENDBRANCH   3   4
ENDBRANCH   2   3
ENDBRANCH   1   2
BRANCH   1  32
ATOM     32  C   UNL A   1      44.254  21.856  25.631  1.00  0.00     0.202 C 
BRANCH  32  33
ATOM     33  C   UNL A   1      43.144  22.890  25.599  1.00  0.00     0.261 C 
BRANCH  33  34
ATOM     34  O   UNL A   1      43.234  23.760  26.734  1.00  0.00    -0.460 OA
BRANCH  34  35
ATOM     35  C   UNL A   1      43.511  25.038  26.414  1.00  0.00     0.338 C 
ATOM     36  O   UNL A   1      44.268  25.436  25.535  1.00  0.00    -0.246 OA
BRANCH  35  37
ATOM     37  C   UNL A   1      42.625  25.937  27.157  1.00  0.00     0.060 A 
ATOM     38  C   UNL A   1      43.056  27.259  27.293  1.00  0.00     0.016 A 
ATOM     39  C   UNL A   1      41.473  25.476  27.804  1.00  0.00     0.016 A 
ATOM     40  C   UNL A   1      42.408  28.100  28.181  1.00  0.00     0.010 A 
ATOM     41  C   UNL A   1      40.820  26.327  28.700  1.00  0.00     0.010 A 
ATOM     42  C   UNL A   1      41.337  27.611  28.943  1.00  0.00    -0.014 A 
BRANCH  42  43
ATOM     43  C   UNL A   1      40.971  28.375  30.157  1.00  0.00     0.031 A 
ATOM     44  C   UNL A   1      41.840  28.216  31.379  1.00  0.00     0.074 A 
ATOM     45  C   UNL A   1      39.997  29.298  30.105  1.00  0.00     0.049 A 
ATOM     46  N   UNL A   1      41.800  28.857  32.516  1.00  0.00    -0.248 NA
ATOM     47  C   UNL A   1      42.911  27.203  31.305  1.00  0.00     0.031 C 
ATOM     48  C   UNL A   1      39.143  29.559  28.945  1.00  0.00     0.029 A 
ATOM     49  N   UNL A   1      39.583  30.211  31.038  1.00  0.00    -0.354 N 
ATOM     50  C   UNL A   1      42.842  28.341  33.280  1.00  0.00     0.074 A 
ATOM     51  C   UNL A   1      43.466  27.296  32.503  1.00  0.00     0.031 C 
ATOM     52  C   UNL A   1      38.315  30.578  29.232  1.00  0.00     0.029 A 
ATOM     53  C   UNL A   1      38.567  31.026  30.598  1.00  0.00     0.049 A 
ATOM     54  H   UNL A   1      39.976  30.277  31.939  1.00  0.00     0.167 HD
ATOM     55  C   UNL A   1      43.256  28.724  34.510  1.00  0.00     0.037 A 
ATOM     56  C   UNL A   1      37.923  32.022  31.236  1.00  0.00     0.037 A 
ATOM     57  C   UNL A   1      42.626  29.772  35.267  1.00  0.00     0.049 A 
ATOM     58  C   UNL A   1      38.368  32.386  32.629  1.00  0.00     0.074 A 
ATOM     59  C   UNL A   1      42.928  30.223  36.538  1.00  0.00     0.029 A 
ATOM     60  N   UNL A   1      41.567  30.543  34.807  1.00  0.00    -0.354 N 
ATOM     61  N   UNL A   1      39.342  31.873  33.346  1.00  0.00    -0.248 NA
ATOM     62  C   UNL A   1      37.636  33.470  33.296  1.00  0.00     0.031 C 
ATOM     63  C   UNL A   1      42.030  31.247  36.860  1.00  0.00     0.029 A 
ATOM     64  C   UNL A   1      41.199  31.463  35.772  1.00  0.00     0.049 A 
ATOM     65  H   UNL A   1      41.140  30.447  33.925  1.00  0.00     0.167 HD
ATOM     66  C   UNL A   1      39.356  32.592  34.536  1.00  0.00     0.074 A 
ATOM     67  C   UNL A   1      38.309  33.589  34.431  1.00  0.00     0.031 C 
ATOM     68  C   UNL A   1      40.155  32.445  35.624  1.00  0.00     0.037 A 
BRANCH  55  69
ATOM     69  C   UNL A   1      44.436  28.008  35.109  1.00  0.00     0.058 A 
ATOM     70  C   UNL A   1      44.277  26.840  35.873  1.00  0.00     0.135 A 
ATOM     71  C   UNL A   1      45.743  28.470  34.887  1.00  0.00     0.135 A 
ATOM     72  F   UNL A   1      43.049  26.370  36.141  1.00  0.00    -0.206 F 
ATOM     73  C   UNL A   1      45.370  26.161  36.403  1.00  0.00     0.059 A 
ATOM     74  C   UNL A   1      46.853  27.794  35.387  1.00  0.00     0.059 A 
ATOM     75  F   UNL A   1      45.952  29.588  34.175  1.00  0.00    -0.206 F 
ATOM     76  C   UNL A   1      46.656  26.643  36.149  1.00  0.00     0.060 A 
BRANCH  76  77
ATOM     77  S   UNL A   1      48.066  25.733  36.816  1.00  0.00     0.124 S 
ATOM     78  O   UNL A   1      47.987  26.072  38.234  1.00  0.00    -0.237 OA
ATOM     79  O   UNL A   1      47.735  24.353  36.476  1.00  0.00    -0.237 OA
ATOM     80  O   UNL A   1      49.205  26.297  36.099  1.00  0.00    -0.744 OA
ENDBRANCH  76  77
ENDBRANCH  55  69
BRANCH  56  81
ATOM     81  C   UNL A   1      36.791  32.733  30.581  1.00  0.00     0.058 A 
ATOM     82  C   UNL A   1      37.008  33.752  29.641  1.00  0.00     0.135 A 
ATOM     83  C   UNL A   1      35.462  32.431  30.916  1.00  0.00     0.135 A 
ATOM     84  F   UNL A   1      38.259  34.081  29.286  1.00  0.00    -0.206 F 
ATOM     85  C   UNL A   1      35.952  34.473  29.090  1.00  0.00     0.059 A 
ATOM     86  C   UNL A   1      34.390  33.116  30.357  1.00  0.00     0.059 A 
ATOM     87  F   UNL A   1      35.195  31.452  31.796  1.00  0.00    -0.206 F 
ATOM     88  C   UNL A   1      34.646  34.152  29.461  1.00  0.00     0.060 A 
BRANCH  88  89
ATOM     89  S   UNL A   1      33.280  35.093  28.747  1.00  0.00     0.124 S 
ATOM     90  O   UNL A   1      32.641  34.088  27.906  1.00  0.00    -0.237 OA
ATOM     91  O   UNL A   1      32.534  35.503  29.933  1.00  0.00    -0.237 OA
ATOM     92  O   UNL A   1      33.955  36.175  28.037  1.00  0.00    -0.744 OA
ENDBRANCH  88  89
ENDBRANCH  56  81
BRANCH  68  93
ATOM     93  C   UNL A   1      39.941  33.410  36.756  1.00  0.00     0.058 A 
ATOM     94  C   UNL A   1      40.641  34.624  36.829  1.00  0.00     0.135 A 
ATOM     95  C   UNL A   1      39.017  33.117  37.771  1.00  0.00     0.135 A 
ATOM     96  F   UNL A   1      41.534  34.947  35.883  1.00  0.00    -0.206 F 
ATOM     97  C   UNL A   1      40.467  35.493  37.899  1.00  0.00     0.059 A 
ATOM     98  C   UNL A   1      38.805  33.987  38.834  1.00  0.00     0.059 A 
ATOM     99  F   UNL A   1      38.309  31.976  37.735  1.00  0.00    -0.206 F 
ATOM    100  C   UNL A   1      39.552  35.162  38.900  1.00  0.00     0.060 A 
BRANCH 100 101
ATOM    101  S   UNL A   1      39.343  36.292  40.291  1.00  0.00     0.124 S 
ATOM    102  O   UNL A   1      38.372  35.573  41.109  1.00  0.00    -0.237 OA
ATOM    103  O   UNL A   1      40.695  36.374  40.835  1.00  0.00    -0.237 OA
ATOM    104  O   UNL A   1      38.852  37.515  39.663  1.00  0.00    -0.744 OA
ENDBRANCH 100 101
ENDBRANCH  68  93
ENDBRANCH  42  43
ENDBRANCH  35  37
ENDBRANCH  34  35
ENDBRANCH  33  34
ENDBRANCH  32  33
ENDBRANCH   1  32
TORSDOF 21
ENDMDL
MODEL 3
REMARK VINA RESULT:     -11.1      1.573      2.001
REMARK SMILES COc1cc([C@H]2[NH2+]CCC3=c4ccccc4=N[C@H]32)ccc1OCC(=O)OCCOCCOC(=O)c1ccc(-c2c3nc(c(-c4c(F)cc(S(=O)(=O)[O-])cc4F)c4ccc([nH]4)c(-c4c(F)cc(S(=O)(=O)[O-])cc4F)c4nc(c(-c5c(F)cc(S(=O)(=O)[O-])cc5F)c5ccc2[nH]5)C=C4)C=C3)cc1
REMARK SMILES IDX 29 1 28 2 27 3 26 4 24 5 25 6 23 7 22 8 21 9 3 10 4 11 5 12
REMARK SMILES IDX 20 13 19 14 2 15 1 16 6 17 7 18 18 19 8 20 10 23 17 24 9 25
REMARK SMILES IDX 11 26 16 27 12 28 15 29 13 30 14 31 30 32 31 33 32 34 33 35
REMARK SMILES IDX 34 36 35 37 36 38 100 39 37 40 99 41 38 42 39 43 40 44 93 45
REMARK SMILES IDX 41 46 98 47 92 48 94 49 42 50 97 51 91 52 90 53 43 55 77 56
REMARK SMILES IDX 56 57 76 58 57 59 60 60 75 61 95 62 58 63 59 64 74 66 96 67
REMARK SMILES IDX 61 68 44 69 45 70 54 71 46 72 47 73 53 74 55 75 48 76 49 77
REMARK SMILES IDX 50 78 51 79 52 80 78 81 79 82 88 83 80 84 81 85 87 86 89 87
REMARK SMILES IDX 82 88 83 89 84 90 85 91 86 92 62 93 63 94 72 95 64 96 65 97
REMARK SMILES IDX 71 98 73 99 66 100 67 101 68 102 69 103 70 104
REMARK H PARENT 7 21 7 22 94 54 60 65
REMARK Flexibility Score: inf
ROOT
ATOM      1  O   UNL A   1      42.369  21.439  26.970  1.00  0.00    -0.374 OA
ENDROOT
BRANCH   1   2
ATOM      2  C   UNL A   1      41.252  20.585  26.708  1.00  0.00     0.202 C 
BRANCH   2   3
ATOM      3  C   UNL A   1      39.990  21.316  26.236  1.00  0.00     0.261 C 
BRANCH   3   4
ATOM      4  O   UNL A   1      39.931  22.678  26.715  1.00  0.00    -0.461 OA
BRANCH   4   5
ATOM      5  C   UNL A   1      38.771  23.335  26.444  1.00  0.00     0.344 C 
ATOM      6  O   UNL A   1      38.559  24.508  26.739  1.00  0.00    -0.248 OA
BRANCH   5   7
ATOM      7  C   UNL A   1      37.724  22.493  25.704  1.00  0.00     0.352 C 
BRANCH   7   8
ATOM      8  O   UNL A   1      36.378  22.455  26.108  1.00  0.00    -0.478 OA
BRANCH   8   9
ATOM      9  C   UNL A   1      35.353  22.942  25.358  1.00  0.00     0.162 A 
ATOM     10  C   UNL A   1      34.411  22.301  24.547  1.00  0.00     0.161 A 
ATOM     11  C   UNL A   1      33.531  23.076  23.734  1.00  0.00     0.060 A 
ATOM     12  C   UNL A   1      33.552  24.496  23.745  1.00  0.00     0.016 A 
ATOM     13  C   UNL A   1      35.356  24.333  25.378  1.00  0.00     0.051 A 
ATOM     14  C   UNL A   1      34.452  25.084  24.631  1.00  0.00     0.014 A 
BRANCH  10  15
ATOM     15  O   UNL A   1      34.426  20.943  24.349  1.00  0.00    -0.493 OA
ATOM     16  C   UNL A   1      33.577  20.234  25.250  1.00  0.00     0.278 C 
ENDBRANCH  10  15
BRANCH  12  17
ATOM     17  C   UNL A   1      32.635  25.339  22.822  1.00  0.00     0.243 C 
ATOM     18  N   UNL A   1      31.347  24.641  22.541  1.00  0.00    -0.338 N 
ATOM     19  C   UNL A   1      32.356  26.870  23.165  1.00  0.00     0.196 C 
ATOM     20  C   UNL A   1      30.327  24.827  23.592  1.00  0.00     0.265 C 
ATOM     21  H   UNL A   1      31.536  23.643  22.449  1.00  0.00     0.346 HD
ATOM     22  H   UNL A   1      30.970  25.046  21.685  1.00  0.00     0.346 HD
ATOM     23  C   UNL A   1      31.263  27.012  24.190  1.00  0.00    -0.025 C 
ATOM     24  N   UNL A   1      33.534  27.573  23.749  1.00  0.00    -0.270 NA
ATOM     25  C   UNL A   1      29.993  26.291  23.909  1.00  0.00     0.095 C 
ATOM     26  C   UNL A   1      31.710  27.608  25.289  1.00  0.00     0.001 A 
ATOM     27  C   UNL A   1      33.110  27.916  24.931  1.00  0.00     0.066 A 
ATOM     28  C   UNL A   1      31.215  27.759  26.619  1.00  0.00     0.010 A 
ATOM     29  C   UNL A   1      33.945  28.486  26.010  1.00  0.00     0.028 A 
ATOM     30  C   UNL A   1      32.063  28.187  27.569  1.00  0.00     0.001 A 
ATOM     31  C   UNL A   1      33.433  28.563  27.251  1.00  0.00     0.002 A 
ENDBRANCH  12  17
ENDBRANCH   8   9
ENDBRANCH   7   8
ENDBRANCH   5   7
ENDBRANCH   4   5
ENDBRANCH   3   4
ENDBRANCH   2   3
ENDBRANCH   1   2
BRANCH   1  32
ATOM     32  C   UNL A   1      43.212  21.707  25.852  1.00  0.00     0.202 C 
BRANCH  32  33
ATOM     33  C   UNL A   1      43.681  23.146  25.733  1.00  0.00     0.261 C 
BRANCH  33  34
ATOM     34  O   UNL A   1      43.290  23.899  26.887  1.00  0.00    -0.460 OA
BRANCH  34  35
ATOM     35  C   UNL A   1      43.813  25.139  26.926  1.00  0.00     0.338 C 
ATOM     36  O   UNL A   1      44.820  25.538  26.352  1.00  0.00    -0.246 OA
BRANCH  35  37
ATOM     37  C   UNL A   1      42.895  26.041  27.624  1.00  0.00     0.060 A 
ATOM     38  C   UNL A   1      43.293  27.377  27.721  1.00  0.00     0.016 A 
ATOM     39  C   UNL A   1      41.744  25.576  28.270  1.00  0.00     0.016 A 
ATOM     40  C   UNL A   1      42.612  28.232  28.570  1.00  0.00     0.010 A 
ATOM     41  C   UNL A   1      41.058  26.441  29.127  1.00  0.00     0.010 A 
ATOM     42  C   UNL A   1      41.541  27.745  29.333  1.00  0.00    -0.014 A 
BRANCH  42  43
ATOM     43  C   UNL A   1      41.139  28.541  30.514  1.00  0.00     0.031 A 
ATOM     44  C   UNL A   1      42.003  28.457  31.748  1.00  0.00     0.074 A 
ATOM     45  C   UNL A   1      40.135  29.427  30.421  1.00  0.00     0.049 A 
ATOM     46  N   UNL A   1      41.931  29.139  32.859  1.00  0.00    -0.248 NA
ATOM     47  C   UNL A   1      43.108  27.479  31.720  1.00  0.00     0.031 C 
ATOM     48  C   UNL A   1      39.283  29.615  29.246  1.00  0.00     0.029 A 
ATOM     49  N   UNL A   1      39.682  30.360  31.316  1.00  0.00    -0.354 N 
ATOM     50  C   UNL A   1      42.983  28.688  33.650  1.00  0.00     0.074 A 
ATOM     51  C   UNL A   1      43.650  27.637  32.918  1.00  0.00     0.031 C 
ATOM     52  C   UNL A   1      38.418  30.615  29.488  1.00  0.00     0.029 A 
ATOM     53  C   UNL A   1      38.643  31.123  30.838  1.00  0.00     0.049 A 
ATOM     54  H   UNL A   1      40.065  30.473  32.216  1.00  0.00     0.167 HD
ATOM     55  C   UNL A   1      43.374  29.130  34.868  1.00  0.00     0.037 A 
ATOM     56  C   UNL A   1      37.960  32.119  31.433  1.00  0.00     0.037 A 
ATOM     57  C   UNL A   1      42.702  30.184  35.580  1.00  0.00     0.049 A 
ATOM     58  C   UNL A   1      38.380  32.550  32.814  1.00  0.00     0.074 A 
ATOM     59  C   UNL A   1      42.978  30.693  36.836  1.00  0.00     0.029 A 
ATOM     60  N   UNL A   1      41.622  30.900  35.084  1.00  0.00    -0.354 N 
ATOM     61  N   UNL A   1      39.365  32.098  33.557  1.00  0.00    -0.248 NA
ATOM     62  C   UNL A   1      37.607  33.633  33.435  1.00  0.00     0.031 C 
ATOM     63  C   UNL A   1      42.043  31.697  37.112  1.00  0.00     0.029 A 
ATOM     64  C   UNL A   1      41.215  31.843  36.010  1.00  0.00     0.049 A 
ATOM     65  H   UNL A   1      41.205  30.757  34.203  1.00  0.00     0.167 HD
ATOM     66  C   UNL A   1      39.345  32.861  34.720  1.00  0.00     0.074 A 
ATOM     67  C   UNL A   1      38.266  33.817  34.569  1.00  0.00     0.031 C 
ATOM     68  C   UNL A   1      40.139  32.783  35.817  1.00  0.00     0.037 A 
BRANCH  55  69
ATOM     69  C   UNL A   1      44.572  28.479  35.502  1.00  0.00     0.058 A 
ATOM     70  C   UNL A   1      44.443  27.351  36.331  1.00  0.00     0.135 A 
ATOM     71  C   UNL A   1      45.867  28.959  35.250  1.00  0.00     0.135 A 
ATOM     72  F   UNL A   1      43.228  26.867  36.629  1.00  0.00    -0.206 F 
ATOM     73  C   UNL A   1      45.554  26.730  36.894  1.00  0.00     0.059 A 
ATOM     74  C   UNL A   1      46.994  28.339  35.783  1.00  0.00     0.059 A 
ATOM     75  F   UNL A   1      46.047  30.040  34.476  1.00  0.00    -0.206 F 
ATOM     76  C   UNL A   1      46.827  27.229  36.609  1.00  0.00     0.060 A 
BRANCH  76  77
ATOM     77  S   UNL A   1      48.260  26.392  37.321  1.00  0.00     0.124 S 
ATOM     78  O   UNL A   1      49.083  26.164  36.138  1.00  0.00    -0.237 OA
ATOM     79  O   UNL A   1      48.766  27.387  38.262  1.00  0.00    -0.237 OA
ATOM     80  O   UNL A   1      47.688  25.195  37.928  1.00  0.00    -0.744 OA
ENDBRANCH  76  77
ENDBRANCH  55  69
BRANCH  56  81
ATOM     81  C   UNL A   1      36.810  32.766  30.743  1.00  0.00     0.058 A 
ATOM     82  C   UNL A   1      37.000  33.754  29.765  1.00  0.00     0.135 A 
ATOM     83  C   UNL A   1      35.489  32.433  31.082  1.00  0.00     0.135 A 
ATOM     84  F   UNL A   1      38.243  34.110  29.405  1.00  0.00    -0.206 F 
ATOM     85  C   UNL A   1      35.926  34.418  29.179  1.00  0.00     0.059 A 
ATOM     86  C   UNL A   1      34.399  33.060  30.489  1.00  0.00     0.059 A 
ATOM     87  F   UNL A   1      35.248  31.481  31.998  1.00  0.00    -0.206 F 
ATOM     88  C   UNL A   1      34.628  34.068  29.555  1.00  0.00     0.060 A 
BRANCH  88  89
ATOM     89  S   UNL A   1      33.237  34.935  28.796  1.00  0.00     0.124 S 
ATOM     90  O   UNL A   1      33.902  36.088  28.203  1.00  0.00    -0.237 OA
ATOM     91  O   UNL A   1      32.726  33.939  27.860  1.00  0.00    -0.237 OA
ATOM     92  O   UNL A   1      32.364  35.222  29.931  1.00  0.00    -0.744 OA
ENDBRANCH  88  89
ENDBRANCH  56  81
BRANCH  68  93
ATOM     93  C   UNL A   1      39.883  33.781  36.911  1.00  0.00     0.058 A 
ATOM     94  C   UNL A   1      40.510  35.036  36.922  1.00  0.00     0.135 A 
ATOM     95  C   UNL A   1      38.990  33.479  37.951  1.00  0.00     0.135 A 
ATOM     96  F   UNL A   1      41.372  35.370  35.949  1.00  0.00    -0.206 F 
ATOM     97  C   UNL A   1      40.299  35.939  37.957  1.00  0.00     0.059 A 
ATOM     98  C   UNL A   1      38.741  34.380  38.980  1.00  0.00     0.059 A 
ATOM     99  F   UNL A   1      38.351  32.299  37.974  1.00  0.00    -0.206 F 
ATOM    100  C   UNL A   1      39.418  35.599  38.985  1.00  0.00     0.060 A 
BRANCH 100 101
ATOM    101  S   UNL A   1      39.160  36.773  40.329  1.00  0.00     0.124 S 
ATOM    102  O   UNL A   1      40.530  37.026  40.763  1.00  0.00    -0.237 OA
ATOM    103  O   UNL A   1      38.494  37.883  39.653  1.00  0.00    -0.237 OA
ATOM    104  O   UNL A   1      38.329  36.032  41.272  1.00  0.00    -0.744 OA
ENDBRANCH 100 101
ENDBRANCH  68  93
ENDBRANCH  42  43
ENDBRANCH  35  37
ENDBRANCH  34  35
ENDBRANCH  33  34
ENDBRANCH  32  33
ENDBRANCH   1  32
TORSDOF 21
ENDMDL
