MODEL 1
REMARK VINA RESULT:     -11.5      0.000      0.000
REMARK SMILES CC(C)(C)c1cc2c(cc1Cl)C=C(C(=O)OCCOCCOC(=O)c1ccc(-c3c4nc(c(-c5c(F)cc(S(=O)(=O)[O-])cc5F)c5ccc([nH]5)c(-c5c(F)cc(S(=O)(=O)[O-])cc5F)c5nc(c(-c6c(F)cc(S(=O)(=O)[O-])cc6F)c6ccc3[nH]6)C=C5)C=C4)cc1)[C@@H](C(F)(F)F)O2
REMARK SMILES IDX 20 1 19 2 18 3 17 4 16 5 14 6 15 7 13 8 5 9 6 10 10 11 7 12
REMARK SMILES IDX 9 13 11 14 8 15 96 16 12 17 91 18 2 19 1 20 3 21 4 22 92 23
REMARK SMILES IDX 93 24 94 25 95 26 21 27 22 28 23 29 24 30 25 31 26 32 90 33
REMARK SMILES IDX 27 34 89 35 28 36 29 37 30 38 83 39 31 40 88 41 82 42 84 43
REMARK SMILES IDX 32 44 87 45 81 46 80 47 33 49 67 50 46 51 66 52 47 53 50 54
REMARK SMILES IDX 65 55 85 56 48 57 49 58 64 60 86 61 51 62 34 63 35 64 44 65
REMARK SMILES IDX 36 66 37 67 43 68 45 69 38 70 39 71 40 72 41 73 42 74 68 75
REMARK SMILES IDX 69 76 78 77 70 78 71 79 77 80 79 81 72 82 73 83 74 84 75 85
REMARK SMILES IDX 76 86 52 87 53 88 62 89 54 90 55 91 61 92 63 93 56 94 57 95
REMARK SMILES IDX 58 96 59 97 60 98
REMARK H PARENT 84 48 50 59
REMARK Flexibility Score: inf
ROOT
ATOM      1  C   UNL A   1      38.245  22.434  25.694  1.00  0.00     0.202 C 
ENDROOT
BRANCH   1   2
ATOM      2  O   UNL A   1      38.490  21.053  25.432  1.00  0.00    -0.374 OA
BRANCH   2   3
ATOM      3  C   UNL A   1      37.547  20.332  24.643  1.00  0.00     0.202 C 
BRANCH   3   4
ATOM      4  C   UNL A   1      36.069  20.405  25.041  1.00  0.00     0.261 C 
BRANCH   4   5
ATOM      5  O   UNL A   1      35.362  21.429  24.324  1.00  0.00    -0.460 OA
BRANCH   5   6
ATOM      6  C   UNL A   1      34.015  21.342  24.418  1.00  0.00     0.338 C 
ATOM      7  O   UNL A   1      33.332  20.342  24.261  1.00  0.00    -0.246 OA
BRANCH   6   8
ATOM      8  C   UNL A   1      33.460  22.620  24.901  1.00  0.00     0.087 C 
ATOM      9  C   UNL A   1      32.779  27.570  25.659  1.00  0.00    -0.020 A 
ATOM     10  C   UNL A   1      32.391  26.380  26.326  1.00  0.00     0.053 A 
ATOM     11  C   UNL A   1      33.400  27.401  24.399  1.00  0.00     0.045 A 
ATOM     12  C   UNL A   1      32.661  25.105  25.811  1.00  0.00     0.128 A 
ATOM     13  C   UNL A   1      33.660  26.123  23.882  1.00  0.00     0.032 A 
ATOM     14  Cl  UNL A   1      33.920  28.694  23.372  1.00  0.00    -0.084 Cl
ATOM     15  C   UNL A   1      33.319  24.980  24.599  1.00  0.00     0.019 A 
ATOM     16  O   UNL A   1      32.249  24.040  26.560  1.00  0.00    -0.475 OA
ATOM     17  C   UNL A   1      33.712  23.674  24.115  1.00  0.00     0.027 C 
ATOM     18  C   UNL A   1      32.704  22.700  26.199  1.00  0.00     0.316 C 
BRANCH   9  19
ATOM     19  C   UNL A   1      32.536  28.947  26.328  1.00  0.00    -0.012 C 
ATOM     20  C   UNL A   1      31.708  28.790  27.624  1.00  0.00     0.016 C 
ATOM     21  C   UNL A   1      31.723  29.935  25.446  1.00  0.00     0.016 C 
ATOM     22  C   UNL A   1      33.873  29.660  26.621  1.00  0.00     0.016 C 
ENDBRANCH   9  19
BRANCH  18  23
ATOM     23  C   UNL A   1      33.502  22.123  27.378  1.00  0.00     0.430 C 
ATOM     24  F   UNL A   1      32.912  22.420  28.559  1.00  0.00    -0.167 F 
ATOM     25  F   UNL A   1      33.593  20.776  27.310  1.00  0.00    -0.167 F 
ATOM     26  F   UNL A   1      34.762  22.616  27.416  1.00  0.00    -0.167 F 
ENDBRANCH  18  23
ENDBRANCH   6   8
ENDBRANCH   5   6
ENDBRANCH   4   5
ENDBRANCH   3   4
ENDBRANCH   2   3
ENDBRANCH   1   2
BRANCH   1  27
ATOM     27  C   UNL A   1      39.126  23.160  26.720  1.00  0.00     0.261 C 
BRANCH  27  28
ATOM     28  O   UNL A   1      39.709  24.370  26.212  1.00  0.00    -0.460 OA
BRANCH  28  29
ATOM     29  C   UNL A   1      40.875  24.732  26.806  1.00  0.00     0.338 C 
ATOM     30  O   UNL A   1      42.003  24.399  26.477  1.00  0.00    -0.246 OA
BRANCH  29  31
ATOM     31  C   UNL A   1      40.605  25.772  27.817  1.00  0.00     0.060 A 
ATOM     32  C   UNL A   1      39.471  25.715  28.625  1.00  0.00     0.016 A 
ATOM     33  C   UNL A   1      41.539  26.806  27.970  1.00  0.00     0.016 A 
ATOM     34  C   UNL A   1      39.285  26.689  29.609  1.00  0.00     0.010 A 
ATOM     35  C   UNL A   1      41.354  27.774  28.956  1.00  0.00     0.010 A 
ATOM     36  C   UNL A   1      40.233  27.713  29.796  1.00  0.00    -0.014 A 
BRANCH  36  37
ATOM     37  C   UNL A   1      40.097  28.644  30.945  1.00  0.00     0.031 A 
ATOM     38  C   UNL A   1      40.964  28.519  32.162  1.00  0.00     0.074 A 
ATOM     39  C   UNL A   1      39.172  29.621  30.870  1.00  0.00     0.049 A 
ATOM     40  N   UNL A   1      41.041  29.315  33.198  1.00  0.00    -0.248 NA
ATOM     41  C   UNL A   1      41.853  27.349  32.233  1.00  0.00     0.031 C 
ATOM     42  C   UNL A   1      38.240  29.809  29.757  1.00  0.00     0.029 A 
ATOM     43  N   UNL A   1      38.872  30.646  31.732  1.00  0.00    -0.354 N 
ATOM     44  C   UNL A   1      42.005  28.762  34.033  1.00  0.00     0.074 A 
ATOM     45  C   UNL A   1      42.440  27.529  33.411  1.00  0.00     0.031 C 
ATOM     46  C   UNL A   1      37.506  30.909  29.979  1.00  0.00     0.029 A 
ATOM     47  C   UNL A   1      37.890  31.488  31.263  1.00  0.00     0.049 A 
ATOM     48  H   UNL A   1      39.317  30.768  32.601  1.00  0.00     0.167 HD
ATOM     49  C   UNL A   1      42.496  29.256  35.194  1.00  0.00     0.037 A 
ATOM     50  C   UNL A   1      37.363  32.605  31.802  1.00  0.00     0.037 A 
ATOM     51  C   UNL A   1      42.045  30.478  35.810  1.00  0.00     0.049 A 
ATOM     52  C   UNL A   1      37.893  33.104  33.119  1.00  0.00     0.074 A 
ATOM     53  C   UNL A   1      42.510  31.081  36.966  1.00  0.00     0.029 A 
ATOM     54  N   UNL A   1      41.016  31.278  35.333  1.00  0.00    -0.354 N 
ATOM     55  N   UNL A   1      38.868  32.620  33.850  1.00  0.00    -0.248 NA
ATOM     56  C   UNL A   1      37.253  34.300  33.684  1.00  0.00     0.031 C 
ATOM     57  C   UNL A   1      41.727  32.210  37.220  1.00  0.00     0.029 A 
ATOM     58  C   UNL A   1      40.808  32.346  36.192  1.00  0.00     0.049 A 
ATOM     59  H   UNL A   1      40.507  31.112  34.506  1.00  0.00     0.167 HD
ATOM     60  C   UNL A   1      38.968  33.458  34.954  1.00  0.00     0.074 A 
ATOM     61  C   UNL A   1      37.969  34.493  34.784  1.00  0.00     0.031 C 
ATOM     62  C   UNL A   1      39.807  33.371  36.016  1.00  0.00     0.037 A 
BRANCH  49  63
ATOM     63  C   UNL A   1      43.596  28.486  35.878  1.00  0.00     0.058 A 
ATOM     64  C   UNL A   1      43.308  27.408  36.729  1.00  0.00     0.135 A 
ATOM     65  C   UNL A   1      44.946  28.775  35.620  1.00  0.00     0.135 A 
ATOM     66  F   UNL A   1      42.035  27.093  37.017  1.00  0.00    -0.206 F 
ATOM     67  C   UNL A   1      44.320  26.656  37.318  1.00  0.00     0.059 A 
ATOM     68  C   UNL A   1      45.974  28.018  36.177  1.00  0.00     0.059 A 
ATOM     69  F   UNL A   1      45.278  29.792  34.810  1.00  0.00    -0.206 F 
ATOM     70  C   UNL A   1      45.650  26.967  37.033  1.00  0.00     0.060 A 
BRANCH  70  71
ATOM     71  S   UNL A   1      46.945  25.970  37.799  1.00  0.00     0.124 S 
ATOM     72  O   UNL A   1      48.148  26.675  37.370  1.00  0.00    -0.237 OA
ATOM     73  O   UNL A   1      46.619  26.078  39.217  1.00  0.00    -0.237 OA
ATOM     74  O   UNL A   1      46.752  24.648  37.212  1.00  0.00    -0.744 OA
ENDBRANCH  70  71
ENDBRANCH  49  63
BRANCH  50  75
ATOM     75  C   UNL A   1      36.296  33.343  31.074  1.00  0.00     0.058 A 
ATOM     76  C   UNL A   1      34.970  33.330  31.529  1.00  0.00     0.135 A 
ATOM     77  C   UNL A   1      36.586  34.101  29.928  1.00  0.00     0.135 A 
ATOM     78  F   UNL A   1      34.642  32.615  32.616  1.00  0.00    -0.206 F 
ATOM     79  C   UNL A   1      33.967  34.035  30.872  1.00  0.00     0.059 A 
ATOM     80  C   UNL A   1      35.606  34.837  29.270  1.00  0.00     0.059 A 
ATOM     81  F   UNL A   1      37.842  34.158  29.459  1.00  0.00    -0.206 F 
ATOM     82  C   UNL A   1      34.297  34.792  29.746  1.00  0.00     0.060 A 
BRANCH  82  83
ATOM     83  S   UNL A   1      32.995  35.745  28.937  1.00  0.00     0.124 S 
ATOM     84  O   UNL A   1      32.158  36.122  30.069  1.00  0.00    -0.237 OA
ATOM     85  O   UNL A   1      33.753  36.826  28.315  1.00  0.00    -0.237 OA
ATOM     86  O   UNL A   1      32.405  34.786  28.007  1.00  0.00    -0.744 OA
ENDBRANCH  82  83
ENDBRANCH  50  75
BRANCH  62  87
ATOM     87  C   UNL A   1      39.688  34.417  37.092  1.00  0.00     0.058 A 
ATOM     88  C   UNL A   1      38.869  34.219  38.214  1.00  0.00     0.135 A 
ATOM     89  C   UNL A   1      40.472  35.582  37.051  1.00  0.00     0.135 A 
ATOM     90  F   UNL A   1      38.092  33.128  38.301  1.00  0.00    -0.206 F 
ATOM     91  C   UNL A   1      38.829  35.139  39.256  1.00  0.00     0.059 A 
ATOM     92  C   UNL A   1      40.470  36.502  38.095  1.00  0.00     0.059 A 
ATOM     93  F   UNL A   1      41.278  35.818  36.003  1.00  0.00    -0.206 F 
ATOM     94  C   UNL A   1      39.643  36.272  39.194  1.00  0.00     0.060 A 
BRANCH  94  95
ATOM     95  S   UNL A   1      39.629  37.419  40.589  1.00  0.00     0.124 S 
ATOM     96  O   UNL A   1      38.938  36.636  41.608  1.00  0.00    -0.237 OA
ATOM     97  O   UNL A   1      41.052  37.643  40.817  1.00  0.00    -0.237 OA
ATOM     98  O   UNL A   1      38.891  38.570  40.078  1.00  0.00    -0.744 OA
ENDBRANCH  94  95
ENDBRANCH  62  87
ENDBRANCH  36  37
ENDBRANCH  29  31
ENDBRANCH  28  29
ENDBRANCH  27  28
ENDBRANCH   1  27
TORSDOF 19
ENDMDL
MODEL 2
REMARK VINA RESULT:     -11.4      6.518      9.746
REMARK SMILES CC(C)(C)c1cc2c(cc1Cl)C=C(C(=O)OCCOCCOC(=O)c1ccc(-c3c4nc(c(-c5c(F)cc(S(=O)(=O)[O-])cc5F)c5ccc([nH]5)c(-c5c(F)cc(S(=O)(=O)[O-])cc5F)c5nc(c(-c6c(F)cc(S(=O)(=O)[O-])cc6F)c6ccc3[nH]6)C=C5)C=C4)cc1)[C@@H](C(F)(F)F)O2
REMARK SMILES IDX 20 1 19 2 18 3 17 4 16 5 14 6 15 7 13 8 5 9 6 10 10 11 7 12
REMARK SMILES IDX 9 13 11 14 8 15 96 16 12 17 91 18 2 19 1 20 3 21 4 22 92 23
REMARK SMILES IDX 93 24 94 25 95 26 21 27 22 28 23 29 24 30 25 31 26 32 90 33
REMARK SMILES IDX 27 34 89 35 28 36 29 37 30 38 83 39 31 40 88 41 82 42 84 43
REMARK SMILES IDX 32 44 87 45 81 46 80 47 33 49 67 50 46 51 66 52 47 53 50 54
REMARK SMILES IDX 65 55 85 56 48 57 49 58 64 60 86 61 51 62 34 63 35 64 44 65
REMARK SMILES IDX 36 66 37 67 43 68 45 69 38 70 39 71 40 72 41 73 42 74 68 75
REMARK SMILES IDX 69 76 78 77 70 78 71 79 77 80 79 81 72 82 73 83 74 84 75 85
REMARK SMILES IDX 76 86 52 87 53 88 62 89 54 90 55 91 61 92 63 93 56 94 57 95
REMARK SMILES IDX 58 96 59 97 60 98
REMARK H PARENT 84 48 50 59
REMARK Flexibility Score: inf
ROOT
ATOM      1  C   UNL A   1      41.873  19.957  26.222  1.00  0.00     0.202 C 
ENDROOT
BRANCH   1   2
ATOM      2  O   UNL A   1      42.405  18.923  25.396  1.00  0.00    -0.374 OA
BRANCH   2   3
ATOM      3  C   UNL A   1      43.817  18.734  25.364  1.00  0.00     0.202 C 
BRANCH   3   4
ATOM      4  C   UNL A   1      44.633  19.566  24.368  1.00  0.00     0.261 C 
BRANCH   4   5
ATOM      5  O   UNL A   1      45.416  20.579  25.017  1.00  0.00    -0.460 OA
BRANCH   5   6
ATOM      6  C   UNL A   1      44.802  21.781  25.108  1.00  0.00     0.338 C 
ATOM      7  O   UNL A   1      43.784  22.130  24.532  1.00  0.00    -0.246 OA
BRANCH   6   8
ATOM      8  C   UNL A   1      45.454  22.601  26.146  1.00  0.00     0.087 C 
ATOM      9  C   UNL A   1      46.147  25.587  30.165  1.00  0.00    -0.020 A 
ATOM     10  C   UNL A   1      46.898  25.254  29.008  1.00  0.00     0.053 A 
ATOM     11  C   UNL A   1      44.963  24.840  30.372  1.00  0.00     0.045 A 
ATOM     12  C   UNL A   1      46.470  24.293  28.083  1.00  0.00     0.128 A 
ATOM     13  C   UNL A   1      44.542  23.872  29.448  1.00  0.00     0.032 A 
ATOM     14  Cl  UNL A   1      43.904  25.025  31.729  1.00  0.00    -0.084 Cl
ATOM     15  C   UNL A   1      45.277  23.621  28.293  1.00  0.00     0.019 A 
ATOM     16  O   UNL A   1      47.277  24.077  27.002  1.00  0.00    -0.475 OA
ATOM     17  C   UNL A   1      44.764  22.717  27.287  1.00  0.00     0.027 C 
ATOM     18  C   UNL A   1      46.777  23.270  25.893  1.00  0.00     0.316 C 
BRANCH   9  19
ATOM     19  C   UNL A   1      46.628  26.726  31.099  1.00  0.00    -0.012 C 
ATOM     20  C   UNL A   1      46.444  26.336  32.583  1.00  0.00     0.016 C 
ATOM     21  C   UNL A   1      45.831  28.050  30.928  1.00  0.00     0.016 C 
ATOM     22  C   UNL A   1      48.100  27.090  30.811  1.00  0.00     0.016 C 
ENDBRANCH   9  19
BRANCH  18  23
ATOM     23  C   UNL A   1      46.761  24.139  24.627  1.00  0.00     0.430 C 
ATOM     24  F   UNL A   1      47.895  24.871  24.523  1.00  0.00    -0.167 F 
ATOM     25  F   UNL A   1      46.673  23.389  23.506  1.00  0.00    -0.167 F 
ATOM     26  F   UNL A   1      45.718  25.001  24.626  1.00  0.00    -0.167 F 
ENDBRANCH  18  23
ENDBRANCH   6   8
ENDBRANCH   5   6
ENDBRANCH   4   5
ENDBRANCH   3   4
ENDBRANCH   2   3
ENDBRANCH   1   2
BRANCH   1  27
ATOM     27  C   UNL A   1      40.352  20.147  26.283  1.00  0.00     0.261 C 
BRANCH  27  28
ATOM     28  O   UNL A   1      39.947  21.210  27.161  1.00  0.00    -0.460 OA
BRANCH  28  29
ATOM     29  C   UNL A   1      39.277  22.224  26.555  1.00  0.00     0.338 C 
ATOM     30  O   UNL A   1      38.279  22.133  25.856  1.00  0.00    -0.246 OA
BRANCH  29  31
ATOM     31  C   UNL A   1      39.817  23.513  27.024  1.00  0.00     0.060 A 
ATOM     32  C   UNL A   1      40.763  23.570  28.046  1.00  0.00     0.016 A 
ATOM     33  C   UNL A   1      39.380  24.685  26.391  1.00  0.00     0.016 A 
ATOM     34  C   UNL A   1      41.291  24.809  28.418  1.00  0.00     0.010 A 
ATOM     35  C   UNL A   1      39.912  25.919  26.761  1.00  0.00     0.010 A 
ATOM     36  C   UNL A   1      40.886  25.989  27.767  1.00  0.00    -0.014 A 
BRANCH  36  37
ATOM     37  C   UNL A   1      41.571  27.271  28.069  1.00  0.00     0.031 A 
ATOM     38  C   UNL A   1      42.987  27.523  27.645  1.00  0.00     0.074 A 
ATOM     39  C   UNL A   1      40.885  28.222  28.735  1.00  0.00     0.049 A 
ATOM     40  N   UNL A   1      43.687  28.624  27.739  1.00  0.00    -0.248 NA
ATOM     41  C   UNL A   1      43.717  26.395  27.048  1.00  0.00     0.031 C 
ATOM     42  C   UNL A   1      39.519  28.070  29.240  1.00  0.00     0.029 A 
ATOM     43  N   UNL A   1      41.229  29.502  29.087  1.00  0.00    -0.354 N 
ATOM     44  C   UNL A   1      44.929  28.336  27.188  1.00  0.00     0.074 A 
ATOM     45  C   UNL A   1      44.908  26.935  26.818  1.00  0.00     0.031 C 
ATOM     46  C   UNL A   1      39.123  29.226  29.793  1.00  0.00     0.029 A 
ATOM     47  C   UNL A   1      40.216  30.191  29.713  1.00  0.00     0.049 A 
ATOM     48  H   UNL A   1      42.116  29.891  28.909  1.00  0.00     0.167 HD
ATOM     49  C   UNL A   1      45.976  29.171  26.986  1.00  0.00     0.037 A 
ATOM     50  C   UNL A   1      40.167  31.460  30.164  1.00  0.00     0.037 A 
ATOM     51  C   UNL A   1      45.989  30.560  27.371  1.00  0.00     0.049 A 
ATOM     52  C   UNL A   1      41.364  32.352  29.972  1.00  0.00     0.074 A 
ATOM     53  C   UNL A   1      46.989  31.496  27.172  1.00  0.00     0.029 A 
ATOM     54  N   UNL A   1      44.966  31.210  28.045  1.00  0.00    -0.354 N 
ATOM     55  N   UNL A   1      42.497  32.090  29.366  1.00  0.00    -0.248 NA
ATOM     56  C   UNL A   1      41.276  33.712  30.522  1.00  0.00     0.031 C 
ATOM     57  C   UNL A   1      46.596  32.694  27.776  1.00  0.00     0.029 A 
ATOM     58  C   UNL A   1      45.326  32.523  28.303  1.00  0.00     0.049 A 
ATOM     59  H   UNL A   1      44.109  30.799  28.304  1.00  0.00     0.167 HD
ATOM     60  C   UNL A   1      43.253  33.253  29.452  1.00  0.00     0.074 A 
ATOM     61  C   UNL A   1      42.438  34.229  30.147  1.00  0.00     0.031 C 
ATOM     62  C   UNL A   1      44.510  33.488  29.000  1.00  0.00     0.037 A 
BRANCH  49  63
ATOM     63  C   UNL A   1      47.198  28.616  26.302  1.00  0.00     0.058 A 
ATOM     64  C   UNL A   1      47.195  28.326  24.929  1.00  0.00     0.135 A 
ATOM     65  C   UNL A   1      48.403  28.448  27.004  1.00  0.00     0.135 A 
ATOM     66  F   UNL A   1      46.068  28.462  24.211  1.00  0.00    -0.206 F 
ATOM     67  C   UNL A   1      48.337  27.869  24.279  1.00  0.00     0.059 A 
ATOM     68  C   UNL A   1      49.565  28.017  26.369  1.00  0.00     0.059 A 
ATOM     69  F   UNL A   1      48.463  28.714  28.318  1.00  0.00    -0.206 F 
ATOM     70  C   UNL A   1      49.519  27.721  25.007  1.00  0.00     0.060 A 
BRANCH  70  71
ATOM     71  S   UNL A   1      50.990  27.136  24.141  1.00  0.00     0.124 S 
ATOM     72  O   UNL A   1      51.399  26.017  24.983  1.00  0.00    -0.237 OA
ATOM     73  O   UNL A   1      50.456  26.781  22.830  1.00  0.00    -0.237 OA
ATOM     74  O   UNL A   1      51.880  28.292  24.161  1.00  0.00    -0.744 OA
ENDBRANCH  70  71
ENDBRANCH  49  63
BRANCH  50  75
ATOM     75  C   UNL A   1      38.927  31.967  30.810  1.00  0.00     0.058 A 
ATOM     76  C   UNL A   1      37.944  32.632  30.063  1.00  0.00     0.135 A 
ATOM     77  C   UNL A   1      38.685  31.768  32.178  1.00  0.00     0.135 A 
ATOM     78  F   UNL A   1      38.132  32.851  28.752  1.00  0.00    -0.206 F 
ATOM     79  C   UNL A   1      36.768  33.089  30.648  1.00  0.00     0.059 A 
ATOM     80  C   UNL A   1      37.505  32.191  32.782  1.00  0.00     0.059 A 
ATOM     81  F   UNL A   1      39.587  31.125  32.935  1.00  0.00    -0.206 F 
ATOM     82  C   UNL A   1      36.555  32.857  32.009  1.00  0.00     0.060 A 
BRANCH  82  83
ATOM     83  S   UNL A   1      35.000  33.409  32.743  1.00  0.00     0.124 S 
ATOM     84  O   UNL A   1      34.029  32.595  32.023  1.00  0.00    -0.237 OA
ATOM     85  O   UNL A   1      35.196  33.074  34.150  1.00  0.00    -0.237 OA
ATOM     86  O   UNL A   1      34.974  34.837  32.443  1.00  0.00    -0.744 OA
ENDBRANCH  82  83
ENDBRANCH  50  75
BRANCH  62  87
ATOM     87  C   UNL A   1      45.100  34.851  29.243  1.00  0.00     0.058 A 
ATOM     88  C   UNL A   1      45.881  35.115  30.379  1.00  0.00     0.135 A 
ATOM     89  C   UNL A   1      44.967  35.872  28.289  1.00  0.00     0.135 A 
ATOM     90  F   UNL A   1      46.034  34.178  31.328  1.00  0.00    -0.206 F 
ATOM     91  C   UNL A   1      46.507  36.344  30.561  1.00  0.00     0.059 A 
ATOM     92  C   UNL A   1      45.608  37.098  28.435  1.00  0.00     0.059 A 
ATOM     93  F   UNL A   1      44.237  35.670  27.180  1.00  0.00    -0.206 F 
ATOM     94  C   UNL A   1      46.376  37.325  29.577  1.00  0.00     0.060 A 
BRANCH  94  95
ATOM     95  S   UNL A   1      47.254  38.887  29.798  1.00  0.00     0.124 S 
ATOM     96  O   UNL A   1      48.304  38.506  30.737  1.00  0.00    -0.237 OA
ATOM     97  O   UNL A   1      47.695  39.188  28.441  1.00  0.00    -0.237 OA
ATOM     98  O   UNL A   1      46.231  39.782  30.334  1.00  0.00    -0.744 OA
ENDBRANCH  94  95
ENDBRANCH  62  87
ENDBRANCH  36  37
ENDBRANCH  29  31
ENDBRANCH  28  29
ENDBRANCH  27  28
ENDBRANCH   1  27
TORSDOF 19
ENDMDL
MODEL 3
REMARK VINA RESULT:     -11.2      6.818     12.318
REMARK SMILES CC(C)(C)c1cc2c(cc1Cl)C=C(C(=O)OCCOCCOC(=O)c1ccc(-c3c4nc(c(-c5c(F)cc(S(=O)(=O)[O-])cc5F)c5ccc([nH]5)c(-c5c(F)cc(S(=O)(=O)[O-])cc5F)c5nc(c(-c6c(F)cc(S(=O)(=O)[O-])cc6F)c6ccc3[nH]6)C=C5)C=C4)cc1)[C@@H](C(F)(F)F)O2
REMARK SMILES IDX 20 1 19 2 18 3 17 4 16 5 14 6 15 7 13 8 5 9 6 10 10 11 7 12
REMARK SMILES IDX 9 13 11 14 8 15 96 16 12 17 91 18 2 19 1 20 3 21 4 22 92 23
REMARK SMILES IDX 93 24 94 25 95 26 21 27 22 28 23 29 24 30 25 31 26 32 90 33
REMARK SMILES IDX 27 34 89 35 28 36 29 37 30 38 83 39 31 40 88 41 82 42 84 43
REMARK SMILES IDX 32 44 87 45 81 46 80 47 33 49 67 50 46 51 66 52 47 53 50 54
REMARK SMILES IDX 65 55 85 56 48 57 49 58 64 60 86 61 51 62 34 63 35 64 44 65
REMARK SMILES IDX 36 66 37 67 43 68 45 69 38 70 39 71 40 72 41 73 42 74 68 75
REMARK SMILES IDX 69 76 78 77 70 78 71 79 77 80 79 81 72 82 73 83 74 84 75 85
REMARK SMILES IDX 76 86 52 87 53 88 62 89 54 90 55 91 61 92 63 93 56 94 57 95
REMARK SMILES IDX 58 96 59 97 60 98
REMARK H PARENT 84 48 50 59
REMARK Flexibility Score: inf
ROOT
ATOM      1  C   UNL A   1      34.469  32.248  28.594  1.00  0.00     0.202 C 
ENDROOT
BRANCH   1   2
ATOM      2  O   UNL A   1      33.980  31.281  27.668  1.00  0.00    -0.374 OA
BRANCH   2   3
ATOM      3  C   UNL A   1      32.629  31.383  27.225  1.00  0.00     0.202 C 
BRANCH   3   4
ATOM      4  C   UNL A   1      31.939  30.111  26.718  1.00  0.00     0.261 C 
BRANCH   4   5
ATOM      5  O   UNL A   1      32.432  29.698  25.435  1.00  0.00    -0.460 OA
BRANCH   5   6
ATOM      6  C   UNL A   1      31.611  28.850  24.773  1.00  0.00     0.338 C 
ATOM      7  O   UNL A   1      30.482  29.085  24.373  1.00  0.00    -0.246 OA
BRANCH   6   8
ATOM      8  C   UNL A   1      32.331  27.606  24.446  1.00  0.00     0.087 C 
ATOM      9  C   UNL A   1      35.055  23.374  24.922  1.00  0.00    -0.020 A 
ATOM     10  C   UNL A   1      34.730  24.257  23.859  1.00  0.00     0.053 A 
ATOM     11  C   UNL A   1      34.382  23.603  26.145  1.00  0.00     0.045 A 
ATOM     12  C   UNL A   1      33.849  25.334  24.017  1.00  0.00     0.128 A 
ATOM     13  C   UNL A   1      33.493  24.678  26.298  1.00  0.00     0.032 A 
ATOM     14  Cl  UNL A   1      34.570  22.639  27.571  1.00  0.00    -0.084 Cl
ATOM     15  C   UNL A   1      33.250  25.557  25.246  1.00  0.00     0.019 A 
ATOM     16  O   UNL A   1      33.633  26.118  22.919  1.00  0.00    -0.475 OA
ATOM     17  C   UNL A   1      32.436  26.735  25.457  1.00  0.00     0.027 C 
ATOM     18  C   UNL A   1      32.919  27.382  23.079  1.00  0.00     0.316 C 
BRANCH   9  19
ATOM     19  C   UNL A   1      36.110  22.259  24.707  1.00  0.00    -0.012 C 
ATOM     20  C   UNL A   1      35.471  20.860  24.865  1.00  0.00     0.016 C 
ATOM     21  C   UNL A   1      37.270  22.292  25.741  1.00  0.00     0.016 C 
ATOM     22  C   UNL A   1      36.784  22.397  23.326  1.00  0.00     0.016 C 
ENDBRANCH   9  19
BRANCH  18  23
ATOM     23  C   UNL A   1      33.850  28.525  22.648  1.00  0.00     0.430 C 
ATOM     24  F   UNL A   1      34.521  28.208  21.516  1.00  0.00    -0.167 F 
ATOM     25  F   UNL A   1      33.164  29.661  22.394  1.00  0.00    -0.167 F 
ATOM     26  F   UNL A   1      34.769  28.807  23.601  1.00  0.00    -0.167 F 
ENDBRANCH  18  23
ENDBRANCH   6   8
ENDBRANCH   5   6
ENDBRANCH   4   5
ENDBRANCH   3   4
ENDBRANCH   2   3
ENDBRANCH   1   2
BRANCH   1  27
ATOM     27  C   UNL A   1      35.197  31.764  29.855  1.00  0.00     0.261 C 
BRANCH  27  28
ATOM     28  O   UNL A   1      35.879  30.513  29.672  1.00  0.00    -0.460 OA
BRANCH  28  29
ATOM     29  C   UNL A   1      36.679  30.145  30.706  1.00  0.00     0.338 C 
ATOM     30  O   UNL A   1      36.327  29.838  31.835  1.00  0.00    -0.246 OA
BRANCH  29  31
ATOM     31  C   UNL A   1      38.059  29.970  30.216  1.00  0.00     0.060 A 
ATOM     32  C   UNL A   1      39.105  29.687  31.093  1.00  0.00     0.016 A 
ATOM     33  C   UNL A   1      38.289  30.061  28.836  1.00  0.00     0.016 A 
ATOM     34  C   UNL A   1      40.385  29.471  30.579  1.00  0.00     0.010 A 
ATOM     35  C   UNL A   1      39.568  29.840  28.325  1.00  0.00     0.010 A 
ATOM     36  C   UNL A   1      40.624  29.525  29.192  1.00  0.00    -0.014 A 
BRANCH  36  37
ATOM     37  C   UNL A   1      41.953  29.140  28.656  1.00  0.00     0.031 A 
ATOM     38  C   UNL A   1      43.084  30.123  28.582  1.00  0.00     0.074 A 
ATOM     39  C   UNL A   1      42.131  27.871  28.237  1.00  0.00     0.049 A 
ATOM     40  N   UNL A   1      44.330  29.914  28.242  1.00  0.00    -0.248 NA
ATOM     41  C   UNL A   1      42.779  31.520  28.926  1.00  0.00     0.031 C 
ATOM     42  C   UNL A   1      41.090  26.843  28.216  1.00  0.00     0.029 A 
ATOM     43  N   UNL A   1      43.246  27.225  27.766  1.00  0.00    -0.354 N 
ATOM     44  C   UNL A   1      44.968  31.143  28.356  1.00  0.00     0.074 A 
ATOM     45  C   UNL A   1      43.956  32.106  28.738  1.00  0.00     0.031 C 
ATOM     46  C   UNL A   1      41.624  25.684  27.803  1.00  0.00     0.029 A 
ATOM     47  C   UNL A   1      43.037  25.892  27.498  1.00  0.00     0.049 A 
ATOM     48  H   UNL A   1      44.113  27.672  27.633  1.00  0.00     0.167 HD
ATOM     49  C   UNL A   1      46.280  31.430  28.184  1.00  0.00     0.037 A 
ATOM     50  C   UNL A   1      43.888  24.941  27.065  1.00  0.00     0.037 A 
ATOM     51  C   UNL A   1      47.276  30.464  27.790  1.00  0.00     0.049 A 
ATOM     52  C   UNL A   1      45.331  25.299  26.833  1.00  0.00     0.074 A 
ATOM     53  C   UNL A   1      48.637  30.652  27.629  1.00  0.00     0.029 A 
ATOM     54  N   UNL A   1      47.019  29.136  27.481  1.00  0.00    -0.354 N 
ATOM     55  N   UNL A   1      45.937  26.445  27.035  1.00  0.00    -0.248 NA
ATOM     56  C   UNL A   1      46.206  24.238  26.317  1.00  0.00     0.031 C 
ATOM     57  C   UNL A   1      49.194  29.456  27.167  1.00  0.00     0.029 A 
ATOM     58  C   UNL A   1      48.190  28.505  27.094  1.00  0.00     0.049 A 
ATOM     59  H   UNL A   1      46.135  28.706  27.528  1.00  0.00     0.167 HD
ATOM     60  C   UNL A   1      47.265  26.240  26.682  1.00  0.00     0.074 A 
ATOM     61  C   UNL A   1      47.380  24.854  26.277  1.00  0.00     0.031 C 
ATOM     62  C   UNL A   1      48.294  27.123  26.687  1.00  0.00     0.037 A 
BRANCH  49  63
ATOM     63  C   UNL A   1      46.731  32.845  28.435  1.00  0.00     0.058 A 
ATOM     64  C   UNL A   1      46.753  33.796  27.403  1.00  0.00     0.135 A 
ATOM     65  C   UNL A   1      47.067  33.276  29.729  1.00  0.00     0.135 A 
ATOM     66  F   UNL A   1      46.449  33.437  26.145  1.00  0.00    -0.206 F 
ATOM     67  C   UNL A   1      47.112  35.119  27.639  1.00  0.00     0.059 A 
ATOM     68  C   UNL A   1      47.403  34.601  29.994  1.00  0.00     0.059 A 
ATOM     69  F   UNL A   1      47.059  32.409  30.754  1.00  0.00    -0.206 F 
ATOM     70  C   UNL A   1      47.432  35.513  28.940  1.00  0.00     0.060 A 
BRANCH  70  71
ATOM     71  S   UNL A   1      47.884  37.237  29.225  1.00  0.00     0.124 S 
ATOM     72  O   UNL A   1      47.070  37.563  30.391  1.00  0.00    -0.237 OA
ATOM     73  O   UNL A   1      49.321  37.144  29.462  1.00  0.00    -0.237 OA
ATOM     74  O   UNL A   1      47.496  37.902  27.985  1.00  0.00    -0.744 OA
ENDBRANCH  70  71
ENDBRANCH  49  63
BRANCH  50  75
ATOM     75  C   UNL A   1      43.398  23.552  26.857  1.00  0.00     0.058 A 
ATOM     76  C   UNL A   1      43.118  23.072  25.570  1.00  0.00     0.135 A 
ATOM     77  C   UNL A   1      43.230  22.669  27.935  1.00  0.00     0.135 A 
ATOM     78  F   UNL A   1      43.258  23.879  24.507  1.00  0.00    -0.206 F 
ATOM     79  C   UNL A   1      42.683  21.767  25.357  1.00  0.00     0.059 A 
ATOM     80  C   UNL A   1      42.823  21.353  27.747  1.00  0.00     0.059 A 
ATOM     81  F   UNL A   1      43.497  23.076  29.186  1.00  0.00    -0.206 F 
ATOM     82  C   UNL A   1      42.545  20.913  26.454  1.00  0.00     0.060 A 
BRANCH  82  83
ATOM     83  S   UNL A   1      42.031  19.207  26.157  1.00  0.00     0.124 S 
ATOM     84  O   UNL A   1      42.885  18.834  25.035  1.00  0.00    -0.237 OA
ATOM     85  O   UNL A   1      42.340  18.573  27.434  1.00  0.00    -0.237 OA
ATOM     86  O   UNL A   1      40.609  19.332  25.854  1.00  0.00    -0.744 OA
ENDBRANCH  82  83
ENDBRANCH  50  75
BRANCH  62  87
ATOM     87  C   UNL A   1      49.644  26.632  26.236  1.00  0.00     0.058 A 
ATOM     88  C   UNL A   1      50.106  26.866  24.932  1.00  0.00     0.135 A 
ATOM     89  C   UNL A   1      50.521  26.010  27.140  1.00  0.00     0.135 A 
ATOM     90  F   UNL A   1      49.306  27.447  24.025  1.00  0.00    -0.206 F 
ATOM     91  C   UNL A   1      51.389  26.498  24.539  1.00  0.00     0.059 A 
ATOM     92  C   UNL A   1      51.817  25.660  26.778  1.00  0.00     0.059 A 
ATOM     93  F   UNL A   1      50.131  25.770  28.403  1.00  0.00    -0.206 F 
ATOM     94  C   UNL A   1      52.242  25.907  25.473  1.00  0.00     0.060 A 
BRANCH  94  95
ATOM     95  S   UNL A   1      53.927  25.503  24.963  1.00  0.00     0.124 S 
ATOM     96  O   UNL A   1      53.930  24.048  25.080  1.00  0.00    -0.237 OA
ATOM     97  O   UNL A   1      53.972  26.030  23.603  1.00  0.00    -0.237 OA
ATOM     98  O   UNL A   1      54.757  26.210  25.933  1.00  0.00    -0.744 OA
ENDBRANCH  94  95
ENDBRANCH  62  87
ENDBRANCH  36  37
ENDBRANCH  29  31
ENDBRANCH  28  29
ENDBRANCH  27  28
ENDBRANCH   1  27
TORSDOF 19
ENDMDL
