MODEL 1
REMARK VINA RESULT:     -10.5      0.000      0.000
REMARK SMILES COc1ccc(NCc2ccc(C(=O)OCCOCCOC(=O)c3ccc(-c4c5nc(c(-c6c(F)cc(S(=O)(=O)[O-])cc6F)c6ccc([nH]6)c(-c6c(F)cc(S(=O)(=O)[O-])cc6F)c6nc(c(-c7c(F)cc(S(=O)(=O)[O-])cc7F)c7ccc4[nH]7)C=C6)C=C5)cc3)cn2)cc1Br
REMARK SMILES IDX 17 1 16 2 15 3 13 4 14 5 12 6 9 7 10 8 91 9 11 10 90 11 8 12
REMARK SMILES IDX 7 13 6 15 3 16 4 17 93 18 5 19 92 20 94 21 2 22 1 23 18 24
REMARK SMILES IDX 19 25 20 26 21 27 22 28 23 29 24 30 25 31 89 32 26 33 88 34
REMARK SMILES IDX 27 35 28 36 29 37 82 38 30 39 87 40 81 41 83 42 31 43 86 44
REMARK SMILES IDX 80 45 79 46 32 48 66 49 45 50 65 51 46 52 49 53 64 54 84 55
REMARK SMILES IDX 47 56 48 57 63 59 85 60 50 61 33 62 34 63 43 64 35 65 36 66
REMARK SMILES IDX 42 67 44 68 37 69 38 70 39 71 40 72 41 73 67 74 68 75 77 76
REMARK SMILES IDX 69 77 70 78 76 79 78 80 71 81 72 82 73 83 74 84 75 85 51 86
REMARK SMILES IDX 52 87 61 88 53 89 54 90 60 91 62 92 55 93 56 94 57 95 58 96
REMARK SMILES IDX 59 97
REMARK H PARENT 7 14 83 47 49 58
REMARK Flexibility Score: inf
ROOT
ATOM      1  C   UNL A   1      42.102  20.927  26.684  1.00  0.00     0.202 C 
ENDROOT
BRANCH   1   2
ATOM      2  C   UNL A   1      40.790  20.138  26.664  1.00  0.00     0.261 C 
BRANCH   2   3
ATOM      3  O   UNL A   1      39.736  20.881  26.030  1.00  0.00    -0.460 OA
BRANCH   3   4
ATOM      4  C   UNL A   1      38.797  20.117  25.429  1.00  0.00     0.339 C 
ATOM      5  O   UNL A   1      38.879  18.925  25.162  1.00  0.00    -0.246 OA
BRANCH   4   6
ATOM      6  C   UNL A   1      37.544  20.867  25.256  1.00  0.00     0.078 A 
ATOM      7  C   UNL A   1      35.348  22.515  25.037  1.00  0.00     0.059 A 
ATOM      8  C   UNL A   1      35.183  21.141  24.858  1.00  0.00     0.026 A 
ATOM      9  N   UNL A   1      36.568  23.071  25.277  1.00  0.00    -0.259 NA
ATOM     10  C   UNL A   1      36.300  20.304  24.969  1.00  0.00     0.019 A 
ATOM     11  C   UNL A   1      37.629  22.243  25.380  1.00  0.00     0.127 A 
BRANCH   7  12
ATOM     12  C   UNL A   1      34.166  23.476  24.987  1.00  0.00     0.169 C 
BRANCH  12  13
ATOM     13  N   UNL A   1      34.670  24.841  24.871  1.00  0.00    -0.379 N 
ATOM     14  H   UNL A   1      35.650  24.940  24.855  1.00  0.00     0.160 HD
BRANCH  13  15
ATOM     15  C   UNL A   1      33.944  26.008  24.779  1.00  0.00     0.036 A 
ATOM     16  C   UNL A   1      32.300  28.316  24.752  1.00  0.00     0.133 A 
ATOM     17  C   UNL A   1      32.847  27.813  23.571  1.00  0.00     0.050 A 
ATOM     18  C   UNL A   1      32.549  27.650  25.951  1.00  0.00     0.062 A 
ATOM     19  C   UNL A   1      33.651  26.665  23.585  1.00  0.00     0.029 A 
ATOM     20  C   UNL A   1      33.371  26.516  25.956  1.00  0.00     0.045 A 
ATOM     21  Br  UNL A   1      31.750  28.148  27.600  1.00  0.00    -0.047 Br
BRANCH  16  22
ATOM     22  O   UNL A   1      31.442  29.374  24.613  1.00  0.00    -0.496 OA
ATOM     23  C   UNL A   1      30.604  29.268  23.464  1.00  0.00     0.278 C 
ENDBRANCH  16  22
ENDBRANCH  13  15
ENDBRANCH  12  13
ENDBRANCH   7  12
ENDBRANCH   4   6
ENDBRANCH   3   4
ENDBRANCH   2   3
ENDBRANCH   1   2
BRANCH   1  24
ATOM     24  O   UNL A   1      42.682  21.236  25.417  1.00  0.00    -0.374 OA
BRANCH  24  25
ATOM     25  C   UNL A   1      43.081  22.588  25.191  1.00  0.00     0.202 C 
BRANCH  25  26
ATOM     26  C   UNL A   1      42.895  23.574  26.351  1.00  0.00     0.261 C 
BRANCH  26  27
ATOM     27  O   UNL A   1      41.564  24.120  26.396  1.00  0.00    -0.460 OA
BRANCH  27  28
ATOM     28  C   UNL A   1      41.479  25.441  26.113  1.00  0.00     0.338 C 
ATOM     29  O   UNL A   1      41.271  25.948  25.017  1.00  0.00    -0.246 OA
BRANCH  28  30
ATOM     30  C   UNL A   1      41.478  26.223  27.362  1.00  0.00     0.060 A 
ATOM     31  C   UNL A   1      40.446  25.985  28.278  1.00  0.00     0.016 A 
ATOM     32  C   UNL A   1      42.434  27.211  27.610  1.00  0.00     0.016 A 
ATOM     33  C   UNL A   1      40.339  26.764  29.429  1.00  0.00     0.010 A 
ATOM     34  C   UNL A   1      42.319  27.998  28.761  1.00  0.00     0.010 A 
ATOM     35  C   UNL A   1      41.254  27.799  29.659  1.00  0.00    -0.014 A 
BRANCH  35  36
ATOM     36  C   UNL A   1      41.022  28.757  30.768  1.00  0.00     0.031 A 
ATOM     37  C   UNL A   1      41.876  28.663  32.003  1.00  0.00     0.074 A 
ATOM     38  C   UNL A   1      40.075  29.707  30.668  1.00  0.00     0.049 A 
ATOM     39  N   UNL A   1      41.809  29.355  33.111  1.00  0.00    -0.248 NA
ATOM     40  C   UNL A   1      42.945  27.651  31.988  1.00  0.00     0.031 C 
ATOM     41  C   UNL A   1      39.214  29.920  29.506  1.00  0.00     0.029 A 
ATOM     42  N   UNL A   1      39.672  30.663  31.565  1.00  0.00    -0.354 N 
ATOM     43  C   UNL A   1      42.819  28.860  33.928  1.00  0.00     0.074 A 
ATOM     44  C   UNL A   1      43.463  27.789  33.200  1.00  0.00     0.031 C 
ATOM     45  C   UNL A   1      38.373  30.936  29.767  1.00  0.00     0.029 A 
ATOM     46  C   UNL A   1      38.614  31.420  31.125  1.00  0.00     0.049 A 
ATOM     47  H   UNL A   1      40.102  30.794  32.442  1.00  0.00     0.167 HD
ATOM     48  C   UNL A   1      43.178  29.266  35.169  1.00  0.00     0.037 A 
ATOM     49  C   UNL A   1      37.904  32.377  31.756  1.00  0.00     0.037 A 
ATOM     50  C   UNL A   1      42.531  30.335  35.886  1.00  0.00     0.049 A 
ATOM     51  C   UNL A   1      38.280  32.767  33.163  1.00  0.00     0.074 A 
ATOM     52  C   UNL A   1      42.835  30.836  37.140  1.00  0.00     0.029 A 
ATOM     53  N   UNL A   1      41.448  31.062  35.417  1.00  0.00    -0.354 N 
ATOM     54  N   UNL A   1      39.248  32.304  33.916  1.00  0.00    -0.248 NA
ATOM     55  C   UNL A   1      37.466  33.810  33.804  1.00  0.00     0.031 C 
ATOM     56  C   UNL A   1      41.903  31.831  37.450  1.00  0.00     0.029 A 
ATOM     57  C   UNL A   1      41.052  31.990  36.366  1.00  0.00     0.049 A 
ATOM     58  H   UNL A   1      41.021  30.938  34.538  1.00  0.00     0.167 HD
ATOM     59  C   UNL A   1      39.178  33.020  35.108  1.00  0.00     0.074 A 
ATOM     60  C   UNL A   1      38.078  33.951  34.972  1.00  0.00     0.031 C 
ATOM     61  C   UNL A   1      39.957  32.916  36.214  1.00  0.00     0.037 A 
BRANCH  48  62
ATOM     62  C   UNL A   1      44.307  28.535  35.842  1.00  0.00     0.058 A 
ATOM     63  C   UNL A   1      44.081  27.423  36.669  1.00  0.00     0.135 A 
ATOM     64  C   UNL A   1      45.637  28.934  35.631  1.00  0.00     0.135 A 
ATOM     65  F   UNL A   1      42.828  27.010  36.918  1.00  0.00    -0.206 F 
ATOM     66  C   UNL A   1      45.131  26.748  37.284  1.00  0.00     0.059 A 
ATOM     67  C   UNL A   1      46.704  28.257  36.214  1.00  0.00     0.059 A 
ATOM     68  F   UNL A   1      45.909  29.991  34.852  1.00  0.00    -0.206 F 
ATOM     69  C   UNL A   1      46.439  27.174  37.051  1.00  0.00     0.060 A 
BRANCH  69  70
ATOM     70  S   UNL A   1      47.792  26.288  37.855  1.00  0.00     0.124 S 
ATOM     71  O   UNL A   1      47.138  25.038  38.229  1.00  0.00    -0.237 OA
ATOM     72  O   UNL A   1      48.780  26.191  36.785  1.00  0.00    -0.237 OA
ATOM     73  O   UNL A   1      48.159  27.161  38.966  1.00  0.00    -0.744 OA
ENDBRANCH  69  70
ENDBRANCH  48  62
BRANCH  49  74
ATOM     74  C   UNL A   1      36.756  33.025  31.067  1.00  0.00     0.058 A 
ATOM     75  C   UNL A   1      35.433  32.739  31.435  1.00  0.00     0.135 A 
ATOM     76  C   UNL A   1      36.961  33.945  30.026  1.00  0.00     0.135 A 
ATOM     77  F   UNL A   1      35.185  31.858  32.415  1.00  0.00    -0.206 F 
ATOM     78  C   UNL A   1      34.353  33.334  30.790  1.00  0.00     0.059 A 
ATOM     79  C   UNL A   1      35.898  34.571  29.384  1.00  0.00     0.059 A 
ATOM     80  F   UNL A   1      38.208  34.260  29.643  1.00  0.00    -0.206 F 
ATOM     81  C   UNL A   1      34.597  34.253  29.767  1.00  0.00     0.060 A 
BRANCH  81  82
ATOM     82  S   UNL A   1      33.190  35.060  28.974  1.00  0.00     0.124 S 
ATOM     83  O   UNL A   1      33.815  36.249  28.407  1.00  0.00    -0.237 OA
ATOM     84  O   UNL A   1      32.756  34.047  28.016  1.00  0.00    -0.237 OA
ATOM     85  O   UNL A   1      32.271  35.297  30.084  1.00  0.00    -0.744 OA
ENDBRANCH  81  82
ENDBRANCH  49  74
BRANCH  61  86
ATOM     86  C   UNL A   1      39.676  33.856  37.356  1.00  0.00     0.058 A 
ATOM     87  C   UNL A   1      38.962  33.446  38.492  1.00  0.00     0.135 A 
ATOM     88  C   UNL A   1      40.182  35.166  37.337  1.00  0.00     0.135 A 
ATOM     89  F   UNL A   1      38.452  32.207  38.558  1.00  0.00    -0.206 F 
ATOM     90  C   UNL A   1      38.743  34.308  39.561  1.00  0.00     0.059 A 
ATOM     91  C   UNL A   1      39.999  36.036  38.407  1.00  0.00     0.059 A 
ATOM     92  F   UNL A   1      40.882  35.605  36.279  1.00  0.00    -0.206 F 
ATOM     93  C   UNL A   1      39.268  35.601  39.512  1.00  0.00     0.060 A 
BRANCH  93  94
ATOM     94  S   UNL A   1      39.010  36.696  40.924  1.00  0.00     0.124 S 
ATOM     95  O   UNL A   1      40.329  36.686  41.549  1.00  0.00    -0.237 OA
ATOM     96  O   UNL A   1      38.623  37.948  40.281  1.00  0.00    -0.237 OA
ATOM     97  O   UNL A   1      37.951  36.033  41.679  1.00  0.00    -0.744 OA
ENDBRANCH  93  94
ENDBRANCH  61  86
ENDBRANCH  35  36
ENDBRANCH  28  30
ENDBRANCH  27  28
ENDBRANCH  26  27
ENDBRANCH  25  26
ENDBRANCH  24  25
ENDBRANCH   1  24
TORSDOF 21
ENDMDL
MODEL 2
REMARK VINA RESULT:     -10.2      6.226     12.306
REMARK SMILES COc1ccc(NCc2ccc(C(=O)OCCOCCOC(=O)c3ccc(-c4c5nc(c(-c6c(F)cc(S(=O)(=O)[O-])cc6F)c6ccc([nH]6)c(-c6c(F)cc(S(=O)(=O)[O-])cc6F)c6nc(c(-c7c(F)cc(S(=O)(=O)[O-])cc7F)c7ccc4[nH]7)C=C6)C=C5)cc3)cn2)cc1Br
REMARK SMILES IDX 17 1 16 2 15 3 13 4 14 5 12 6 9 7 10 8 91 9 11 10 90 11 8 12
REMARK SMILES IDX 7 13 6 15 3 16 4 17 93 18 5 19 92 20 94 21 2 22 1 23 18 24
REMARK SMILES IDX 19 25 20 26 21 27 22 28 23 29 24 30 25 31 89 32 26 33 88 34
REMARK SMILES IDX 27 35 28 36 29 37 82 38 30 39 87 40 81 41 83 42 31 43 86 44
REMARK SMILES IDX 80 45 79 46 32 48 66 49 45 50 65 51 46 52 49 53 64 54 84 55
REMARK SMILES IDX 47 56 48 57 63 59 85 60 50 61 33 62 34 63 43 64 35 65 36 66
REMARK SMILES IDX 42 67 44 68 37 69 38 70 39 71 40 72 41 73 67 74 68 75 77 76
REMARK SMILES IDX 69 77 70 78 76 79 78 80 71 81 72 82 73 83 74 84 75 85 51 86
REMARK SMILES IDX 52 87 61 88 53 89 54 90 60 91 62 92 55 93 56 94 57 95 58 96
REMARK SMILES IDX 59 97
REMARK H PARENT 7 14 83 47 49 58
REMARK Flexibility Score: inf
ROOT
ATOM      1  C   UNL A   1      34.674  31.206  27.640  1.00  0.00     0.202 C 
ENDROOT
BRANCH   1   2
ATOM      2  C   UNL A   1      33.301  30.740  27.149  1.00  0.00     0.261 C 
BRANCH   2   3
ATOM      3  O   UNL A   1      33.414  29.851  26.026  1.00  0.00    -0.460 OA
BRANCH   3   4
ATOM      4  C   UNL A   1      32.291  29.745  25.282  1.00  0.00     0.339 C 
ATOM      5  O   UNL A   1      31.314  30.482  25.315  1.00  0.00    -0.246 OA
BRANCH   4   6
ATOM      6  C   UNL A   1      32.432  28.688  24.269  1.00  0.00     0.078 A 
ATOM      7  C   UNL A   1      32.473  26.565  22.515  1.00  0.00     0.059 A 
ATOM      8  C   UNL A   1      33.490  27.518  22.446  1.00  0.00     0.026 A 
ATOM      9  N   UNL A   1      31.439  26.673  23.396  1.00  0.00    -0.259 NA
ATOM     10  C   UNL A   1      33.468  28.598  23.338  1.00  0.00     0.019 A 
ATOM     11  C   UNL A   1      31.441  27.722  24.244  1.00  0.00     0.127 A 
BRANCH   7  12
ATOM     12  C   UNL A   1      32.466  25.335  21.614  1.00  0.00     0.169 C 
BRANCH  12  13
ATOM     13  N   UNL A   1      33.517  24.422  22.054  1.00  0.00    -0.379 N 
ATOM     14  H   UNL A   1      34.415  24.587  21.686  1.00  0.00     0.160 HD
BRANCH  13  15
ATOM     15  C   UNL A   1      33.406  23.356  22.920  1.00  0.00     0.036 A 
ATOM     16  C   UNL A   1      33.391  21.092  24.625  1.00  0.00     0.133 A 
ATOM     17  C   UNL A   1      32.230  21.499  23.964  1.00  0.00     0.050 A 
ATOM     18  C   UNL A   1      34.574  21.799  24.413  1.00  0.00     0.062 A 
ATOM     19  C   UNL A   1      32.242  22.613  23.114  1.00  0.00     0.029 A 
ATOM     20  C   UNL A   1      34.569  22.922  23.577  1.00  0.00     0.045 A 
ATOM     21  Br  UNL A   1      36.246  21.264  25.136  1.00  0.00    -0.047 Br
BRANCH  16  22
ATOM     22  O   UNL A   1      33.297  19.930  25.343  1.00  0.00    -0.496 OA
ATOM     23  C   UNL A   1      32.700  18.864  24.608  1.00  0.00     0.278 C 
ENDBRANCH  16  22
ENDBRANCH  13  15
ENDBRANCH  12  13
ENDBRANCH   7  12
ENDBRANCH   4   6
ENDBRANCH   3   4
ENDBRANCH   2   3
ENDBRANCH   1   2
BRANCH   1  24
ATOM     24  O   UNL A   1      34.832  32.607  27.863  1.00  0.00    -0.374 OA
BRANCH  24  25
ATOM     25  C   UNL A   1      34.357  33.130  29.104  1.00  0.00     0.202 C 
BRANCH  25  26
ATOM     26  C   UNL A   1      35.283  32.992  30.320  1.00  0.00     0.261 C 
BRANCH  26  27
ATOM     27  O   UNL A   1      35.684  31.629  30.549  1.00  0.00    -0.460 OA
BRANCH  27  28
ATOM     28  C   UNL A   1      36.653  31.468  31.481  1.00  0.00     0.338 C 
ATOM     29  O   UNL A   1      36.564  31.684  32.683  1.00  0.00    -0.246 OA
BRANCH  28  30
ATOM     30  C   UNL A   1      37.819  30.795  30.880  1.00  0.00     0.060 A 
ATOM     31  C   UNL A   1      38.779  30.258  31.747  1.00  0.00     0.016 A 
ATOM     32  C   UNL A   1      38.003  30.741  29.496  1.00  0.00     0.016 A 
ATOM     33  C   UNL A   1      39.949  29.700  31.235  1.00  0.00     0.010 A 
ATOM     34  C   UNL A   1      39.182  30.189  28.985  1.00  0.00     0.010 A 
ATOM     35  C   UNL A   1      40.174  29.694  29.853  1.00  0.00    -0.014 A 
BRANCH  35  36
ATOM     36  C   UNL A   1      41.499  29.294  29.322  1.00  0.00     0.031 A 
ATOM     37  C   UNL A   1      42.589  30.327  29.222  1.00  0.00     0.074 A 
ATOM     38  C   UNL A   1      41.734  28.022  28.948  1.00  0.00     0.049 A 
ATOM     39  N   UNL A   1      43.797  30.213  28.736  1.00  0.00    -0.248 NA
ATOM     40  C   UNL A   1      42.270  31.669  29.736  1.00  0.00     0.031 C 
ATOM     41  C   UNL A   1      40.770  26.927  29.035  1.00  0.00     0.029 A 
ATOM     42  N   UNL A   1      42.854  27.444  28.408  1.00  0.00    -0.354 N 
ATOM     43  C   UNL A   1      44.381  31.466  28.877  1.00  0.00     0.074 A 
ATOM     44  C   UNL A   1      43.384  32.333  29.466  1.00  0.00     0.031 C 
ATOM     45  C   UNL A   1      41.338  25.808  28.551  1.00  0.00     0.029 A 
ATOM     46  C   UNL A   1      42.690  26.117  28.090  1.00  0.00     0.049 A 
ATOM     47  H   UNL A   1      43.697  27.933  28.264  1.00  0.00     0.167 HD
ATOM     48  C   UNL A   1      45.636  31.856  28.551  1.00  0.00     0.037 A 
ATOM     49  C   UNL A   1      43.526  25.258  27.473  1.00  0.00     0.037 A 
ATOM     50  C   UNL A   1      46.624  30.985  27.966  1.00  0.00     0.049 A 
ATOM     51  C   UNL A   1      44.895  25.732  27.058  1.00  0.00     0.074 A 
ATOM     52  C   UNL A   1      47.931  31.279  27.617  1.00  0.00     0.029 A 
ATOM     53  N   UNL A   1      46.412  29.655  27.636  1.00  0.00    -0.354 N 
ATOM     54  N   UNL A   1      45.442  26.913  27.215  1.00  0.00    -0.248 NA
ATOM     55  C   UNL A   1      45.761  24.754  26.383  1.00  0.00     0.031 C 
ATOM     56  C   UNL A   1      48.493  30.141  27.030  1.00  0.00     0.029 A 
ATOM     57  C   UNL A   1      47.555  29.120  27.063  1.00  0.00     0.049 A 
ATOM     58  H   UNL A   1      45.573  29.162  27.786  1.00  0.00     0.167 HD
ATOM     59  C   UNL A   1      46.725  26.813  26.685  1.00  0.00     0.074 A 
ATOM     60  C   UNL A   1      46.874  25.454  26.210  1.00  0.00     0.031 C 
ATOM     61  C   UNL A   1      47.692  27.761  26.601  1.00  0.00     0.037 A 
BRANCH  48  62
ATOM     62  C   UNL A   1      46.006  33.292  28.795  1.00  0.00     0.058 A 
ATOM     63  C   UNL A   1      46.593  33.712  30.000  1.00  0.00     0.135 A 
ATOM     64  C   UNL A   1      45.801  34.259  27.797  1.00  0.00     0.135 A 
ATOM     65  F   UNL A   1      46.795  32.833  30.995  1.00  0.00    -0.206 F 
ATOM     66  C   UNL A   1      46.938  35.042  30.217  1.00  0.00     0.059 A 
ATOM     67  C   UNL A   1      46.165  35.590  27.982  1.00  0.00     0.059 A 
ATOM     68  F   UNL A   1      45.243  33.913  26.627  1.00  0.00    -0.206 F 
ATOM     69  C   UNL A   1      46.719  35.974  29.202  1.00  0.00     0.060 A 
BRANCH  69  70
ATOM     70  S   UNL A   1      47.173  37.696  29.498  1.00  0.00     0.124 S 
ATOM     71  O   UNL A   1      48.152  37.923  28.439  1.00  0.00    -0.237 OA
ATOM     72  O   UNL A   1      45.897  38.387  29.338  1.00  0.00    -0.237 OA
ATOM     73  O   UNL A   1      47.709  37.680  30.855  1.00  0.00    -0.744 OA
ENDBRANCH  69  70
ENDBRANCH  48  62
BRANCH  49  74
ATOM     74  C   UNL A   1      43.086  23.864  27.199  1.00  0.00     0.058 A 
ATOM     75  C   UNL A   1      42.757  23.448  25.901  1.00  0.00     0.135 A 
ATOM     76  C   UNL A   1      42.990  22.918  28.232  1.00  0.00     0.135 A 
ATOM     77  F   UNL A   1      42.821  24.319  24.882  1.00  0.00    -0.206 F 
ATOM     78  C   UNL A   1      42.336  22.148  25.636  1.00  0.00     0.059 A 
ATOM     79  C   UNL A   1      42.598  21.606  27.989  1.00  0.00     0.059 A 
ATOM     80  F   UNL A   1      43.304  23.262  29.491  1.00  0.00    -0.206 F 
ATOM     81  C   UNL A   1      42.264  21.233  26.688  1.00  0.00     0.060 A 
BRANCH  81  82
ATOM     82  S   UNL A   1      41.771  19.534  26.326  1.00  0.00     0.124 S 
ATOM     83  O   UNL A   1      42.310  18.820  27.477  1.00  0.00    -0.237 OA
ATOM     84  O   UNL A   1      40.316  19.644  26.264  1.00  0.00    -0.237 OA
ATOM     85  O   UNL A   1      42.426  19.261  25.049  1.00  0.00    -0.744 OA
ENDBRANCH  81  82
ENDBRANCH  49  74
BRANCH  61  86
ATOM     86  C   UNL A   1      49.015  27.357  26.008  1.00  0.00     0.058 A 
ATOM     87  C   UNL A   1      49.261  27.438  24.628  1.00  0.00     0.135 A 
ATOM     88  C   UNL A   1      50.068  26.942  26.838  1.00  0.00     0.135 A 
ATOM     89  F   UNL A   1      48.287  27.822  23.789  1.00  0.00    -0.206 F 
ATOM     90  C   UNL A   1      50.501  27.103  24.092  1.00  0.00     0.059 A 
ATOM     91  C   UNL A   1      51.324  26.630  26.327  1.00  0.00     0.059 A 
ATOM     92  F   UNL A   1      49.889  26.859  28.166  1.00  0.00    -0.206 F 
ATOM     93  C   UNL A   1      51.528  26.703  24.950  1.00  0.00     0.060 A 
BRANCH  93  94
ATOM     94  S   UNL A   1      53.142  26.310  24.244  1.00  0.00     0.124 S 
ATOM     95  O   UNL A   1      53.438  25.031  24.882  1.00  0.00    -0.237 OA
ATOM     96  O   UNL A   1      52.853  26.254  22.815  1.00  0.00    -0.237 OA
ATOM     97  O   UNL A   1      53.979  27.430  24.665  1.00  0.00    -0.744 OA
ENDBRANCH  93  94
ENDBRANCH  61  86
ENDBRANCH  35  36
ENDBRANCH  28  30
ENDBRANCH  27  28
ENDBRANCH  26  27
ENDBRANCH  25  26
ENDBRANCH  24  25
ENDBRANCH   1  24
TORSDOF 21
ENDMDL
MODEL 3
REMARK VINA RESULT:     -10.1      1.309      8.385
REMARK SMILES COc1ccc(NCc2ccc(C(=O)OCCOCCOC(=O)c3ccc(-c4c5nc(c(-c6c(F)cc(S(=O)(=O)[O-])cc6F)c6ccc([nH]6)c(-c6c(F)cc(S(=O)(=O)[O-])cc6F)c6nc(c(-c7c(F)cc(S(=O)(=O)[O-])cc7F)c7ccc4[nH]7)C=C6)C=C5)cc3)cn2)cc1Br
REMARK SMILES IDX 17 1 16 2 15 3 13 4 14 5 12 6 9 7 10 8 91 9 11 10 90 11 8 12
REMARK SMILES IDX 7 13 6 15 3 16 4 17 93 18 5 19 92 20 94 21 2 22 1 23 18 24
REMARK SMILES IDX 19 25 20 26 21 27 22 28 23 29 24 30 25 31 89 32 26 33 88 34
REMARK SMILES IDX 27 35 28 36 29 37 82 38 30 39 87 40 81 41 83 42 31 43 86 44
REMARK SMILES IDX 80 45 79 46 32 48 66 49 45 50 65 51 46 52 49 53 64 54 84 55
REMARK SMILES IDX 47 56 48 57 63 59 85 60 50 61 33 62 34 63 43 64 35 65 36 66
REMARK SMILES IDX 42 67 44 68 37 69 38 70 39 71 40 72 41 73 67 74 68 75 77 76
REMARK SMILES IDX 69 77 70 78 76 79 78 80 71 81 72 82 73 83 74 84 75 85 51 86
REMARK SMILES IDX 52 87 61 88 53 89 54 90 60 91 62 92 55 93 56 94 57 95 58 96
REMARK SMILES IDX 59 97
REMARK H PARENT 7 14 83 47 49 58
REMARK Flexibility Score: inf
ROOT
ATOM      1  C   UNL A   1      39.332  21.428  25.772  1.00  0.00     0.202 C 
ENDROOT
BRANCH   1   2
ATOM      2  C   UNL A   1      38.019  22.212  25.816  1.00  0.00     0.261 C 
BRANCH   2   3
ATOM      3  O   UNL A   1      37.184  21.911  24.686  1.00  0.00    -0.460 OA
BRANCH   3   4
ATOM      4  C   UNL A   1      36.266  20.945  24.911  1.00  0.00     0.339 C 
ATOM      5  O   UNL A   1      36.473  19.743  25.013  1.00  0.00    -0.246 OA
BRANCH   4   6
ATOM      6  C   UNL A   1      34.946  21.532  25.185  1.00  0.00     0.078 A 
ATOM      7  C   UNL A   1      32.478  22.732  25.413  1.00  0.00     0.059 A 
ATOM      8  C   UNL A   1      33.093  22.230  26.560  1.00  0.00     0.026 A 
ATOM      9  N   UNL A   1      33.041  22.612  24.179  1.00  0.00    -0.259 NA
ATOM     10  C   UNL A   1      34.348  21.619  26.443  1.00  0.00     0.019 A 
ATOM     11  C   UNL A   1      34.250  22.020  24.093  1.00  0.00     0.127 A 
BRANCH   7  12
ATOM     12  C   UNL A   1      31.139  23.460  25.478  1.00  0.00     0.169 C 
BRANCH  12  13
ATOM     13  N   UNL A   1      31.386  24.897  25.562  1.00  0.00    -0.379 N 
ATOM     14  H   UNL A   1      31.788  25.218  26.401  1.00  0.00     0.160 HD
BRANCH  13  15
ATOM     15  C   UNL A   1      31.125  25.858  24.610  1.00  0.00     0.036 A 
ATOM     16  C   UNL A   1      30.773  27.959  22.740  1.00  0.00     0.133 A 
ATOM     17  C   UNL A   1      29.674  27.343  23.342  1.00  0.00     0.050 A 
ATOM     18  C   UNL A   1      32.057  27.546  23.093  1.00  0.00     0.062 A 
ATOM     19  C   UNL A   1      29.850  26.312  24.274  1.00  0.00     0.029 A 
ATOM     20  C   UNL A   1      32.221  26.500  24.010  1.00  0.00     0.045 A 
ATOM     21  Br  UNL A   1      33.632  28.395  22.457  1.00  0.00    -0.047 Br
BRANCH  16  22
ATOM     22  O   UNL A   1      30.495  29.027  21.930  1.00  0.00    -0.496 OA
ATOM     23  C   UNL A   1      29.348  29.763  22.348  1.00  0.00     0.278 C 
ENDBRANCH  16  22
ENDBRANCH  13  15
ENDBRANCH  12  13
ENDBRANCH   7  12
ENDBRANCH   4   6
ENDBRANCH   3   4
ENDBRANCH   2   3
ENDBRANCH   1   2
BRANCH   1  24
ATOM     24  O   UNL A   1      39.965  21.169  27.025  1.00  0.00    -0.374 OA
BRANCH  24  25
ATOM     25  C   UNL A   1      40.914  22.129  27.491  1.00  0.00     0.202 C 
BRANCH  25  26
ATOM     26  C   UNL A   1      41.863  22.735  26.449  1.00  0.00     0.261 C 
BRANCH  26  27
ATOM     27  O   UNL A   1      41.575  24.120  26.188  1.00  0.00    -0.460 OA
BRANCH  27  28
ATOM     28  C   UNL A   1      42.573  24.980  26.498  1.00  0.00     0.338 C 
ATOM     29  O   UNL A   1      43.662  25.076  25.947  1.00  0.00    -0.246 OA
BRANCH  28  30
ATOM     30  C   UNL A   1      42.103  25.954  27.500  1.00  0.00     0.060 A 
ATOM     31  C   UNL A   1      42.879  27.101  27.707  1.00  0.00     0.016 A 
ATOM     32  C   UNL A   1      40.957  25.725  28.265  1.00  0.00     0.016 A 
ATOM     33  C   UNL A   1      42.536  28.005  28.711  1.00  0.00     0.010 A 
ATOM     34  C   UNL A   1      40.619  26.630  29.277  1.00  0.00     0.010 A 
ATOM     35  C   UNL A   1      41.425  27.757  29.525  1.00  0.00    -0.014 A 
BRANCH  35  36
ATOM     36  C   UNL A   1      41.179  28.602  30.718  1.00  0.00     0.031 A 
ATOM     37  C   UNL A   1      40.073  29.621  30.676  1.00  0.00     0.074 A 
ATOM     38  C   UNL A   1      41.922  28.453  31.830  1.00  0.00     0.049 A 
ATOM     39  N   UNL A   1      39.723  30.502  31.577  1.00  0.00    -0.248 NA
ATOM     40  C   UNL A   1      39.256  29.654  29.452  1.00  0.00     0.031 C 
ATOM     41  C   UNL A   1      42.994  27.474  32.003  1.00  0.00     0.029 A 
ATOM     42  N   UNL A   1      41.893  29.135  33.020  1.00  0.00    -0.354 N 
ATOM     43  C   UNL A   1      38.652  31.198  31.029  1.00  0.00     0.074 A 
ATOM     44  C   UNL A   1      38.430  30.658  29.705  1.00  0.00     0.031 C 
ATOM     45  C   UNL A   1      43.531  27.628  33.226  1.00  0.00     0.029 A 
ATOM     46  C   UNL A   1      42.865  28.736  33.907  1.00  0.00     0.049 A 
ATOM     47  H   UNL A   1      41.238  29.842  33.220  1.00  0.00     0.167 HD
ATOM     48  C   UNL A   1      37.917  32.192  31.582  1.00  0.00     0.037 A 
ATOM     49  C   UNL A   1      43.195  29.228  35.118  1.00  0.00     0.037 A 
ATOM     50  C   UNL A   1      38.144  32.723  32.902  1.00  0.00     0.049 A 
ATOM     51  C   UNL A   1      42.406  30.379  35.686  1.00  0.00     0.074 A 
ATOM     52  C   UNL A   1      37.441  33.717  33.562  1.00  0.00     0.029 A 
ATOM     53  N   UNL A   1      39.153  32.311  33.759  1.00  0.00    -0.354 N 
ATOM     54  N   UNL A   1      41.384  31.015  35.166  1.00  0.00    -0.248 NA
ATOM     55  C   UNL A   1      42.815  30.879  37.007  1.00  0.00     0.031 C 
ATOM     56  C   UNL A   1      38.057  33.940  34.797  1.00  0.00     0.029 A 
ATOM     57  C   UNL A   1      39.109  33.047  34.932  1.00  0.00     0.049 A 
ATOM     58  H   UNL A   1      39.804  31.598  33.565  1.00  0.00     0.167 HD
ATOM     59  C   UNL A   1      41.010  31.970  36.107  1.00  0.00     0.074 A 
ATOM     60  C   UNL A   1      41.911  31.822  37.231  1.00  0.00     0.031 C 
ATOM     61  C   UNL A   1      40.009  32.884  36.047  1.00  0.00     0.037 A 
BRANCH  48  62
ATOM     62  C   UNL A   1      36.815  32.789  30.752  1.00  0.00     0.058 A 
ATOM     63  C   UNL A   1      37.073  33.734  29.746  1.00  0.00     0.135 A 
ATOM     64  C   UNL A   1      35.483  32.387  30.945  1.00  0.00     0.135 A 
ATOM     65  F   UNL A   1      38.326  34.167  29.531  1.00  0.00    -0.206 F 
ATOM     66  C   UNL A   1      36.048  34.278  28.978  1.00  0.00     0.059 A 
ATOM     67  C   UNL A   1      34.445  32.898  30.170  1.00  0.00     0.059 A 
ATOM     68  F   UNL A   1      35.180  31.489  31.894  1.00  0.00    -0.206 F 
ATOM     69  C   UNL A   1      34.737  33.854  29.199  1.00  0.00     0.060 A 
BRANCH  69  70
ATOM     70  S   UNL A   1      33.418  34.568  28.194  1.00  0.00     0.124 S 
ATOM     71  O   UNL A   1      34.180  35.203  27.123  1.00  0.00    -0.237 OA
ATOM     72  O   UNL A   1      32.647  33.390  27.809  1.00  0.00    -0.237 OA
ATOM     73  O   UNL A   1      32.746  35.482  29.112  1.00  0.00    -0.744 OA
ENDBRANCH  69  70
ENDBRANCH  48  62
BRANCH  49  74
ATOM     74  C   UNL A   1      44.336  28.641  35.871  1.00  0.00     0.058 A 
ATOM     75  C   UNL A   1      45.648  29.094  35.670  1.00  0.00     0.135 A 
ATOM     76  C   UNL A   1      44.134  27.615  36.808  1.00  0.00     0.135 A 
ATOM     77  F   UNL A   1      45.893  30.064  34.777  1.00  0.00    -0.206 F 
ATOM     78  C   UNL A   1      46.722  28.545  36.364  1.00  0.00     0.059 A 
ATOM     79  C   UNL A   1      45.188  27.068  37.532  1.00  0.00     0.059 A 
ATOM     80  F   UNL A   1      42.896  27.153  37.044  1.00  0.00    -0.206 F 
ATOM     81  C   UNL A   1      46.480  27.534  37.296  1.00  0.00     0.060 A 
BRANCH  81  82
ATOM     82  S   UNL A   1      47.874  26.866  38.231  1.00  0.00     0.124 S 
ATOM     83  O   UNL A   1      48.817  27.977  38.185  1.00  0.00    -0.237 OA
ATOM     84  O   UNL A   1      47.268  26.594  39.531  1.00  0.00    -0.237 OA
ATOM     85  O   UNL A   1      48.254  25.682  37.465  1.00  0.00    -0.744 OA
ENDBRANCH  81  82
ENDBRANCH  49  74
BRANCH  61  86
ATOM     86  C   UNL A   1      39.806  33.776  37.243  1.00  0.00     0.058 A 
ATOM     87  C   UNL A   1      40.500  34.987  37.388  1.00  0.00     0.135 A 
ATOM     88  C   UNL A   1      38.859  33.441  38.224  1.00  0.00     0.135 A 
ATOM     89  F   UNL A   1      41.421  35.351  36.483  1.00  0.00    -0.206 F 
ATOM     90  C   UNL A   1      40.276  35.826  38.475  1.00  0.00     0.059 A 
ATOM     91  C   UNL A   1      38.597  34.278  39.304  1.00  0.00     0.059 A 
ATOM     92  F   UNL A   1      38.159  32.300  38.127  1.00  0.00    -0.206 F 
ATOM     93  C   UNL A   1      39.319  35.465  39.427  1.00  0.00     0.060 A 
BRANCH  93  94
ATOM     94  S   UNL A   1      39.010  36.582  40.811  1.00  0.00     0.124 S 
ATOM     95  O   UNL A   1      40.347  36.725  41.378  1.00  0.00    -0.237 OA
ATOM     96  O   UNL A   1      38.474  37.764  40.144  1.00  0.00    -0.237 OA
ATOM     97  O   UNL A   1      38.054  35.847  41.634  1.00  0.00    -0.744 OA
ENDBRANCH  93  94
ENDBRANCH  61  86
ENDBRANCH  35  36
ENDBRANCH  28  30
ENDBRANCH  27  28
ENDBRANCH  26  27
ENDBRANCH  25  26
ENDBRANCH  24  25
ENDBRANCH   1  24
TORSDOF 21
ENDMDL
