MODEL 1
REMARK VINA RESULT:     -11.4      0.000      0.000
REMARK SMILES C/C(=N\Nc1nc(-c2ccc(Cl)cc2)cs1)c1nnn(-c2ccc(C(=O)OCCOCCOC(=O)c3ccc(-c4c5nc(c(-c6c(F)cc(S(=O)(=O)[O-])cc6F)c6ccc([nH]6)c(-c6c(F)cc(S(=O)(=O)[O-])cc6F)c6nc(c(-c7c(F)cc(S(=O)(=O)[O-])cc7F)c7ccc4[nH]7)C=C6)C=C5)cc3)cc2)c1C
REMARK SMILES IDX 29 1 28 2 27 3 25 4 26 5 24 6 21 7 22 8 103 9 23 10 102 11
REMARK SMILES IDX 20 12 17 13 18 14 104 15 19 16 105 17 2 18 1 19 3 20 4 21
REMARK SMILES IDX 5 23 6 24 16 25 7 26 15 27 8 28 9 29 14 30 10 31 13 32 11 33
REMARK SMILES IDX 12 34 30 35 31 36 32 37 33 38 34 39 35 40 36 41 37 42 101 43
REMARK SMILES IDX 38 44 100 45 39 46 40 47 41 48 94 49 42 50 99 51 93 52 95 53
REMARK SMILES IDX 43 54 98 55 92 56 91 57 44 59 78 60 57 61 77 62 58 63 61 64
REMARK SMILES IDX 76 65 96 66 59 67 60 68 75 70 97 71 62 72 45 73 46 74 55 75
REMARK SMILES IDX 47 76 48 77 54 78 56 79 49 80 50 81 51 82 52 83 53 84 79 85
REMARK SMILES IDX 80 86 89 87 81 88 82 89 88 90 90 91 83 92 84 93 85 94 86 95
REMARK SMILES IDX 87 96 63 97 64 98 73 99 65 100 66 101 72 102 74 103 67 104
REMARK SMILES IDX 68 105 69 106 70 107 71 108
REMARK H PARENT 4 22 95 58 61 69
REMARK Flexibility Score: inf
ROOT
ATOM      1  C   UNL A   1      36.302  21.149  25.342  1.00  0.00     0.202 C 
ENDROOT
BRANCH   1   2
ATOM      2  C   UNL A   1      34.811  21.018  25.651  1.00  0.00     0.261 C 
BRANCH   2   3
ATOM      3  O   UNL A   1      34.078  20.456  24.555  1.00  0.00    -0.460 OA
BRANCH   3   4
ATOM      4  C   UNL A   1      32.763  20.257  24.806  1.00  0.00     0.338 C 
ATOM      5  O   UNL A   1      32.240  19.247  25.251  1.00  0.00    -0.246 OA
BRANCH   4   6
ATOM      6  C   UNL A   1      32.009  21.507  24.585  1.00  0.00     0.060 A 
ATOM      7  C   UNL A   1      31.057  24.081  24.287  1.00  0.00     0.067 A 
ATOM      8  C   UNL A   1      31.720  23.487  23.211  1.00  0.00     0.029 A 
ATOM      9  C   UNL A   1      30.710  23.338  25.425  1.00  0.00     0.029 A 
ATOM     10  C   UNL A   1      32.217  22.196  23.377  1.00  0.00     0.018 A 
ATOM     11  C   UNL A   1      31.188  22.043  25.578  1.00  0.00     0.018 A 
BRANCH   7  12
ATOM     12  N   UNL A   1      31.028  25.490  24.366  1.00  0.00    -0.217 N 
ATOM     13  C   UNL A   1      31.589  27.548  24.821  1.00  0.00     0.132 A 
ATOM     14  N   UNL A   1      30.783  27.545  23.715  1.00  0.00    -0.128 NA
ATOM     15  C   UNL A   1      31.789  26.244  25.246  1.00  0.00     0.071 A 
ATOM     16  N   UNL A   1      30.542  26.279  23.384  1.00  0.00    -0.061 NA
ATOM     17  C   UNL A   1      32.730  25.680  26.252  1.00  0.00     0.069 C 
BRANCH  13  18
ATOM     18  C   UNL A   1      32.258  28.725  25.359  1.00  0.00     0.087 C 
ATOM     19  C   UNL A   1      31.419  29.978  25.396  1.00  0.00     0.071 C 
ATOM     20  N   UNL A   1      33.515  28.576  25.661  1.00  0.00    -0.176 NA
BRANCH  20  21
ATOM     21  N   UNL A   1      34.377  29.599  25.990  1.00  0.00    -0.252 N 
ATOM     22  H   UNL A   1      34.859  29.988  25.225  1.00  0.00     0.193 HD
BRANCH  21  23
ATOM     23  C   UNL A   1      34.676  30.165  27.187  1.00  0.00     0.203 A 
ATOM     24  N   UNL A   1      33.999  31.115  27.789  1.00  0.00    -0.219 NA
ATOM     25  S   UNL A   1      36.105  29.690  28.040  1.00  0.00    -0.103 S 
ATOM     26  C   UNL A   1      34.764  31.714  28.768  1.00  0.00     0.084 A 
ATOM     27  C   UNL A   1      35.952  31.074  29.048  1.00  0.00     0.097 A 
BRANCH  26  28
ATOM     28  C   UNL A   1      34.328  32.966  29.359  1.00  0.00     0.001 A 
ATOM     29  C   UNL A   1      33.664  33.908  28.562  1.00  0.00     0.012 A 
ATOM     30  C   UNL A   1      34.654  33.294  30.682  1.00  0.00     0.012 A 
ATOM     31  C   UNL A   1      33.298  35.149  29.089  1.00  0.00     0.021 A 
ATOM     32  C   UNL A   1      34.298  34.542  31.207  1.00  0.00     0.021 A 
ATOM     33  C   UNL A   1      33.614  35.460  30.410  1.00  0.00     0.041 A 
ATOM     34  Cl  UNL A   1      33.170  36.990  31.058  1.00  0.00    -0.084 Cl
ENDBRANCH  26  28
ENDBRANCH  21  23
ENDBRANCH  20  21
ENDBRANCH  13  18
ENDBRANCH   7  12
ENDBRANCH   4   6
ENDBRANCH   3   4
ENDBRANCH   2   3
ENDBRANCH   1   2
BRANCH   1  35
ATOM     35  O   UNL A   1      36.884  22.452  25.282  1.00  0.00    -0.374 OA
BRANCH  35  36
ATOM     36  C   UNL A   1      38.145  22.721  25.889  1.00  0.00     0.202 C 
BRANCH  36  37
ATOM     37  C   UNL A   1      39.167  21.601  26.031  1.00  0.00     0.261 C 
BRANCH  37  38
ATOM     38  O   UNL A   1      40.355  22.047  26.656  1.00  0.00    -0.460 OA
BRANCH  38  39
ATOM     39  C   UNL A   1      41.481  21.656  26.009  1.00  0.00     0.338 C 
ATOM     40  O   UNL A   1      41.824  20.523  25.745  1.00  0.00    -0.246 OA
BRANCH  39  41
ATOM     41  C   UNL A   1      42.309  22.846  25.777  1.00  0.00     0.060 A 
ATOM     42  C   UNL A   1      43.674  22.596  25.624  1.00  0.00     0.016 A 
ATOM     43  C   UNL A   1      41.804  24.093  26.164  1.00  0.00     0.016 A 
ATOM     44  C   UNL A   1      44.549  23.490  26.189  1.00  0.00     0.010 A 
ATOM     45  C   UNL A   1      42.672  24.963  26.759  1.00  0.00     0.010 A 
ATOM     46  C   UNL A   1      44.011  24.588  26.859  1.00  0.00    -0.014 A 
BRANCH  46  47
ATOM     47  C   UNL A   1      44.890  25.414  27.651  1.00  0.00     0.031 A 
ATOM     48  C   UNL A   1      44.626  25.250  29.095  1.00  0.00     0.074 A 
ATOM     49  C   UNL A   1      45.902  26.094  27.080  1.00  0.00     0.049 A 
ATOM     50  N   UNL A   1      44.062  26.088  29.899  1.00  0.00    -0.248 NA
ATOM     51  C   UNL A   1      44.760  23.888  29.647  1.00  0.00     0.031 C 
ATOM     52  C   UNL A   1      46.349  26.066  25.683  1.00  0.00     0.029 A 
ATOM     53  N   UNL A   1      46.829  26.887  27.678  1.00  0.00    -0.354 N 
ATOM     54  C   UNL A   1      44.032  25.429  31.123  1.00  0.00     0.074 A 
ATOM     55  C   UNL A   1      44.171  24.032  30.832  1.00  0.00     0.031 C 
ATOM     56  C   UNL A   1      47.580  26.619  25.594  1.00  0.00     0.029 A 
ATOM     57  C   UNL A   1      47.954  27.145  26.894  1.00  0.00     0.049 A 
ATOM     58  H   UNL A   1      46.717  27.249  28.586  1.00  0.00     0.167 HD
ATOM     59  C   UNL A   1      44.257  26.098  32.285  1.00  0.00     0.037 A 
ATOM     60  C   UNL A   1      49.123  27.658  27.360  1.00  0.00     0.037 A 
ATOM     61  C   UNL A   1      44.067  27.517  32.107  1.00  0.00     0.049 A 
ATOM     62  C   UNL A   1      48.802  28.319  28.660  1.00  0.00     0.074 A 
ATOM     63  C   UNL A   1      43.002  28.306  31.720  1.00  0.00     0.029 A 
ATOM     64  N   UNL A   1      45.191  28.292  31.942  1.00  0.00    -0.354 N 
ATOM     65  N   UNL A   1      48.019  29.362  28.763  1.00  0.00    -0.248 NA
ATOM     66  C   UNL A   1      48.921  27.513  29.868  1.00  0.00     0.031 C 
ATOM     67  C   UNL A   1      43.573  29.332  30.911  1.00  0.00     0.029 A 
ATOM     68  C   UNL A   1      44.958  29.162  30.905  1.00  0.00     0.049 A 
ATOM     69  H   UNL A   1      46.017  28.234  32.473  1.00  0.00     0.167 HD
ATOM     70  C   UNL A   1      47.238  29.120  29.888  1.00  0.00     0.074 A 
ATOM     71  C   UNL A   1      47.877  27.987  30.555  1.00  0.00     0.031 C 
ATOM     72  C   UNL A   1      45.988  29.661  30.016  1.00  0.00     0.037 A 
BRANCH  59  73
ATOM     73  C   UNL A   1      45.035  25.509  33.441  1.00  0.00     0.058 A 
ATOM     74  C   UNL A   1      44.416  25.428  34.703  1.00  0.00     0.135 A 
ATOM     75  C   UNL A   1      46.431  25.265  33.437  1.00  0.00     0.135 A 
ATOM     76  F   UNL A   1      43.097  25.643  34.831  1.00  0.00    -0.206 F 
ATOM     77  C   UNL A   1      45.138  25.197  35.875  1.00  0.00     0.059 A 
ATOM     78  C   UNL A   1      47.157  24.975  34.583  1.00  0.00     0.059 A 
ATOM     79  F   UNL A   1      47.193  25.387  32.346  1.00  0.00    -0.206 F 
ATOM     80  C   UNL A   1      46.512  24.987  35.803  1.00  0.00     0.060 A 
BRANCH  80  81
ATOM     81  S   UNL A   1      47.467  24.797  37.315  1.00  0.00     0.124 S 
ATOM     82  O   UNL A   1      46.436  24.967  38.332  1.00  0.00    -0.237 OA
ATOM     83  O   UNL A   1      48.004  23.450  37.161  1.00  0.00    -0.237 OA
ATOM     84  O   UNL A   1      48.453  25.872  37.227  1.00  0.00    -0.744 OA
ENDBRANCH  80  81
ENDBRANCH  59  73
BRANCH  60  85
ATOM     85  C   UNL A   1      50.505  27.244  26.979  1.00  0.00     0.058 A 
ATOM     86  C   UNL A   1      51.009  25.969  27.294  1.00  0.00     0.135 A 
ATOM     87  C   UNL A   1      51.267  27.995  26.060  1.00  0.00     0.135 A 
ATOM     88  F   UNL A   1      50.336  25.167  28.134  1.00  0.00    -0.206 F 
ATOM     89  C   UNL A   1      52.178  25.457  26.709  1.00  0.00     0.059 A 
ATOM     90  C   UNL A   1      52.437  27.513  25.473  1.00  0.00     0.059 A 
ATOM     91  F   UNL A   1      50.849  29.195  25.632  1.00  0.00    -0.206 F 
ATOM     92  C   UNL A   1      52.876  26.235  25.785  1.00  0.00     0.060 A 
BRANCH  92  93
ATOM     93  S   UNL A   1      54.295  25.531  24.905  1.00  0.00     0.124 S 
ATOM     94  O   UNL A   1      54.350  26.363  23.707  1.00  0.00    -0.237 OA
ATOM     95  O   UNL A   1      55.378  25.720  25.863  1.00  0.00    -0.237 OA
ATOM     96  O   UNL A   1      53.900  24.143  24.682  1.00  0.00    -0.744 OA
ENDBRANCH  92  93
ENDBRANCH  60  85
BRANCH  72  97
ATOM     97  C   UNL A   1      45.561  30.711  29.017  1.00  0.00     0.058 A 
ATOM     98  C   UNL A   1      45.887  32.077  29.116  1.00  0.00     0.135 A 
ATOM     99  C   UNL A   1      44.960  30.288  27.823  1.00  0.00     0.135 A 
ATOM    100  F   UNL A   1      46.553  32.547  30.178  1.00  0.00    -0.206 F 
ATOM    101  C   UNL A   1      45.602  32.983  28.091  1.00  0.00     0.059 A 
ATOM    102  C   UNL A   1      44.692  31.167  26.776  1.00  0.00     0.059 A 
ATOM    103  F   UNL A   1      44.681  28.987  27.638  1.00  0.00    -0.206 F 
ATOM    104  C   UNL A   1      45.008  32.516  26.919  1.00  0.00     0.060 A 
BRANCH 104 105
ATOM    105  S   UNL A   1      44.722  33.667  25.554  1.00  0.00     0.124 S 
ATOM    106  O   UNL A   1      46.069  34.153  25.277  1.00  0.00    -0.237 OA
ATOM    107  O   UNL A   1      44.135  32.806  24.532  1.00  0.00    -0.237 OA
ATOM    108  O   UNL A   1      43.808  34.652  26.126  1.00  0.00    -0.744 OA
ENDBRANCH 104 105
ENDBRANCH  72  97
ENDBRANCH  46  47
ENDBRANCH  39  41
ENDBRANCH  38  39
ENDBRANCH  37  38
ENDBRANCH  36  37
ENDBRANCH  35  36
ENDBRANCH   1  35
TORSDOF 22
ENDMDL
MODEL 2
REMARK VINA RESULT:     -11.2      3.221      4.497
REMARK SMILES C/C(=N\Nc1nc(-c2ccc(Cl)cc2)cs1)c1nnn(-c2ccc(C(=O)OCCOCCOC(=O)c3ccc(-c4c5nc(c(-c6c(F)cc(S(=O)(=O)[O-])cc6F)c6ccc([nH]6)c(-c6c(F)cc(S(=O)(=O)[O-])cc6F)c6nc(c(-c7c(F)cc(S(=O)(=O)[O-])cc7F)c7ccc4[nH]7)C=C6)C=C5)cc3)cc2)c1C
REMARK SMILES IDX 29 1 28 2 27 3 25 4 26 5 24 6 21 7 22 8 103 9 23 10 102 11
REMARK SMILES IDX 20 12 17 13 18 14 104 15 19 16 105 17 2 18 1 19 3 20 4 21
REMARK SMILES IDX 5 23 6 24 16 25 7 26 15 27 8 28 9 29 14 30 10 31 13 32 11 33
REMARK SMILES IDX 12 34 30 35 31 36 32 37 33 38 34 39 35 40 36 41 37 42 101 43
REMARK SMILES IDX 38 44 100 45 39 46 40 47 41 48 94 49 42 50 99 51 93 52 95 53
REMARK SMILES IDX 43 54 98 55 92 56 91 57 44 59 78 60 57 61 77 62 58 63 61 64
REMARK SMILES IDX 76 65 96 66 59 67 60 68 75 70 97 71 62 72 45 73 46 74 55 75
REMARK SMILES IDX 47 76 48 77 54 78 56 79 49 80 50 81 51 82 52 83 53 84 79 85
REMARK SMILES IDX 80 86 89 87 81 88 82 89 88 90 90 91 83 92 84 93 85 94 86 95
REMARK SMILES IDX 87 96 63 97 64 98 73 99 65 100 66 101 72 102 74 103 67 104
REMARK SMILES IDX 68 105 69 106 70 107 71 108
REMARK H PARENT 4 22 95 58 61 69
REMARK Flexibility Score: inf
ROOT
ATOM      1  C   UNL A   1      39.272  21.372  26.048  1.00  0.00     0.202 C 
ENDROOT
BRANCH   1   2
ATOM      2  C   UNL A   1      38.074  21.192  25.117  1.00  0.00     0.261 C 
BRANCH   2   3
ATOM      3  O   UNL A   1      36.848  21.620  25.722  1.00  0.00    -0.460 OA
BRANCH   3   4
ATOM      4  C   UNL A   1      35.761  20.902  25.353  1.00  0.00     0.338 C 
ATOM      5  O   UNL A   1      35.745  19.766  24.906  1.00  0.00    -0.246 OA
BRANCH   4   6
ATOM      6  C   UNL A   1      34.527  21.640  25.686  1.00  0.00     0.060 A 
ATOM      7  C   UNL A   1      32.500  23.449  26.175  1.00  0.00     0.067 A 
ATOM      8  C   UNL A   1      32.695  23.006  24.866  1.00  0.00     0.029 A 
ATOM      9  C   UNL A   1      33.180  22.858  27.251  1.00  0.00     0.029 A 
ATOM     10  C   UNL A   1      33.736  22.110  24.624  1.00  0.00     0.018 A 
ATOM     11  C   UNL A   1      34.202  21.948  27.008  1.00  0.00     0.018 A 
BRANCH   7  12
ATOM     12  N   UNL A   1      31.870  24.695  26.378  1.00  0.00    -0.217 N 
ATOM     13  C   UNL A   1      31.437  26.831  26.297  1.00  0.00     0.132 A 
ATOM     14  N   UNL A   1      30.267  26.152  26.504  1.00  0.00    -0.128 NA
ATOM     15  C   UNL A   1      32.479  25.925  26.184  1.00  0.00     0.071 A 
ATOM     16  N   UNL A   1      30.530  24.850  26.439  1.00  0.00    -0.061 NA
ATOM     17  C   UNL A   1      33.893  26.113  25.754  1.00  0.00     0.069 C 
BRANCH  13  18
ATOM     18  C   UNL A   1      31.535  28.267  26.069  1.00  0.00     0.087 C 
ATOM     19  C   UNL A   1      31.298  28.708  24.647  1.00  0.00     0.071 C 
ATOM     20  N   UNL A   1      31.898  28.982  27.095  1.00  0.00    -0.176 NA
BRANCH  20  21
ATOM     21  N   UNL A   1      32.243  30.314  27.049  1.00  0.00    -0.252 N 
ATOM     22  H   UNL A   1      31.530  30.909  26.720  1.00  0.00     0.193 HD
BRANCH  21  23
ATOM     23  C   UNL A   1      33.396  30.950  27.377  1.00  0.00     0.203 A 
ATOM     24  N   UNL A   1      34.600  30.426  27.380  1.00  0.00    -0.219 NA
ATOM     25  S   UNL A   1      33.360  32.594  27.916  1.00  0.00    -0.103 S 
ATOM     26  C   UNL A   1      35.469  31.204  28.116  1.00  0.00     0.084 A 
ATOM     27  C   UNL A   1      34.970  32.430  28.496  1.00  0.00     0.097 A 
BRANCH  26  28
ATOM     28  C   UNL A   1      36.767  30.674  28.493  1.00  0.00     0.001 A 
ATOM     29  C   UNL A   1      37.705  31.520  29.100  1.00  0.00     0.012 A 
ATOM     30  C   UNL A   1      37.138  29.364  28.162  1.00  0.00     0.012 A 
ATOM     31  C   UNL A   1      38.985  31.053  29.407  1.00  0.00     0.021 A 
ATOM     32  C   UNL A   1      38.424  28.899  28.458  1.00  0.00     0.021 A 
ATOM     33  C   UNL A   1      39.339  29.744  29.087  1.00  0.00     0.041 A 
ATOM     34  Cl  UNL A   1      40.917  29.169  29.457  1.00  0.00    -0.084 Cl
ENDBRANCH  26  28
ENDBRANCH  21  23
ENDBRANCH  20  21
ENDBRANCH  13  18
ENDBRANCH   7  12
ENDBRANCH   4   6
ENDBRANCH   3   4
ENDBRANCH   2   3
ENDBRANCH   1   2
BRANCH   1  35
ATOM     35  O   UNL A   1      39.330  22.526  26.886  1.00  0.00    -0.374 OA
BRANCH  35  36
ATOM     36  C   UNL A   1      40.485  23.361  26.909  1.00  0.00     0.202 C 
BRANCH  36  37
ATOM     37  C   UNL A   1      41.834  22.791  26.491  1.00  0.00     0.261 C 
BRANCH  37  38
ATOM     38  O   UNL A   1      42.519  23.654  25.604  1.00  0.00    -0.460 OA
BRANCH  38  39
ATOM     39  C   UNL A   1      43.506  23.036  24.908  1.00  0.00     0.338 C 
ATOM     40  O   UNL A   1      43.411  22.044  24.218  1.00  0.00    -0.246 OA
BRANCH  39  41
ATOM     41  C   UNL A   1      44.774  23.703  25.228  1.00  0.00     0.060 A 
ATOM     42  C   UNL A   1      45.620  22.989  26.079  1.00  0.00     0.016 A 
ATOM     43  C   UNL A   1      44.854  25.091  25.067  1.00  0.00     0.016 A 
ATOM     44  C   UNL A   1      46.313  23.700  27.025  1.00  0.00     0.010 A 
ATOM     45  C   UNL A   1      45.514  25.796  26.032  1.00  0.00     0.010 A 
ATOM     46  C   UNL A   1      46.135  25.083  27.056  1.00  0.00    -0.014 A 
BRANCH  46  47
ATOM     47  C   UNL A   1      46.668  25.825  28.173  1.00  0.00     0.031 A 
ATOM     48  C   UNL A   1      45.596  26.250  29.096  1.00  0.00     0.074 A 
ATOM     49  C   UNL A   1      47.996  25.932  28.363  1.00  0.00     0.049 A 
ATOM     50  N   UNL A   1      45.128  27.439  29.276  1.00  0.00    -0.248 NA
ATOM     51  C   UNL A   1      44.765  25.184  29.690  1.00  0.00     0.031 C 
ATOM     52  C   UNL A   1      49.082  25.297  27.607  1.00  0.00     0.029 A 
ATOM     53  N   UNL A   1      48.657  26.564  29.368  1.00  0.00    -0.354 N 
ATOM     54  C   UNL A   1      44.120  27.279  30.220  1.00  0.00     0.074 A 
ATOM     55  C   UNL A   1      43.753  25.893  30.185  1.00  0.00     0.031 C 
ATOM     56  C   UNL A   1      50.233  25.390  28.312  1.00  0.00     0.029 A 
ATOM     57  C   UNL A   1      49.994  26.188  29.500  1.00  0.00     0.049 A 
ATOM     58  H   UNL A   1      48.229  27.229  29.953  1.00  0.00     0.167 HD
ATOM     59  C   UNL A   1      43.921  28.203  31.197  1.00  0.00     0.037 A 
ATOM     60  C   UNL A   1      50.772  26.453  30.583  1.00  0.00     0.037 A 
ATOM     61  C   UNL A   1      44.527  29.463  30.844  1.00  0.00     0.049 A 
ATOM     62  C   UNL A   1      50.112  27.582  31.306  1.00  0.00     0.074 A 
ATOM     63  C   UNL A   1      44.363  30.355  29.802  1.00  0.00     0.029 A 
ATOM     64  N   UNL A   1      45.747  29.760  31.406  1.00  0.00    -0.354 N 
ATOM     65  N   UNL A   1      49.980  28.781  30.800  1.00  0.00    -0.248 NA
ATOM     66  C   UNL A   1      49.150  27.239  32.345  1.00  0.00     0.031 C 
ATOM     67  C   UNL A   1      45.675  30.822  29.501  1.00  0.00     0.029 A 
ATOM     68  C   UNL A   1      46.562  30.251  30.416  1.00  0.00     0.049 A 
ATOM     69  H   UNL A   1      45.993  29.641  32.352  1.00  0.00     0.167 HD
ATOM     70  C   UNL A   1      48.696  29.183  31.150  1.00  0.00     0.074 A 
ATOM     71  C   UNL A   1      48.252  28.209  32.145  1.00  0.00     0.031 C 
ATOM     72  C   UNL A   1      48.001  30.084  30.391  1.00  0.00     0.037 A 
BRANCH  59  73
ATOM     73  C   UNL A   1      43.542  27.839  32.615  1.00  0.00     0.058 A 
ATOM     74  C   UNL A   1      44.369  26.953  33.332  1.00  0.00     0.135 A 
ATOM     75  C   UNL A   1      42.284  28.105  33.211  1.00  0.00     0.135 A 
ATOM     76  F   UNL A   1      45.583  26.623  32.864  1.00  0.00    -0.206 F 
ATOM     77  C   UNL A   1      43.949  26.325  34.506  1.00  0.00     0.059 A 
ATOM     78  C   UNL A   1      41.872  27.538  34.408  1.00  0.00     0.059 A 
ATOM     79  F   UNL A   1      41.341  28.851  32.628  1.00  0.00    -0.206 F 
ATOM     80  C   UNL A   1      42.692  26.615  35.026  1.00  0.00     0.060 A 
BRANCH  80  81
ATOM     81  S   UNL A   1      42.099  25.731  36.476  1.00  0.00     0.124 S 
ATOM     82  O   UNL A   1      40.690  25.550  36.148  1.00  0.00    -0.237 OA
ATOM     83  O   UNL A   1      42.926  24.530  36.452  1.00  0.00    -0.237 OA
ATOM     84  O   UNL A   1      42.379  26.656  37.571  1.00  0.00    -0.744 OA
ENDBRANCH  80  81
ENDBRANCH  59  73
BRANCH  60  85
ATOM     85  C   UNL A   1      51.757  25.540  31.230  1.00  0.00     0.058 A 
ATOM     86  C   UNL A   1      53.120  25.874  31.335  1.00  0.00     0.135 A 
ATOM     87  C   UNL A   1      51.335  24.437  32.003  1.00  0.00     0.135 A 
ATOM     88  F   UNL A   1      53.608  26.928  30.662  1.00  0.00    -0.206 F 
ATOM     89  C   UNL A   1      54.002  25.178  32.176  1.00  0.00     0.059 A 
ATOM     90  C   UNL A   1      52.194  23.725  32.839  1.00  0.00     0.059 A 
ATOM     91  F   UNL A   1      50.046  24.070  32.038  1.00  0.00    -0.206 F 
ATOM     92  C   UNL A   1      53.522  24.113  32.938  1.00  0.00     0.060 A 
BRANCH  92  93
ATOM     93  S   UNL A   1      54.607  23.308  34.145  1.00  0.00     0.124 S 
ATOM     94  O   UNL A   1      54.771  24.354  35.149  1.00  0.00    -0.237 OA
ATOM     95  O   UNL A   1      53.814  22.153  34.551  1.00  0.00    -0.237 OA
ATOM     96  O   UNL A   1      55.805  22.995  33.369  1.00  0.00    -0.744 OA
ENDBRANCH  92  93
ENDBRANCH  60  85
BRANCH  72  97
ATOM     97  C   UNL A   1      48.741  30.808  29.289  1.00  0.00     0.058 A 
ATOM     98  C   UNL A   1      48.808  30.363  27.955  1.00  0.00     0.135 A 
ATOM     99  C   UNL A   1      49.240  32.090  29.555  1.00  0.00     0.135 A 
ATOM    100  F   UNL A   1      48.264  29.194  27.595  1.00  0.00    -0.206 F 
ATOM    101  C   UNL A   1      49.371  31.142  26.941  1.00  0.00     0.059 A 
ATOM    102  C   UNL A   1      49.780  32.898  28.557  1.00  0.00     0.059 A 
ATOM    103  F   UNL A   1      49.149  32.601  30.794  1.00  0.00    -0.206 F 
ATOM    104  C   UNL A   1      49.851  32.414  27.252  1.00  0.00     0.060 A 
BRANCH 104 105
ATOM    105  S   UNL A   1      50.496  33.462  25.927  1.00  0.00     0.124 S 
ATOM    106  O   UNL A   1      51.151  32.490  25.059  1.00  0.00    -0.237 OA
ATOM    107  O   UNL A   1      49.285  34.077  25.392  1.00  0.00    -0.237 OA
ATOM    108  O   UNL A   1      51.393  34.380  26.626  1.00  0.00    -0.744 OA
ENDBRANCH 104 105
ENDBRANCH  72  97
ENDBRANCH  46  47
ENDBRANCH  39  41
ENDBRANCH  38  39
ENDBRANCH  37  38
ENDBRANCH  36  37
ENDBRANCH  35  36
ENDBRANCH   1  35
TORSDOF 22
ENDMDL
MODEL 3
REMARK VINA RESULT:     -11.1      2.463      7.603
REMARK SMILES C/C(=N\Nc1nc(-c2ccc(Cl)cc2)cs1)c1nnn(-c2ccc(C(=O)OCCOCCOC(=O)c3ccc(-c4c5nc(c(-c6c(F)cc(S(=O)(=O)[O-])cc6F)c6ccc([nH]6)c(-c6c(F)cc(S(=O)(=O)[O-])cc6F)c6nc(c(-c7c(F)cc(S(=O)(=O)[O-])cc7F)c7ccc4[nH]7)C=C6)C=C5)cc3)cc2)c1C
REMARK SMILES IDX 29 1 28 2 27 3 25 4 26 5 24 6 21 7 22 8 103 9 23 10 102 11
REMARK SMILES IDX 20 12 17 13 18 14 104 15 19 16 105 17 2 18 1 19 3 20 4 21
REMARK SMILES IDX 5 23 6 24 16 25 7 26 15 27 8 28 9 29 14 30 10 31 13 32 11 33
REMARK SMILES IDX 12 34 30 35 31 36 32 37 33 38 34 39 35 40 36 41 37 42 101 43
REMARK SMILES IDX 38 44 100 45 39 46 40 47 41 48 94 49 42 50 99 51 93 52 95 53
REMARK SMILES IDX 43 54 98 55 92 56 91 57 44 59 78 60 57 61 77 62 58 63 61 64
REMARK SMILES IDX 76 65 96 66 59 67 60 68 75 70 97 71 62 72 45 73 46 74 55 75
REMARK SMILES IDX 47 76 48 77 54 78 56 79 49 80 50 81 51 82 52 83 53 84 79 85
REMARK SMILES IDX 80 86 89 87 81 88 82 89 88 90 90 91 83 92 84 93 85 94 86 95
REMARK SMILES IDX 87 96 63 97 64 98 73 99 65 100 66 101 72 102 74 103 67 104
REMARK SMILES IDX 68 105 69 106 70 107 71 108
REMARK H PARENT 4 22 95 58 61 69
REMARK Flexibility Score: inf
ROOT
ATOM      1  C   UNL A   1      38.662  21.138  25.499  1.00  0.00     0.202 C 
ENDROOT
BRANCH   1   2
ATOM      2  C   UNL A   1      37.367  20.663  24.845  1.00  0.00     0.261 C 
BRANCH   2   3
ATOM      3  O   UNL A   1      36.220  20.916  25.665  1.00  0.00    -0.460 OA
BRANCH   3   4
ATOM      4  C   UNL A   1      35.070  20.372  25.203  1.00  0.00     0.338 C 
ATOM      5  O   UNL A   1      34.934  19.292  24.649  1.00  0.00    -0.246 OA
BRANCH   4   6
ATOM      6  C   UNL A   1      33.921  21.222  25.572  1.00  0.00     0.060 A 
ATOM      7  C   UNL A   1      32.089  23.213  26.126  1.00  0.00     0.067 A 
ATOM      8  C   UNL A   1      32.208  22.764  24.809  1.00  0.00     0.029 A 
ATOM      9  C   UNL A   1      32.738  22.550  27.180  1.00  0.00     0.029 A 
ATOM     10  C   UNL A   1      33.151  21.775  24.534  1.00  0.00     0.018 A 
ATOM     11  C   UNL A   1      33.661  21.549  26.904  1.00  0.00     0.018 A 
BRANCH   7  12
ATOM     12  N   UNL A   1      31.588  24.512  26.353  1.00  0.00    -0.217 N 
ATOM     13  C   UNL A   1      31.375  26.682  26.319  1.00  0.00     0.132 A 
ATOM     14  N   UNL A   1      30.140  26.122  26.499  1.00  0.00    -0.128 NA
ATOM     15  C   UNL A   1      32.321  25.677  26.194  1.00  0.00     0.071 A 
ATOM     16  N   UNL A   1      30.270  24.801  26.404  1.00  0.00    -0.061 NA
ATOM     17  C   UNL A   1      33.752  25.730  25.782  1.00  0.00     0.069 C 
BRANCH  13  18
ATOM     18  C   UNL A   1      31.622  28.106  26.127  1.00  0.00     0.087 C 
ATOM     19  C   UNL A   1      31.462  28.598  24.711  1.00  0.00     0.071 C 
ATOM     20  N   UNL A   1      32.032  28.758  27.176  1.00  0.00    -0.176 NA
BRANCH  20  21
ATOM     21  N   UNL A   1      32.510  30.050  27.168  1.00  0.00    -0.252 N 
ATOM     22  H   UNL A   1      31.854  30.725  26.878  1.00  0.00     0.193 HD
BRANCH  21  23
ATOM     23  C   UNL A   1      33.729  30.553  27.490  1.00  0.00     0.203 A 
ATOM     24  N   UNL A   1      34.855  29.882  27.554  1.00  0.00    -0.219 NA
ATOM     25  S   UNL A   1      33.892  32.218  27.933  1.00  0.00    -0.103 S 
ATOM     26  C   UNL A   1      35.803  30.586  28.267  1.00  0.00     0.084 A 
ATOM     27  C   UNL A   1      35.457  31.887  28.563  1.00  0.00     0.097 A 
BRANCH  26  28
ATOM     28  C   UNL A   1      37.015  29.921  28.707  1.00  0.00     0.001 A 
ATOM     29  C   UNL A   1      38.071  29.745  27.803  1.00  0.00     0.012 A 
ATOM     30  C   UNL A   1      37.106  29.355  29.987  1.00  0.00     0.012 A 
ATOM     31  C   UNL A   1      39.219  29.045  28.183  1.00  0.00     0.021 A 
ATOM     32  C   UNL A   1      38.250  28.643  30.363  1.00  0.00     0.021 A 
ATOM     33  C   UNL A   1      39.305  28.499  29.462  1.00  0.00     0.041 A 
ATOM     34  Cl  UNL A   1      40.715  27.630  29.928  1.00  0.00    -0.084 Cl
ENDBRANCH  26  28
ENDBRANCH  21  23
ENDBRANCH  20  21
ENDBRANCH  13  18
ENDBRANCH   7  12
ENDBRANCH   4   6
ENDBRANCH   3   4
ENDBRANCH   2   3
ENDBRANCH   1   2
BRANCH   1  35
ATOM     35  O   UNL A   1      38.645  22.331  26.283  1.00  0.00    -0.374 OA
BRANCH  35  36
ATOM     36  C   UNL A   1      39.853  22.901  26.780  1.00  0.00     0.202 C 
BRANCH  36  37
ATOM     37  C   UNL A   1      41.157  22.124  26.662  1.00  0.00     0.261 C 
BRANCH  37  38
ATOM     38  O   UNL A   1      42.021  22.688  25.695  1.00  0.00    -0.460 OA
BRANCH  38  39
ATOM     39  C   UNL A   1      43.072  21.890  25.383  1.00  0.00     0.338 C 
ATOM     40  O   UNL A   1      43.073  20.682  25.276  1.00  0.00    -0.246 OA
BRANCH  39  41
ATOM     41  C   UNL A   1      44.275  22.727  25.311  1.00  0.00     0.060 A 
ATOM     42  C   UNL A   1      45.297  22.371  26.193  1.00  0.00     0.016 A 
ATOM     43  C   UNL A   1      44.161  24.008  24.756  1.00  0.00     0.016 A 
ATOM     44  C   UNL A   1      46.002  23.388  26.788  1.00  0.00     0.010 A 
ATOM     45  C   UNL A   1      44.836  25.020  25.377  1.00  0.00     0.010 A 
ATOM     46  C   UNL A   1      45.657  24.697  26.456  1.00  0.00    -0.014 A 
BRANCH  46  47
ATOM     47  C   UNL A   1      46.219  25.778  27.228  1.00  0.00     0.031 A 
ATOM     48  C   UNL A   1      47.692  25.801  27.128  1.00  0.00     0.074 A 
ATOM     49  C   UNL A   1      45.428  26.703  27.805  1.00  0.00     0.049 A 
ATOM     50  N   UNL A   1      48.555  25.477  28.032  1.00  0.00    -0.248 NA
ATOM     51  C   UNL A   1      48.267  25.940  25.775  1.00  0.00     0.031 C 
ATOM     52  C   UNL A   1      43.972  26.853  27.700  1.00  0.00     0.029 A 
ATOM     53  N   UNL A   1      45.792  27.789  28.535  1.00  0.00    -0.354 N 
ATOM     54  C   UNL A   1      49.789  25.646  27.413  1.00  0.00     0.074 A 
ATOM     55  C   UNL A   1      49.538  25.617  26.001  1.00  0.00     0.031 C 
ATOM     56  C   UNL A   1      43.615  28.080  28.147  1.00  0.00     0.029 A 
ATOM     57  C   UNL A   1      44.789  28.748  28.676  1.00  0.00     0.049 A 
ATOM     58  H   UNL A   1      46.688  27.891  28.930  1.00  0.00     0.167 HD
ATOM     59  C   UNL A   1      50.851  26.153  28.093  1.00  0.00     0.037 A 
ATOM     60  C   UNL A   1      44.988  30.023  29.103  1.00  0.00     0.037 A 
ATOM     61  C   UNL A   1      50.652  26.038  29.517  1.00  0.00     0.049 A 
ATOM     62  C   UNL A   1      46.296  30.023  29.825  1.00  0.00     0.074 A 
ATOM     63  C   UNL A   1      50.451  24.980  30.382  1.00  0.00     0.029 A 
ATOM     64  N   UNL A   1      50.231  27.161  30.192  1.00  0.00    -0.354 N 
ATOM     65  N   UNL A   1      46.507  29.358  30.932  1.00  0.00    -0.248 NA
ATOM     66  C   UNL A   1      47.490  30.322  29.045  1.00  0.00     0.031 C 
ATOM     67  C   UNL A   1      49.500  25.451  31.333  1.00  0.00     0.029 A 
ATOM     68  C   UNL A   1      49.224  26.790  31.048  1.00  0.00     0.049 A 
ATOM     69  H   UNL A   1      50.588  28.071  30.080  1.00  0.00     0.167 HD
ATOM     70  C   UNL A   1      47.775  28.806  30.788  1.00  0.00     0.074 A 
ATOM     71  C   UNL A   1      48.350  29.479  29.624  1.00  0.00     0.031 C 
ATOM     72  C   UNL A   1      48.126  27.653  31.434  1.00  0.00     0.037 A 
BRANCH  59  73
ATOM     73  C   UNL A   1      51.854  27.102  27.475  1.00  0.00     0.058 A 
ATOM     74  C   UNL A   1      51.394  28.321  26.943  1.00  0.00     0.135 A 
ATOM     75  C   UNL A   1      53.190  26.765  27.145  1.00  0.00     0.135 A 
ATOM     76  F   UNL A   1      50.143  28.743  27.186  1.00  0.00    -0.206 F 
ATOM     77  C   UNL A   1      52.174  29.105  26.091  1.00  0.00     0.059 A 
ATOM     78  C   UNL A   1      54.002  27.560  26.349  1.00  0.00     0.059 A 
ATOM     79  F   UNL A   1      53.760  25.607  27.490  1.00  0.00    -0.206 F 
ATOM     80  C   UNL A   1      53.473  28.706  25.790  1.00  0.00     0.060 A 
BRANCH  80  81
ATOM     81  S   UNL A   1      54.447  29.649  24.610  1.00  0.00     0.124 S 
ATOM     82  O   UNL A   1      55.732  29.729  25.294  1.00  0.00    -0.237 OA
ATOM     83  O   UNL A   1      54.397  28.794  23.430  1.00  0.00    -0.237 OA
ATOM     84  O   UNL A   1      53.712  30.906  24.496  1.00  0.00    -0.744 OA
ENDBRANCH  80  81
ENDBRANCH  59  73
BRANCH  60  85
ATOM     85  C   UNL A   1      44.358  31.263  28.564  1.00  0.00     0.058 A 
ATOM     86  C   UNL A   1      43.760  32.217  29.409  1.00  0.00     0.135 A 
ATOM     87  C   UNL A   1      44.567  31.670  27.230  1.00  0.00     0.135 A 
ATOM     88  F   UNL A   1      43.551  31.933  30.704  1.00  0.00    -0.206 F 
ATOM     89  C   UNL A   1      43.421  33.505  28.965  1.00  0.00     0.059 A 
ATOM     90  C   UNL A   1      44.230  32.940  26.764  1.00  0.00     0.059 A 
ATOM     91  F   UNL A   1      45.192  30.871  26.353  1.00  0.00    -0.206 F 
ATOM     92  C   UNL A   1      43.676  33.861  27.641  1.00  0.00     0.060 A 
BRANCH  92  93
ATOM     93  S   UNL A   1      43.391  35.565  27.096  1.00  0.00     0.124 S 
ATOM     94  O   UNL A   1      43.000  35.375  25.703  1.00  0.00    -0.237 OA
ATOM     95  O   UNL A   1      42.335  36.007  28.000  1.00  0.00    -0.237 OA
ATOM     96  O   UNL A   1      44.688  36.207  27.297  1.00  0.00    -0.744 OA
ENDBRANCH  92  93
ENDBRANCH  60  85
BRANCH  72  97
ATOM     97  C   UNL A   1      47.186  27.112  32.488  1.00  0.00     0.058 A 
ATOM     98  C   UNL A   1      46.171  26.170  32.235  1.00  0.00     0.135 A 
ATOM     99  C   UNL A   1      47.447  27.419  33.830  1.00  0.00     0.135 A 
ATOM    100  F   UNL A   1      45.926  25.745  30.989  1.00  0.00    -0.206 F 
ATOM    101  C   UNL A   1      45.430  25.585  33.265  1.00  0.00     0.059 A 
ATOM    102  C   UNL A   1      46.742  26.828  34.876  1.00  0.00     0.059 A 
ATOM    103  F   UNL A   1      48.445  28.261  34.144  1.00  0.00    -0.206 F 
ATOM    104  C   UNL A   1      45.728  25.917  34.586  1.00  0.00     0.060 A 
BRANCH 104 105
ATOM    105  S   UNL A   1      44.835  25.094  35.926  1.00  0.00     0.124 S 
ATOM    106  O   UNL A   1      45.920  24.699  36.818  1.00  0.00    -0.237 OA
ATOM    107  O   UNL A   1      43.960  26.152  36.422  1.00  0.00    -0.237 OA
ATOM    108  O   UNL A   1      44.148  23.995  35.252  1.00  0.00    -0.744 OA
ENDBRANCH 104 105
ENDBRANCH  72  97
ENDBRANCH  46  47
ENDBRANCH  39  41
ENDBRANCH  38  39
ENDBRANCH  37  38
ENDBRANCH  36  37
ENDBRANCH  35  36
ENDBRANCH   1  35
TORSDOF 22
ENDMDL
