MODEL 1
REMARK VINA RESULT:      -9.9      0.000      0.000
REMARK SMILES O=C(/C=C/c1cccs1)NCC(=O)OCCOCCOC(=O)c1ccc(-c2c3nc(c(-c4c(F)cc(S(=O)(=O)[O-])cc4F)c4ccc([nH]4)c(-c4c(F)cc(S(=O)(=O)[O-])cc4F)c4nc(c(-c5c(F)cc(S(=O)(=O)[O-])cc5F)c5ccc2[nH]5)C=C4)C=C3)cc1
REMARK SMILES IDX 17 1 16 2 15 3 14 4 12 5 13 6 11 7 10 8 1 9 2 10 3 12 4 13
REMARK SMILES IDX 5 14 6 15 9 16 7 17 8 18 18 19 19 20 20 21 21 22 22 23 23 24
REMARK SMILES IDX 24 25 88 26 25 27 87 28 26 29 27 30 28 31 81 32 29 33 86 34
REMARK SMILES IDX 80 35 82 36 30 37 85 38 79 39 78 40 31 42 65 43 44 44 64 45
REMARK SMILES IDX 45 46 48 47 63 48 83 49 46 50 47 51 62 53 84 54 49 55 32 56
REMARK SMILES IDX 33 57 42 58 34 59 35 60 41 61 43 62 36 63 37 64 38 65 39 66
REMARK SMILES IDX 40 67 66 68 67 69 76 70 68 71 69 72 75 73 77 74 70 75 71 76
REMARK SMILES IDX 72 77 73 78 74 79 50 80 51 81 60 82 52 83 53 84 59 85 61 86
REMARK SMILES IDX 54 87 55 88 56 89 57 90 58 91
REMARK H PARENT 10 11 82 41 48 52
REMARK Flexibility Score: inf
ROOT
ATOM      1  O   UNL A   1      46.347  22.571  25.802  1.00  0.00    -0.374 OA
ENDROOT
BRANCH   1   2
ATOM      2  C   UNL A   1      45.466  21.511  25.424  1.00  0.00     0.202 C 
BRANCH   2   3
ATOM      3  C   UNL A   1      46.136  20.218  24.953  1.00  0.00     0.261 C 
BRANCH   3   4
ATOM      4  O   UNL A   1      45.490  19.071  25.532  1.00  0.00    -0.462 OA
BRANCH   4   5
ATOM      5  C   UNL A   1      44.226  18.830  25.089  1.00  0.00     0.325 C 
ATOM      6  O   UNL A   1      43.908  18.699  23.912  1.00  0.00    -0.250 OA
BRANCH   5   7
ATOM      7  C   UNL A   1      43.248  18.562  26.229  1.00  0.00     0.239 C 
BRANCH   7   8
ATOM      8  N   UNL A   1      41.853  18.947  26.055  1.00  0.00    -0.342 N 
ATOM      9  O   UNL A   1      41.981  20.713  27.496  1.00  0.00    -0.270 OA
ATOM     10  C   UNL A   1      41.353  20.059  26.671  1.00  0.00     0.244 C 
ATOM     11  H   UNL A   1      41.265  18.400  25.486  1.00  0.00     0.164 HD
BRANCH  10  12
ATOM     12  C   UNL A   1      40.029  20.558  26.217  1.00  0.00     0.072 C 
ATOM     13  C   UNL A   1      39.609  21.828  26.115  1.00  0.00     0.024 C 
BRANCH  13  14
ATOM     14  C   UNL A   1      38.255  22.119  25.766  1.00  0.00     0.027 A 
ATOM     15  C   UNL A   1      37.494  23.256  26.001  1.00  0.00     0.020 A 
ATOM     16  S   UNL A   1      37.333  20.963  24.879  1.00  0.00    -0.144 S 
ATOM     17  C   UNL A   1      36.167  23.163  25.491  1.00  0.00     0.012 A 
ATOM     18  C   UNL A   1      35.943  21.957  24.870  1.00  0.00     0.065 A 
ENDBRANCH  13  14
ENDBRANCH  10  12
ENDBRANCH   7   8
ENDBRANCH   5   7
ENDBRANCH   4   5
ENDBRANCH   3   4
ENDBRANCH   2   3
ENDBRANCH   1   2
BRANCH   1  19
ATOM     19  C   UNL A   1      46.209  23.821  25.132  1.00  0.00     0.202 C 
BRANCH  19  20
ATOM     20  C   UNL A   1      44.788  24.388  25.002  1.00  0.00     0.261 C 
BRANCH  20  21
ATOM     21  O   UNL A   1      44.297  24.958  26.229  1.00  0.00    -0.460 OA
BRANCH  21  22
ATOM     22  C   UNL A   1      42.984  24.714  26.472  1.00  0.00     0.338 C 
ATOM     23  O   UNL A   1      42.347  23.728  26.126  1.00  0.00    -0.246 OA
BRANCH  22  24
ATOM     24  C   UNL A   1      42.417  25.726  27.383  1.00  0.00     0.060 A 
ATOM     25  C   UNL A   1      43.095  26.947  27.492  1.00  0.00     0.016 A 
ATOM     26  C   UNL A   1      41.308  25.457  28.191  1.00  0.00     0.016 A 
ATOM     27  C   UNL A   1      42.698  27.886  28.443  1.00  0.00     0.010 A 
ATOM     28  C   UNL A   1      40.919  26.399  29.152  1.00  0.00     0.010 A 
ATOM     29  C   UNL A   1      41.631  27.603  29.306  1.00  0.00    -0.014 A 
BRANCH  29  30
ATOM     30  C   UNL A   1      41.357  28.507  30.451  1.00  0.00     0.031 A 
ATOM     31  C   UNL A   1      42.200  28.394  31.694  1.00  0.00     0.074 A 
ATOM     32  C   UNL A   1      40.395  29.445  30.374  1.00  0.00     0.049 A 
ATOM     33  N   UNL A   1      42.120  29.064  32.814  1.00  0.00    -0.248 NA
ATOM     34  C   UNL A   1      43.276  27.390  31.669  1.00  0.00     0.031 C 
ATOM     35  C   UNL A   1      39.540  29.681  29.212  1.00  0.00     0.029 A 
ATOM     36  N   UNL A   1      39.974  30.370  31.297  1.00  0.00    -0.354 N 
ATOM     37  C   UNL A   1      43.129  28.563  33.629  1.00  0.00     0.074 A 
ATOM     38  C   UNL A   1      43.791  27.513  32.884  1.00  0.00     0.031 C 
ATOM     39  C   UNL A   1      38.685  30.679  29.497  1.00  0.00     0.029 A 
ATOM     40  C   UNL A   1      38.915  31.133  30.867  1.00  0.00     0.049 A 
ATOM     41  H   UNL A   1      40.391  30.476  32.182  1.00  0.00     0.167 HD
ATOM     42  C   UNL A   1      43.476  28.947  34.881  1.00  0.00     0.037 A 
ATOM     43  C   UNL A   1      38.201  32.077  31.513  1.00  0.00     0.037 A 
ATOM     44  C   UNL A   1      42.817  29.993  35.620  1.00  0.00     0.049 A 
ATOM     45  C   UNL A   1      38.567  32.448  32.926  1.00  0.00     0.074 A 
ATOM     46  C   UNL A   1      43.107  30.463  36.890  1.00  0.00     0.029 A 
ATOM     47  N   UNL A   1      41.735  30.726  35.160  1.00  0.00    -0.354 N 
ATOM     48  N   UNL A   1      39.536  31.977  33.677  1.00  0.00    -0.248 NA
ATOM     49  C   UNL A   1      37.748  33.479  33.580  1.00  0.00     0.031 C 
ATOM     50  C   UNL A   1      42.173  31.453  37.212  1.00  0.00     0.029 A 
ATOM     51  C   UNL A   1      41.331  31.632  36.127  1.00  0.00     0.049 A 
ATOM     52  H   UNL A   1      41.315  30.620  34.276  1.00  0.00     0.167 HD
ATOM     53  C   UNL A   1      39.458  32.674  34.879  1.00  0.00     0.074 A 
ATOM     54  C   UNL A   1      38.352  33.601  34.754  1.00  0.00     0.031 C 
ATOM     55  C   UNL A   1      40.235  32.559  35.985  1.00  0.00     0.037 A 
BRANCH  42  56
ATOM     56  C   UNL A   1      44.609  28.213  35.543  1.00  0.00     0.058 A 
ATOM     57  C   UNL A   1      45.938  28.652  35.431  1.00  0.00     0.135 A 
ATOM     58  C   UNL A   1      44.358  27.073  36.324  1.00  0.00     0.135 A 
ATOM     59  F   UNL A   1      46.234  29.725  34.682  1.00  0.00    -0.206 F 
ATOM     60  C   UNL A   1      46.982  27.971  36.049  1.00  0.00     0.059 A 
ATOM     61  C   UNL A   1      45.384  26.391  36.971  1.00  0.00     0.059 A 
ATOM     62  F   UNL A   1      43.106  26.611  36.464  1.00  0.00    -0.206 F 
ATOM     63  C   UNL A   1      46.696  26.840  36.816  1.00  0.00     0.060 A 
BRANCH  63  64
ATOM     64  S   UNL A   1      48.060  25.966  37.611  1.00  0.00     0.124 S 
ATOM     65  O   UNL A   1      49.175  26.871  37.353  1.00  0.00    -0.237 OA
ATOM     66  O   UNL A   1      47.616  25.888  39.000  1.00  0.00    -0.237 OA
ATOM     67  O   UNL A   1      48.109  24.692  36.900  1.00  0.00    -0.744 OA
ENDBRANCH  63  64
ENDBRANCH  42  56
BRANCH  43  68
ATOM     68  C   UNL A   1      37.055  32.734  30.830  1.00  0.00     0.058 A 
ATOM     69  C   UNL A   1      35.739  32.299  31.042  1.00  0.00     0.135 A 
ATOM     70  C   UNL A   1      37.255  33.812  29.954  1.00  0.00     0.135 A 
ATOM     71  F   UNL A   1      35.497  31.265  31.861  1.00  0.00    -0.206 F 
ATOM     72  C   UNL A   1      34.661  32.903  30.402  1.00  0.00     0.059 A 
ATOM     73  C   UNL A   1      36.192  34.447  29.320  1.00  0.00     0.059 A 
ATOM     74  F   UNL A   1      38.496  34.270  29.725  1.00  0.00    -0.206 F 
ATOM     75  C   UNL A   1      34.898  33.978  29.544  1.00  0.00     0.060 A 
BRANCH  75  76
ATOM     76  S   UNL A   1      33.488  34.788  28.756  1.00  0.00     0.124 S 
ATOM     77  O   UNL A   1      34.095  36.018  28.263  1.00  0.00    -0.237 OA
ATOM     78  O   UNL A   1      33.102  33.814  27.741  1.00  0.00    -0.237 OA
ATOM     79  O   UNL A   1      32.539  34.948  29.854  1.00  0.00    -0.744 OA
ENDBRANCH  75  76
ENDBRANCH  43  68
BRANCH  55  80
ATOM     80  C   UNL A   1      39.949  33.481  37.137  1.00  0.00     0.058 A 
ATOM     81  C   UNL A   1      40.613  34.707  37.284  1.00  0.00     0.135 A 
ATOM     82  C   UNL A   1      38.952  33.158  38.073  1.00  0.00     0.135 A 
ATOM     83  F   UNL A   1      41.578  35.061  36.421  1.00  0.00    -0.206 F 
ATOM     84  C   UNL A   1      40.313  35.577  38.329  1.00  0.00     0.059 A 
ATOM     85  C   UNL A   1      38.619  34.022  39.112  1.00  0.00     0.059 A 
ATOM     86  F   UNL A   1      38.279  32.002  37.972  1.00  0.00    -0.206 F 
ATOM     87  C   UNL A   1      39.312  35.225  39.238  1.00  0.00     0.060 A 
BRANCH  87  88
ATOM     88  S   UNL A   1      38.901  36.377  40.566  1.00  0.00     0.124 S 
ATOM     89  O   UNL A   1      40.167  36.462  41.285  1.00  0.00    -0.237 OA
ATOM     90  O   UNL A   1      38.507  37.577  39.831  1.00  0.00    -0.237 OA
ATOM     91  O   UNL A   1      37.818  35.704  41.276  1.00  0.00    -0.744 OA
ENDBRANCH  87  88
ENDBRANCH  55  80
ENDBRANCH  29  30
ENDBRANCH  22  24
ENDBRANCH  21  22
ENDBRANCH  20  21
ENDBRANCH  19  20
ENDBRANCH   1  19
TORSDOF 20
ENDMDL
MODEL 2
REMARK VINA RESULT:      -9.8      5.701     13.753
REMARK SMILES O=C(/C=C/c1cccs1)NCC(=O)OCCOCCOC(=O)c1ccc(-c2c3nc(c(-c4c(F)cc(S(=O)(=O)[O-])cc4F)c4ccc([nH]4)c(-c4c(F)cc(S(=O)(=O)[O-])cc4F)c4nc(c(-c5c(F)cc(S(=O)(=O)[O-])cc5F)c5ccc2[nH]5)C=C4)C=C3)cc1
REMARK SMILES IDX 17 1 16 2 15 3 14 4 12 5 13 6 11 7 10 8 1 9 2 10 3 12 4 13
REMARK SMILES IDX 5 14 6 15 9 16 7 17 8 18 18 19 19 20 20 21 21 22 22 23 23 24
REMARK SMILES IDX 24 25 88 26 25 27 87 28 26 29 27 30 28 31 81 32 29 33 86 34
REMARK SMILES IDX 80 35 82 36 30 37 85 38 79 39 78 40 31 42 65 43 44 44 64 45
REMARK SMILES IDX 45 46 48 47 63 48 83 49 46 50 47 51 62 53 84 54 49 55 32 56
REMARK SMILES IDX 33 57 42 58 34 59 35 60 41 61 43 62 36 63 37 64 38 65 39 66
REMARK SMILES IDX 40 67 66 68 67 69 76 70 68 71 69 72 75 73 77 74 70 75 71 76
REMARK SMILES IDX 72 77 73 78 74 79 50 80 51 81 60 82 52 83 53 84 59 85 61 86
REMARK SMILES IDX 54 87 55 88 56 89 57 90 58 91
REMARK H PARENT 10 11 82 41 48 52
REMARK Flexibility Score: inf
ROOT
ATOM      1  O   UNL A   1      35.113  34.418  33.928  1.00  0.00    -0.374 OA
ENDROOT
BRANCH   1   2
ATOM      2  C   UNL A   1      35.129  35.419  32.907  1.00  0.00     0.202 C 
BRANCH   2   3
ATOM      3  C   UNL A   1      33.770  35.775  32.297  1.00  0.00     0.261 C 
BRANCH   3   4
ATOM      4  O   UNL A   1      33.372  34.785  31.333  1.00  0.00    -0.462 OA
BRANCH   4   5
ATOM      5  C   UNL A   1      33.263  35.231  30.052  1.00  0.00     0.325 C 
ATOM      6  O   UNL A   1      32.528  36.142  29.686  1.00  0.00    -0.250 OA
BRANCH   5   7
ATOM      7  C   UNL A   1      34.288  34.590  29.121  1.00  0.00     0.239 C 
BRANCH   7   8
ATOM      8  N   UNL A   1      35.685  34.561  29.538  1.00  0.00    -0.342 N 
ATOM      9  O   UNL A   1      36.359  33.256  27.791  1.00  0.00    -0.270 OA
ATOM     10  C   UNL A   1      36.628  33.935  28.775  1.00  0.00     0.244 C 
ATOM     11  H   UNL A   1      35.951  34.999  30.379  1.00  0.00     0.164 HD
BRANCH  10  12
ATOM     12  C   UNL A   1      38.055  34.198  29.096  1.00  0.00     0.072 C 
ATOM     13  C   UNL A   1      38.720  33.912  30.226  1.00  0.00     0.024 C 
BRANCH  13  14
ATOM     14  C   UNL A   1      40.070  34.344  30.403  1.00  0.00     0.027 A 
ATOM     15  C   UNL A   1      40.953  34.917  29.499  1.00  0.00     0.020 A 
ATOM     16  S   UNL A   1      40.813  34.214  31.954  1.00  0.00    -0.144 S 
ATOM     17  C   UNL A   1      42.227  35.212  30.063  1.00  0.00     0.012 A 
ATOM     18  C   UNL A   1      42.290  34.864  31.391  1.00  0.00     0.065 A 
ENDBRANCH  13  14
ENDBRANCH  10  12
ENDBRANCH   7   8
ENDBRANCH   5   7
ENDBRANCH   4   5
ENDBRANCH   3   4
ENDBRANCH   2   3
ENDBRANCH   1   2
BRANCH   1  19
ATOM     19  C   UNL A   1      35.150  33.053  33.520  1.00  0.00     0.202 C 
BRANCH  19  20
ATOM     20  C   UNL A   1      36.409  32.584  32.776  1.00  0.00     0.261 C 
BRANCH  20  21
ATOM     21  O   UNL A   1      36.345  31.201  32.381  1.00  0.00    -0.460 OA
BRANCH  21  22
ATOM     22  C   UNL A   1      36.223  31.008  31.043  1.00  0.00     0.338 C 
ATOM     23  O   UNL A   1      35.340  31.445  30.318  1.00  0.00    -0.246 OA
BRANCH  22  24
ATOM     24  C   UNL A   1      37.411  30.326  30.496  1.00  0.00     0.060 A 
ATOM     25  C   UNL A   1      38.255  29.674  31.406  1.00  0.00     0.016 A 
ATOM     26  C   UNL A   1      37.754  30.403  29.144  1.00  0.00     0.016 A 
ATOM     27  C   UNL A   1      39.469  29.138  30.976  1.00  0.00     0.010 A 
ATOM     28  C   UNL A   1      38.978  29.873  28.717  1.00  0.00     0.010 A 
ATOM     29  C   UNL A   1      39.857  29.268  29.636  1.00  0.00    -0.014 A 
BRANCH  29  30
ATOM     30  C   UNL A   1      41.236  28.893  29.235  1.00  0.00     0.031 A 
ATOM     31  C   UNL A   1      42.325  29.931  29.292  1.00  0.00     0.074 A 
ATOM     32  C   UNL A   1      41.526  27.634  28.859  1.00  0.00     0.049 A 
ATOM     33  N   UNL A   1      43.588  29.827  28.969  1.00  0.00    -0.248 NA
ATOM     34  C   UNL A   1      41.937  31.264  29.781  1.00  0.00     0.031 C 
ATOM     35  C   UNL A   1      40.569  26.530  28.801  1.00  0.00     0.029 A 
ATOM     36  N   UNL A   1      42.712  27.075  28.451  1.00  0.00    -0.354 N 
ATOM     37  C   UNL A   1      44.145  31.078  29.209  1.00  0.00     0.074 A 
ATOM     38  C   UNL A   1      43.077  31.933  29.680  1.00  0.00     0.031 C 
ATOM     39  C   UNL A   1      41.204  25.426  28.368  1.00  0.00     0.029 A 
ATOM     40  C   UNL A   1      42.602  25.752  28.094  1.00  0.00     0.049 A 
ATOM     41  H   UNL A   1      43.559  27.574  28.416  1.00  0.00     0.167 HD
ATOM     42  C   UNL A   1      45.432  31.476  29.056  1.00  0.00     0.037 A 
ATOM     43  C   UNL A   1      43.521  24.907  27.586  1.00  0.00     0.037 A 
ATOM     44  C   UNL A   1      46.494  30.623  28.589  1.00  0.00     0.049 A 
ATOM     45  C   UNL A   1      44.932  25.387  27.369  1.00  0.00     0.074 A 
ATOM     46  C   UNL A   1      47.832  30.933  28.414  1.00  0.00     0.029 A 
ATOM     47  N   UNL A   1      46.338  29.297  28.215  1.00  0.00    -0.354 N 
ATOM     48  N   UNL A   1      45.448  26.568  27.618  1.00  0.00    -0.248 NA
ATOM     49  C   UNL A   1      45.888  24.421  26.807  1.00  0.00     0.031 C 
ATOM     50  C   UNL A   1      48.477  29.805  27.897  1.00  0.00     0.029 A 
ATOM     51  C   UNL A   1      47.552  28.779  27.792  1.00  0.00     0.049 A 
ATOM     52  H   UNL A   1      45.491  28.798  28.246  1.00  0.00     0.167 HD
ATOM     53  C   UNL A   1      46.793  26.477  27.268  1.00  0.00     0.074 A 
ATOM     54  C   UNL A   1      47.011  25.126  26.796  1.00  0.00     0.031 C 
ATOM     55  C   UNL A   1      47.758  27.427  27.335  1.00  0.00     0.037 A 
BRANCH  42  56
ATOM     56  C   UNL A   1      45.757  32.909  29.377  1.00  0.00     0.058 A 
ATOM     57  C   UNL A   1      45.533  33.940  28.452  1.00  0.00     0.135 A 
ATOM     58  C   UNL A   1      46.272  33.256  30.636  1.00  0.00     0.135 A 
ATOM     59  F   UNL A   1      45.059  33.661  27.229  1.00  0.00    -0.206 F 
ATOM     60  C   UNL A   1      45.833  35.265  28.756  1.00  0.00     0.059 A 
ATOM     61  C   UNL A   1      46.556  34.577  30.970  1.00  0.00     0.059 A 
ATOM     62  F   UNL A   1      46.506  32.308  31.556  1.00  0.00    -0.206 F 
ATOM     63  C   UNL A   1      46.346  35.574  30.017  1.00  0.00     0.060 A 
BRANCH  63  64
ATOM     64  S   UNL A   1      46.731  37.295  30.398  1.00  0.00     0.124 S 
ATOM     65  O   UNL A   1      48.141  37.203  30.765  1.00  0.00    -0.237 OA
ATOM     66  O   UNL A   1      46.450  37.968  29.133  1.00  0.00    -0.237 OA
ATOM     67  O   UNL A   1      45.818  37.615  31.491  1.00  0.00    -0.744 OA
ENDBRANCH  63  64
ENDBRANCH  42  56
BRANCH  43  68
ATOM     68  C   UNL A   1      43.133  23.515  27.235  1.00  0.00     0.058 A 
ATOM     69  C   UNL A   1      42.901  23.140  25.904  1.00  0.00     0.135 A 
ATOM     70  C   UNL A   1      42.988  22.532  28.226  1.00  0.00     0.135 A 
ATOM     71  F   UNL A   1      43.015  24.048  24.922  1.00  0.00    -0.206 F 
ATOM     72  C   UNL A   1      42.529  21.842  25.567  1.00  0.00     0.059 A 
ATOM     73  C   UNL A   1      42.640  21.222  27.912  1.00  0.00     0.059 A 
ATOM     74  F   UNL A   1      43.207  22.839  29.515  1.00  0.00    -0.206 F 
ATOM     75  C   UNL A   1      42.403  20.889  26.579  1.00  0.00     0.060 A 
BRANCH  75  76
ATOM     76  S   UNL A   1      41.970  19.195  26.127  1.00  0.00     0.124 S 
ATOM     77  O   UNL A   1      42.290  18.473  27.352  1.00  0.00    -0.237 OA
ATOM     78  O   UNL A   1      40.551  19.315  25.808  1.00  0.00    -0.237 OA
ATOM     79  O   UNL A   1      42.840  18.921  24.986  1.00  0.00    -0.744 OA
ENDBRANCH  75  76
ENDBRANCH  43  68
BRANCH  55  80
ATOM     80  C   UNL A   1      49.151  27.035  26.928  1.00  0.00     0.058 A 
ATOM     81  C   UNL A   1      50.050  26.453  27.835  1.00  0.00     0.135 A 
ATOM     82  C   UNL A   1      49.571  27.189  25.596  1.00  0.00     0.135 A 
ATOM     83  F   UNL A   1      49.701  26.289  29.121  1.00  0.00    -0.206 F 
ATOM     84  C   UNL A   1      51.323  26.052  27.441  1.00  0.00     0.059 A 
ATOM     85  C   UNL A   1      50.830  26.774  25.175  1.00  0.00     0.059 A 
ATOM     86  F   UNL A   1      48.746  27.730  24.687  1.00  0.00    -0.206 F 
ATOM     87  C   UNL A   1      51.704  26.216  26.107  1.00  0.00     0.060 A 
BRANCH  87  88
ATOM     88  S   UNL A   1      53.342  25.655  25.596  1.00  0.00     0.124 S 
ATOM     89  O   UNL A   1      53.820  26.800  24.830  1.00  0.00    -0.237 OA
ATOM     90  O   UNL A   1      54.009  25.424  26.875  1.00  0.00    -0.237 OA
ATOM     91  O   UNL A   1      53.062  24.451  24.819  1.00  0.00    -0.744 OA
ENDBRANCH  87  88
ENDBRANCH  55  80
ENDBRANCH  29  30
ENDBRANCH  22  24
ENDBRANCH  21  22
ENDBRANCH  20  21
ENDBRANCH  19  20
ENDBRANCH   1  19
TORSDOF 20
ENDMDL
MODEL 3
REMARK VINA RESULT:      -9.5      5.853     13.710
REMARK SMILES O=C(/C=C/c1cccs1)NCC(=O)OCCOCCOC(=O)c1ccc(-c2c3nc(c(-c4c(F)cc(S(=O)(=O)[O-])cc4F)c4ccc([nH]4)c(-c4c(F)cc(S(=O)(=O)[O-])cc4F)c4nc(c(-c5c(F)cc(S(=O)(=O)[O-])cc5F)c5ccc2[nH]5)C=C4)C=C3)cc1
REMARK SMILES IDX 17 1 16 2 15 3 14 4 12 5 13 6 11 7 10 8 1 9 2 10 3 12 4 13
REMARK SMILES IDX 5 14 6 15 9 16 7 17 8 18 18 19 19 20 20 21 21 22 22 23 23 24
REMARK SMILES IDX 24 25 88 26 25 27 87 28 26 29 27 30 28 31 81 32 29 33 86 34
REMARK SMILES IDX 80 35 82 36 30 37 85 38 79 39 78 40 31 42 65 43 44 44 64 45
REMARK SMILES IDX 45 46 48 47 63 48 83 49 46 50 47 51 62 53 84 54 49 55 32 56
REMARK SMILES IDX 33 57 42 58 34 59 35 60 41 61 43 62 36 63 37 64 38 65 39 66
REMARK SMILES IDX 40 67 66 68 67 69 76 70 68 71 69 72 75 73 77 74 70 75 71 76
REMARK SMILES IDX 72 77 73 78 74 79 50 80 51 81 60 82 52 83 53 84 59 85 61 86
REMARK SMILES IDX 54 87 55 88 56 89 57 90 58 91
REMARK H PARENT 10 11 82 41 48 52
REMARK Flexibility Score: inf
ROOT
ATOM      1  O   UNL A   1      35.131  34.188  33.424  1.00  0.00    -0.374 OA
ENDROOT
BRANCH   1   2
ATOM      2  C   UNL A   1      35.028  34.481  32.029  1.00  0.00     0.202 C 
BRANCH   2   3
ATOM      3  C   UNL A   1      33.663  34.981  31.548  1.00  0.00     0.261 C 
BRANCH   3   4
ATOM      4  O   UNL A   1      33.278  34.315  30.333  1.00  0.00    -0.462 OA
BRANCH   4   5
ATOM      5  C   UNL A   1      33.283  35.093  29.216  1.00  0.00     0.325 C 
ATOM      6  O   UNL A   1      32.530  36.040  29.017  1.00  0.00    -0.250 OA
BRANCH   5   7
ATOM      7  C   UNL A   1      34.453  34.776  28.289  1.00  0.00     0.239 C 
BRANCH   7   8
ATOM      8  N   UNL A   1      35.809  34.940  28.797  1.00  0.00    -0.342 N 
ATOM      9  O   UNL A   1      36.375  32.750  28.490  1.00  0.00    -0.270 OA
ATOM     10  C   UNL A   1      36.690  33.897  28.787  1.00  0.00     0.244 C 
ATOM     11  H   UNL A   1      36.094  35.814  29.151  1.00  0.00     0.164 HD
BRANCH  10  12
ATOM     12  C   UNL A   1      38.123  34.206  29.033  1.00  0.00     0.072 C 
ATOM     13  C   UNL A   1      38.883  33.848  30.080  1.00  0.00     0.024 C 
BRANCH  13  14
ATOM     14  C   UNL A   1      40.220  34.334  30.205  1.00  0.00     0.027 A 
ATOM     15  C   UNL A   1      41.028  34.983  29.283  1.00  0.00     0.020 A 
ATOM     16  S   UNL A   1      41.049  34.176  31.709  1.00  0.00    -0.144 S 
ATOM     17  C   UNL A   1      42.316  35.314  29.793  1.00  0.00     0.012 A 
ATOM     18  C   UNL A   1      42.464  34.915  31.100  1.00  0.00     0.065 A 
ENDBRANCH  13  14
ENDBRANCH  10  12
ENDBRANCH   7   8
ENDBRANCH   5   7
ENDBRANCH   4   5
ENDBRANCH   3   4
ENDBRANCH   2   3
ENDBRANCH   1   2
BRANCH   1  19
ATOM     19  C   UNL A   1      35.949  33.087  33.812  1.00  0.00     0.202 C 
BRANCH  19  20
ATOM     20  C   UNL A   1      37.132  32.742  32.896  1.00  0.00     0.261 C 
BRANCH  20  21
ATOM     21  O   UNL A   1      37.361  31.325  32.783  1.00  0.00    -0.460 OA
BRANCH  21  22
ATOM     22  C   UNL A   1      37.004  30.796  31.584  1.00  0.00     0.338 C 
ATOM     23  O   UNL A   1      35.915  30.897  31.036  1.00  0.00    -0.246 OA
BRANCH  22  24
ATOM     24  C   UNL A   1      38.168  30.203  30.900  1.00  0.00     0.060 A 
ATOM     25  C   UNL A   1      39.221  29.743  31.702  1.00  0.00     0.016 A 
ATOM     26  C   UNL A   1      38.279  30.186  29.507  1.00  0.00     0.016 A 
ATOM     27  C   UNL A   1      40.410  29.309  31.116  1.00  0.00     0.010 A 
ATOM     28  C   UNL A   1      39.479  29.759  28.923  1.00  0.00     0.010 A 
ATOM     29  C   UNL A   1      40.561  29.350  29.724  1.00  0.00    -0.014 A 
BRANCH  29  30
ATOM     30  C   UNL A   1      41.896  29.096  29.126  1.00  0.00     0.031 A 
ATOM     31  C   UNL A   1      42.216  27.722  28.601  1.00  0.00     0.074 A 
ATOM     32  C   UNL A   1      42.802  30.085  29.017  1.00  0.00     0.049 A 
ATOM     33  N   UNL A   1      43.321  27.276  28.062  1.00  0.00    -0.248 NA
ATOM     34  C   UNL A   1      41.144  26.717  28.695  1.00  0.00     0.031 C 
ATOM     35  C   UNL A   1      42.599  31.466  29.452  1.00  0.00     0.029 A 
ATOM     36  N   UNL A   1      44.078  30.075  28.511  1.00  0.00    -0.354 N 
ATOM     37  C   UNL A   1      43.082  25.940  27.758  1.00  0.00     0.074 A 
ATOM     38  C   UNL A   1      41.736  25.640  28.196  1.00  0.00     0.031 C 
ATOM     39  C   UNL A   1      43.718  32.169  29.205  1.00  0.00     0.029 A 
ATOM     40  C   UNL A   1      44.723  31.284  28.621  1.00  0.00     0.049 A 
ATOM     41  H   UNL A   1      44.492  29.278  28.109  1.00  0.00     0.167 HD
ATOM     42  C   UNL A   1      43.909  25.046  27.161  1.00  0.00     0.037 A 
ATOM     43  C   UNL A   1      45.987  31.630  28.304  1.00  0.00     0.037 A 
ATOM     44  C   UNL A   1      45.247  25.347  26.725  1.00  0.00     0.049 A 
ATOM     45  C   UNL A   1      46.908  30.605  27.696  1.00  0.00     0.074 A 
ATOM     46  C   UNL A   1      46.156  24.511  26.098  1.00  0.00     0.029 A 
ATOM     47  N   UNL A   1      45.873  26.575  26.874  1.00  0.00    -0.354 N 
ATOM     48  N   UNL A   1      46.662  29.350  27.397  1.00  0.00    -0.248 NA
ATOM     49  C   UNL A   1      48.275  31.040  27.377  1.00  0.00     0.031 C 
ATOM     50  C   UNL A   1      47.344  25.223  25.905  1.00  0.00     0.029 A 
ATOM     51  C   UNL A   1      47.161  26.515  26.369  1.00  0.00     0.049 A 
ATOM     52  H   UNL A   1      45.461  27.372  27.279  1.00  0.00     0.167 HD
ATOM     53  C   UNL A   1      47.834  28.857  26.832  1.00  0.00     0.074 A 
ATOM     54  C   UNL A   1      48.786  29.948  26.825  1.00  0.00     0.031 C 
ATOM     55  C   UNL A   1      48.096  27.613  26.358  1.00  0.00     0.037 A 
BRANCH  42  56
ATOM     56  C   UNL A   1      43.393  23.647  26.968  1.00  0.00     0.058 A 
ATOM     57  C   UNL A   1      43.248  22.759  28.045  1.00  0.00     0.135 A 
ATOM     58  C   UNL A   1      43.012  23.200  25.692  1.00  0.00     0.135 A 
ATOM     59  F   UNL A   1      43.614  23.130  29.281  1.00  0.00    -0.206 F 
ATOM     60  C   UNL A   1      42.766  21.466  27.860  1.00  0.00     0.059 A 
ATOM     61  C   UNL A   1      42.505  21.921  25.488  1.00  0.00     0.059 A 
ATOM     62  F   UNL A   1      43.131  24.010  24.628  1.00  0.00    -0.206 F 
ATOM     63  C   UNL A   1      42.400  21.055  26.577  1.00  0.00     0.060 A 
BRANCH  63  64
ATOM     64  S   UNL A   1      41.778  19.376  26.351  1.00  0.00     0.124 S 
ATOM     65  O   UNL A   1      42.260  18.723  27.565  1.00  0.00    -0.237 OA
ATOM     66  O   UNL A   1      40.335  19.583  26.274  1.00  0.00    -0.237 OA
ATOM     67  O   UNL A   1      42.413  18.941  25.111  1.00  0.00    -0.744 OA
ENDBRANCH  63  64
ENDBRANCH  42  56
BRANCH  43  68
ATOM     68  C   UNL A   1      46.463  33.014  28.567  1.00  0.00     0.058 A 
ATOM     69  C   UNL A   1      47.017  33.368  29.805  1.00  0.00     0.135 A 
ATOM     70  C   UNL A   1      46.375  34.010  27.581  1.00  0.00     0.135 A 
ATOM     71  F   UNL A   1      47.112  32.454  30.783  1.00  0.00    -0.206 F 
ATOM     72  C   UNL A   1      47.458  34.662  30.063  1.00  0.00     0.059 A 
ATOM     73  C   UNL A   1      46.830  35.305  27.807  1.00  0.00     0.059 A 
ATOM     74  F   UNL A   1      45.859  33.719  26.376  1.00  0.00    -0.206 F 
ATOM     75  C   UNL A   1      47.361  35.624  29.056  1.00  0.00     0.060 A 
BRANCH  75  76
ATOM     76  S   UNL A   1      47.983  37.288  29.382  1.00  0.00     0.124 S 
ATOM     77  O   UNL A   1      46.745  38.021  29.621  1.00  0.00    -0.237 OA
ATOM     78  O   UNL A   1      48.834  37.076  30.548  1.00  0.00    -0.237 OA
ATOM     79  O   UNL A   1      48.691  37.628  28.151  1.00  0.00    -0.744 OA
ENDBRANCH  75  76
ENDBRANCH  43  68
BRANCH  55  80
ATOM     80  C   UNL A   1      49.451  27.368  25.754  1.00  0.00     0.058 A 
ATOM     81  C   UNL A   1      50.547  26.975  26.535  1.00  0.00     0.135 A 
ATOM     82  C   UNL A   1      49.637  27.470  24.365  1.00  0.00     0.135 A 
ATOM     83  F   UNL A   1      50.425  26.869  27.868  1.00  0.00    -0.206 F 
ATOM     84  C   UNL A   1      51.788  26.707  25.964  1.00  0.00     0.059 A 
ATOM     85  C   UNL A   1      50.862  27.184  23.770  1.00  0.00     0.059 A 
ATOM     86  F   UNL A   1      48.618  27.832  23.572  1.00  0.00    -0.206 F 
ATOM     87  C   UNL A   1      51.935  26.814  24.579  1.00  0.00     0.060 A 
BRANCH  87  88
ATOM     88  S   UNL A   1      53.537  26.424  23.843  1.00  0.00     0.124 S 
ATOM     89  O   UNL A   1      54.128  25.566  24.863  1.00  0.00    -0.237 OA
ATOM     90  O   UNL A   1      53.159  25.762  22.597  1.00  0.00    -0.237 OA
ATOM     91  O   UNL A   1      54.164  27.733  23.682  1.00  0.00    -0.744 OA
ENDBRANCH  87  88
ENDBRANCH  55  80
ENDBRANCH  29  30
ENDBRANCH  22  24
ENDBRANCH  21  22
ENDBRANCH  20  21
ENDBRANCH  19  20
ENDBRANCH   1  19
TORSDOF 20
ENDMDL
