MODEL 1
REMARK VINA RESULT:     -10.7      0.000      0.000
REMARK SMILES O=C(OCCOCCOC(=O)[C@@]1([NH2+]C2CC2)CCC[C@H]1CCn1ccnc1)c1ccc(-c2c3nc(c(-c4c(F)cc(S(=O)(=O)[O-])cc4F)c4ccc([nH]4)c(-c4c(F)cc(S(=O)(=O)[O-])cc4F)c4nc(c(-c5c(F)cc(S(=O)(=O)[O-])cc5F)c5ccc2[nH]5)C=C4)C=C3)cc1
REMARK SMILES IDX 6 1 5 2 4 3 3 4 2 5 1 6 28 7 29 8 93 9 30 10 92 11 31 12
REMARK SMILES IDX 32 13 33 14 86 15 34 16 91 17 85 18 87 19 35 20 90 21 84 22
REMARK SMILES IDX 83 23 36 25 70 26 49 27 69 28 50 29 53 30 68 31 88 32 51 33
REMARK SMILES IDX 52 34 67 36 89 37 54 38 37 39 38 40 47 41 39 42 40 43 46 44
REMARK SMILES IDX 48 45 41 46 42 47 43 48 44 49 45 50 71 51 72 52 81 53 73 54
REMARK SMILES IDX 74 55 80 56 82 57 75 58 76 59 77 60 78 61 79 62 55 63 56 64
REMARK SMILES IDX 65 65 57 66 58 67 64 68 66 69 59 70 60 71 61 72 62 73 63 74
REMARK SMILES IDX 7 75 8 76 9 77 10 78 11 79 12 80 17 81 20 82 18 83 19 84
REMARK SMILES IDX 13 85 14 88 15 89 16 90 21 91 22 92 23 93 24 94 27 95 25 96
REMARK SMILES IDX 26 97
REMARK H PARENT 87 24 53 35 13 86 13 87
REMARK Flexibility Score: inf
ROOT
ATOM      1  O   UNL A   1      40.467  22.078  26.714  1.00  0.00    -0.374 OA
ENDROOT
BRANCH   1   2
ATOM      2  C   UNL A   1      40.598  20.668  26.913  1.00  0.00     0.202 C 
BRANCH   2   3
ATOM      3  C   UNL A   1      41.926  19.978  26.603  1.00  0.00     0.261 C 
BRANCH   3   4
ATOM      4  O   UNL A   1      42.539  20.402  25.371  1.00  0.00    -0.460 OA
BRANCH   4   5
ATOM      5  C   UNL A   1      43.846  20.736  25.290  1.00  0.00     0.338 C 
ATOM      6  O   UNL A   1      44.681  19.975  24.813  1.00  0.00    -0.246 OA
BRANCH   5   7
ATOM      7  C   UNL A   1      44.169  22.163  25.472  1.00  0.00     0.060 A 
ATOM      8  C   UNL A   1      45.102  22.606  26.404  1.00  0.00     0.016 A 
ATOM      9  C   UNL A   1      43.266  23.058  24.888  1.00  0.00     0.016 A 
ATOM     10  C   UNL A   1      44.859  23.775  27.062  1.00  0.00     0.010 A 
ATOM     11  C   UNL A   1      43.086  24.288  25.471  1.00  0.00     0.010 A 
ATOM     12  C   UNL A   1      43.797  24.564  26.632  1.00  0.00    -0.014 A 
BRANCH  12  13
ATOM     13  C   UNL A   1      43.599  25.791  27.361  1.00  0.00     0.031 A 
ATOM     14  C   UNL A   1      44.697  26.748  27.100  1.00  0.00     0.074 A 
ATOM     15  C   UNL A   1      42.507  25.990  28.117  1.00  0.00     0.049 A 
ATOM     16  N   UNL A   1      45.599  27.160  27.927  1.00  0.00    -0.248 NA
ATOM     17  C   UNL A   1      44.989  27.061  25.688  1.00  0.00     0.031 C 
ATOM     18  C   UNL A   1      41.310  25.151  28.210  1.00  0.00     0.029 A 
ATOM     19  N   UNL A   1      42.185  27.064  28.875  1.00  0.00    -0.354 N 
ATOM     20  C   UNL A   1      46.399  28.018  27.181  1.00  0.00     0.074 A 
ATOM     21  C   UNL A   1      46.144  27.715  25.800  1.00  0.00     0.031 C 
ATOM     22  C   UNL A   1      40.309  25.876  28.757  1.00  0.00     0.029 A 
ATOM     23  C   UNL A   1      40.830  27.171  29.158  1.00  0.00     0.049 A 
ATOM     24  H   UNL A   1      42.853  27.712  29.197  1.00  0.00     0.167 HD
ATOM     25  C   UNL A   1      46.919  29.134  27.756  1.00  0.00     0.037 A 
ATOM     26  C   UNL A   1      40.202  28.302  29.568  1.00  0.00     0.037 A 
ATOM     27  C   UNL A   1      47.021  28.969  29.188  1.00  0.00     0.049 A 
ATOM     28  C   UNL A   1      41.257  29.210  30.107  1.00  0.00     0.074 A 
ATOM     29  C   UNL A   1      47.630  28.036  30.008  1.00  0.00     0.029 A 
ATOM     30  N   UNL A   1      46.100  29.615  29.978  1.00  0.00    -0.354 N 
ATOM     31  N   UNL A   1      41.947  28.957  31.187  1.00  0.00    -0.248 NA
ATOM     32  C   UNL A   1      41.883  30.146  29.182  1.00  0.00     0.031 C 
ATOM     33  C   UNL A   1      46.724  27.843  31.090  1.00  0.00     0.029 A 
ATOM     34  C   UNL A   1      45.653  28.721  30.918  1.00  0.00     0.049 A 
ATOM     35  H   UNL A   1      45.812  30.552  29.886  1.00  0.00     0.167 HD
ATOM     36  C   UNL A   1      43.245  29.346  30.886  1.00  0.00     0.074 A 
ATOM     37  C   UNL A   1      43.128  30.143  29.666  1.00  0.00     0.031 C 
ATOM     38  C   UNL A   1      44.320  28.747  31.479  1.00  0.00     0.037 A 
BRANCH  25  39
ATOM     39  C   UNL A   1      46.869  30.488  27.080  1.00  0.00     0.058 A 
ATOM     40  C   UNL A   1      48.031  31.283  27.075  1.00  0.00     0.135 A 
ATOM     41  C   UNL A   1      45.678  31.159  26.707  1.00  0.00     0.135 A 
ATOM     42  F   UNL A   1      49.221  30.756  27.406  1.00  0.00    -0.206 F 
ATOM     43  C   UNL A   1      47.996  32.655  26.822  1.00  0.00     0.059 A 
ATOM     44  C   UNL A   1      45.630  32.510  26.401  1.00  0.00     0.059 A 
ATOM     45  F   UNL A   1      44.475  30.576  26.702  1.00  0.00    -0.206 F 
ATOM     46  C   UNL A   1      46.784  33.261  26.505  1.00  0.00     0.060 A 
BRANCH  46  47
ATOM     47  S   UNL A   1      46.708  35.041  26.276  1.00  0.00     0.124 S 
ATOM     48  O   UNL A   1      45.477  35.180  25.509  1.00  0.00    -0.237 OA
ATOM     49  O   UNL A   1      46.666  35.518  27.655  1.00  0.00    -0.237 OA
ATOM     50  O   UNL A   1      47.943  35.338  25.556  1.00  0.00    -0.744 OA
ENDBRANCH  46  47
ENDBRANCH  25  39
BRANCH  26  51
ATOM     51  C   UNL A   1      38.854  28.782  29.156  1.00  0.00     0.058 A 
ATOM     52  C   UNL A   1      37.795  28.839  30.079  1.00  0.00     0.135 A 
ATOM     53  C   UNL A   1      38.637  29.444  27.928  1.00  0.00     0.135 A 
ATOM     54  F   UNL A   1      37.917  28.257  31.282  1.00  0.00    -0.206 F 
ATOM     55  C   UNL A   1      36.614  29.549  29.822  1.00  0.00     0.059 A 
ATOM     56  C   UNL A   1      37.466  30.143  27.642  1.00  0.00     0.059 A 
ATOM     57  F   UNL A   1      39.596  29.514  26.994  1.00  0.00    -0.206 F 
ATOM     58  C   UNL A   1      36.469  30.215  28.606  1.00  0.00     0.060 A 
BRANCH  58  59
ATOM     59  S   UNL A   1      35.029  31.275  28.332  1.00  0.00     0.124 S 
ATOM     60  O   UNL A   1      35.549  32.252  27.382  1.00  0.00    -0.237 OA
ATOM     61  O   UNL A   1      34.047  30.333  27.808  1.00  0.00    -0.237 OA
ATOM     62  O   UNL A   1      34.734  31.798  29.665  1.00  0.00    -0.744 OA
ENDBRANCH  58  59
ENDBRANCH  26  51
BRANCH  38  63
ATOM     63  C   UNL A   1      44.079  27.879  32.688  1.00  0.00     0.058 A 
ATOM     64  C   UNL A   1      43.889  26.485  32.653  1.00  0.00     0.135 A 
ATOM     65  C   UNL A   1      44.188  28.476  33.952  1.00  0.00     0.135 A 
ATOM     66  F   UNL A   1      43.887  25.818  31.489  1.00  0.00    -0.206 F 
ATOM     67  C   UNL A   1      43.757  25.731  33.822  1.00  0.00     0.059 A 
ATOM     68  C   UNL A   1      44.095  27.741  35.130  1.00  0.00     0.059 A 
ATOM     69  F   UNL A   1      44.437  29.793  34.055  1.00  0.00    -0.206 F 
ATOM     70  C   UNL A   1      43.859  26.371  35.058  1.00  0.00     0.060 A 
BRANCH  70  71
ATOM     71  S   UNL A   1      43.738  25.394  36.572  1.00  0.00     0.124 S 
ATOM     72  O   UNL A   1      44.582  26.149  37.491  1.00  0.00    -0.237 OA
ATOM     73  O   UNL A   1      42.307  25.422  36.855  1.00  0.00    -0.237 OA
ATOM     74  O   UNL A   1      44.260  24.087  36.177  1.00  0.00    -0.744 OA
ENDBRANCH  70  71
ENDBRANCH  38  63
ENDBRANCH  12  13
ENDBRANCH   5   7
ENDBRANCH   4   5
ENDBRANCH   3   4
ENDBRANCH   2   3
ENDBRANCH   1   2
BRANCH   1  75
ATOM     75  C   UNL A   1      39.151  22.573  26.391  1.00  0.00     0.202 C 
BRANCH  75  76
ATOM     76  C   UNL A   1      38.177  21.751  25.522  1.00  0.00     0.261 C 
BRANCH  76  77
ATOM     77  O   UNL A   1      36.783  22.067  25.774  1.00  0.00    -0.459 OA
BRANCH  77  78
ATOM     78  C   UNL A   1      36.123  22.333  24.623  1.00  0.00     0.368 C 
ATOM     79  O   UNL A   1      36.700  22.284  23.560  1.00  0.00    -0.245 OA
BRANCH  78  80
ATOM     80  C   UNL A   1      34.613  22.571  24.713  1.00  0.00     0.197 C 
ATOM     81  C   UNL A   1      33.833  22.643  23.403  1.00  0.00     0.081 C 
ATOM     82  C   UNL A   1      33.983  21.266  25.375  1.00  0.00     0.064 C 
ATOM     83  C   UNL A   1      32.391  22.350  23.815  1.00  0.00     0.008 C 
ATOM     84  C   UNL A   1      32.481  21.384  24.998  1.00  0.00     0.011 C 
BRANCH  80  85
ATOM     85  N   UNL A   1      34.262  23.715  25.606  1.00  0.00    -0.329 N 
ATOM     86  H   UNL A   1      34.698  23.506  26.504  1.00  0.00     0.347 HD
ATOM     87  H   UNL A   1      33.248  23.733  25.501  1.00  0.00     0.347 HD
BRANCH  85  88
ATOM     88  C   UNL A   1      34.589  25.117  25.326  1.00  0.00     0.183 C 
ATOM     89  C   UNL A   1      33.945  26.003  24.305  1.00  0.00     0.071 C 
ATOM     90  C   UNL A   1      33.675  26.229  25.760  1.00  0.00     0.071 C 
ENDBRANCH  85  88
ENDBRANCH  80  85
BRANCH  82  91
ATOM     91  C   UNL A   1      34.479  19.846  24.914  1.00  0.00     0.032 C 
BRANCH  91  92
ATOM     92  C   UNL A   1      33.613  18.893  24.041  1.00  0.00     0.123 C 
BRANCH  92  93
ATOM     93  N   UNL A   1      33.333  17.556  24.521  1.00  0.00    -0.337 N 
ATOM     94  C   UNL A   1      32.679  17.236  25.683  1.00  0.00     0.107 A 
ATOM     95  C   UNL A   1      33.727  16.383  23.947  1.00  0.00     0.199 A 
ATOM     96  C   UNL A   1      32.663  15.863  25.723  1.00  0.00     0.130 A 
ATOM     97  N   UNL A   1      33.332  15.342  24.646  1.00  0.00    -0.245 NA
ENDBRANCH  92  93
ENDBRANCH  91  92
ENDBRANCH  82  91
ENDBRANCH  78  80
ENDBRANCH  77  78
ENDBRANCH  76  77
ENDBRANCH  75  76
ENDBRANCH   1  75
TORSDOF 22
ENDMDL
MODEL 2
REMARK VINA RESULT:     -10.0      1.117      3.458
REMARK SMILES O=C(OCCOCCOC(=O)[C@@]1([NH2+]C2CC2)CCC[C@H]1CCn1ccnc1)c1ccc(-c2c3nc(c(-c4c(F)cc(S(=O)(=O)[O-])cc4F)c4ccc([nH]4)c(-c4c(F)cc(S(=O)(=O)[O-])cc4F)c4nc(c(-c5c(F)cc(S(=O)(=O)[O-])cc5F)c5ccc2[nH]5)C=C4)C=C3)cc1
REMARK SMILES IDX 6 1 5 2 4 3 3 4 2 5 1 6 28 7 29 8 93 9 30 10 92 11 31 12
REMARK SMILES IDX 32 13 33 14 86 15 34 16 91 17 85 18 87 19 35 20 90 21 84 22
REMARK SMILES IDX 83 23 36 25 70 26 49 27 69 28 50 29 53 30 68 31 88 32 51 33
REMARK SMILES IDX 52 34 67 36 89 37 54 38 37 39 38 40 47 41 39 42 40 43 46 44
REMARK SMILES IDX 48 45 41 46 42 47 43 48 44 49 45 50 71 51 72 52 81 53 73 54
REMARK SMILES IDX 74 55 80 56 82 57 75 58 76 59 77 60 78 61 79 62 55 63 56 64
REMARK SMILES IDX 65 65 57 66 58 67 64 68 66 69 59 70 60 71 61 72 62 73 63 74
REMARK SMILES IDX 7 75 8 76 9 77 10 78 11 79 12 80 17 81 20 82 18 83 19 84
REMARK SMILES IDX 13 85 14 88 15 89 16 90 21 91 22 92 23 93 24 94 27 95 25 96
REMARK SMILES IDX 26 97
REMARK H PARENT 87 24 53 35 13 86 13 87
REMARK Flexibility Score: inf
ROOT
ATOM      1  O   UNL A   1      39.696  21.687  26.224  1.00  0.00    -0.374 OA
ENDROOT
BRANCH   1   2
ATOM      2  C   UNL A   1      40.632  20.607  26.247  1.00  0.00     0.202 C 
BRANCH   2   3
ATOM      3  C   UNL A   1      41.930  20.744  27.040  1.00  0.00     0.261 C 
BRANCH   3   4
ATOM      4  O   UNL A   1      43.066  20.102  26.430  1.00  0.00    -0.460 OA
BRANCH   4   5
ATOM      5  C   UNL A   1      43.768  20.674  25.428  1.00  0.00     0.338 C 
ATOM      6  O   UNL A   1      43.881  20.140  24.329  1.00  0.00    -0.246 OA
BRANCH   5   7
ATOM      7  C   UNL A   1      44.096  22.102  25.590  1.00  0.00     0.060 A 
ATOM      8  C   UNL A   1      45.040  22.554  26.506  1.00  0.00     0.016 A 
ATOM      9  C   UNL A   1      43.188  22.992  25.006  1.00  0.00     0.016 A 
ATOM     10  C   UNL A   1      44.807  23.731  27.152  1.00  0.00     0.010 A 
ATOM     11  C   UNL A   1      43.017  24.229  25.575  1.00  0.00     0.010 A 
ATOM     12  C   UNL A   1      43.741  24.517  26.725  1.00  0.00    -0.014 A 
BRANCH  12  13
ATOM     13  C   UNL A   1      43.553  25.753  27.442  1.00  0.00     0.031 A 
ATOM     14  C   UNL A   1      44.659  26.698  27.171  1.00  0.00     0.074 A 
ATOM     15  C   UNL A   1      42.464  25.968  28.196  1.00  0.00     0.049 A 
ATOM     16  N   UNL A   1      45.565  27.112  27.993  1.00  0.00    -0.248 NA
ATOM     17  C   UNL A   1      44.953  26.995  25.755  1.00  0.00     0.031 C 
ATOM     18  C   UNL A   1      41.260  25.140  28.299  1.00  0.00     0.029 A 
ATOM     19  N   UNL A   1      42.151  27.052  28.943  1.00  0.00    -0.354 N 
ATOM     20  C   UNL A   1      46.371  27.955  27.238  1.00  0.00     0.074 A 
ATOM     21  C   UNL A   1      46.113  27.640  25.861  1.00  0.00     0.031 C 
ATOM     22  C   UNL A   1      40.265  25.878  28.839  1.00  0.00     0.029 A 
ATOM     23  C   UNL A   1      40.797  27.174  29.226  1.00  0.00     0.049 A 
ATOM     24  H   UNL A   1      42.824  27.698  29.259  1.00  0.00     0.167 HD
ATOM     25  C   UNL A   1      46.900  29.072  27.802  1.00  0.00     0.037 A 
ATOM     26  C   UNL A   1      40.178  28.314  29.625  1.00  0.00     0.037 A 
ATOM     27  C   UNL A   1      47.002  28.922  29.235  1.00  0.00     0.049 A 
ATOM     28  C   UNL A   1      41.241  29.218  30.154  1.00  0.00     0.074 A 
ATOM     29  C   UNL A   1      47.604  27.992  30.064  1.00  0.00     0.029 A 
ATOM     30  N   UNL A   1      46.087  29.583  30.019  1.00  0.00    -0.354 N 
ATOM     31  N   UNL A   1      41.929  28.971  31.237  1.00  0.00    -0.248 NA
ATOM     32  C   UNL A   1      41.874  30.140  29.219  1.00  0.00     0.031 C 
ATOM     33  C   UNL A   1      46.697  27.818  31.148  1.00  0.00     0.029 A 
ATOM     34  C   UNL A   1      45.633  28.702  30.968  1.00  0.00     0.049 A 
ATOM     35  H   UNL A   1      45.807  30.521  29.918  1.00  0.00     0.167 HD
ATOM     36  C   UNL A   1      43.230  29.347  30.931  1.00  0.00     0.074 A 
ATOM     37  C   UNL A   1      43.119  30.132  29.703  1.00  0.00     0.031 C 
ATOM     38  C   UNL A   1      44.301  28.744  31.530  1.00  0.00     0.037 A 
BRANCH  25  39
ATOM     39  C   UNL A   1      46.861  30.420  27.112  1.00  0.00     0.058 A 
ATOM     40  C   UNL A   1      48.028  31.207  27.101  1.00  0.00     0.135 A 
ATOM     41  C   UNL A   1      45.675  31.096  26.730  1.00  0.00     0.135 A 
ATOM     42  F   UNL A   1      49.214  30.675  27.439  1.00  0.00    -0.206 F 
ATOM     43  C   UNL A   1      48.004  32.576  26.834  1.00  0.00     0.059 A 
ATOM     44  C   UNL A   1      45.637  32.444  26.410  1.00  0.00     0.059 A 
ATOM     45  F   UNL A   1      44.469  30.521  26.729  1.00  0.00    -0.206 F 
ATOM     46  C   UNL A   1      46.796  33.187  26.510  1.00  0.00     0.060 A 
BRANCH  46  47
ATOM     47  S   UNL A   1      46.734  34.966  26.262  1.00  0.00     0.124 S 
ATOM     48  O   UNL A   1      48.098  35.245  25.834  1.00  0.00    -0.237 OA
ATOM     49  O   UNL A   1      45.700  35.089  25.239  1.00  0.00    -0.237 OA
ATOM     50  O   UNL A   1      46.365  35.474  27.580  1.00  0.00    -0.744 OA
ENDBRANCH  46  47
ENDBRANCH  25  39
BRANCH  26  51
ATOM     51  C   UNL A   1      38.834  28.800  29.209  1.00  0.00     0.058 A 
ATOM     52  C   UNL A   1      37.795  28.943  30.146  1.00  0.00     0.135 A 
ATOM     53  C   UNL A   1      38.608  29.387  27.945  1.00  0.00     0.135 A 
ATOM     54  F   UNL A   1      37.929  28.436  31.382  1.00  0.00    -0.206 F 
ATOM     55  C   UNL A   1      36.628  29.665  29.866  1.00  0.00     0.059 A 
ATOM     56  C   UNL A   1      37.448  30.096  27.637  1.00  0.00     0.059 A 
ATOM     57  F   UNL A   1      39.548  29.373  26.990  1.00  0.00    -0.206 F 
ATOM     58  C   UNL A   1      36.473  30.255  28.613  1.00  0.00     0.060 A 
BRANCH  58  59
ATOM     59  S   UNL A   1      35.054  31.331  28.299  1.00  0.00     0.124 S 
ATOM     60  O   UNL A   1      34.695  31.759  29.647  1.00  0.00    -0.237 OA
ATOM     61  O   UNL A   1      35.629  32.356  27.435  1.00  0.00    -0.237 OA
ATOM     62  O   UNL A   1      34.091  30.444  27.650  1.00  0.00    -0.744 OA
ENDBRANCH  58  59
ENDBRANCH  26  51
BRANCH  38  63
ATOM     63  C   UNL A   1      44.053  27.890  32.747  1.00  0.00     0.058 A 
ATOM     64  C   UNL A   1      43.884  28.383  34.055  1.00  0.00     0.135 A 
ATOM     65  C   UNL A   1      43.839  26.519  32.550  1.00  0.00     0.135 A 
ATOM     66  F   UNL A   1      43.959  29.697  34.312  1.00  0.00    -0.206 F 
ATOM     67  C   UNL A   1      43.571  27.539  35.123  1.00  0.00     0.059 A 
ATOM     68  C   UNL A   1      43.493  25.665  33.592  1.00  0.00     0.059 A 
ATOM     69  F   UNL A   1      43.919  25.997  31.314  1.00  0.00    -0.206 F 
ATOM     70  C   UNL A   1      43.380  26.179  34.881  1.00  0.00     0.060 A 
BRANCH  70  71
ATOM     71  S   UNL A   1      42.927  25.092  36.250  1.00  0.00     0.124 S 
ATOM     72  O   UNL A   1      44.134  25.108  37.068  1.00  0.00    -0.237 OA
ATOM     73  O   UNL A   1      41.764  25.766  36.821  1.00  0.00    -0.237 OA
ATOM     74  O   UNL A   1      42.636  23.819  35.593  1.00  0.00    -0.744 OA
ENDBRANCH  70  71
ENDBRANCH  38  63
ENDBRANCH  12  13
ENDBRANCH   5   7
ENDBRANCH   4   5
ENDBRANCH   3   4
ENDBRANCH   2   3
ENDBRANCH   1   2
BRANCH   1  75
ATOM     75  C   UNL A   1      38.388  21.409  25.680  1.00  0.00     0.202 C 
BRANCH  75  76
ATOM     76  C   UNL A   1      37.302  22.501  25.609  1.00  0.00     0.261 C 
BRANCH  76  77
ATOM     77  O   UNL A   1      36.095  22.063  24.934  1.00  0.00    -0.459 OA
BRANCH  77  78
ATOM     78  C   UNL A   1      34.988  22.415  25.627  1.00  0.00     0.368 C 
ATOM     79  O   UNL A   1      35.083  22.892  26.735  1.00  0.00    -0.245 OA
BRANCH  78  80
ATOM     80  C   UNL A   1      33.640  22.304  24.909  1.00  0.00     0.197 C 
ATOM     81  C   UNL A   1      32.384  22.623  25.716  1.00  0.00     0.081 C 
ATOM     82  C   UNL A   1      33.606  23.463  23.816  1.00  0.00     0.064 C 
ATOM     83  C   UNL A   1      31.333  22.941  24.654  1.00  0.00     0.008 C 
ATOM     84  C   UNL A   1      32.092  23.579  23.489  1.00  0.00     0.011 C 
BRANCH  80  85
ATOM     85  N   UNL A   1      33.484  21.015  24.170  1.00  0.00    -0.329 N 
ATOM     86  H   UNL A   1      34.370  20.870  23.684  1.00  0.00     0.347 HD
ATOM     87  H   UNL A   1      32.622  21.194  23.658  1.00  0.00     0.347 HD
BRANCH  85  88
ATOM     88  C   UNL A   1      33.165  19.731  24.801  1.00  0.00     0.183 C 
ATOM     89  C   UNL A   1      32.512  18.549  24.154  1.00  0.00     0.071 C 
ATOM     90  C   UNL A   1      33.967  18.497  24.498  1.00  0.00     0.071 C 
ENDBRANCH  85  88
ENDBRANCH  80  85
BRANCH  82  91
ATOM     91  C   UNL A   1      34.124  24.900  24.193  1.00  0.00     0.032 C 
BRANCH  91  92
ATOM     92  C   UNL A   1      33.385  25.823  25.205  1.00  0.00     0.123 C 
BRANCH  92  93
ATOM     93  N   UNL A   1      32.994  27.154  24.790  1.00  0.00    -0.337 N 
ATOM     94  C   UNL A   1      33.714  28.305  24.986  1.00  0.00     0.107 A 
ATOM     95  C   UNL A   1      31.818  27.513  24.199  1.00  0.00     0.199 A 
ATOM     96  C   UNL A   1      32.947  29.308  24.444  1.00  0.00     0.130 A 
ATOM     97  N   UNL A   1      31.762  28.806  23.970  1.00  0.00    -0.245 NA
ENDBRANCH  92  93
ENDBRANCH  91  92
ENDBRANCH  82  91
ENDBRANCH  78  80
ENDBRANCH  77  78
ENDBRANCH  76  77
ENDBRANCH  75  76
ENDBRANCH   1  75
TORSDOF 22
ENDMDL
MODEL 3
REMARK VINA RESULT:      -8.9      3.249      9.601
REMARK SMILES O=C(OCCOCCOC(=O)[C@@]1([NH2+]C2CC2)CCC[C@H]1CCn1ccnc1)c1ccc(-c2c3nc(c(-c4c(F)cc(S(=O)(=O)[O-])cc4F)c4ccc([nH]4)c(-c4c(F)cc(S(=O)(=O)[O-])cc4F)c4nc(c(-c5c(F)cc(S(=O)(=O)[O-])cc5F)c5ccc2[nH]5)C=C4)C=C3)cc1
REMARK SMILES IDX 6 1 5 2 4 3 3 4 2 5 1 6 28 7 29 8 93 9 30 10 92 11 31 12
REMARK SMILES IDX 32 13 33 14 86 15 34 16 91 17 85 18 87 19 35 20 90 21 84 22
REMARK SMILES IDX 83 23 36 25 70 26 49 27 69 28 50 29 53 30 68 31 88 32 51 33
REMARK SMILES IDX 52 34 67 36 89 37 54 38 37 39 38 40 47 41 39 42 40 43 46 44
REMARK SMILES IDX 48 45 41 46 42 47 43 48 44 49 45 50 71 51 72 52 81 53 73 54
REMARK SMILES IDX 74 55 80 56 82 57 75 58 76 59 77 60 78 61 79 62 55 63 56 64
REMARK SMILES IDX 65 65 57 66 58 67 64 68 66 69 59 70 60 71 61 72 62 73 63 74
REMARK SMILES IDX 7 75 8 76 9 77 10 78 11 79 12 80 17 81 20 82 18 83 19 84
REMARK SMILES IDX 13 85 14 88 15 89 16 90 21 91 22 92 23 93 24 94 27 95 25 96
REMARK SMILES IDX 26 97
REMARK H PARENT 87 24 53 35 13 86 13 87
REMARK Flexibility Score: inf
ROOT
ATOM      1  O   UNL A   1      32.598  30.614  27.441  1.00  0.00    -0.374 OA
ENDROOT
BRANCH   1   2
ATOM      2  C   UNL A   1      34.007  30.794  27.281  1.00  0.00     0.202 C 
BRANCH   2   3
ATOM      3  C   UNL A   1      34.964  29.663  27.654  1.00  0.00     0.261 C 
BRANCH   3   4
ATOM      4  O   UNL A   1      35.569  29.805  28.953  1.00  0.00    -0.460 OA
BRANCH   4   5
ATOM      5  C   UNL A   1      36.386  30.836  29.262  1.00  0.00     0.338 C 
ATOM      6  O   UNL A   1      36.079  31.677  30.101  1.00  0.00    -0.246 OA
BRANCH   5   7
ATOM      7  C   UNL A   1      37.786  30.719  28.814  1.00  0.00     0.060 A 
ATOM      8  C   UNL A   1      38.215  29.712  27.956  1.00  0.00     0.016 A 
ATOM      9  C   UNL A   1      38.710  31.476  29.543  1.00  0.00     0.016 A 
ATOM     10  C   UNL A   1      39.454  29.177  28.151  1.00  0.00     0.010 A 
ATOM     11  C   UNL A   1      39.997  31.012  29.660  1.00  0.00     0.010 A 
ATOM     12  C   UNL A   1      40.302  29.794  29.066  1.00  0.00    -0.014 A 
BRANCH  12  13
ATOM     13  C   UNL A   1      41.599  29.188  29.218  1.00  0.00     0.031 A 
ATOM     14  C   UNL A   1      41.942  29.016  30.648  1.00  0.00     0.074 A 
ATOM     15  C   UNL A   1      42.325  28.804  28.155  1.00  0.00     0.049 A 
ATOM     16  N   UNL A   1      42.863  29.623  31.319  1.00  0.00    -0.248 NA
ATOM     17  C   UNL A   1      40.965  28.295  31.487  1.00  0.00     0.031 C 
ATOM     18  C   UNL A   1      41.912  28.761  26.751  1.00  0.00     0.029 A 
ATOM     19  N   UNL A   1      43.558  28.248  28.126  1.00  0.00    -0.354 N 
ATOM     20  C   UNL A   1      42.749  29.125  32.611  1.00  0.00     0.074 A 
ATOM     21  C   UNL A   1      41.441  28.539  32.707  1.00  0.00     0.031 C 
ATOM     22  C   UNL A   1      42.767  27.969  26.067  1.00  0.00     0.029 A 
ATOM     23  C   UNL A   1      43.841  27.558  26.955  1.00  0.00     0.049 A 
ATOM     24  H   UNL A   1      44.199  28.325  28.870  1.00  0.00     0.167 HD
ATOM     25  C   UNL A   1      43.863  28.919  33.361  1.00  0.00     0.037 A 
ATOM     26  C   UNL A   1      44.819  26.629  26.809  1.00  0.00     0.037 A 
ATOM     27  C   UNL A   1      44.944  29.766  32.911  1.00  0.00     0.049 A 
ATOM     28  C   UNL A   1      45.789  26.845  27.922  1.00  0.00     0.074 A 
ATOM     29  C   UNL A   1      45.088  31.130  32.734  1.00  0.00     0.029 A 
ATOM     30  N   UNL A   1      45.954  29.187  32.180  1.00  0.00    -0.354 N 
ATOM     31  N   UNL A   1      46.536  27.911  28.035  1.00  0.00    -0.248 NA
ATOM     32  C   UNL A   1      45.570  26.112  29.163  1.00  0.00     0.031 C 
ATOM     33  C   UNL A   1      45.858  31.272  31.544  1.00  0.00     0.029 A 
ATOM     34  C   UNL A   1      46.210  29.996  31.103  1.00  0.00     0.049 A 
ATOM     35  H   UNL A   1      46.412  28.341  32.392  1.00  0.00     0.167 HD
ATOM     36  C   UNL A   1      46.522  28.219  29.389  1.00  0.00     0.074 A 
ATOM     37  C   UNL A   1      45.976  27.032  30.043  1.00  0.00     0.031 C 
ATOM     38  C   UNL A   1      46.674  29.506  29.823  1.00  0.00     0.037 A 
BRANCH  25  39
ATOM     39  C   UNL A   1      44.083  27.643  34.146  1.00  0.00     0.058 A 
ATOM     40  C   UNL A   1      44.544  27.738  35.473  1.00  0.00     0.135 A 
ATOM     41  C   UNL A   1      44.149  26.347  33.577  1.00  0.00     0.135 A 
ATOM     42  F   UNL A   1      44.525  28.916  36.120  1.00  0.00    -0.206 F 
ATOM     43  C   UNL A   1      45.121  26.659  36.143  1.00  0.00     0.059 A 
ATOM     44  C   UNL A   1      44.670  25.249  34.243  1.00  0.00     0.059 A 
ATOM     45  F   UNL A   1      43.800  26.080  32.315  1.00  0.00    -0.206 F 
ATOM     46  C   UNL A   1      45.196  25.423  35.508  1.00  0.00     0.060 A 
BRANCH  46  47
ATOM     47  S   UNL A   1      46.026  24.051  36.320  1.00  0.00     0.124 S 
ATOM     48  O   UNL A   1      45.967  23.027  35.285  1.00  0.00    -0.237 OA
ATOM     49  O   UNL A   1      47.343  24.618  36.591  1.00  0.00    -0.237 OA
ATOM     50  O   UNL A   1      45.200  23.811  37.499  1.00  0.00    -0.744 OA
ENDBRANCH  46  47
ENDBRANCH  25  39
BRANCH  26  51
ATOM     51  C   UNL A   1      44.745  25.359  26.035  1.00  0.00     0.058 A 
ATOM     52  C   UNL A   1      45.813  24.947  25.219  1.00  0.00     0.135 A 
ATOM     53  C   UNL A   1      43.746  24.391  26.277  1.00  0.00     0.135 A 
ATOM     54  F   UNL A   1      46.821  25.791  24.951  1.00  0.00    -0.206 F 
ATOM     55  C   UNL A   1      45.912  23.642  24.717  1.00  0.00     0.059 A 
ATOM     56  C   UNL A   1      43.813  23.093  25.776  1.00  0.00     0.059 A 
ATOM     57  F   UNL A   1      42.710  24.644  27.090  1.00  0.00    -0.206 F 
ATOM     58  C   UNL A   1      44.914  22.716  25.019  1.00  0.00     0.060 A 
BRANCH  58  59
ATOM     59  S   UNL A   1      45.117  20.989  24.523  1.00  0.00     0.124 S 
ATOM     60  O   UNL A   1      44.594  21.002  23.161  1.00  0.00    -0.237 OA
ATOM     61  O   UNL A   1      46.557  20.797  24.653  1.00  0.00    -0.237 OA
ATOM     62  O   UNL A   1      44.306  20.259  25.495  1.00  0.00    -0.744 OA
ENDBRANCH  58  59
ENDBRANCH  26  51
BRANCH  38  63
ATOM     63  C   UNL A   1      47.167  30.540  28.842  1.00  0.00     0.058 A 
ATOM     64  C   UNL A   1      46.346  31.279  27.971  1.00  0.00     0.135 A 
ATOM     65  C   UNL A   1      48.524  30.892  28.893  1.00  0.00     0.135 A 
ATOM     66  F   UNL A   1      45.019  31.084  27.943  1.00  0.00    -0.206 F 
ATOM     67  C   UNL A   1      46.863  32.284  27.149  1.00  0.00     0.059 A 
ATOM     68  C   UNL A   1      49.054  31.912  28.109  1.00  0.00     0.059 A 
ATOM     69  F   UNL A   1      49.349  30.270  29.752  1.00  0.00    -0.206 F 
ATOM     70  C   UNL A   1      48.222  32.591  27.224  1.00  0.00     0.060 A 
BRANCH  70  71
ATOM     71  S   UNL A   1      48.886  33.921  26.200  1.00  0.00     0.124 S 
ATOM     72  O   UNL A   1      47.723  34.309  25.409  1.00  0.00    -0.237 OA
ATOM     73  O   UNL A   1      49.332  34.895  27.192  1.00  0.00    -0.237 OA
ATOM     74  O   UNL A   1      49.960  33.272  25.452  1.00  0.00    -0.744 OA
ENDBRANCH  70  71
ENDBRANCH  38  63
ENDBRANCH  12  13
ENDBRANCH   5   7
ENDBRANCH   4   5
ENDBRANCH   3   4
ENDBRANCH   2   3
ENDBRANCH   1   2
BRANCH   1  75
ATOM     75  C   UNL A   1      32.074  29.295  27.179  1.00  0.00     0.202 C 
BRANCH  75  76
ATOM     76  C   UNL A   1      32.350  28.573  25.845  1.00  0.00     0.261 C 
BRANCH  76  77
ATOM     77  O   UNL A   1      32.935  27.256  26.019  1.00  0.00    -0.459 OA
BRANCH  77  78
ATOM     78  C   UNL A   1      31.982  26.298  26.069  1.00  0.00     0.368 C 
ATOM     79  O   UNL A   1      31.133  26.320  26.932  1.00  0.00    -0.245 OA
BRANCH  78  80
ATOM     80  C   UNL A   1      31.949  25.274  24.930  1.00  0.00     0.197 C 
ATOM     81  C   UNL A   1      30.953  24.123  25.047  1.00  0.00     0.081 C 
ATOM     82  C   UNL A   1      31.390  26.035  23.646  1.00  0.00     0.064 C 
ATOM     83  C   UNL A   1      30.786  23.631  23.610  1.00  0.00     0.008 C 
ATOM     84  C   UNL A   1      30.950  24.866  22.723  1.00  0.00     0.011 C 
BRANCH  80  85
ATOM     85  N   UNL A   1      33.307  24.769  24.569  1.00  0.00    -0.329 N 
ATOM     86  H   UNL A   1      33.880  25.601  24.427  1.00  0.00     0.347 HD
ATOM     87  H   UNL A   1      33.078  24.145  23.797  1.00  0.00     0.347 HD
BRANCH  85  88
ATOM     88  C   UNL A   1      34.110  23.876  25.411  1.00  0.00     0.183 C 
ATOM     89  C   UNL A   1      35.146  22.898  24.951  1.00  0.00     0.071 C 
ATOM     90  C   UNL A   1      35.568  24.147  25.659  1.00  0.00     0.071 C 
ENDBRANCH  85  88
ENDBRANCH  80  85
BRANCH  82  91
ATOM     91  C   UNL A   1      30.165  27.011  23.796  1.00  0.00     0.032 C 
BRANCH  91  92
ATOM     92  C   UNL A   1      29.672  27.929  22.640  1.00  0.00     0.123 C 
BRANCH  92  93
ATOM     93  N   UNL A   1      28.902  29.113  22.959  1.00  0.00    -0.337 N 
ATOM     94  C   UNL A   1      29.410  30.324  23.355  1.00  0.00     0.107 A 
ATOM     95  C   UNL A   1      27.543  29.218  22.992  1.00  0.00     0.199 A 
ATOM     96  C   UNL A   1      28.314  31.127  23.556  1.00  0.00     0.130 A 
ATOM     97  N   UNL A   1      27.156  30.425  23.343  1.00  0.00    -0.245 NA
ENDBRANCH  92  93
ENDBRANCH  91  92
ENDBRANCH  82  91
ENDBRANCH  78  80
ENDBRANCH  77  78
ENDBRANCH  76  77
ENDBRANCH  75  76
ENDBRANCH   1  75
TORSDOF 22
ENDMDL
