MODEL 1
REMARK VINA RESULT:     -10.9      0.000      0.000
REMARK SMILES COC(=O)N/N=C/c1ccc(-c2cccc(C(=O)OCCOCCOC(=O)c3ccc(-c4c5nc(c(-c6c(F)cc(S(=O)(=O)[O-])cc6F)c6ccc([nH]6)c(-c6c(F)cc(S(=O)(=O)[O-])cc6F)c6nc(c(-c7c(F)cc(S(=O)(=O)[O-])cc7F)c7ccc4[nH]7)C=C6)C=C5)cc3)c2)o1
REMARK SMILES IDX 21 1 20 2 19 3 17 4 18 5 16 6 12 7 13 8 94 9 14 10 15 11
REMARK SMILES IDX 11 12 8 13 9 14 95 15 10 16 7 17 6 18 5 19 3 20 4 21 2 23
REMARK SMILES IDX 1 24 22 25 23 26 24 27 25 28 26 29 27 30 28 31 29 32 93 33
REMARK SMILES IDX 30 34 92 35 31 36 32 37 33 38 86 39 34 40 91 41 85 42 87 43
REMARK SMILES IDX 35 44 90 45 84 46 83 47 36 49 70 50 49 51 69 52 50 53 53 54
REMARK SMILES IDX 68 55 88 56 51 57 52 58 67 60 89 61 54 62 37 63 38 64 47 65
REMARK SMILES IDX 39 66 40 67 46 68 48 69 41 70 42 71 43 72 44 73 45 74 71 75
REMARK SMILES IDX 72 76 81 77 73 78 74 79 80 80 82 81 75 82 76 83 77 84 78 85
REMARK SMILES IDX 79 86 55 87 56 88 65 89 57 90 58 91 64 92 66 93 59 94 60 95
REMARK SMILES IDX 61 96 62 97 63 98
REMARK H PARENT 5 22 87 48 53 59
REMARK Flexibility Score: inf
ROOT
ATOM      1  C   UNL A   1      33.971  30.773  27.360  1.00  0.00     0.202 C 
ENDROOT
BRANCH   1   2
ATOM      2  C   UNL A   1      32.514  30.370  27.101  1.00  0.00     0.261 C 
BRANCH   2   3
ATOM      3  O   UNL A   1      32.420  29.118  26.404  1.00  0.00    -0.460 OA
BRANCH   3   4
ATOM      4  C   UNL A   1      31.712  28.153  27.042  1.00  0.00     0.338 C 
ATOM      5  O   UNL A   1      31.124  28.254  28.108  1.00  0.00    -0.246 OA
BRANCH   4   6
ATOM      6  C   UNL A   1      31.567  26.975  26.156  1.00  0.00     0.060 A 
ATOM      7  C   UNL A   1      32.050  24.681  25.530  1.00  0.00     0.018 A 
ATOM      8  C   UNL A   1      31.288  24.860  24.364  1.00  0.00     0.012 A 
ATOM      9  C   UNL A   1      32.200  25.756  26.419  1.00  0.00     0.027 A 
ATOM     10  C   UNL A   1      30.662  26.079  24.099  1.00  0.00     0.002 A 
ATOM     11  C   UNL A   1      30.793  27.133  24.999  1.00  0.00     0.016 A 
BRANCH   7  12
ATOM     12  C   UNL A   1      32.627  23.382  25.840  1.00  0.00     0.134 A 
ATOM     13  C   UNL A   1      33.262  21.339  25.317  1.00  0.00     0.147 A 
ATOM     14  C   UNL A   1      33.511  21.498  26.666  1.00  0.00     0.053 A 
ATOM     15  O   UNL A   1      32.711  22.486  24.812  1.00  0.00    -0.455 OA
ATOM     16  C   UNL A   1      33.118  22.815  26.998  1.00  0.00     0.051 A 
BRANCH  13  17
ATOM     17  C   UNL A   1      33.465  20.228  24.430  1.00  0.00     0.180 C 
ATOM     18  N   UNL A   1      33.906  19.101  24.894  1.00  0.00    -0.175 NA
BRANCH  18  19
ATOM     19  N   UNL A   1      34.135  18.059  24.034  1.00  0.00    -0.212 N 
ATOM     20  C   UNL A   1      33.721  16.746  24.111  1.00  0.00     0.427 C 
ATOM     21  O   UNL A   1      33.993  15.942  23.222  1.00  0.00    -0.223 OA
ATOM     22  H   UNL A   1      34.679  18.281  23.244  1.00  0.00     0.197 HD
BRANCH  20  23
ATOM     23  O   UNL A   1      32.985  16.447  25.212  1.00  0.00    -0.452 OA
ATOM     24  C   UNL A   1      32.742  15.053  25.396  1.00  0.00     0.284 C 
ENDBRANCH  20  23
ENDBRANCH  18  19
ENDBRANCH  13  17
ENDBRANCH   7  12
ENDBRANCH   4   6
ENDBRANCH   3   4
ENDBRANCH   2   3
ENDBRANCH   1   2
BRANCH   1  25
ATOM     25  O   UNL A   1      34.236  32.144  27.656  1.00  0.00    -0.374 OA
BRANCH  25  26
ATOM     26  C   UNL A   1      35.324  32.436  28.530  1.00  0.00     0.202 C 
BRANCH  26  27
ATOM     27  C   UNL A   1      35.101  32.291  30.041  1.00  0.00     0.261 C 
BRANCH  27  28
ATOM     28  O   UNL A   1      36.289  31.925  30.760  1.00  0.00    -0.460 OA
BRANCH  28  29
ATOM     29  C   UNL A   1      36.595  30.605  30.700  1.00  0.00     0.338 C 
ATOM     30  O   UNL A   1      35.825  29.665  30.816  1.00  0.00    -0.246 OA
BRANCH  29  31
ATOM     31  C   UNL A   1      37.999  30.431  30.284  1.00  0.00     0.060 A 
ATOM     32  C   UNL A   1      38.245  30.171  28.931  1.00  0.00     0.016 A 
ATOM     33  C   UNL A   1      39.046  30.444  31.207  1.00  0.00     0.016 A 
ATOM     34  C   UNL A   1      39.537  29.880  28.501  1.00  0.00     0.010 A 
ATOM     35  C   UNL A   1      40.343  30.145  30.774  1.00  0.00     0.010 A 
ATOM     36  C   UNL A   1      40.590  29.830  29.424  1.00  0.00    -0.014 A 
BRANCH  36  37
ATOM     37  C   UNL A   1      41.923  29.344  28.988  1.00  0.00     0.031 A 
ATOM     38  C   UNL A   1      43.080  30.307  28.934  1.00  0.00     0.074 A 
ATOM     39  C   UNL A   1      42.104  28.049  28.671  1.00  0.00     0.049 A 
ATOM     40  N   UNL A   1      44.314  30.095  28.561  1.00  0.00    -0.248 NA
ATOM     41  C   UNL A   1      42.807  31.691  29.355  1.00  0.00     0.031 C 
ATOM     42  C   UNL A   1      41.066  27.019  28.709  1.00  0.00     0.029 A 
ATOM     43  N   UNL A   1      43.225  27.380  28.248  1.00  0.00    -0.354 N 
ATOM     44  C   UNL A   1      44.966  31.318  28.690  1.00  0.00     0.074 A 
ATOM     45  C   UNL A   1      43.981  32.274  29.149  1.00  0.00     0.031 C 
ATOM     46  C   UNL A   1      41.597  25.848  28.316  1.00  0.00     0.029 A 
ATOM     47  C   UNL A   1      43.001  26.053  27.964  1.00  0.00     0.049 A 
ATOM     48  H   UNL A   1      44.106  27.809  28.158  1.00  0.00     0.167 HD
ATOM     49  C   UNL A   1      46.266  31.612  28.453  1.00  0.00     0.037 A 
ATOM     50  C   UNL A   1      43.826  25.117  27.453  1.00  0.00     0.037 A 
ATOM     51  C   UNL A   1      47.243  30.652  28.005  1.00  0.00     0.049 A 
ATOM     52  C   UNL A   1      45.256  25.484  27.151  1.00  0.00     0.074 A 
ATOM     53  C   UNL A   1      48.594  30.844  27.774  1.00  0.00     0.029 A 
ATOM     54  N   UNL A   1      46.974  29.323  27.710  1.00  0.00    -0.354 N 
ATOM     55  N   UNL A   1      45.867  26.634  27.316  1.00  0.00    -0.248 NA
ATOM     56  C   UNL A   1      46.112  24.425  26.599  1.00  0.00     0.031 C 
ATOM     57  C   UNL A   1      49.129  29.651  27.279  1.00  0.00     0.029 A 
ATOM     58  C   UNL A   1      48.126  28.693  27.267  1.00  0.00     0.049 A 
ATOM     59  H   UNL A   1      46.095  28.890  27.802  1.00  0.00     0.167 HD
ATOM     60  C   UNL A   1      47.184  26.428  26.915  1.00  0.00     0.074 A 
ATOM     61  C   UNL A   1      47.284  25.039  26.518  1.00  0.00     0.031 C 
ATOM     62  C   UNL A   1      48.216  27.308  26.876  1.00  0.00     0.037 A 
BRANCH  49  63
ATOM     63  C   UNL A   1      46.717  33.035  28.648  1.00  0.00     0.058 A 
ATOM     64  C   UNL A   1      46.456  34.035  27.699  1.00  0.00     0.135 A 
ATOM     65  C   UNL A   1      47.357  33.417  29.839  1.00  0.00     0.135 A 
ATOM     66  F   UNL A   1      45.863  33.725  26.535  1.00  0.00    -0.206 F 
ATOM     67  C   UNL A   1      46.825  35.359  27.915  1.00  0.00     0.059 A 
ATOM     68  C   UNL A   1      47.710  34.739  30.090  1.00  0.00     0.059 A 
ATOM     69  F   UNL A   1      47.635  32.501  30.781  1.00  0.00    -0.206 F 
ATOM     70  C   UNL A   1      47.446  35.703  29.119  1.00  0.00     0.060 A 
BRANCH  70  71
ATOM     71  S   UNL A   1      47.887  37.432  29.399  1.00  0.00     0.124 S 
ATOM     72  O   UNL A   1      48.020  37.468  30.852  1.00  0.00    -0.237 OA
ATOM     73  O   UNL A   1      49.129  37.561  28.645  1.00  0.00    -0.237 OA
ATOM     74  O   UNL A   1      46.748  38.166  28.855  1.00  0.00    -0.744 OA
ENDBRANCH  70  71
ENDBRANCH  49  63
BRANCH  50  75
ATOM     75  C   UNL A   1      43.316  23.748  27.169  1.00  0.00     0.058 A 
ATOM     76  C   UNL A   1      43.130  22.811  28.195  1.00  0.00     0.135 A 
ATOM     77  C   UNL A   1      43.021  23.345  25.857  1.00  0.00     0.135 A 
ATOM     78  F   UNL A   1      43.407  23.142  29.466  1.00  0.00    -0.206 F 
ATOM     79  C   UNL A   1      42.695  21.515  27.930  1.00  0.00     0.059 A 
ATOM     80  C   UNL A   1      42.554  22.066  25.570  1.00  0.00     0.059 A 
ATOM     81  F   UNL A   1      43.169  24.206  24.838  1.00  0.00    -0.206 F 
ATOM     82  C   UNL A   1      42.407  21.153  26.613  1.00  0.00     0.060 A 
BRANCH  82  83
ATOM     83  S   UNL A   1      41.810  19.482  26.283  1.00  0.00     0.124 S 
ATOM     84  O   UNL A   1      42.253  18.772  27.477  1.00  0.00    -0.237 OA
ATOM     85  O   UNL A   1      40.371  19.692  26.159  1.00  0.00    -0.237 OA
ATOM     86  O   UNL A   1      42.492  19.121  25.044  1.00  0.00    -0.744 OA
ENDBRANCH  82  83
ENDBRANCH  50  75
BRANCH  62  87
ATOM     87  C   UNL A   1      49.554  26.789  26.421  1.00  0.00     0.058 A 
ATOM     88  C   UNL A   1      50.403  26.072  27.280  1.00  0.00     0.135 A 
ATOM     89  C   UNL A   1      49.979  26.982  25.095  1.00  0.00     0.135 A 
ATOM     90  F   UNL A   1      50.052  25.862  28.558  1.00  0.00    -0.206 F 
ATOM     91  C   UNL A   1      51.640  25.598  26.851  1.00  0.00     0.059 A 
ATOM     92  C   UNL A   1      51.195  26.485  24.636  1.00  0.00     0.059 A 
ATOM     93  F   UNL A   1      49.202  27.649  24.227  1.00  0.00    -0.206 F 
ATOM     94  C   UNL A   1      52.026  25.809  25.526  1.00  0.00     0.060 A 
BRANCH  94  95
ATOM     95  S   UNL A   1      53.625  25.175  24.980  1.00  0.00     0.124 S 
ATOM     96  O   UNL A   1      54.548  26.016  25.735  1.00  0.00    -0.237 OA
ATOM     97  O   UNL A   1      53.562  23.775  25.390  1.00  0.00    -0.237 OA
ATOM     98  O   UNL A   1      53.608  25.401  23.538  1.00  0.00    -0.744 OA
ENDBRANCH  94  95
ENDBRANCH  62  87
ENDBRANCH  36  37
ENDBRANCH  29  31
ENDBRANCH  28  29
ENDBRANCH  27  28
ENDBRANCH  26  27
ENDBRANCH  25  26
ENDBRANCH   1  25
TORSDOF 21
ENDMDL
MODEL 2
REMARK VINA RESULT:     -10.5      3.129      9.776
REMARK SMILES COC(=O)N/N=C/c1ccc(-c2cccc(C(=O)OCCOCCOC(=O)c3ccc(-c4c5nc(c(-c6c(F)cc(S(=O)(=O)[O-])cc6F)c6ccc([nH]6)c(-c6c(F)cc(S(=O)(=O)[O-])cc6F)c6nc(c(-c7c(F)cc(S(=O)(=O)[O-])cc7F)c7ccc4[nH]7)C=C6)C=C5)cc3)c2)o1
REMARK SMILES IDX 21 1 20 2 19 3 17 4 18 5 16 6 12 7 13 8 94 9 14 10 15 11
REMARK SMILES IDX 11 12 8 13 9 14 95 15 10 16 7 17 6 18 5 19 3 20 4 21 2 23
REMARK SMILES IDX 1 24 22 25 23 26 24 27 25 28 26 29 27 30 28 31 29 32 93 33
REMARK SMILES IDX 30 34 92 35 31 36 32 37 33 38 86 39 34 40 91 41 85 42 87 43
REMARK SMILES IDX 35 44 90 45 84 46 83 47 36 49 70 50 49 51 69 52 50 53 53 54
REMARK SMILES IDX 68 55 88 56 51 57 52 58 67 60 89 61 54 62 37 63 38 64 47 65
REMARK SMILES IDX 39 66 40 67 46 68 48 69 41 70 42 71 43 72 44 73 45 74 71 75
REMARK SMILES IDX 72 76 81 77 73 78 74 79 80 80 82 81 75 82 76 83 77 84 78 85
REMARK SMILES IDX 79 86 55 87 56 88 65 89 57 90 58 91 64 92 66 93 59 94 60 95
REMARK SMILES IDX 61 96 62 97 63 98
REMARK H PARENT 5 22 87 48 53 59
REMARK Flexibility Score: inf
ROOT
ATOM      1  C   UNL A   1      36.446  21.162  24.695  1.00  0.00     0.202 C 
ENDROOT
BRANCH   1   2
ATOM      2  C   UNL A   1      36.804  22.402  23.865  1.00  0.00     0.261 C 
BRANCH   2   3
ATOM      3  O   UNL A   1      35.813  23.434  23.987  1.00  0.00    -0.460 OA
BRANCH   3   4
ATOM      4  C   UNL A   1      35.706  23.988  25.220  1.00  0.00     0.338 C 
ATOM      5  O   UNL A   1      36.612  24.416  25.917  1.00  0.00    -0.246 OA
BRANCH   4   6
ATOM      6  C   UNL A   1      34.275  24.201  25.545  1.00  0.00     0.060 A 
ATOM      7  C   UNL A   1      32.139  25.306  25.229  1.00  0.00     0.018 A 
ATOM      8  C   UNL A   1      31.623  24.573  26.310  1.00  0.00     0.012 A 
ATOM      9  C   UNL A   1      33.481  25.126  24.860  1.00  0.00     0.027 A 
ATOM     10  C   UNL A   1      32.419  23.655  26.996  1.00  0.00     0.002 A 
ATOM     11  C   UNL A   1      33.741  23.462  26.608  1.00  0.00     0.016 A 
BRANCH   7  12
ATOM     12  C   UNL A   1      31.279  26.198  24.465  1.00  0.00     0.134 A 
ATOM     13  C   UNL A   1      30.492  28.183  23.926  1.00  0.00     0.147 A 
ATOM     14  C   UNL A   1      29.801  27.263  23.163  1.00  0.00     0.053 A 
ATOM     15  O   UNL A   1      31.388  27.533  24.732  1.00  0.00    -0.455 OA
ATOM     16  C   UNL A   1      30.318  25.989  23.498  1.00  0.00     0.051 A 
BRANCH  13  17
ATOM     17  C   UNL A   1      30.409  29.615  24.007  1.00  0.00     0.180 C 
ATOM     18  N   UNL A   1      29.350  30.227  23.580  1.00  0.00    -0.175 NA
BRANCH  18  19
ATOM     19  N   UNL A   1      29.296  31.595  23.625  1.00  0.00    -0.212 N 
ATOM     20  C   UNL A   1      28.821  32.490  22.689  1.00  0.00     0.427 C 
ATOM     21  O   UNL A   1      28.817  33.699  22.911  1.00  0.00    -0.223 OA
ATOM     22  H   UNL A   1      29.651  32.001  24.449  1.00  0.00     0.197 HD
BRANCH  20  23
ATOM     23  O   UNL A   1      28.347  31.921  21.551  1.00  0.00    -0.452 OA
ATOM     24  C   UNL A   1      27.740  32.840  20.643  1.00  0.00     0.284 C 
ENDBRANCH  20  23
ENDBRANCH  18  19
ENDBRANCH  13  17
ENDBRANCH   7  12
ENDBRANCH   4   6
ENDBRANCH   3   4
ENDBRANCH   2   3
ENDBRANCH   1   2
BRANCH   1  25
ATOM     25  O   UNL A   1      37.518  20.331  25.139  1.00  0.00    -0.374 OA
BRANCH  25  26
ATOM     26  C   UNL A   1      38.744  20.964  25.498  1.00  0.00     0.202 C 
BRANCH  26  27
ATOM     27  C   UNL A   1      39.804  20.130  26.230  1.00  0.00     0.261 C 
BRANCH  27  28
ATOM     28  O   UNL A   1      40.909  19.754  25.394  1.00  0.00    -0.460 OA
BRANCH  28  29
ATOM     29  C   UNL A   1      42.058  19.496  26.069  1.00  0.00     0.338 C 
ATOM     30  O   UNL A   1      42.522  18.401  26.339  1.00  0.00    -0.246 OA
BRANCH  29  31
ATOM     31  C   UNL A   1      42.801  20.748  26.295  1.00  0.00     0.060 A 
ATOM     32  C   UNL A   1      42.777  21.292  27.585  1.00  0.00     0.016 A 
ATOM     33  C   UNL A   1      43.444  21.420  25.254  1.00  0.00     0.016 A 
ATOM     34  C   UNL A   1      43.359  22.532  27.830  1.00  0.00     0.010 A 
ATOM     35  C   UNL A   1      44.023  22.671  25.501  1.00  0.00     0.010 A 
ATOM     36  C   UNL A   1      43.956  23.248  26.784  1.00  0.00    -0.014 A 
BRANCH  36  37
ATOM     37  C   UNL A   1      44.411  24.641  27.016  1.00  0.00     0.031 A 
ATOM     38  C   UNL A   1      43.414  25.681  27.454  1.00  0.00     0.074 A 
ATOM     39  C   UNL A   1      45.707  24.966  26.866  1.00  0.00     0.049 A 
ATOM     40  N   UNL A   1      43.597  26.954  27.688  1.00  0.00    -0.248 NA
ATOM     41  C   UNL A   1      42.028  25.226  27.653  1.00  0.00     0.031 C 
ATOM     42  C   UNL A   1      46.768  24.040  26.470  1.00  0.00     0.029 A 
ATOM     43  N   UNL A   1      46.353  26.168  27.021  1.00  0.00    -0.354 N 
ATOM     44  C   UNL A   1      42.351  27.458  28.050  1.00  0.00     0.074 A 
ATOM     45  C   UNL A   1      41.415  26.357  27.977  1.00  0.00     0.031 C 
ATOM     46  C   UNL A   1      47.932  24.710  26.404  1.00  0.00     0.029 A 
ATOM     47  C   UNL A   1      47.693  26.118  26.717  1.00  0.00     0.049 A 
ATOM     48  H   UNL A   1      45.898  26.988  27.323  1.00  0.00     0.167 HD
ATOM     49  C   UNL A   1      42.023  28.720  28.415  1.00  0.00     0.037 A 
ATOM     50  C   UNL A   1      48.616  27.099  26.671  1.00  0.00     0.037 A 
ATOM     51  C   UNL A   1      42.964  29.808  28.495  1.00  0.00     0.049 A 
ATOM     52  C   UNL A   1      48.213  28.505  27.034  1.00  0.00     0.074 A 
ATOM     53  C   UNL A   1      42.735  31.114  28.892  1.00  0.00     0.029 A 
ATOM     54  N   UNL A   1      44.308  29.723  28.161  1.00  0.00    -0.354 N 
ATOM     55  N   UNL A   1      47.040  28.957  27.413  1.00  0.00    -0.248 NA
ATOM     56  C   UNL A   1      49.258  29.535  26.969  1.00  0.00     0.031 C 
ATOM     57  C   UNL A   1      43.924  31.834  28.738  1.00  0.00     0.029 A 
ATOM     58  C   UNL A   1      44.913  30.961  28.311  1.00  0.00     0.049 A 
ATOM     59  H   UNL A   1      44.765  28.904  27.862  1.00  0.00     0.167 HD
ATOM     60  C   UNL A   1      47.215  30.316  27.658  1.00  0.00     0.074 A 
ATOM     61  C   UNL A   1      48.611  30.607  27.403  1.00  0.00     0.031 C 
ATOM     62  C   UNL A   1      46.304  31.239  28.056  1.00  0.00     0.037 A 
BRANCH  49  63
ATOM     63  C   UNL A   1      40.582  29.010  28.738  1.00  0.00     0.058 A 
ATOM     64  C   UNL A   1      40.107  29.046  30.059  1.00  0.00     0.135 A 
ATOM     65  C   UNL A   1      39.677  29.328  27.712  1.00  0.00     0.135 A 
ATOM     66  F   UNL A   1      40.922  28.733  31.079  1.00  0.00    -0.206 F 
ATOM     67  C   UNL A   1      38.786  29.373  30.350  1.00  0.00     0.059 A 
ATOM     68  C   UNL A   1      38.359  29.686  27.980  1.00  0.00     0.059 A 
ATOM     69  F   UNL A   1      40.075  29.306  26.430  1.00  0.00    -0.206 F 
ATOM     70  C   UNL A   1      37.921  29.699  29.303  1.00  0.00     0.060 A 
BRANCH  70  71
ATOM     71  S   UNL A   1      36.219  30.154  29.701  1.00  0.00     0.124 S 
ATOM     72  O   UNL A   1      36.047  29.527  31.007  1.00  0.00    -0.237 OA
ATOM     73  O   UNL A   1      36.280  31.612  29.701  1.00  0.00    -0.237 OA
ATOM     74  O   UNL A   1      35.445  29.562  28.615  1.00  0.00    -0.744 OA
ENDBRANCH  70  71
ENDBRANCH  49  63
BRANCH  50  75
ATOM     75  C   UNL A   1      50.008  26.795  26.240  1.00  0.00     0.058 A 
ATOM     76  C   UNL A   1      50.415  26.971  24.909  1.00  0.00     0.135 A 
ATOM     77  C   UNL A   1      50.956  26.307  27.152  1.00  0.00     0.135 A 
ATOM     78  F   UNL A   1      49.544  27.427  23.996  1.00  0.00    -0.206 F 
ATOM     79  C   UNL A   1      51.703  26.649  24.492  1.00  0.00     0.059 A 
ATOM     80  C   UNL A   1      52.259  26.008  26.767  1.00  0.00     0.059 A 
ATOM     81  F   UNL A   1      50.623  26.132  28.441  1.00  0.00    -0.206 F 
ATOM     82  C   UNL A   1      52.619  26.169  25.430  1.00  0.00     0.060 A 
BRANCH  82  83
ATOM     83  S   UNL A   1      54.297  25.787  24.887  1.00  0.00     0.124 S 
ATOM     84  O   UNL A   1      55.092  26.615  25.786  1.00  0.00    -0.237 OA
ATOM     85  O   UNL A   1      54.370  24.347  25.111  1.00  0.00    -0.237 OA
ATOM     86  O   UNL A   1      54.298  26.196  23.485  1.00  0.00    -0.744 OA
ENDBRANCH  82  83
ENDBRANCH  50  75
BRANCH  62  87
ATOM     87  C   UNL A   1      46.793  32.647  28.276  1.00  0.00     0.058 A 
ATOM     88  C   UNL A   1      46.714  33.625  27.270  1.00  0.00     0.135 A 
ATOM     89  C   UNL A   1      47.316  33.033  29.521  1.00  0.00     0.135 A 
ATOM     90  F   UNL A   1      46.228  33.312  26.059  1.00  0.00    -0.206 F 
ATOM     91  C   UNL A   1      47.170  34.923  27.481  1.00  0.00     0.059 A 
ATOM     92  C   UNL A   1      47.744  34.334  29.765  1.00  0.00     0.059 A 
ATOM     93  F   UNL A   1      47.403  32.143  30.523  1.00  0.00    -0.206 F 
ATOM     94  C   UNL A   1      47.683  35.268  28.733  1.00  0.00     0.060 A 
BRANCH  94  95
ATOM     95  S   UNL A   1      48.256  36.959  28.996  1.00  0.00     0.124 S 
ATOM     96  O   UNL A   1      47.039  37.612  29.469  1.00  0.00    -0.237 OA
ATOM     97  O   UNL A   1      49.308  36.781  29.991  1.00  0.00    -0.237 OA
ATOM     98  O   UNL A   1      48.715  37.373  27.673  1.00  0.00    -0.744 OA
ENDBRANCH  94  95
ENDBRANCH  62  87
ENDBRANCH  36  37
ENDBRANCH  29  31
ENDBRANCH  28  29
ENDBRANCH  27  28
ENDBRANCH  26  27
ENDBRANCH  25  26
ENDBRANCH   1  25
TORSDOF 21
ENDMDL
MODEL 3
REMARK VINA RESULT:     -10.4      4.795     11.718
REMARK SMILES COC(=O)N/N=C/c1ccc(-c2cccc(C(=O)OCCOCCOC(=O)c3ccc(-c4c5nc(c(-c6c(F)cc(S(=O)(=O)[O-])cc6F)c6ccc([nH]6)c(-c6c(F)cc(S(=O)(=O)[O-])cc6F)c6nc(c(-c7c(F)cc(S(=O)(=O)[O-])cc7F)c7ccc4[nH]7)C=C6)C=C5)cc3)c2)o1
REMARK SMILES IDX 21 1 20 2 19 3 17 4 18 5 16 6 12 7 13 8 94 9 14 10 15 11
REMARK SMILES IDX 11 12 8 13 9 14 95 15 10 16 7 17 6 18 5 19 3 20 4 21 2 23
REMARK SMILES IDX 1 24 22 25 23 26 24 27 25 28 26 29 27 30 28 31 29 32 93 33
REMARK SMILES IDX 30 34 92 35 31 36 32 37 33 38 86 39 34 40 91 41 85 42 87 43
REMARK SMILES IDX 35 44 90 45 84 46 83 47 36 49 70 50 49 51 69 52 50 53 53 54
REMARK SMILES IDX 68 55 88 56 51 57 52 58 67 60 89 61 54 62 37 63 38 64 47 65
REMARK SMILES IDX 39 66 40 67 46 68 48 69 41 70 42 71 43 72 44 73 45 74 71 75
REMARK SMILES IDX 72 76 81 77 73 78 74 79 80 80 82 81 75 82 76 83 77 84 78 85
REMARK SMILES IDX 79 86 55 87 56 88 65 89 57 90 58 91 64 92 66 93 59 94 60 95
REMARK SMILES IDX 61 96 62 97 63 98
REMARK H PARENT 5 22 87 48 53 59
REMARK Flexibility Score: inf
ROOT
ATOM      1  C   UNL A   1      43.874  19.978  25.671  1.00  0.00     0.202 C 
ENDROOT
BRANCH   1   2
ATOM      2  C   UNL A   1      44.552  21.074  24.840  1.00  0.00     0.261 C 
BRANCH   2   3
ATOM      3  O   UNL A   1      44.364  22.377  25.413  1.00  0.00    -0.460 OA
BRANCH   3   4
ATOM      4  C   UNL A   1      45.288  22.741  26.336  1.00  0.00     0.338 C 
ATOM      5  O   UNL A   1      46.490  22.865  26.166  1.00  0.00    -0.246 OA
BRANCH   4   6
ATOM      6  C   UNL A   1      44.604  23.179  27.576  1.00  0.00     0.060 A 
ATOM      7  C   UNL A   1      44.557  24.310  29.722  1.00  0.00     0.018 A 
ATOM      8  C   UNL A   1      43.238  23.866  29.904  1.00  0.00     0.012 A 
ATOM      9  C   UNL A   1      45.245  23.947  28.554  1.00  0.00     0.027 A 
ATOM     10  C   UNL A   1      42.602  23.095  28.930  1.00  0.00     0.002 A 
ATOM     11  C   UNL A   1      43.281  22.761  27.762  1.00  0.00     0.016 A 
BRANCH   7  12
ATOM     12  C   UNL A   1      45.183  25.184  30.703  1.00  0.00     0.134 A 
ATOM     13  C   UNL A   1      45.128  26.633  32.361  1.00  0.00     0.147 A 
ATOM     14  C   UNL A   1      46.457  26.452  32.038  1.00  0.00     0.053 A 
ATOM     15  O   UNL A   1      44.345  25.867  31.539  1.00  0.00    -0.455 OA
ATOM     16  C   UNL A   1      46.493  25.510  30.983  1.00  0.00     0.051 A 
BRANCH  13  17
ATOM     17  C   UNL A   1      44.485  27.453  33.350  1.00  0.00     0.180 C 
ATOM     18  N   UNL A   1      43.381  27.058  33.901  1.00  0.00    -0.175 NA
BRANCH  18  19
ATOM     19  N   UNL A   1      42.754  27.864  34.813  1.00  0.00    -0.212 N 
ATOM     20  C   UNL A   1      41.428  28.232  34.900  1.00  0.00     0.427 C 
ATOM     21  O   UNL A   1      41.025  28.946  35.817  1.00  0.00    -0.223 OA
ATOM     22  H   UNL A   1      43.338  28.238  35.512  1.00  0.00     0.197 HD
BRANCH  20  23
ATOM     23  O   UNL A   1      40.633  27.723  33.924  1.00  0.00    -0.452 OA
ATOM     24  C   UNL A   1      40.078  28.703  33.046  1.00  0.00     0.284 C 
ENDBRANCH  20  23
ENDBRANCH  18  19
ENDBRANCH  13  17
ENDBRANCH   7  12
ENDBRANCH   4   6
ENDBRANCH   3   4
ENDBRANCH   2   3
ENDBRANCH   1   2
BRANCH   1  25
ATOM     25  O   UNL A   1      42.561  19.573  25.287  1.00  0.00    -0.374 OA
BRANCH  25  26
ATOM     26  C   UNL A   1      41.468  20.013  26.091  1.00  0.00     0.202 C 
BRANCH  26  27
ATOM     27  C   UNL A   1      41.012  21.472  25.959  1.00  0.00     0.261 C 
BRANCH  27  28
ATOM     28  O   UNL A   1      40.022  21.848  26.928  1.00  0.00    -0.460 OA
BRANCH  28  29
ATOM     29  C   UNL A   1      39.105  22.740  26.473  1.00  0.00     0.338 C 
ATOM     30  O   UNL A   1      38.062  22.491  25.892  1.00  0.00    -0.246 OA
BRANCH  29  31
ATOM     31  C   UNL A   1      39.448  24.096  26.939  1.00  0.00     0.060 A 
ATOM     32  C   UNL A   1      39.959  24.994  25.995  1.00  0.00     0.016 A 
ATOM     33  C   UNL A   1      39.345  24.460  28.283  1.00  0.00     0.016 A 
ATOM     34  C   UNL A   1      40.412  26.247  26.398  1.00  0.00     0.010 A 
ATOM     35  C   UNL A   1      39.807  25.718  28.687  1.00  0.00     0.010 A 
ATOM     36  C   UNL A   1      40.372  26.606  27.752  1.00  0.00    -0.014 A 
BRANCH  36  37
ATOM     37  C   UNL A   1      41.020  27.866  28.195  1.00  0.00     0.031 A 
ATOM     38  C   UNL A   1      42.507  28.034  28.020  1.00  0.00     0.074 A 
ATOM     39  C   UNL A   1      40.283  28.861  28.719  1.00  0.00     0.049 A 
ATOM     40  N   UNL A   1      43.269  29.040  28.359  1.00  0.00    -0.248 NA
ATOM     41  C   UNL A   1      43.227  26.920  27.383  1.00  0.00     0.031 C 
ATOM     42  C   UNL A   1      38.833  28.824  28.914  1.00  0.00     0.029 A 
ATOM     43  N   UNL A   1      40.652  30.096  29.192  1.00  0.00    -0.354 N 
ATOM     44  C   UNL A   1      44.561  28.679  27.988  1.00  0.00     0.074 A 
ATOM     45  C   UNL A   1      44.482  27.350  27.423  1.00  0.00     0.031 C 
ATOM     46  C   UNL A   1      38.437  29.980  29.475  1.00  0.00     0.029 A 
ATOM     47  C   UNL A   1      39.608  30.823  29.712  1.00  0.00     0.049 A 
ATOM     48  H   UNL A   1      41.578  30.429  29.160  1.00  0.00     0.167 HD
ATOM     49  C   UNL A   1      45.704  29.397  28.101  1.00  0.00     0.037 A 
ATOM     50  C   UNL A   1      39.599  32.020  30.332  1.00  0.00     0.037 A 
ATOM     51  C   UNL A   1      45.773  30.724  28.655  1.00  0.00     0.049 A 
ATOM     52  C   UNL A   1      40.894  32.775  30.491  1.00  0.00     0.074 A 
ATOM     53  C   UNL A   1      46.879  31.548  28.778  1.00  0.00     0.029 A 
ATOM     54  N   UNL A   1      44.698  31.420  29.189  1.00  0.00    -0.354 N 
ATOM     55  N   UNL A   1      42.100  32.438  30.098  1.00  0.00    -0.248 NA
ATOM     56  C   UNL A   1      40.827  34.075  31.172  1.00  0.00     0.031 C 
ATOM     57  C   UNL A   1      46.486  32.714  29.443  1.00  0.00     0.029 A 
ATOM     58  C   UNL A   1      45.121  32.648  29.673  1.00  0.00     0.049 A 
ATOM     59  H   UNL A   1      43.771  31.091  29.220  1.00  0.00     0.167 HD
ATOM     60  C   UNL A   1      42.928  33.497  30.459  1.00  0.00     0.074 A 
ATOM     61  C   UNL A   1      42.082  34.492  31.084  1.00  0.00     0.031 C 
ATOM     62  C   UNL A   1      44.268  33.633  30.291  1.00  0.00     0.037 A 
BRANCH  49  63
ATOM     63  C   UNL A   1      46.987  28.759  27.640  1.00  0.00     0.058 A 
ATOM     64  C   UNL A   1      47.343  28.698  26.283  1.00  0.00     0.135 A 
ATOM     65  C   UNL A   1      47.909  28.265  28.578  1.00  0.00     0.135 A 
ATOM     66  F   UNL A   1      46.494  29.138  25.341  1.00  0.00    -0.206 F 
ATOM     67  C   UNL A   1      48.558  28.158  25.872  1.00  0.00     0.059 A 
ATOM     68  C   UNL A   1      49.142  27.747  28.193  1.00  0.00     0.059 A 
ATOM     69  F   UNL A   1      47.620  28.295  29.889  1.00  0.00    -0.206 F 
ATOM     70  C   UNL A   1      49.455  27.692  26.837  1.00  0.00     0.060 A 
BRANCH  70  71
ATOM     71  S   UNL A   1      51.042  27.028  26.288  1.00  0.00     0.124 S 
ATOM     72  O   UNL A   1      50.685  25.650  25.963  1.00  0.00    -0.237 OA
ATOM     73  O   UNL A   1      51.361  27.884  25.151  1.00  0.00    -0.237 OA
ATOM     74  O   UNL A   1      51.903  27.193  27.455  1.00  0.00    -0.744 OA
ENDBRANCH  70  71
ENDBRANCH  49  63
BRANCH  50  75
ATOM     75  C   UNL A   1      38.327  32.571  30.875  1.00  0.00     0.058 A 
ATOM     76  C   UNL A   1      37.432  33.278  30.060  1.00  0.00     0.135 A 
ATOM     77  C   UNL A   1      37.990  32.413  32.229  1.00  0.00     0.135 A 
ATOM     78  F   UNL A   1      37.711  33.465  28.761  1.00  0.00    -0.206 F 
ATOM     79  C   UNL A   1      36.261  33.832  30.571  1.00  0.00     0.059 A 
ATOM     80  C   UNL A   1      36.812  32.929  32.757  1.00  0.00     0.059 A 
ATOM     81  F   UNL A   1      38.806  31.733  33.050  1.00  0.00    -0.206 F 
ATOM     82  C   UNL A   1      35.959  33.650  31.921  1.00  0.00     0.060 A 
BRANCH  82  83
ATOM     83  S   UNL A   1      34.423  34.342  32.568  1.00  0.00     0.124 S 
ATOM     84  O   UNL A   1      34.919  35.240  33.605  1.00  0.00    -0.237 OA
ATOM     85  O   UNL A   1      33.855  34.981  31.385  1.00  0.00    -0.237 OA
ATOM     86  O   UNL A   1      33.699  33.166  33.044  1.00  0.00    -0.744 OA
ENDBRANCH  82  83
ENDBRANCH  50  75
BRANCH  62  87
ATOM     87  C   UNL A   1      44.899  34.919  30.758  1.00  0.00     0.058 A 
ATOM     88  C   UNL A   1      45.459  35.048  32.040  1.00  0.00     0.135 A 
ATOM     89  C   UNL A   1      44.976  36.027  29.898  1.00  0.00     0.135 A 
ATOM     90  F   UNL A   1      45.410  34.023  32.906  1.00  0.00    -0.206 F 
ATOM     91  C   UNL A   1      46.039  36.240  32.463  1.00  0.00     0.059 A 
ATOM     92  C   UNL A   1      45.584  37.216  30.288  1.00  0.00     0.059 A 
ATOM     93  F   UNL A   1      44.470  35.956  28.656  1.00  0.00    -0.206 F 
ATOM     94  C   UNL A   1      46.097  37.319  31.579  1.00  0.00     0.060 A 
BRANCH  94  95
ATOM     95  S   UNL A   1      46.866  38.853  32.138  1.00  0.00     0.124 S 
ATOM     96  O   UNL A   1      47.166  38.542  33.531  1.00  0.00    -0.237 OA
ATOM     97  O   UNL A   1      48.019  38.966  31.250  1.00  0.00    -0.237 OA
ATOM     98  O   UNL A   1      45.822  39.853  31.929  1.00  0.00    -0.744 OA
ENDBRANCH  94  95
ENDBRANCH  62  87
ENDBRANCH  36  37
ENDBRANCH  29  31
ENDBRANCH  28  29
ENDBRANCH  27  28
ENDBRANCH  26  27
ENDBRANCH  25  26
ENDBRANCH   1  25
TORSDOF 21
ENDMDL
