MODEL 1
REMARK VINA RESULT:     -11.4      0.000      0.000
REMARK SMILES C[N@@H+]1[C@H]2CC[C@@H]1[C@@H](C(=O)OCCOCCOC(=O)c1ccc(-c3c4nc(c(-c5c(F)cc(S(=O)(=O)[O-])cc5F)c5ccc([nH]5)c(-c5c(F)cc(S(=O)(=O)[O-])cc5F)c5nc(c(-c6c(F)cc(S(=O)(=O)[O-])cc6F)c6ccc3[nH]6)C=C5)C=C4)cc1)[C@@H](OC(=O)c1ccccc1)C2
REMARK SMILES IDX 13 1 12 2 11 3 10 4 8 5 9 6 7 7 1 8 2 9 3 10 6 11 4 13 95 14
REMARK SMILES IDX 5 15 85 16 86 17 87 18 88 19 89 20 90 21 94 22 91 23 93 24
REMARK SMILES IDX 92 25 14 26 15 27 16 28 17 29 18 30 19 31 20 32 84 33 21 34
REMARK SMILES IDX 83 35 22 36 23 37 24 38 77 39 25 40 82 41 76 42 78 43 26 44
REMARK SMILES IDX 81 45 75 46 74 47 27 49 61 50 40 51 60 52 41 53 44 54 59 55
REMARK SMILES IDX 79 56 42 57 43 58 58 60 80 61 45 62 28 63 29 64 38 65 30 66
REMARK SMILES IDX 31 67 37 68 39 69 32 70 33 71 34 72 35 73 36 74 62 75 63 76
REMARK SMILES IDX 72 77 64 78 65 79 71 80 73 81 66 82 67 83 68 84 69 85 70 86
REMARK SMILES IDX 46 87 47 88 56 89 48 90 49 91 55 92 57 93 50 94 51 95 52 96
REMARK SMILES IDX 53 97 54 98
REMARK H PARENT 2 12 78 48 44 59
REMARK Flexibility Score: inf
ROOT
ATOM      1  O   UNL A   1      38.127  21.760  26.077  1.00  0.00    -0.374 OA
ENDROOT
BRANCH   1   2
ATOM      2  C   UNL A   1      37.456  21.589  24.834  1.00  0.00     0.202 C 
BRANCH   2   3
ATOM      3  C   UNL A   1      36.876  22.828  24.133  1.00  0.00     0.261 C 
BRANCH   3   4
ATOM      4  O   UNL A   1      36.052  23.693  24.959  1.00  0.00    -0.463 OA
BRANCH   4   5
ATOM      5  C   UNL A   1      34.789  23.267  25.184  1.00  0.00     0.318 C 
ATOM      6  O   UNL A   1      34.442  22.686  26.214  1.00  0.00    -0.252 OA
BRANCH   5   7
ATOM      7  C   UNL A   1      33.809  23.395  24.034  1.00  0.00     0.198 C 
ATOM      8  C   UNL A   1      32.568  25.490  26.068  1.00  0.00     0.333 C 
ATOM      9  N   UNL A   1      32.496  25.490  24.621  1.00  0.00    -0.332 N 
ATOM     10  C   UNL A   1      31.306  24.870  24.054  1.00  0.00     0.188 C 
ATOM     11  C   UNL A   1      33.604  24.921  23.852  1.00  0.00     0.202 C 
ATOM     12  H   UNL A   1      32.509  26.505  24.516  1.00  0.00     0.348 HD
ATOM     13  C   UNL A   1      31.563  25.175  22.571  1.00  0.00     0.071 C 
ATOM     14  C   UNL A   1      31.250  23.357  24.354  1.00  0.00     0.111 C 
ATOM     15  C   UNL A   1      33.092  25.229  22.440  1.00  0.00     0.072 C 
ATOM     16  C   UNL A   1      32.489  22.587  23.864  1.00  0.00     0.203 C 
BRANCH  16  17
ATOM     17  O   UNL A   1      32.602  21.196  24.289  1.00  0.00    -0.457 OA
BRANCH  17  18
ATOM     18  C   UNL A   1      32.430  20.177  23.388  1.00  0.00     0.338 C 
ATOM     19  O   UNL A   1      31.942  20.252  22.279  1.00  0.00    -0.246 OA
BRANCH  18  20
ATOM     20  C   UNL A   1      32.838  18.868  23.974  1.00  0.00     0.060 A 
ATOM     21  C   UNL A   1      33.347  17.876  23.126  1.00  0.00     0.015 A 
ATOM     22  C   UNL A   1      32.656  18.583  25.332  1.00  0.00     0.015 A 
ATOM     23  C   UNL A   1      33.512  16.569  23.591  1.00  0.00     0.001 A 
ATOM     24  C   UNL A   1      32.849  17.278  25.801  1.00  0.00     0.001 A 
ATOM     25  C   UNL A   1      33.238  16.266  24.922  1.00  0.00     0.000 A 
ENDBRANCH  18  20
ENDBRANCH  17  18
ENDBRANCH  16  17
ENDBRANCH   5   7
ENDBRANCH   4   5
ENDBRANCH   3   4
ENDBRANCH   2   3
ENDBRANCH   1   2
BRANCH   1  26
ATOM     26  C   UNL A   1      39.536  21.669  26.071  1.00  0.00     0.202 C 
BRANCH  26  27
ATOM     27  C   UNL A   1      40.356  22.892  26.486  1.00  0.00     0.261 C 
BRANCH  27  28
ATOM     28  O   UNL A   1      39.733  24.192  26.417  1.00  0.00    -0.460 OA
BRANCH  28  29
ATOM     29  C   UNL A   1      40.600  25.231  26.340  1.00  0.00     0.338 C 
ATOM     30  O   UNL A   1      41.146  25.634  25.324  1.00  0.00    -0.246 OA
BRANCH  29  31
ATOM     31  C   UNL A   1      40.742  25.974  27.616  1.00  0.00     0.060 A 
ATOM     32  C   UNL A   1      39.672  25.864  28.509  1.00  0.00     0.016 A 
ATOM     33  C   UNL A   1      41.760  26.900  27.874  1.00  0.00     0.016 A 
ATOM     34  C   UNL A   1      39.576  26.718  29.609  1.00  0.00     0.010 A 
ATOM     35  C   UNL A   1      41.650  27.777  28.971  1.00  0.00     0.010 A 
ATOM     36  C   UNL A   1      40.542  27.710  29.830  1.00  0.00    -0.014 A 
BRANCH  36  37
ATOM     37  C   UNL A   1      40.363  28.639  30.982  1.00  0.00     0.031 A 
ATOM     38  C   UNL A   1      41.242  28.553  32.202  1.00  0.00     0.074 A 
ATOM     39  C   UNL A   1      39.453  29.627  30.882  1.00  0.00     0.049 A 
ATOM     40  N   UNL A   1      41.296  29.353  33.238  1.00  0.00    -0.248 NA
ATOM     41  C   UNL A   1      42.185  27.427  32.266  1.00  0.00     0.031 C 
ATOM     42  C   UNL A   1      38.554  29.823  29.743  1.00  0.00     0.029 A 
ATOM     43  N   UNL A   1      39.147  30.659  31.732  1.00  0.00    -0.354 N 
ATOM     44  C   UNL A   1      42.293  28.845  34.068  1.00  0.00     0.074 A 
ATOM     45  C   UNL A   1      42.783  27.639  33.433  1.00  0.00     0.031 C 
ATOM     46  C   UNL A   1      37.809  30.919  29.960  1.00  0.00     0.029 A 
ATOM     47  C   UNL A   1      38.156  31.487  31.259  1.00  0.00     0.049 A 
ATOM     48  H   UNL A   1      39.594  30.793  32.600  1.00  0.00     0.167 HD
ATOM     49  C   UNL A   1      42.764  29.349  35.237  1.00  0.00     0.037 A 
ATOM     50  C   UNL A   1      37.589  32.578  31.810  1.00  0.00     0.037 A 
ATOM     51  C   UNL A   1      42.255  30.541  35.874  1.00  0.00     0.049 A 
ATOM     52  C   UNL A   1      38.081  33.072  33.145  1.00  0.00     0.074 A 
ATOM     53  C   UNL A   1      42.670  31.129  37.059  1.00  0.00     0.029 A 
ATOM     54  N   UNL A   1      41.218  31.324  35.388  1.00  0.00    -0.354 N 
ATOM     55  N   UNL A   1      39.053  32.605  33.890  1.00  0.00    -0.248 NA
ATOM     56  C   UNL A   1      37.405  34.249  33.708  1.00  0.00     0.031 C 
ATOM     57  C   UNL A   1      41.852  32.236  37.312  1.00  0.00     0.029 A 
ATOM     58  C   UNL A   1      40.965  32.374  36.259  1.00  0.00     0.049 A 
ATOM     59  H   UNL A   1      40.732  31.158  34.547  1.00  0.00     0.167 HD
ATOM     60  C   UNL A   1      39.126  33.450  34.993  1.00  0.00     0.074 A 
ATOM     61  C   UNL A   1      38.110  34.465  34.809  1.00  0.00     0.031 C 
ATOM     62  C   UNL A   1      39.960  33.389  36.062  1.00  0.00     0.037 A 
BRANCH  49  63
ATOM     63  C   UNL A   1      43.894  28.618  35.917  1.00  0.00     0.058 A 
ATOM     64  C   UNL A   1      43.656  27.518  36.759  1.00  0.00     0.135 A 
ATOM     65  C   UNL A   1      45.233  28.964  35.667  1.00  0.00     0.135 A 
ATOM     66  F   UNL A   1      42.398  27.142  37.037  1.00  0.00    -0.206 F 
ATOM     67  C   UNL A   1      44.700  26.808  37.346  1.00  0.00     0.059 A 
ATOM     68  C   UNL A   1      46.294  28.251  36.223  1.00  0.00     0.059 A 
ATOM     69  F   UNL A   1      45.525  30.000  34.864  1.00  0.00    -0.206 F 
ATOM     70  C   UNL A   1      46.016  27.181  37.070  1.00  0.00     0.060 A 
BRANCH  70  71
ATOM     71  S   UNL A   1      47.355  26.242  37.836  1.00  0.00     0.124 S 
ATOM     72  O   UNL A   1      47.222  26.632  39.237  1.00  0.00    -0.237 OA
ATOM     73  O   UNL A   1      46.986  24.864  37.526  1.00  0.00    -0.237 OA
ATOM     74  O   UNL A   1      48.550  26.735  37.159  1.00  0.00    -0.744 OA
ENDBRANCH  70  71
ENDBRANCH  49  63
BRANCH  50  75
ATOM     75  C   UNL A   1      36.484  33.282  31.102  1.00  0.00     0.058 A 
ATOM     76  C   UNL A   1      36.729  34.053  29.956  1.00  0.00     0.135 A 
ATOM     77  C   UNL A   1      35.164  33.216  31.575  1.00  0.00     0.135 A 
ATOM     78  F   UNL A   1      37.974  34.153  29.468  1.00  0.00    -0.206 F 
ATOM     79  C   UNL A   1      35.711  34.760  29.323  1.00  0.00     0.059 A 
ATOM     80  C   UNL A   1      34.125  33.886  30.941  1.00  0.00     0.059 A 
ATOM     81  F   UNL A   1      34.873  32.478  32.658  1.00  0.00    -0.206 F 
ATOM     82  C   UNL A   1      34.412  34.671  29.825  1.00  0.00     0.060 A 
BRANCH  82  83
ATOM     83  S   UNL A   1      33.095  35.580  28.989  1.00  0.00     0.124 S 
ATOM     84  O   UNL A   1      32.331  36.094  30.121  1.00  0.00    -0.237 OA
ATOM     85  O   UNL A   1      33.845  36.569  28.222  1.00  0.00    -0.237 OA
ATOM     86  O   UNL A   1      32.431  34.553  28.194  1.00  0.00    -0.744 OA
ENDBRANCH  82  83
ENDBRANCH  50  75
BRANCH  62  87
ATOM     87  C   UNL A   1      39.839  34.477  37.098  1.00  0.00     0.058 A 
ATOM     88  C   UNL A   1      40.543  35.687  36.990  1.00  0.00     0.135 A 
ATOM     89  C   UNL A   1      38.977  34.320  38.196  1.00  0.00     0.135 A 
ATOM     90  F   UNL A   1      41.387  35.888  35.966  1.00  0.00    -0.206 F 
ATOM     91  C   UNL A   1      40.418  36.690  37.947  1.00  0.00     0.059 A 
ATOM     92  C   UNL A   1      38.813  35.322  39.149  1.00  0.00     0.059 A 
ATOM     93  F   UNL A   1      38.272  33.187  38.346  1.00  0.00    -0.206 F 
ATOM     94  C   UNL A   1      39.549  36.499  39.022  1.00  0.00     0.060 A 
BRANCH  94  95
ATOM     95  S   UNL A   1      39.374  37.823  40.238  1.00  0.00     0.124 S 
ATOM     96  O   UNL A   1      38.235  38.564  39.705  1.00  0.00    -0.237 OA
ATOM     97  O   UNL A   1      39.127  37.083  41.472  1.00  0.00    -0.237 OA
ATOM     98  O   UNL A   1      40.658  38.515  40.176  1.00  0.00    -0.744 OA
ENDBRANCH  94  95
ENDBRANCH  62  87
ENDBRANCH  36  37
ENDBRANCH  29  31
ENDBRANCH  28  29
ENDBRANCH  27  28
ENDBRANCH  26  27
ENDBRANCH   1  26
TORSDOF 20
ENDMDL
MODEL 2
REMARK VINA RESULT:     -11.0      1.508      3.345
REMARK SMILES C[N@@H+]1[C@H]2CC[C@@H]1[C@@H](C(=O)OCCOCCOC(=O)c1ccc(-c3c4nc(c(-c5c(F)cc(S(=O)(=O)[O-])cc5F)c5ccc([nH]5)c(-c5c(F)cc(S(=O)(=O)[O-])cc5F)c5nc(c(-c6c(F)cc(S(=O)(=O)[O-])cc6F)c6ccc3[nH]6)C=C5)C=C4)cc1)[C@@H](OC(=O)c1ccccc1)C2
REMARK SMILES IDX 13 1 12 2 11 3 10 4 8 5 9 6 7 7 1 8 2 9 3 10 6 11 4 13 95 14
REMARK SMILES IDX 5 15 85 16 86 17 87 18 88 19 89 20 90 21 94 22 91 23 93 24
REMARK SMILES IDX 92 25 14 26 15 27 16 28 17 29 18 30 19 31 20 32 84 33 21 34
REMARK SMILES IDX 83 35 22 36 23 37 24 38 77 39 25 40 82 41 76 42 78 43 26 44
REMARK SMILES IDX 81 45 75 46 74 47 27 49 61 50 40 51 60 52 41 53 44 54 59 55
REMARK SMILES IDX 79 56 42 57 43 58 58 60 80 61 45 62 28 63 29 64 38 65 30 66
REMARK SMILES IDX 31 67 37 68 39 69 32 70 33 71 34 72 35 73 36 74 62 75 63 76
REMARK SMILES IDX 72 77 64 78 65 79 71 80 73 81 66 82 67 83 68 84 69 85 70 86
REMARK SMILES IDX 46 87 47 88 56 89 48 90 49 91 55 92 57 93 50 94 51 95 52 96
REMARK SMILES IDX 53 97 54 98
REMARK H PARENT 2 12 78 48 44 59
REMARK Flexibility Score: inf
ROOT
ATOM      1  O   UNL A   1      39.885  21.209  25.990  1.00  0.00    -0.374 OA
ENDROOT
BRANCH   1   2
ATOM      2  C   UNL A   1      38.517  21.567  25.839  1.00  0.00     0.202 C 
BRANCH   2   3
ATOM      3  C   UNL A   1      38.122  23.046  25.978  1.00  0.00     0.261 C 
BRANCH   3   4
ATOM      4  O   UNL A   1      36.699  23.311  26.099  1.00  0.00    -0.463 OA
BRANCH   4   5
ATOM      5  C   UNL A   1      36.031  23.499  24.939  1.00  0.00     0.318 C 
ATOM      6  O   UNL A   1      36.590  23.632  23.848  1.00  0.00    -0.252 OA
BRANCH   5   7
ATOM      7  C   UNL A   1      34.531  23.697  25.038  1.00  0.00     0.198 C 
ATOM      8  C   UNL A   1      34.676  20.529  24.944  1.00  0.00     0.333 C 
ATOM      9  N   UNL A   1      33.672  21.366  25.569  1.00  0.00    -0.332 N 
ATOM     10  C   UNL A   1      32.496  21.644  24.756  1.00  0.00     0.188 C 
ATOM     11  C   UNL A   1      34.063  22.672  26.103  1.00  0.00     0.202 C 
ATOM     12  H   UNL A   1      33.481  20.735  26.348  1.00  0.00     0.348 HD
ATOM     13  C   UNL A   1      31.672  22.426  25.790  1.00  0.00     0.071 C 
ATOM     14  C   UNL A   1      32.846  22.483  23.508  1.00  0.00     0.111 C 
ATOM     15  C   UNL A   1      32.714  23.094  26.698  1.00  0.00     0.072 C 
ATOM     16  C   UNL A   1      33.544  23.814  23.841  1.00  0.00     0.203 C 
BRANCH  16  17
ATOM     17  O   UNL A   1      34.086  24.564  22.713  1.00  0.00    -0.457 OA
BRANCH  17  18
ATOM     18  C   UNL A   1      33.421  25.655  22.217  1.00  0.00     0.338 C 
ATOM     19  O   UNL A   1      33.359  26.014  21.058  1.00  0.00    -0.246 OA
BRANCH  18  20
ATOM     20  C   UNL A   1      32.821  26.464  23.317  1.00  0.00     0.060 A 
ATOM     21  C   UNL A   1      33.665  27.223  24.137  1.00  0.00     0.015 A 
ATOM     22  C   UNL A   1      31.450  26.425  23.593  1.00  0.00     0.015 A 
ATOM     23  C   UNL A   1      33.176  27.796  25.313  1.00  0.00     0.001 A 
ATOM     24  C   UNL A   1      30.957  27.024  24.758  1.00  0.00     0.001 A 
ATOM     25  C   UNL A   1      31.826  27.673  25.635  1.00  0.00     0.000 A 
ENDBRANCH  18  20
ENDBRANCH  17  18
ENDBRANCH  16  17
ENDBRANCH   5   7
ENDBRANCH   4   5
ENDBRANCH   3   4
ENDBRANCH   2   3
ENDBRANCH   1   2
BRANCH   1  26
ATOM     26  C   UNL A   1      40.550  21.665  27.148  1.00  0.00     0.202 C 
BRANCH  26  27
ATOM     27  C   UNL A   1      41.742  22.612  26.990  1.00  0.00     0.261 C 
BRANCH  27  28
ATOM     28  O   UNL A   1      41.521  23.896  26.370  1.00  0.00    -0.460 OA
BRANCH  28  29
ATOM     29  C   UNL A   1      42.418  24.852  26.713  1.00  0.00     0.338 C 
ATOM     30  O   UNL A   1      43.538  24.985  26.244  1.00  0.00    -0.246 OA
BRANCH  29  31
ATOM     31  C   UNL A   1      41.868  25.865  27.647  1.00  0.00     0.060 A 
ATOM     32  C   UNL A   1      42.718  26.929  27.963  1.00  0.00     0.016 A 
ATOM     33  C   UNL A   1      40.669  25.710  28.353  1.00  0.00     0.016 A 
ATOM     34  C   UNL A   1      42.415  27.788  29.021  1.00  0.00     0.010 A 
ATOM     35  C   UNL A   1      40.376  26.563  29.435  1.00  0.00     0.010 A 
ATOM     36  C   UNL A   1      41.262  27.591  29.794  1.00  0.00    -0.014 A 
BRANCH  36  37
ATOM     37  C   UNL A   1      41.015  28.495  30.952  1.00  0.00     0.031 A 
ATOM     38  C   UNL A   1      41.872  28.438  32.190  1.00  0.00     0.074 A 
ATOM     39  C   UNL A   1      40.060  29.438  30.844  1.00  0.00     0.049 A 
ATOM     40  N   UNL A   1      41.866  29.227  33.235  1.00  0.00    -0.248 NA
ATOM     41  C   UNL A   1      42.868  27.359  32.261  1.00  0.00     0.031 C 
ATOM     42  C   UNL A   1      39.174  29.604  29.690  1.00  0.00     0.029 A 
ATOM     43  N   UNL A   1      39.685  30.444  31.700  1.00  0.00    -0.354 N 
ATOM     44  C   UNL A   1      42.869  28.759  34.080  1.00  0.00     0.074 A 
ATOM     45  C   UNL A   1      43.431  27.586  33.442  1.00  0.00     0.031 C 
ATOM     46  C   UNL A   1      38.372  30.659  29.903  1.00  0.00     0.029 A 
ATOM     47  C   UNL A   1      38.665  31.228  31.216  1.00  0.00     0.049 A 
ATOM     48  H   UNL A   1      40.107  30.590  32.578  1.00  0.00     0.167 HD
ATOM     49  C   UNL A   1      43.291  29.271  35.264  1.00  0.00     0.037 A 
ATOM     50  C   UNL A   1      38.033  32.283  31.766  1.00  0.00     0.037 A 
ATOM     51  C   UNL A   1      42.712  30.429  35.904  1.00  0.00     0.049 A 
ATOM     52  C   UNL A   1      38.473  32.785  33.116  1.00  0.00     0.074 A 
ATOM     53  C   UNL A   1      43.072  31.022  37.103  1.00  0.00     0.029 A 
ATOM     54  N   UNL A   1      41.647  31.166  35.405  1.00  0.00    -0.354 N 
ATOM     55  N   UNL A   1      39.452  32.357  33.877  1.00  0.00    -0.248 NA
ATOM     56  C   UNL A   1      37.728  33.920  33.679  1.00  0.00     0.031 C 
ATOM     57  C   UNL A   1      42.196  32.084  37.352  1.00  0.00     0.029 A 
ATOM     58  C   UNL A   1      41.324  32.191  36.282  1.00  0.00     0.049 A 
ATOM     59  H   UNL A   1      41.186  30.987  34.553  1.00  0.00     0.167 HD
ATOM     60  C   UNL A   1      39.461  33.191  34.990  1.00  0.00     0.074 A 
ATOM     61  C   UNL A   1      38.400  34.157  34.796  1.00  0.00     0.031 C 
ATOM     62  C   UNL A   1      40.274  33.158  36.075  1.00  0.00     0.037 A 
BRANCH  49  63
ATOM     63  C   UNL A   1      44.443  28.588  35.959  1.00  0.00     0.058 A 
ATOM     64  C   UNL A   1      45.772  28.992  35.746  1.00  0.00     0.135 A 
ATOM     65  C   UNL A   1      44.216  27.575  36.906  1.00  0.00     0.135 A 
ATOM     66  F   UNL A   1      46.051  29.952  34.852  1.00  0.00    -0.206 F 
ATOM     67  C   UNL A   1      46.832  28.399  36.427  1.00  0.00     0.059 A 
ATOM     68  C   UNL A   1      45.260  26.986  37.618  1.00  0.00     0.059 A 
ATOM     69  F   UNL A   1      42.967  27.153  37.160  1.00  0.00    -0.206 F 
ATOM     70  C   UNL A   1      46.566  27.398  37.362  1.00  0.00     0.060 A 
BRANCH  70  71
ATOM     71  S   UNL A   1      47.956  26.648  38.239  1.00  0.00     0.124 S 
ATOM     72  O   UNL A   1      48.818  26.247  37.131  1.00  0.00    -0.237 OA
ATOM     73  O   UNL A   1      48.445  27.756  39.053  1.00  0.00    -0.237 OA
ATOM     74  O   UNL A   1      47.341  25.552  38.982  1.00  0.00    -0.744 OA
ENDBRANCH  70  71
ENDBRANCH  49  63
BRANCH  50  75
ATOM     75  C   UNL A   1      36.909  32.940  31.043  1.00  0.00     0.058 A 
ATOM     76  C   UNL A   1      35.578  32.747  31.438  1.00  0.00     0.135 A 
ATOM     77  C   UNL A   1      37.148  33.756  29.926  1.00  0.00     0.135 A 
ATOM     78  F   UNL A   1      35.297  31.972  32.496  1.00  0.00    -0.206 F 
ATOM     79  C   UNL A   1      34.519  33.313  30.733  1.00  0.00     0.059 A 
ATOM     80  C   UNL A   1      36.110  34.358  29.224  1.00  0.00     0.059 A 
ATOM     81  F   UNL A   1      38.406  33.986  29.516  1.00  0.00    -0.206 F 
ATOM     82  C   UNL A   1      34.797  34.115  29.625  1.00  0.00     0.060 A 
BRANCH  82  83
ATOM     83  S   UNL A   1      33.419  34.855  28.723  1.00  0.00     0.124 S 
ATOM     84  O   UNL A   1      34.024  36.083  28.222  1.00  0.00    -0.237 OA
ATOM     85  O   UNL A   1      33.123  33.834  27.725  1.00  0.00    -0.237 OA
ATOM     86  O   UNL A   1      32.400  35.029  29.753  1.00  0.00    -0.744 OA
ENDBRANCH  82  83
ENDBRANCH  50  75
BRANCH  62  87
ATOM     87  C   UNL A   1      40.079  34.226  37.121  1.00  0.00     0.058 A 
ATOM     88  C   UNL A   1      40.675  35.493  37.009  1.00  0.00     0.135 A 
ATOM     89  C   UNL A   1      39.253  33.990  38.232  1.00  0.00     0.135 A 
ATOM     90  F   UNL A   1      41.481  35.771  35.972  1.00  0.00    -0.206 F 
ATOM     91  C   UNL A   1      40.482  36.477  37.975  1.00  0.00     0.059 A 
ATOM     92  C   UNL A   1      39.021  34.970  39.194  1.00  0.00     0.059 A 
ATOM     93  F   UNL A   1      38.651  32.800  38.387  1.00  0.00    -0.206 F 
ATOM     94  C   UNL A   1      39.651  36.206  39.063  1.00  0.00     0.060 A 
BRANCH  94  95
ATOM     95  S   UNL A   1      39.384  37.503  40.291  1.00  0.00     0.124 S 
ATOM     96  O   UNL A   1      38.736  36.761  41.368  1.00  0.00    -0.237 OA
ATOM     97  O   UNL A   1      40.743  37.960  40.564  1.00  0.00    -0.237 OA
ATOM     98  O   UNL A   1      38.536  38.464  39.592  1.00  0.00    -0.744 OA
ENDBRANCH  94  95
ENDBRANCH  62  87
ENDBRANCH  36  37
ENDBRANCH  29  31
ENDBRANCH  28  29
ENDBRANCH  27  28
ENDBRANCH  26  27
ENDBRANCH   1  26
TORSDOF 20
ENDMDL
MODEL 3
REMARK VINA RESULT:     -10.9      0.844      8.118
REMARK SMILES C[N@@H+]1[C@H]2CC[C@@H]1[C@@H](C(=O)OCCOCCOC(=O)c1ccc(-c3c4nc(c(-c5c(F)cc(S(=O)(=O)[O-])cc5F)c5ccc([nH]5)c(-c5c(F)cc(S(=O)(=O)[O-])cc5F)c5nc(c(-c6c(F)cc(S(=O)(=O)[O-])cc6F)c6ccc3[nH]6)C=C5)C=C4)cc1)[C@@H](OC(=O)c1ccccc1)C2
REMARK SMILES IDX 13 1 12 2 11 3 10 4 8 5 9 6 7 7 1 8 2 9 3 10 6 11 4 13 95 14
REMARK SMILES IDX 5 15 85 16 86 17 87 18 88 19 89 20 90 21 94 22 91 23 93 24
REMARK SMILES IDX 92 25 14 26 15 27 16 28 17 29 18 30 19 31 20 32 84 33 21 34
REMARK SMILES IDX 83 35 22 36 23 37 24 38 77 39 25 40 82 41 76 42 78 43 26 44
REMARK SMILES IDX 81 45 75 46 74 47 27 49 61 50 40 51 60 52 41 53 44 54 59 55
REMARK SMILES IDX 79 56 42 57 43 58 58 60 80 61 45 62 28 63 29 64 38 65 30 66
REMARK SMILES IDX 31 67 37 68 39 69 32 70 33 71 34 72 35 73 36 74 62 75 63 76
REMARK SMILES IDX 72 77 64 78 65 79 71 80 73 81 66 82 67 83 68 84 69 85 70 86
REMARK SMILES IDX 46 87 47 88 56 89 48 90 49 91 55 92 57 93 50 94 51 95 52 96
REMARK SMILES IDX 53 97 54 98
REMARK H PARENT 2 12 78 48 44 59
REMARK Flexibility Score: inf
ROOT
ATOM      1  O   UNL A   1      38.886  21.094  25.963  1.00  0.00    -0.374 OA
ENDROOT
BRANCH   1   2
ATOM      2  C   UNL A   1      37.740  21.890  25.682  1.00  0.00     0.202 C 
BRANCH   2   3
ATOM      3  C   UNL A   1      36.617  21.289  24.823  1.00  0.00     0.261 C 
BRANCH   3   4
ATOM      4  O   UNL A   1      35.330  21.954  24.911  1.00  0.00    -0.463 OA
BRANCH   4   5
ATOM      5  C   UNL A   1      34.918  22.596  23.794  1.00  0.00     0.318 C 
ATOM      6  O   UNL A   1      35.685  23.173  23.021  1.00  0.00    -0.252 OA
BRANCH   5   7
ATOM      7  C   UNL A   1      33.421  22.721  23.590  1.00  0.00     0.198 C 
ATOM      8  C   UNL A   1      33.907  25.085  25.648  1.00  0.00     0.333 C 
ATOM      9  N   UNL A   1      32.878  24.972  24.635  1.00  0.00    -0.332 N 
ATOM     10  C   UNL A   1      31.608  24.423  25.093  1.00  0.00     0.188 C 
ATOM     11  C   UNL A   1      33.169  24.240  23.402  1.00  0.00     0.202 C 
ATOM     12  H   UNL A   1      32.831  25.969  24.423  1.00  0.00     0.348 HD
ATOM     13  C   UNL A   1      30.802  24.579  23.794  1.00  0.00     0.071 C 
ATOM     14  C   UNL A   1      31.748  22.952  25.539  1.00  0.00     0.111 C 
ATOM     15  C   UNL A   1      31.842  24.477  22.670  1.00  0.00     0.072 C 
ATOM     16  C   UNL A   1      32.320  22.031  24.447  1.00  0.00     0.203 C 
BRANCH  16  17
ATOM     17  O   UNL A   1      32.670  20.675  24.857  1.00  0.00    -0.457 OA
BRANCH  17  18
ATOM     18  C   UNL A   1      32.636  19.644  23.955  1.00  0.00     0.338 C 
ATOM     19  O   UNL A   1      32.169  19.665  22.834  1.00  0.00    -0.246 OA
BRANCH  18  20
ATOM     20  C   UNL A   1      33.175  18.389  24.551  1.00  0.00     0.060 A 
ATOM     21  C   UNL A   1      34.483  17.998  24.240  1.00  0.00     0.015 A 
ATOM     22  C   UNL A   1      32.383  17.558  25.352  1.00  0.00     0.015 A 
ATOM     23  C   UNL A   1      34.936  16.721  24.580  1.00  0.00     0.001 A 
ATOM     24  C   UNL A   1      32.850  16.289  25.716  1.00  0.00     0.001 A 
ATOM     25  C   UNL A   1      34.109  15.858  25.296  1.00  0.00     0.000 A 
ENDBRANCH  18  20
ENDBRANCH  17  18
ENDBRANCH  16  17
ENDBRANCH   5   7
ENDBRANCH   4   5
ENDBRANCH   3   4
ENDBRANCH   2   3
ENDBRANCH   1   2
BRANCH   1  26
ATOM     26  C   UNL A   1      40.126  21.759  26.072  1.00  0.00     0.202 C 
BRANCH  26  27
ATOM     27  C   UNL A   1      40.233  22.972  26.999  1.00  0.00     0.261 C 
BRANCH  27  28
ATOM     28  O   UNL A   1      41.509  23.635  27.118  1.00  0.00    -0.460 OA
BRANCH  28  29
ATOM     29  C   UNL A   1      41.559  24.871  26.563  1.00  0.00     0.338 C 
ATOM     30  O   UNL A   1      41.804  25.121  25.393  1.00  0.00    -0.246 OA
BRANCH  29  31
ATOM     31  C   UNL A   1      41.137  25.949  27.491  1.00  0.00     0.060 A 
ATOM     32  C   UNL A   1      42.015  27.030  27.611  1.00  0.00     0.016 A 
ATOM     33  C   UNL A   1      40.049  25.847  28.366  1.00  0.00     0.016 A 
ATOM     34  C   UNL A   1      41.857  27.961  28.638  1.00  0.00     0.010 A 
ATOM     35  C   UNL A   1      39.903  26.775  29.416  1.00  0.00     0.010 A 
ATOM     36  C   UNL A   1      40.824  27.822  29.576  1.00  0.00    -0.014 A 
BRANCH  36  37
ATOM     37  C   UNL A   1      40.733  28.806  30.691  1.00  0.00     0.031 A 
ATOM     38  C   UNL A   1      39.707  29.910  30.682  1.00  0.00     0.074 A 
ATOM     39  C   UNL A   1      41.529  28.643  31.765  1.00  0.00     0.049 A 
ATOM     40  N   UNL A   1      39.419  30.776  31.621  1.00  0.00    -0.248 NA
ATOM     41  C   UNL A   1      38.899  30.058  29.463  1.00  0.00     0.031 C 
ATOM     42  C   UNL A   1      42.551  27.603  31.898  1.00  0.00     0.029 A 
ATOM     43  N   UNL A   1      41.594  29.330  32.951  1.00  0.00    -0.354 N 
ATOM     44  C   UNL A   1      38.380  31.558  31.121  1.00  0.00     0.074 A 
ATOM     45  C   UNL A   1      38.124  31.091  29.774  1.00  0.00     0.031 C 
ATOM     46  C   UNL A   1      43.129  27.711  33.106  1.00  0.00     0.029 A 
ATOM     47  C   UNL A   1      42.540  28.840  33.821  1.00  0.00     0.049 A 
ATOM     48  H   UNL A   1      41.018  30.102  33.160  1.00  0.00     0.167 HD
ATOM     49  C   UNL A   1      37.696  32.556  31.735  1.00  0.00     0.037 A 
ATOM     50  C   UNL A   1      42.897  29.255  35.052  1.00  0.00     0.037 A 
ATOM     51  C   UNL A   1      37.971  33.031  33.071  1.00  0.00     0.049 A 
ATOM     52  C   UNL A   1      42.170  30.414  35.681  1.00  0.00     0.074 A 
ATOM     53  C   UNL A   1      37.331  34.036  33.778  1.00  0.00     0.029 A 
ATOM     54  N   UNL A   1      38.970  32.541  33.901  1.00  0.00    -0.354 N 
ATOM     55  N   UNL A   1      41.163  31.110  35.210  1.00  0.00    -0.248 NA
ATOM     56  C   UNL A   1      42.623  30.839  37.013  1.00  0.00     0.031 C 
ATOM     57  C   UNL A   1      37.973  34.187  35.012  1.00  0.00     0.029 A 
ATOM     58  C   UNL A   1      38.978  33.238  35.100  1.00  0.00     0.049 A 
ATOM     59  H   UNL A   1      39.585  31.806  33.671  1.00  0.00     0.167 HD
ATOM     60  C   UNL A   1      40.840  32.031  36.202  1.00  0.00     0.074 A 
ATOM     61  C   UNL A   1      41.750  31.794  37.303  1.00  0.00     0.031 C 
ATOM     62  C   UNL A   1      39.879  32.987  36.198  1.00  0.00     0.037 A 
BRANCH  49  63
ATOM     63  C   UNL A   1      36.572  33.215  30.975  1.00  0.00     0.058 A 
ATOM     64  C   UNL A   1      35.227  33.000  31.320  1.00  0.00     0.135 A 
ATOM     65  C   UNL A   1      36.838  34.130  29.942  1.00  0.00     0.135 A 
ATOM     66  F   UNL A   1      34.911  32.134  32.295  1.00  0.00    -0.206 F 
ATOM     67  C   UNL A   1      34.190  33.648  30.654  1.00  0.00     0.059 A 
ATOM     68  C   UNL A   1      35.817  34.810  29.280  1.00  0.00     0.059 A 
ATOM     69  F   UNL A   1      38.104  34.385  29.573  1.00  0.00    -0.206 F 
ATOM     70  C   UNL A   1      34.495  34.553  29.636  1.00  0.00     0.060 A 
BRANCH  70  71
ATOM     71  S   UNL A   1      33.135  35.388  28.791  1.00  0.00     0.124 S 
ATOM     72  O   UNL A   1      32.354  35.890  29.918  1.00  0.00    -0.237 OA
ATOM     73  O   UNL A   1      33.833  36.401  28.004  1.00  0.00    -0.237 OA
ATOM     74  O   UNL A   1      32.506  34.322  28.019  1.00  0.00    -0.744 OA
ENDBRANCH  70  71
ENDBRANCH  49  63
BRANCH  50  75
ATOM     75  C   UNL A   1      44.002  28.570  35.778  1.00  0.00     0.058 A 
ATOM     76  C   UNL A   1      45.341  28.942  35.584  1.00  0.00     0.135 A 
ATOM     77  C   UNL A   1      43.740  27.512  36.662  1.00  0.00     0.135 A 
ATOM     78  F   UNL A   1      45.644  29.944  34.746  1.00  0.00    -0.206 F 
ATOM     79  C   UNL A   1      46.382  28.270  36.217  1.00  0.00     0.059 A 
ATOM     80  C   UNL A   1      44.760  26.846  37.330  1.00  0.00     0.059 A 
ATOM     81  F   UNL A   1      42.475  27.127  36.896  1.00  0.00    -0.206 F 
ATOM     82  C   UNL A   1      46.081  27.220  37.086  1.00  0.00     0.060 A 
BRANCH  82  83
ATOM     83  S   UNL A   1      47.437  26.362  37.912  1.00  0.00     0.124 S 
ATOM     84  O   UNL A   1      48.154  27.472  38.528  1.00  0.00    -0.237 OA
ATOM     85  O   UNL A   1      46.726  25.474  38.826  1.00  0.00    -0.237 OA
ATOM     86  O   UNL A   1      48.130  25.695  36.814  1.00  0.00    -0.744 OA
ENDBRANCH  82  83
ENDBRANCH  50  75
BRANCH  62  87
ATOM     87  C   UNL A   1      39.728  33.824  37.443  1.00  0.00     0.058 A 
ATOM     88  C   UNL A   1      40.399  35.047  37.601  1.00  0.00     0.135 A 
ATOM     89  C   UNL A   1      38.871  33.412  38.477  1.00  0.00     0.135 A 
ATOM     90  F   UNL A   1      41.238  35.485  36.649  1.00  0.00    -0.206 F 
ATOM     91  C   UNL A   1      40.247  35.818  38.751  1.00  0.00     0.059 A 
ATOM     92  C   UNL A   1      38.680  34.181  39.621  1.00  0.00     0.059 A 
ATOM     93  F   UNL A   1      38.197  32.255  38.376  1.00  0.00    -0.206 F 
ATOM     94  C   UNL A   1      39.383  35.378  39.754  1.00  0.00     0.060 A 
BRANCH  94  95
ATOM     95  S   UNL A   1      39.172  36.404  41.225  1.00  0.00     0.124 S 
ATOM     96  O   UNL A   1      40.475  36.269  41.868  1.00  0.00    -0.237 OA
ATOM     97  O   UNL A   1      38.880  37.714  40.653  1.00  0.00    -0.237 OA
ATOM     98  O   UNL A   1      38.058  35.771  41.925  1.00  0.00    -0.744 OA
ENDBRANCH  94  95
ENDBRANCH  62  87
ENDBRANCH  36  37
ENDBRANCH  29  31
ENDBRANCH  28  29
ENDBRANCH  27  28
ENDBRANCH  26  27
ENDBRANCH   1  26
TORSDOF 20
ENDMDL
