MODEL 1
REMARK VINA RESULT:     -10.5      0.000      0.000
REMARK SMILES O=C(CCCC(=O)OCCOCCOC(=O)c1ccc(-c2c3nc(c(-c4c(F)cc(S(=O)(=O)[O-])cc4F)c4ccc([nH]4)c(-c4c(F)cc(S(=O)(=O)[O-])cc4F)c4nc(c(-c5c(F)cc(S(=O)(=O)[O-])cc5F)c5ccc2[nH]5)C=C4)C=C3)cc1)Nc1ccc(C(=O)N2CCOCC2)cc1
REMARK SMILES IDX 10 1 9 2 8 3 6 4 7 5 5 6 4 7 3 8 2 9 1 10 83 11 84 13 85 14
REMARK SMILES IDX 97 15 86 16 96 17 87 18 88 19 89 20 90 21 91 22 95 23 92 24
REMARK SMILES IDX 94 25 93 26 11 27 12 28 13 29 14 30 15 31 16 32 17 33 18 34
REMARK SMILES IDX 82 35 19 36 81 37 20 38 21 39 22 40 75 41 23 42 80 43 74 44
REMARK SMILES IDX 76 45 24 46 79 47 73 48 72 49 25 51 59 52 38 53 58 54 39 55
REMARK SMILES IDX 42 56 57 57 77 58 40 59 41 60 56 62 78 63 43 64 26 65 27 66
REMARK SMILES IDX 36 67 28 68 29 69 35 70 37 71 30 72 31 73 32 74 33 75 34 76
REMARK SMILES IDX 60 77 61 78 70 79 62 80 63 81 69 82 71 83 64 84 65 85 66 86
REMARK SMILES IDX 67 87 68 88 44 89 45 90 54 91 46 92 47 93 53 94 55 95 48 96
REMARK SMILES IDX 49 97 50 98 51 99 52 100
REMARK H PARENT 83 12 76 50 42 61
REMARK Flexibility Score: inf
ROOT
ATOM      1  C   UNL A   1      44.247  19.534  24.985  1.00  0.00     0.202 C 
ENDROOT
BRANCH   1   2
ATOM      2  C   UNL A   1      42.899  19.220  25.648  1.00  0.00     0.261 C 
BRANCH   2   3
ATOM      3  O   UNL A   1      42.121  20.423  25.826  1.00  0.00    -0.463 OA
BRANCH   3   4
ATOM      4  C   UNL A   1      41.443  20.566  26.992  1.00  0.00     0.305 C 
ATOM      5  O   UNL A   1      41.270  19.680  27.816  1.00  0.00    -0.252 OA
BRANCH   4   6
ATOM      6  C   UNL A   1      40.844  21.955  27.125  1.00  0.00     0.123 C 
BRANCH   6   7
ATOM      7  C   UNL A   1      39.395  22.186  26.660  1.00  0.00     0.022 C 
BRANCH   7   8
ATOM      8  C   UNL A   1      38.818  21.337  25.520  1.00  0.00     0.101 C 
BRANCH   8   9
ATOM      9  C   UNL A   1      37.411  21.723  25.110  1.00  0.00     0.224 C 
ATOM     10  O   UNL A   1      37.097  21.770  23.925  1.00  0.00    -0.275 OA
ATOM     11  N   UNL A   1      36.607  22.058  26.184  1.00  0.00    -0.326 N 
ATOM     12  H   UNL A   1      36.991  21.953  27.084  1.00  0.00     0.169 HD
BRANCH  11  13
ATOM     13  C   UNL A   1      35.291  22.534  26.101  1.00  0.00     0.041 A 
ATOM     14  C   UNL A   1      34.246  21.639  26.369  1.00  0.00     0.027 A 
ATOM     15  C   UNL A   1      35.004  23.858  25.787  1.00  0.00     0.027 A 
ATOM     16  C   UNL A   1      32.920  22.088  26.374  1.00  0.00     0.016 A 
ATOM     17  C   UNL A   1      33.685  24.298  25.768  1.00  0.00     0.016 A 
ATOM     18  C   UNL A   1      32.635  23.418  26.055  1.00  0.00     0.040 A 
BRANCH  18  19
ATOM     19  C   UNL A   1      31.261  23.948  26.237  1.00  0.00     0.254 C 
ATOM     20  O   UNL A   1      30.745  23.859  27.350  1.00  0.00    -0.269 OA
ATOM     21  N   UNL A   1      30.703  24.676  25.203  1.00  0.00    -0.334 N 
ATOM     22  C   UNL A   1      30.747  24.331  23.773  1.00  0.00     0.148 C 
ATOM     23  C   UNL A   1      29.957  25.887  25.506  1.00  0.00     0.148 C 
ATOM     24  C   UNL A   1      31.144  25.541  22.911  1.00  0.00     0.181 C 
ATOM     25  C   UNL A   1      30.546  27.027  24.669  1.00  0.00     0.181 C 
ATOM     26  O   UNL A   1      30.419  26.732  23.270  1.00  0.00    -0.378 OA
ENDBRANCH  18  19
ENDBRANCH  11  13
ENDBRANCH   8   9
ENDBRANCH   7   8
ENDBRANCH   6   7
ENDBRANCH   4   6
ENDBRANCH   3   4
ENDBRANCH   2   3
ENDBRANCH   1   2
BRANCH   1  27
ATOM     27  O   UNL A   1      44.863  20.749  25.421  1.00  0.00    -0.374 OA
BRANCH  27  28
ATOM     28  C   UNL A   1      45.047  21.759  24.432  1.00  0.00     0.202 C 
BRANCH  28  29
ATOM     29  C   UNL A   1      43.925  22.794  24.310  1.00  0.00     0.261 C 
BRANCH  29  30
ATOM     30  O   UNL A   1      43.727  23.512  25.540  1.00  0.00    -0.460 OA
BRANCH  30  31
ATOM     31  C   UNL A   1      44.110  24.809  25.488  1.00  0.00     0.338 C 
ATOM     32  O   UNL A   1      44.907  25.305  24.699  1.00  0.00    -0.246 OA
BRANCH  31  33
ATOM     33  C   UNL A   1      43.321  25.632  26.425  1.00  0.00     0.060 A 
ATOM     34  C   UNL A   1      43.644  26.992  26.498  1.00  0.00     0.016 A 
ATOM     35  C   UNL A   1      42.357  25.087  27.279  1.00  0.00     0.016 A 
ATOM     36  C   UNL A   1      43.070  27.796  27.478  1.00  0.00     0.010 A 
ATOM     37  C   UNL A   1      41.780  25.898  28.265  1.00  0.00     0.010 A 
ATOM     38  C   UNL A   1      42.173  27.242  28.400  1.00  0.00    -0.014 A 
BRANCH  38  39
ATOM     39  C   UNL A   1      41.804  28.029  29.604  1.00  0.00     0.031 A 
ATOM     40  C   UNL A   1      42.623  27.861  30.858  1.00  0.00     0.074 A 
ATOM     41  C   UNL A   1      40.804  28.928  29.566  1.00  0.00     0.049 A 
ATOM     42  N   UNL A   1      42.484  28.436  32.024  1.00  0.00    -0.248 NA
ATOM     43  C   UNL A   1      43.755  26.920  30.786  1.00  0.00     0.031 C 
ATOM     44  C   UNL A   1      39.967  29.211  28.402  1.00  0.00     0.029 A 
ATOM     45  N   UNL A   1      40.325  29.769  30.538  1.00  0.00    -0.354 N 
ATOM     46  C   UNL A   1      43.504  27.931  32.821  1.00  0.00     0.074 A 
ATOM     47  C   UNL A   1      44.235  26.975  32.019  1.00  0.00     0.031 C 
ATOM     48  C   UNL A   1      39.065  30.153  28.733  1.00  0.00     0.029 A 
ATOM     49  C   UNL A   1      39.245  30.520  30.136  1.00  0.00     0.049 A 
ATOM     50  H   UNL A   1      40.716  29.830  31.439  1.00  0.00     0.167 HD
ATOM     51  C   UNL A   1      43.815  28.245  34.101  1.00  0.00     0.037 A 
ATOM     52  C   UNL A   1      38.480  31.386  30.829  1.00  0.00     0.037 A 
ATOM     53  C   UNL A   1      43.091  29.200  34.898  1.00  0.00     0.049 A 
ATOM     54  C   UNL A   1      38.812  31.681  32.269  1.00  0.00     0.074 A 
ATOM     55  C   UNL A   1      43.321  29.579  36.209  1.00  0.00     0.029 A 
ATOM     56  N   UNL A   1      41.997  29.930  34.457  1.00  0.00    -0.354 N 
ATOM     57  N   UNL A   1      39.781  31.195  33.008  1.00  0.00    -0.248 NA
ATOM     58  C   UNL A   1      37.953  32.648  32.967  1.00  0.00     0.031 C 
ATOM     59  C   UNL A   1      42.345  30.514  36.572  1.00  0.00     0.029 A 
ATOM     60  C   UNL A   1      41.536  30.751  35.472  1.00  0.00     0.049 A 
ATOM     61  H   UNL A   1      41.606  29.873  33.555  1.00  0.00     0.167 HD
ATOM     62  C   UNL A   1      39.667  31.822  34.246  1.00  0.00     0.074 A 
ATOM     63  C   UNL A   1      38.542  32.727  34.153  1.00  0.00     0.031 C 
ATOM     64  C   UNL A   1      40.427  31.663  35.358  1.00  0.00     0.037 A 
BRANCH  51  65
ATOM     65  C   UNL A   1      44.988  27.544  34.727  1.00  0.00     0.058 A 
ATOM     66  C   UNL A   1      44.856  26.277  35.319  1.00  0.00     0.135 A 
ATOM     67  C   UNL A   1      46.268  28.122  34.695  1.00  0.00     0.135 A 
ATOM     68  F   UNL A   1      43.651  25.689  35.395  1.00  0.00    -0.206 F 
ATOM     69  C   UNL A   1      45.949  25.616  35.869  1.00  0.00     0.059 A 
ATOM     70  C   UNL A   1      47.378  27.467  35.217  1.00  0.00     0.059 A 
ATOM     71  F   UNL A   1      46.447  29.333  34.145  1.00  0.00    -0.206 F 
ATOM     72  C   UNL A   1      47.207  26.218  35.812  1.00  0.00     0.060 A 
BRANCH  72  73
ATOM     73  S   UNL A   1      48.618  25.336  36.513  1.00  0.00     0.124 S 
ATOM     74  O   UNL A   1      48.346  25.443  37.943  1.00  0.00    -0.237 OA
ATOM     75  O   UNL A   1      48.470  24.004  35.938  1.00  0.00    -0.237 OA
ATOM     76  O   UNL A   1      49.766  26.099  36.035  1.00  0.00    -0.744 OA
ENDBRANCH  72  73
ENDBRANCH  51  65
BRANCH  52  77
ATOM     77  C   UNL A   1      37.305  32.026  30.178  1.00  0.00     0.058 A 
ATOM     78  C   UNL A   1      37.409  33.269  29.539  1.00  0.00     0.135 A 
ATOM     79  C   UNL A   1      36.046  31.405  30.200  1.00  0.00     0.135 A 
ATOM     80  F   UNL A   1      38.589  33.907  29.500  1.00  0.00    -0.206 F 
ATOM     81  C   UNL A   1      36.302  33.888  28.963  1.00  0.00     0.059 A 
ATOM     82  C   UNL A   1      34.931  31.991  29.609  1.00  0.00     0.059 A 
ATOM     83  F   UNL A   1      35.896  30.207  30.785  1.00  0.00    -0.206 F 
ATOM     84  C   UNL A   1      35.067  33.239  29.004  1.00  0.00     0.060 A 
BRANCH  84  85
ATOM     85  S   UNL A   1      33.643  34.019  28.214  1.00  0.00     0.124 S 
ATOM     86  O   UNL A   1      34.290  34.974  27.322  1.00  0.00    -0.237 OA
ATOM     87  O   UNL A   1      32.986  32.884  27.572  1.00  0.00    -0.237 OA
ATOM     88  O   UNL A   1      32.914  34.595  29.341  1.00  0.00    -0.744 OA
ENDBRANCH  84  85
ENDBRANCH  52  77
BRANCH  64  89
ATOM     89  C   UNL A   1      40.105  32.521  36.549  1.00  0.00     0.058 A 
ATOM     90  C   UNL A   1      39.033  32.228  37.406  1.00  0.00     0.135 A 
ATOM     91  C   UNL A   1      40.916  33.623  36.869  1.00  0.00     0.135 A 
ATOM     92  F   UNL A   1      38.224  31.188  37.144  1.00  0.00    -0.206 F 
ATOM     93  C   UNL A   1      38.760  33.011  38.523  1.00  0.00     0.059 A 
ATOM     94  C   UNL A   1      40.679  34.404  37.995  1.00  0.00     0.059 A 
ATOM     95  F   UNL A   1      41.962  33.939  36.089  1.00  0.00    -0.206 F 
ATOM     96  C   UNL A   1      39.590  34.098  38.810  1.00  0.00     0.060 A 
BRANCH  96  97
ATOM     97  S   UNL A   1      39.245  35.089  40.279  1.00  0.00     0.124 S 
ATOM     98  O   UNL A   1      39.134  36.428  39.709  1.00  0.00    -0.237 OA
ATOM     99  O   UNL A   1      38.001  34.504  40.768  1.00  0.00    -0.237 OA
ATOM    100  O   UNL A   1      40.413  34.861  41.124  1.00  0.00    -0.744 OA
ENDBRANCH  96  97
ENDBRANCH  64  89
ENDBRANCH  38  39
ENDBRANCH  31  33
ENDBRANCH  30  31
ENDBRANCH  29  30
ENDBRANCH  28  29
ENDBRANCH  27  28
ENDBRANCH   1  27
TORSDOF 22
ENDMDL
MODEL 2
REMARK VINA RESULT:     -10.4      1.687      3.026
REMARK SMILES O=C(CCCC(=O)OCCOCCOC(=O)c1ccc(-c2c3nc(c(-c4c(F)cc(S(=O)(=O)[O-])cc4F)c4ccc([nH]4)c(-c4c(F)cc(S(=O)(=O)[O-])cc4F)c4nc(c(-c5c(F)cc(S(=O)(=O)[O-])cc5F)c5ccc2[nH]5)C=C4)C=C3)cc1)Nc1ccc(C(=O)N2CCOCC2)cc1
REMARK SMILES IDX 10 1 9 2 8 3 6 4 7 5 5 6 4 7 3 8 2 9 1 10 83 11 84 13 85 14
REMARK SMILES IDX 97 15 86 16 96 17 87 18 88 19 89 20 90 21 91 22 95 23 92 24
REMARK SMILES IDX 94 25 93 26 11 27 12 28 13 29 14 30 15 31 16 32 17 33 18 34
REMARK SMILES IDX 82 35 19 36 81 37 20 38 21 39 22 40 75 41 23 42 80 43 74 44
REMARK SMILES IDX 76 45 24 46 79 47 73 48 72 49 25 51 59 52 38 53 58 54 39 55
REMARK SMILES IDX 42 56 57 57 77 58 40 59 41 60 56 62 78 63 43 64 26 65 27 66
REMARK SMILES IDX 36 67 28 68 29 69 35 70 37 71 30 72 31 73 32 74 33 75 34 76
REMARK SMILES IDX 60 77 61 78 70 79 62 80 63 81 69 82 71 83 64 84 65 85 66 86
REMARK SMILES IDX 67 87 68 88 44 89 45 90 54 91 46 92 47 93 53 94 55 95 48 96
REMARK SMILES IDX 49 97 50 98 51 99 52 100
REMARK H PARENT 83 12 76 50 42 61
REMARK Flexibility Score: inf
ROOT
ATOM      1  C   UNL A   1      39.716  22.230  26.340  1.00  0.00     0.202 C 
ENDROOT
BRANCH   1   2
ATOM      2  C   UNL A   1      38.223  22.062  26.029  1.00  0.00     0.261 C 
BRANCH   2   3
ATOM      3  O   UNL A   1      38.030  21.231  24.864  1.00  0.00    -0.463 OA
BRANCH   3   4
ATOM      4  C   UNL A   1      38.077  19.887  25.037  1.00  0.00     0.305 C 
ATOM      5  O   UNL A   1      39.095  19.239  25.230  1.00  0.00    -0.252 OA
BRANCH   4   6
ATOM      6  C   UNL A   1      36.704  19.255  24.882  1.00  0.00     0.123 C 
BRANCH   6   7
ATOM      7  C   UNL A   1      35.457  20.149  25.004  1.00  0.00     0.022 C 
BRANCH   7   8
ATOM      8  C   UNL A   1      34.068  19.558  24.726  1.00  0.00     0.101 C 
BRANCH   8   9
ATOM      9  C   UNL A   1      32.943  20.571  24.775  1.00  0.00     0.224 C 
ATOM     10  O   UNL A   1      31.795  20.216  25.025  1.00  0.00    -0.275 OA
ATOM     11  N   UNL A   1      33.352  21.851  24.451  1.00  0.00    -0.326 N 
ATOM     12  H   UNL A   1      34.313  21.990  24.292  1.00  0.00     0.169 HD
BRANCH  11  13
ATOM     13  C   UNL A   1      32.516  22.970  24.332  1.00  0.00     0.041 A 
ATOM     14  C   UNL A   1      32.479  23.885  25.393  1.00  0.00     0.027 A 
ATOM     15  C   UNL A   1      31.752  23.200  23.193  1.00  0.00     0.027 A 
ATOM     16  C   UNL A   1      31.718  25.055  25.286  1.00  0.00     0.016 A 
ATOM     17  C   UNL A   1      30.977  24.351  23.097  1.00  0.00     0.016 A 
ATOM     18  C   UNL A   1      30.950  25.282  24.142  1.00  0.00     0.040 A 
BRANCH  18  19
ATOM     19  C   UNL A   1      30.290  26.597  23.938  1.00  0.00     0.254 C 
ATOM     20  O   UNL A   1      29.069  26.662  24.072  1.00  0.00    -0.269 OA
ATOM     21  N   UNL A   1      31.094  27.711  23.790  1.00  0.00    -0.334 N 
ATOM     22  C   UNL A   1      32.304  27.807  22.960  1.00  0.00     0.148 C 
ATOM     23  C   UNL A   1      30.731  28.945  24.468  1.00  0.00     0.148 C 
ATOM     24  C   UNL A   1      33.466  28.463  23.727  1.00  0.00     0.181 C 
ATOM     25  C   UNL A   1      31.939  29.408  25.287  1.00  0.00     0.181 C 
ATOM     26  O   UNL A   1      33.059  29.656  24.424  1.00  0.00    -0.378 OA
ENDBRANCH  18  19
ENDBRANCH  11  13
ENDBRANCH   8   9
ENDBRANCH   7   8
ENDBRANCH   6   7
ENDBRANCH   4   6
ENDBRANCH   3   4
ENDBRANCH   2   3
ENDBRANCH   1   2
BRANCH   1  27
ATOM     27  O   UNL A   1      40.195  21.441  27.433  1.00  0.00    -0.374 OA
BRANCH  27  28
ATOM     28  C   UNL A   1      41.451  21.821  27.989  1.00  0.00     0.202 C 
BRANCH  28  29
ATOM     29  C   UNL A   1      42.510  22.304  26.993  1.00  0.00     0.261 C 
BRANCH  29  30
ATOM     30  O   UNL A   1      43.036  23.593  27.358  1.00  0.00    -0.460 OA
BRANCH  30  31
ATOM     31  C   UNL A   1      42.588  24.609  26.584  1.00  0.00     0.338 C 
ATOM     32  O   UNL A   1      42.552  24.633  25.359  1.00  0.00    -0.246 OA
BRANCH  31  33
ATOM     33  C   UNL A   1      41.983  25.673  27.407  1.00  0.00     0.060 A 
ATOM     34  C   UNL A   1      42.673  26.891  27.473  1.00  0.00     0.016 A 
ATOM     35  C   UNL A   1      40.829  25.473  28.170  1.00  0.00     0.016 A 
ATOM     36  C   UNL A   1      42.263  27.879  28.362  1.00  0.00     0.010 A 
ATOM     37  C   UNL A   1      40.418  26.470  29.064  1.00  0.00     0.010 A 
ATOM     38  C   UNL A   1      41.163  27.655  29.200  1.00  0.00    -0.014 A 
BRANCH  38  39
ATOM     39  C   UNL A   1      40.924  28.583  30.334  1.00  0.00     0.031 A 
ATOM     40  C   UNL A   1      41.792  28.467  31.561  1.00  0.00     0.074 A 
ATOM     41  C   UNL A   1      40.000  29.558  30.250  1.00  0.00     0.049 A 
ATOM     42  N   UNL A   1      41.761  29.162  32.667  1.00  0.00    -0.248 NA
ATOM     43  C   UNL A   1      42.837  27.429  31.533  1.00  0.00     0.031 C 
ATOM     44  C   UNL A   1      39.129  29.799  29.101  1.00  0.00     0.029 A 
ATOM     45  N   UNL A   1      39.643  30.527  31.153  1.00  0.00    -0.354 N 
ATOM     46  C   UNL A   1      42.778  28.650  33.466  1.00  0.00     0.074 A 
ATOM     47  C   UNL A   1      43.384  27.561  32.732  1.00  0.00     0.031 C 
ATOM     48  C   UNL A   1      38.325  30.842  29.375  1.00  0.00     0.029 A 
ATOM     49  C   UNL A   1      38.609  31.326  30.725  1.00  0.00     0.049 A 
ATOM     50  H   UNL A   1      40.085  30.640  32.025  1.00  0.00     0.167 HD
ATOM     51  C   UNL A   1      43.180  29.058  34.692  1.00  0.00     0.037 A 
ATOM     52  C   UNL A   1      37.954  32.318  31.360  1.00  0.00     0.037 A 
ATOM     53  C   UNL A   1      42.579  30.144  35.420  1.00  0.00     0.049 A 
ATOM     54  C   UNL A   1      38.384  32.721  32.748  1.00  0.00     0.074 A 
ATOM     55  C   UNL A   1      42.908  30.627  36.675  1.00  0.00     0.029 A 
ATOM     56  N   UNL A   1      41.527  30.920  34.957  1.00  0.00    -0.354 N 
ATOM     57  N   UNL A   1      39.348  32.226  33.488  1.00  0.00    -0.248 NA
ATOM     58  C   UNL A   1      37.646  33.821  33.382  1.00  0.00     0.031 C 
ATOM     59  C   UNL A   1      42.032  31.673  36.985  1.00  0.00     0.029 A 
ATOM     60  C   UNL A   1      41.189  31.872  35.904  1.00  0.00     0.049 A 
ATOM     61  H   UNL A   1      41.085  30.810  34.084  1.00  0.00     0.167 HD
ATOM     62  C   UNL A   1      39.351  32.977  34.660  1.00  0.00     0.074 A 
ATOM     63  C   UNL A   1      38.300  33.963  34.527  1.00  0.00     0.031 C 
ATOM     64  C   UNL A   1      40.153  32.862  35.748  1.00  0.00     0.037 A 
BRANCH  51  65
ATOM     65  C   UNL A   1      44.323  28.322  35.333  1.00  0.00     0.058 A 
ATOM     66  C   UNL A   1      45.655  28.725  35.145  1.00  0.00     0.135 A 
ATOM     67  C   UNL A   1      44.082  27.228  36.181  1.00  0.00     0.135 A 
ATOM     68  F   UNL A   1      45.942  29.750  34.327  1.00  0.00    -0.206 F 
ATOM     69  C   UNL A   1      46.709  28.061  35.764  1.00  0.00     0.059 A 
ATOM     70  C   UNL A   1      45.120  26.565  36.830  1.00  0.00     0.059 A 
ATOM     71  F   UNL A   1      42.828  26.800  36.391  1.00  0.00    -0.206 F 
ATOM     72  C   UNL A   1      46.431  26.983  36.607  1.00  0.00     0.060 A 
BRANCH  72  73
ATOM     73  S   UNL A   1      47.809  26.145  37.419  1.00  0.00     0.124 S 
ATOM     74  O   UNL A   1      48.483  25.526  36.282  1.00  0.00    -0.237 OA
ATOM     75  O   UNL A   1      48.519  27.253  38.050  1.00  0.00    -0.237 OA
ATOM     76  O   UNL A   1      47.151  25.221  38.337  1.00  0.00    -0.744 OA
ENDBRANCH  72  73
ENDBRANCH  51  65
BRANCH  52  77
ATOM     77  C   UNL A   1      36.802  32.991  30.701  1.00  0.00     0.058 A 
ATOM     78  C   UNL A   1      35.481  32.605  30.963  1.00  0.00     0.135 A 
ATOM     79  C   UNL A   1      37.010  34.028  29.778  1.00  0.00     0.135 A 
ATOM     80  F   UNL A   1      35.232  31.611  31.830  1.00  0.00    -0.206 F 
ATOM     81  C   UNL A   1      34.404  33.206  30.318  1.00  0.00     0.059 A 
ATOM     82  C   UNL A   1      35.949  34.663  29.140  1.00  0.00     0.059 A 
ATOM     83  F   UNL A   1      38.255  34.446  29.503  1.00  0.00    -0.206 F 
ATOM     84  C   UNL A   1      34.650  34.235  29.407  1.00  0.00     0.060 A 
BRANCH  84  85
ATOM     85  S   UNL A   1      33.250  35.049  28.608  1.00  0.00     0.124 S 
ATOM     86  O   UNL A   1      32.622  33.932  27.911  1.00  0.00    -0.237 OA
ATOM     87  O   UNL A   1      32.514  35.588  29.748  1.00  0.00    -0.237 OA
ATOM     88  O   UNL A   1      33.890  36.049  27.759  1.00  0.00    -0.744 OA
ENDBRANCH  84  85
ENDBRANCH  52  77
BRANCH  64  89
ATOM     89  C   UNL A   1      39.965  33.855  36.860  1.00  0.00     0.058 A 
ATOM     90  C   UNL A   1      40.583  35.114  36.842  1.00  0.00     0.135 A 
ATOM     91  C   UNL A   1      39.109  33.560  37.935  1.00  0.00     0.135 A 
ATOM     92  F   UNL A   1      41.414  35.444  35.840  1.00  0.00    -0.206 F 
ATOM     93  C   UNL A   1      40.380  36.038  37.862  1.00  0.00     0.059 A 
ATOM     94  C   UNL A   1      38.870  34.478  38.952  1.00  0.00     0.059 A 
ATOM     95  F   UNL A   1      38.482  32.374  37.994  1.00  0.00    -0.206 F 
ATOM     96  C   UNL A   1      39.521  35.711  38.914  1.00  0.00     0.060 A 
BRANCH  96  97
ATOM     97  S   UNL A   1      39.241  36.928  40.218  1.00  0.00     0.124 S 
ATOM     98  O   UNL A   1      40.603  37.188  40.673  1.00  0.00    -0.237 OA
ATOM     99  O   UNL A   1      38.596  38.019  39.495  1.00  0.00    -0.237 OA
ATOM    100  O   UNL A   1      38.386  36.220  41.165  1.00  0.00    -0.744 OA
ENDBRANCH  96  97
ENDBRANCH  64  89
ENDBRANCH  38  39
ENDBRANCH  31  33
ENDBRANCH  30  31
ENDBRANCH  29  30
ENDBRANCH  28  29
ENDBRANCH  27  28
ENDBRANCH   1  27
TORSDOF 22
ENDMDL
MODEL 3
REMARK VINA RESULT:     -10.3      1.435      2.082
REMARK SMILES O=C(CCCC(=O)OCCOCCOC(=O)c1ccc(-c2c3nc(c(-c4c(F)cc(S(=O)(=O)[O-])cc4F)c4ccc([nH]4)c(-c4c(F)cc(S(=O)(=O)[O-])cc4F)c4nc(c(-c5c(F)cc(S(=O)(=O)[O-])cc5F)c5ccc2[nH]5)C=C4)C=C3)cc1)Nc1ccc(C(=O)N2CCOCC2)cc1
REMARK SMILES IDX 10 1 9 2 8 3 6 4 7 5 5 6 4 7 3 8 2 9 1 10 83 11 84 13 85 14
REMARK SMILES IDX 97 15 86 16 96 17 87 18 88 19 89 20 90 21 91 22 95 23 92 24
REMARK SMILES IDX 94 25 93 26 11 27 12 28 13 29 14 30 15 31 16 32 17 33 18 34
REMARK SMILES IDX 82 35 19 36 81 37 20 38 21 39 22 40 75 41 23 42 80 43 74 44
REMARK SMILES IDX 76 45 24 46 79 47 73 48 72 49 25 51 59 52 38 53 58 54 39 55
REMARK SMILES IDX 42 56 57 57 77 58 40 59 41 60 56 62 78 63 43 64 26 65 27 66
REMARK SMILES IDX 36 67 28 68 29 69 35 70 37 71 30 72 31 73 32 74 33 75 34 76
REMARK SMILES IDX 60 77 61 78 70 79 62 80 63 81 69 82 71 83 64 84 65 85 66 86
REMARK SMILES IDX 67 87 68 88 44 89 45 90 54 91 46 92 47 93 53 94 55 95 48 96
REMARK SMILES IDX 49 97 50 98 51 99 52 100
REMARK H PARENT 83 12 76 50 42 61
REMARK Flexibility Score: inf
ROOT
ATOM      1  C   UNL A   1      44.597  21.635  25.224  1.00  0.00     0.202 C 
ENDROOT
BRANCH   1   2
ATOM      2  C   UNL A   1      43.504  20.704  25.764  1.00  0.00     0.261 C 
BRANCH   2   3
ATOM      3  O   UNL A   1      42.192  21.251  25.513  1.00  0.00    -0.463 OA
BRANCH   3   4
ATOM      4  C   UNL A   1      41.356  21.386  26.572  1.00  0.00     0.305 C 
ATOM      5  O   UNL A   1      41.637  21.946  27.621  1.00  0.00    -0.252 OA
BRANCH   4   6
ATOM      6  C   UNL A   1      40.032  20.681  26.333  1.00  0.00     0.123 C 
BRANCH   6   7
ATOM      7  C   UNL A   1      38.822  21.511  25.867  1.00  0.00     0.022 C 
BRANCH   7   8
ATOM      8  C   UNL A   1      37.744  20.858  24.992  1.00  0.00     0.101 C 
BRANCH   8   9
ATOM      9  C   UNL A   1      36.338  21.351  25.269  1.00  0.00     0.224 C 
ATOM     10  O   UNL A   1      35.396  20.565  25.296  1.00  0.00    -0.275 OA
ATOM     11  N   UNL A   1      36.263  22.724  25.407  1.00  0.00    -0.326 N 
ATOM     12  H   UNL A   1      37.110  23.226  25.380  1.00  0.00     0.169 HD
BRANCH  11  13
ATOM     13  C   UNL A   1      35.086  23.465  25.582  1.00  0.00     0.041 A 
ATOM     14  C   UNL A   1      35.140  24.851  25.382  1.00  0.00     0.027 A 
ATOM     15  C   UNL A   1      33.880  22.862  25.923  1.00  0.00     0.027 A 
ATOM     16  C   UNL A   1      33.974  25.620  25.471  1.00  0.00     0.016 A 
ATOM     17  C   UNL A   1      32.726  23.630  26.035  1.00  0.00     0.016 A 
ATOM     18  C   UNL A   1      32.765  25.012  25.816  1.00  0.00     0.040 A 
BRANCH  18  19
ATOM     19  C   UNL A   1      31.496  25.778  25.732  1.00  0.00     0.254 C 
ATOM     20  O   UNL A   1      31.019  26.230  26.772  1.00  0.00    -0.269 OA
ATOM     21  N   UNL A   1      31.014  26.101  24.477  1.00  0.00    -0.334 N 
ATOM     22  C   UNL A   1      30.946  25.204  23.314  1.00  0.00     0.148 C 
ATOM     23  C   UNL A   1      30.475  27.431  24.243  1.00  0.00     0.148 C 
ATOM     24  C   UNL A   1      31.488  25.882  22.044  1.00  0.00     0.181 C 
ATOM     25  C   UNL A   1      31.196  28.026  23.030  1.00  0.00     0.181 C 
ATOM     26  O   UNL A   1      30.969  27.214  21.869  1.00  0.00    -0.378 OA
ENDBRANCH  18  19
ENDBRANCH  11  13
ENDBRANCH   8   9
ENDBRANCH   7   8
ENDBRANCH   6   7
ENDBRANCH   4   6
ENDBRANCH   3   4
ENDBRANCH   2   3
ENDBRANCH   1   2
BRANCH   1  27
ATOM     27  O   UNL A   1      45.076  22.605  26.160  1.00  0.00    -0.374 OA
BRANCH  27  28
ATOM     28  C   UNL A   1      45.109  23.958  25.713  1.00  0.00     0.202 C 
BRANCH  28  29
ATOM     29  C   UNL A   1      43.822  24.488  25.075  1.00  0.00     0.261 C 
BRANCH  29  30
ATOM     30  O   UNL A   1      42.732  24.510  26.014  1.00  0.00    -0.460 OA
BRANCH  30  31
ATOM     31  C   UNL A   1      42.012  25.656  25.995  1.00  0.00     0.338 C 
ATOM     32  O   UNL A   1      41.329  26.074  25.066  1.00  0.00    -0.246 OA
BRANCH  31  33
ATOM     33  C   UNL A   1      42.014  26.305  27.319  1.00  0.00     0.060 A 
ATOM     34  C   UNL A   1      40.913  26.055  28.148  1.00  0.00     0.016 A 
ATOM     35  C   UNL A   1      43.007  27.205  27.717  1.00  0.00     0.016 A 
ATOM     36  C   UNL A   1      40.755  26.764  29.334  1.00  0.00     0.010 A 
ATOM     37  C   UNL A   1      42.847  27.918  28.912  1.00  0.00     0.010 A 
ATOM     38  C   UNL A   1      41.696  27.737  29.699  1.00  0.00    -0.014 A 
BRANCH  38  39
ATOM     39  C   UNL A   1      41.364  28.679  30.797  1.00  0.00     0.031 A 
ATOM     40  C   UNL A   1      42.187  28.638  32.060  1.00  0.00     0.074 A 
ATOM     41  C   UNL A   1      40.397  29.602  30.652  1.00  0.00     0.049 A 
ATOM     42  N   UNL A   1      42.077  29.357  33.146  1.00  0.00    -0.248 NA
ATOM     43  C   UNL A   1      43.284  27.655  32.100  1.00  0.00     0.031 C 
ATOM     44  C   UNL A   1      39.561  29.770  29.464  1.00  0.00     0.029 A 
ATOM     45  N   UNL A   1      39.955  30.574  31.514  1.00  0.00    -0.354 N 
ATOM     46  C   UNL A   1      43.086  28.918  33.996  1.00  0.00     0.074 A 
ATOM     47  C   UNL A   1      43.775  27.844  33.316  1.00  0.00     0.031 C 
ATOM     48  C   UNL A   1      38.695  30.777  29.680  1.00  0.00     0.029 A 
ATOM     49  C   UNL A   1      38.900  31.307  31.026  1.00  0.00     0.049 A 
ATOM     50  H   UNL A   1      40.356  30.731  32.400  1.00  0.00     0.167 HD
ATOM     51  C   UNL A   1      43.418  29.376  35.226  1.00  0.00     0.037 A 
ATOM     52  C   UNL A   1      38.171  32.280  31.609  1.00  0.00     0.037 A 
ATOM     53  C   UNL A   1      42.733  30.447  35.901  1.00  0.00     0.049 A 
ATOM     54  C   UNL A   1      38.524  32.738  33.001  1.00  0.00     0.074 A 
ATOM     55  C   UNL A   1      42.987  30.976  37.154  1.00  0.00     0.029 A 
ATOM     56  N   UNL A   1      41.663  31.156  35.377  1.00  0.00    -0.354 N 
ATOM     57  N   UNL A   1      39.481  32.312  33.791  1.00  0.00    -0.248 NA
ATOM     58  C   UNL A   1      37.706  33.814  33.577  1.00  0.00     0.031 C 
ATOM     59  C   UNL A   1      42.048  31.984  37.403  1.00  0.00     0.029 A 
ATOM     60  C   UNL A   1      41.239  32.112  36.285  1.00  0.00     0.049 A 
ATOM     61  H   UNL A   1      41.262  31.003  34.491  1.00  0.00     0.167 HD
ATOM     62  C   UNL A   1      39.400  33.090  34.942  1.00  0.00     0.074 A 
ATOM     63  C   UNL A   1      38.306  34.017  34.742  1.00  0.00     0.031 C 
ATOM     64  C   UNL A   1      40.162  33.043  36.063  1.00  0.00     0.037 A 
BRANCH  51  65
ATOM     65  C   UNL A   1      44.570  28.715  35.930  1.00  0.00     0.058 A 
ATOM     66  C   UNL A   1      45.885  29.186  35.788  1.00  0.00     0.135 A 
ATOM     67  C   UNL A   1      44.352  27.627  36.791  1.00  0.00     0.135 A 
ATOM     68  F   UNL A   1      46.151  30.209  34.961  1.00  0.00    -0.206 F 
ATOM     69  C   UNL A   1      46.945  28.593  36.465  1.00  0.00     0.059 A 
ATOM     70  C   UNL A   1      45.394  27.035  37.497  1.00  0.00     0.059 A 
ATOM     71  F   UNL A   1      43.114  27.136  36.958  1.00  0.00    -0.206 F 
ATOM     72  C   UNL A   1      46.689  27.519  37.320  1.00  0.00     0.060 A 
BRANCH  72  73
ATOM     73  S   UNL A   1      48.074  26.773  38.207  1.00  0.00     0.124 S 
ATOM     74  O   UNL A   1      47.575  25.421  38.442  1.00  0.00    -0.237 OA
ATOM     75  O   UNL A   1      49.161  26.887  37.240  1.00  0.00    -0.237 OA
ATOM     76  O   UNL A   1      48.206  27.608  39.395  1.00  0.00    -0.744 OA
ENDBRANCH  72  73
ENDBRANCH  51  65
BRANCH  52  77
ATOM     77  C   UNL A   1      37.014  32.876  30.888  1.00  0.00     0.058 A 
ATOM     78  C   UNL A   1      37.185  33.915  29.962  1.00  0.00     0.135 A 
ATOM     79  C   UNL A   1      35.707  32.423  31.129  1.00  0.00     0.135 A 
ATOM     80  F   UNL A   1      38.414  34.389  29.705  1.00  0.00    -0.206 F 
ATOM     81  C   UNL A   1      36.100  34.501  29.315  1.00  0.00     0.059 A 
ATOM     82  C   UNL A   1      34.610  32.975  30.477  1.00  0.00     0.059 A 
ATOM     83  F   UNL A   1      35.490  31.422  31.995  1.00  0.00    -0.206 F 
ATOM     84  C   UNL A   1      34.816  34.023  29.581  1.00  0.00     0.060 A 
BRANCH  84  85
ATOM     85  S   UNL A   1      33.414  34.750  28.705  1.00  0.00     0.124 S 
ATOM     86  O   UNL A   1      32.501  35.039  29.805  1.00  0.00    -0.237 OA
ATOM     87  O   UNL A   1      34.021  35.907  28.055  1.00  0.00    -0.237 OA
ATOM     88  O   UNL A   1      33.000  33.681  27.800  1.00  0.00    -0.744 OA
ENDBRANCH  84  85
ENDBRANCH  52  77
BRANCH  64  89
ATOM     89  C   UNL A   1      39.879  34.052  37.140  1.00  0.00     0.058 A 
ATOM     90  C   UNL A   1      39.069  33.750  38.244  1.00  0.00     0.135 A 
ATOM     91  C   UNL A   1      40.475  35.324  37.093  1.00  0.00     0.135 A 
ATOM     92  F   UNL A   1      38.472  32.551  38.336  1.00  0.00    -0.206 F 
ATOM     93  C   UNL A   1      38.837  34.681  39.252  1.00  0.00     0.059 A 
ATOM     94  C   UNL A   1      40.280  36.261  38.101  1.00  0.00     0.059 A 
ATOM     95  F   UNL A   1      41.270  35.659  36.065  1.00  0.00    -0.206 F 
ATOM     96  C   UNL A   1      39.447  35.935  39.172  1.00  0.00     0.060 A 
BRANCH  96  97
ATOM     97  S   UNL A   1      39.163  37.125  40.499  1.00  0.00     0.124 S 
ATOM     98  O   UNL A   1      38.282  38.088  39.847  1.00  0.00    -0.237 OA
ATOM     99  O   UNL A   1      38.548  36.301  41.534  1.00  0.00    -0.237 OA
ATOM    100  O   UNL A   1      40.504  37.612  40.810  1.00  0.00    -0.744 OA
ENDBRANCH  96  97
ENDBRANCH  64  89
ENDBRANCH  38  39
ENDBRANCH  31  33
ENDBRANCH  30  31
ENDBRANCH  29  30
ENDBRANCH  28  29
ENDBRANCH  27  28
ENDBRANCH   1  27
TORSDOF 22
ENDMDL
