MODEL 1
REMARK VINA RESULT:     -10.4      0.000      0.000
REMARK SMILES CCCCCCNC(=O)Oc1cccc(-c2ccc([C@@H](C)C(=O)OCCOCCOC(=O)c3ccc(-c4c5nc(c(-c6c(F)cc(S(=O)(=O)[O-])cc6F)c6ccc([nH]6)c(-c6c(F)cc(S(=O)(=O)[O-])cc6F)c6nc(c(-c7c(F)cc(S(=O)(=O)[O-])cc7F)c7ccc4[nH]7)C=C6)C=C5)cc3)cc2N)c1
REMARK SMILES IDX 24 1 22 2 23 3 20 4 21 5 19 6 16 7 17 8 100 9 18 10 99 11
REMARK SMILES IDX 15 12 11 13 12 14 102 15 13 16 14 17 10 18 8 19 7 20 9 22
REMARK SMILES IDX 6 23 5 24 4 25 3 26 2 27 1 28 101 29 25 32 26 33 27 34 28 35
REMARK SMILES IDX 29 36 30 37 31 38 32 39 33 40 34 41 98 42 35 43 97 44 36 45
REMARK SMILES IDX 37 46 38 47 91 48 39 49 96 50 90 51 92 52 40 53 95 54 89 55
REMARK SMILES IDX 88 56 41 58 75 59 54 60 74 61 55 62 58 63 73 64 93 65 56 66
REMARK SMILES IDX 57 67 72 69 94 70 59 71 42 72 43 73 52 74 44 75 45 76 51 77
REMARK SMILES IDX 53 78 46 79 47 80 48 81 49 82 50 83 76 84 77 85 86 86 78 87
REMARK SMILES IDX 79 88 85 89 87 90 80 91 81 92 82 93 83 94 84 95 60 96 61 97
REMARK SMILES IDX 70 98 62 99 63 100 69 101 71 102 64 103 65 104 66 105 67 106
REMARK SMILES IDX 68 107
REMARK H PARENT 7 21 101 30 101 31 92 57 58 68
REMARK Flexibility Score: inf
ROOT
ATOM      1  O   UNL A   1      30.615  30.322  23.756  1.00  0.00    -0.463 OA
ENDROOT
BRANCH   1   2
ATOM      2  C   UNL A   1      29.280  30.294  23.507  1.00  0.00     0.313 C 
ATOM      3  O   UNL A   1      28.494  31.181  23.829  1.00  0.00    -0.252 OA
BRANCH   2   4
ATOM      4  C   UNL A   1      28.810  29.031  22.804  1.00  0.00     0.126 C 
ATOM      5  C   UNL A   1      27.321  28.833  23.066  1.00  0.00     0.025 C 
BRANCH   4   6
ATOM      6  C   UNL A   1      29.606  27.746  23.023  1.00  0.00    -0.032 A 
ATOM      7  C   UNL A   1      31.014  25.267  23.170  1.00  0.00     0.005 A 
ATOM      8  C   UNL A   1      29.921  25.550  24.014  1.00  0.00     0.011 A 
ATOM      9  C   UNL A   1      31.437  26.274  22.273  1.00  0.00     0.040 A 
ATOM     10  C   UNL A   1      29.225  26.764  23.941  1.00  0.00     0.005 A 
ATOM     11  C   UNL A   1      30.725  27.486  22.211  1.00  0.00     0.030 A 
BRANCH   7  12
ATOM     12  C   UNL A   1      31.642  23.926  23.219  1.00  0.00    -0.013 A 
ATOM     13  C   UNL A   1      31.999  21.771  24.289  1.00  0.00     0.133 A 
ATOM     14  C   UNL A   1      32.976  21.437  23.353  1.00  0.00     0.047 A 
ATOM     15  C   UNL A   1      31.328  22.996  24.226  1.00  0.00     0.056 A 
ATOM     16  C   UNL A   1      33.275  22.332  22.330  1.00  0.00     0.004 A 
ATOM     17  C   UNL A   1      32.619  23.565  22.269  1.00  0.00     0.009 A 
BRANCH  13  18
ATOM     18  O   UNL A   1      31.837  20.878  25.365  1.00  0.00    -0.410 OA
BRANCH  18  19
ATOM     19  C   UNL A   1      32.895  20.074  25.759  1.00  0.00     0.412 C 
ATOM     20  N   UNL A   1      33.597  20.583  26.815  1.00  0.00    -0.321 N 
ATOM     21  H   UNL A   1      34.368  20.054  27.124  1.00  0.00     0.167 HD
ATOM     22  O   UNL A   1      33.217  19.005  25.246  1.00  0.00    -0.224 OA
BRANCH  20  23
ATOM     23  C   UNL A   1      33.332  21.815  27.532  1.00  0.00     0.119 C 
BRANCH  23  24
ATOM     24  C   UNL A   1      34.428  22.857  27.305  1.00  0.00     0.021 C 
BRANCH  24  25
ATOM     25  C   UNL A   1      34.728  23.170  25.832  1.00  0.00     0.002 C 
BRANCH  25  26
ATOM     26  C   UNL A   1      34.869  24.657  25.488  1.00  0.00    -0.000 C 
BRANCH  26  27
ATOM     27  C   UNL A   1      33.651  25.525  25.808  1.00  0.00    -0.003 C 
ATOM     28  C   UNL A   1      33.720  26.915  25.193  1.00  0.00     0.004 C 
ENDBRANCH  26  27
ENDBRANCH  25  26
ENDBRANCH  24  25
ENDBRANCH  23  24
ENDBRANCH  20  23
ENDBRANCH  18  19
ENDBRANCH  13  18
ENDBRANCH   7  12
BRANCH   9  29
ATOM     29  N   UNL A   1      32.442  26.061  21.328  1.00  0.00    -0.398 N 
ATOM     30  H   UNL A   1      32.768  26.810  20.779  1.00  0.00     0.156 HD
ATOM     31  H   UNL A   1      32.825  25.162  21.212  1.00  0.00     0.156 HD
ENDBRANCH   9  29
ENDBRANCH   4   6
ENDBRANCH   2   4
ENDBRANCH   1   2
BRANCH   1  32
ATOM     32  C   UNL A   1      31.052  29.621  24.933  1.00  0.00     0.261 C 
BRANCH  32  33
ATOM     33  C   UNL A   1      31.804  30.550  25.890  1.00  0.00     0.202 C 
BRANCH  33  34
ATOM     34  O   UNL A   1      31.038  31.589  26.503  1.00  0.00    -0.374 OA
BRANCH  34  35
ATOM     35  C   UNL A   1      31.717  32.801  26.834  1.00  0.00     0.202 C 
BRANCH  35  36
ATOM     36  C   UNL A   1      33.066  32.681  27.554  1.00  0.00     0.261 C 
BRANCH  36  37
ATOM     37  O   UNL A   1      33.801  33.917  27.571  1.00  0.00    -0.460 OA
BRANCH  37  38
ATOM     38  C   UNL A   1      33.604  34.668  28.681  1.00  0.00     0.338 C 
ATOM     39  O   UNL A   1      32.643  35.379  28.928  1.00  0.00    -0.246 OA
BRANCH  38  40
ATOM     40  C   UNL A   1      34.638  34.370  29.692  1.00  0.00     0.060 A 
ATOM     41  C   UNL A   1      35.971  34.411  29.265  1.00  0.00     0.016 A 
ATOM     42  C   UNL A   1      34.322  33.969  30.991  1.00  0.00     0.016 A 
ATOM     43  C   UNL A   1      36.989  33.982  30.112  1.00  0.00     0.010 A 
ATOM     44  C   UNL A   1      35.348  33.536  31.842  1.00  0.00     0.010 A 
ATOM     45  C   UNL A   1      36.680  33.497  31.389  1.00  0.00    -0.014 A 
BRANCH  45  46
ATOM     46  C   UNL A   1      37.739  32.798  32.162  1.00  0.00     0.031 A 
ATOM     47  C   UNL A   1      38.406  31.590  31.560  1.00  0.00     0.074 A 
ATOM     48  C   UNL A   1      38.157  33.279  33.347  1.00  0.00     0.049 A 
ATOM     49  N   UNL A   1      39.380  30.856  32.035  1.00  0.00    -0.248 NA
ATOM     50  C   UNL A   1      37.912  31.151  30.244  1.00  0.00     0.031 C 
ATOM     51  C   UNL A   1      37.616  34.463  34.016  1.00  0.00     0.029 A 
ATOM     52  N   UNL A   1      39.140  32.835  34.194  1.00  0.00    -0.354 N 
ATOM     53  C   UNL A   1      39.613  29.870  31.083  1.00  0.00     0.074 A 
ATOM     54  C   UNL A   1      38.656  30.077  30.019  1.00  0.00     0.031 C 
ATOM     55  C   UNL A   1      38.276  34.649  35.171  1.00  0.00     0.029 A 
ATOM     56  C   UNL A   1      39.268  33.588  35.337  1.00  0.00     0.049 A 
ATOM     57  H   UNL A   1      39.703  32.049  34.002  1.00  0.00     0.167 HD
ATOM     58  C   UNL A   1      40.547  28.889  31.087  1.00  0.00     0.037 A 
ATOM     59  C   UNL A   1      40.083  33.432  36.399  1.00  0.00     0.037 A 
ATOM     60  C   UNL A   1      41.504  28.690  32.146  1.00  0.00     0.049 A 
ATOM     61  C   UNL A   1      41.080  32.302  36.406  1.00  0.00     0.074 A 
ATOM     62  C   UNL A   1      42.503  27.736  32.234  1.00  0.00     0.029 A 
ATOM     63  N   UNL A   1      41.576  29.451  33.302  1.00  0.00    -0.354 N 
ATOM     64  N   UNL A   1      41.305  31.393  35.487  1.00  0.00    -0.248 NA
ATOM     65  C   UNL A   1      41.940  32.182  37.592  1.00  0.00     0.031 C 
ATOM     66  C   UNL A   1      43.148  27.890  33.466  1.00  0.00     0.029 A 
ATOM     67  C   UNL A   1      42.587  28.975  34.122  1.00  0.00     0.049 A 
ATOM     68  H   UNL A   1      40.995  30.219  33.511  1.00  0.00     0.167 HD
ATOM     69  C   UNL A   1      42.348  30.611  35.971  1.00  0.00     0.074 A 
ATOM     70  C   UNL A   1      42.719  31.161  37.258  1.00  0.00     0.031 C 
ATOM     71  C   UNL A   1      42.946  29.534  35.401  1.00  0.00     0.037 A 
BRANCH  58  72
ATOM     72  C   UNL A   1      40.566  27.941  29.920  1.00  0.00     0.058 A 
ATOM     73  C   UNL A   1      39.607  26.924  29.775  1.00  0.00     0.135 A 
ATOM     74  C   UNL A   1      41.537  28.070  28.913  1.00  0.00     0.135 A 
ATOM     75  F   UNL A   1      38.666  26.744  30.715  1.00  0.00    -0.206 F 
ATOM     76  C   UNL A   1      39.628  26.053  28.690  1.00  0.00     0.059 A 
ATOM     77  C   UNL A   1      41.560  27.228  27.806  1.00  0.00     0.059 A 
ATOM     78  F   UNL A   1      42.477  29.024  29.001  1.00  0.00    -0.206 F 
ATOM     79  C   UNL A   1      40.609  26.213  27.710  1.00  0.00     0.060 A 
BRANCH  79  80
ATOM     80  S   UNL A   1      40.620  25.080  26.304  1.00  0.00     0.124 S 
ATOM     81  O   UNL A   1      39.215  24.693  26.229  1.00  0.00    -0.237 OA
ATOM     82  O   UNL A   1      41.100  25.932  25.220  1.00  0.00    -0.237 OA
ATOM     83  O   UNL A   1      41.539  24.027  26.722  1.00  0.00    -0.744 OA
ENDBRANCH  79  80
ENDBRANCH  58  72
BRANCH  59  84
ATOM     84  C   UNL A   1      39.988  34.370  37.551  1.00  0.00     0.058 A 
ATOM     85  C   UNL A   1      39.037  34.185  38.565  1.00  0.00     0.135 A 
ATOM     86  C   UNL A   1      40.849  35.473  37.657  1.00  0.00     0.135 A 
ATOM     87  F   UNL A   1      38.183  33.151  38.502  1.00  0.00    -0.206 F 
ATOM     88  C   UNL A   1      38.933  35.066  39.636  1.00  0.00     0.059 A 
ATOM     89  C   UNL A   1      40.782  36.354  38.732  1.00  0.00     0.059 A 
ATOM     90  F   UNL A   1      41.783  35.690  36.717  1.00  0.00    -0.206 F 
ATOM     91  C   UNL A   1      39.814  36.147  39.712  1.00  0.00     0.060 A 
BRANCH  91  92
ATOM     92  S   UNL A   1      39.706  37.257  41.133  1.00  0.00     0.124 S 
ATOM     93  O   UNL A   1      39.300  36.340  42.192  1.00  0.00    -0.237 OA
ATOM     94  O   UNL A   1      41.068  37.773  41.222  1.00  0.00    -0.237 OA
ATOM     95  O   UNL A   1      38.701  38.232  40.721  1.00  0.00    -0.744 OA
ENDBRANCH  91  92
ENDBRANCH  59  84
BRANCH  71  96
ATOM     96  C   UNL A   1      44.087  28.898  36.151  1.00  0.00     0.058 A 
ATOM     97  C   UNL A   1      45.391  29.412  36.089  1.00  0.00     0.135 A 
ATOM     98  C   UNL A   1      43.862  27.781  36.973  1.00  0.00     0.135 A 
ATOM     99  F   UNL A   1      45.663  30.476  35.316  1.00  0.00    -0.206 F 
ATOM    100  C   UNL A   1      46.439  28.822  36.788  1.00  0.00     0.059 A 
ATOM    101  C   UNL A   1      44.890  27.192  37.703  1.00  0.00     0.059 A 
ATOM    102  F   UNL A   1      42.631  27.256  37.079  1.00  0.00    -0.206 F 
ATOM    103  C   UNL A   1      46.179  27.710  37.593  1.00  0.00     0.060 A 
BRANCH 103 104
ATOM    104  S   UNL A   1      47.544  26.963  38.507  1.00  0.00     0.124 S 
ATOM    105  O   UNL A   1      46.869  25.874  39.205  1.00  0.00    -0.237 OA
ATOM    106  O   UNL A   1      48.455  26.564  37.440  1.00  0.00    -0.237 OA
ATOM    107  O   UNL A   1      48.021  28.051  39.356  1.00  0.00    -0.744 OA
ENDBRANCH 103 104
ENDBRANCH  71  96
ENDBRANCH  45  46
ENDBRANCH  38  40
ENDBRANCH  37  38
ENDBRANCH  36  37
ENDBRANCH  35  36
ENDBRANCH  34  35
ENDBRANCH  33  34
ENDBRANCH  32  33
ENDBRANCH   1  32
TORSDOF 27
ENDMDL
MODEL 2
REMARK VINA RESULT:     -10.3      2.039      8.326
REMARK SMILES CCCCCCNC(=O)Oc1cccc(-c2ccc([C@@H](C)C(=O)OCCOCCOC(=O)c3ccc(-c4c5nc(c(-c6c(F)cc(S(=O)(=O)[O-])cc6F)c6ccc([nH]6)c(-c6c(F)cc(S(=O)(=O)[O-])cc6F)c6nc(c(-c7c(F)cc(S(=O)(=O)[O-])cc7F)c7ccc4[nH]7)C=C6)C=C5)cc3)cc2N)c1
REMARK SMILES IDX 24 1 22 2 23 3 20 4 21 5 19 6 16 7 17 8 100 9 18 10 99 11
REMARK SMILES IDX 15 12 11 13 12 14 102 15 13 16 14 17 10 18 8 19 7 20 9 22
REMARK SMILES IDX 6 23 5 24 4 25 3 26 2 27 1 28 101 29 25 32 26 33 27 34 28 35
REMARK SMILES IDX 29 36 30 37 31 38 32 39 33 40 34 41 98 42 35 43 97 44 36 45
REMARK SMILES IDX 37 46 38 47 91 48 39 49 96 50 90 51 92 52 40 53 95 54 89 55
REMARK SMILES IDX 88 56 41 58 75 59 54 60 74 61 55 62 58 63 73 64 93 65 56 66
REMARK SMILES IDX 57 67 72 69 94 70 59 71 42 72 43 73 52 74 44 75 45 76 51 77
REMARK SMILES IDX 53 78 46 79 47 80 48 81 49 82 50 83 76 84 77 85 86 86 78 87
REMARK SMILES IDX 79 88 85 89 87 90 80 91 81 92 82 93 83 94 84 95 60 96 61 97
REMARK SMILES IDX 70 98 62 99 63 100 69 101 71 102 64 103 65 104 66 105 67 106
REMARK SMILES IDX 68 107
REMARK H PARENT 7 21 101 30 101 31 92 57 58 68
REMARK Flexibility Score: inf
ROOT
ATOM      1  O   UNL A   1      31.727  27.947  24.202  1.00  0.00    -0.463 OA
ENDROOT
BRANCH   1   2
ATOM      2  C   UNL A   1      30.631  28.098  23.415  1.00  0.00     0.313 C 
ATOM      3  O   UNL A   1      30.238  29.171  22.967  1.00  0.00    -0.252 OA
BRANCH   2   4
ATOM      4  C   UNL A   1      29.884  26.801  23.145  1.00  0.00     0.126 C 
ATOM      5  C   UNL A   1      28.535  26.840  23.856  1.00  0.00     0.025 C 
BRANCH   4   6
ATOM      6  C   UNL A   1      30.619  25.484  23.380  1.00  0.00    -0.032 A 
ATOM      7  C   UNL A   1      32.119  23.147  24.043  1.00  0.00     0.005 A 
ATOM      8  C   UNL A   1      32.319  23.837  22.830  1.00  0.00     0.011 A 
ATOM      9  C   UNL A   1      31.107  23.614  24.913  1.00  0.00     0.040 A 
ATOM     10  C   UNL A   1      31.587  24.987  22.505  1.00  0.00     0.005 A 
ATOM     11  C   UNL A   1      30.384  24.772  24.571  1.00  0.00     0.030 A 
BRANCH   7  12
ATOM     12  C   UNL A   1      32.996  22.001  24.381  1.00  0.00    -0.013 A 
ATOM     13  C   UNL A   1      35.104  21.085  25.174  1.00  0.00     0.133 A 
ATOM     14  C   UNL A   1      34.687  19.790  24.870  1.00  0.00     0.047 A 
ATOM     15  C   UNL A   1      34.272  22.183  24.942  1.00  0.00     0.056 A 
ATOM     16  C   UNL A   1      33.415  19.589  24.345  1.00  0.00     0.004 A 
ATOM     17  C   UNL A   1      32.582  20.685  24.097  1.00  0.00     0.009 A 
BRANCH  13  18
ATOM     18  O   UNL A   1      36.444  21.227  25.582  1.00  0.00    -0.410 OA
BRANCH  18  19
ATOM     19  C   UNL A   1      37.334  21.938  24.792  1.00  0.00     0.412 C 
ATOM     20  N   UNL A   1      38.638  21.774  25.166  1.00  0.00    -0.321 N 
ATOM     21  H   UNL A   1      39.309  22.271  24.643  1.00  0.00     0.167 HD
ATOM     22  O   UNL A   1      37.037  22.658  23.843  1.00  0.00    -0.224 OA
BRANCH  20  23
ATOM     23  C   UNL A   1      39.144  20.951  26.247  1.00  0.00     0.119 C 
BRANCH  23  24
ATOM     24  C   UNL A   1      40.606  21.264  26.570  1.00  0.00     0.021 C 
BRANCH  24  25
ATOM     25  C   UNL A   1      41.528  20.040  26.646  1.00  0.00     0.002 C 
BRANCH  25  26
ATOM     26  C   UNL A   1      42.863  20.172  25.904  1.00  0.00    -0.000 C 
BRANCH  26  27
ATOM     27  C   UNL A   1      43.450  18.864  25.368  1.00  0.00    -0.003 C 
ATOM     28  C   UNL A   1      44.614  19.072  24.411  1.00  0.00     0.004 C 
ENDBRANCH  26  27
ENDBRANCH  25  26
ENDBRANCH  24  25
ENDBRANCH  23  24
ENDBRANCH  20  23
ENDBRANCH  18  19
ENDBRANCH  13  18
ENDBRANCH   7  12
BRANCH   9  29
ATOM     29  N   UNL A   1      30.896  23.065  26.178  1.00  0.00    -0.398 N 
ATOM     30  H   UNL A   1      31.370  22.246  26.445  1.00  0.00     0.156 HD
ATOM     31  H   UNL A   1      30.272  23.499  26.805  1.00  0.00     0.156 HD
ENDBRANCH   9  29
ENDBRANCH   4   6
ENDBRANCH   2   4
ENDBRANCH   1   2
BRANCH   1  32
ATOM     32  C   UNL A   1      31.602  28.416  25.556  1.00  0.00     0.261 C 
BRANCH  32  33
ATOM     33  C   UNL A   1      32.077  29.866  25.691  1.00  0.00     0.202 C 
BRANCH  33  34
ATOM     34  O   UNL A   1      31.724  30.542  26.899  1.00  0.00    -0.374 OA
BRANCH  34  35
ATOM     35  C   UNL A   1      31.966  31.948  26.962  1.00  0.00     0.202 C 
BRANCH  35  36
ATOM     36  C   UNL A   1      33.219  32.416  27.714  1.00  0.00     0.261 C 
BRANCH  36  37
ATOM     37  O   UNL A   1      33.496  33.813  27.518  1.00  0.00    -0.460 OA
BRANCH  37  38
ATOM     38  C   UNL A   1      33.395  34.566  28.640  1.00  0.00     0.338 C 
ATOM     39  O   UNL A   1      32.465  35.288  28.960  1.00  0.00    -0.246 OA
BRANCH  38  40
ATOM     40  C   UNL A   1      34.500  34.252  29.568  1.00  0.00     0.060 A 
ATOM     41  C   UNL A   1      35.802  34.462  29.096  1.00  0.00     0.016 A 
ATOM     42  C   UNL A   1      34.284  33.684  30.824  1.00  0.00     0.016 A 
ATOM     43  C   UNL A   1      36.893  34.036  29.847  1.00  0.00     0.010 A 
ATOM     44  C   UNL A   1      35.385  33.254  31.578  1.00  0.00     0.010 A 
ATOM     45  C   UNL A   1      36.691  33.387  31.072  1.00  0.00    -0.014 A 
BRANCH  45  46
ATOM     46  C   UNL A   1      37.843  32.706  31.717  1.00  0.00     0.031 A 
ATOM     47  C   UNL A   1      38.303  33.175  33.073  1.00  0.00     0.074 A 
ATOM     48  C   UNL A   1      38.420  31.635  31.143  1.00  0.00     0.049 A 
ATOM     49  N   UNL A   1      39.253  32.701  33.837  1.00  0.00    -0.248 NA
ATOM     50  C   UNL A   1      37.594  34.332  33.646  1.00  0.00     0.031 C 
ATOM     51  C   UNL A   1      38.040  31.063  29.851  1.00  0.00     0.029 A 
ATOM     52  N   UNL A   1      39.445  30.833  31.577  1.00  0.00    -0.354 N 
ATOM     53  C   UNL A   1      39.260  33.499  34.975  1.00  0.00     0.074 A 
ATOM     54  C   UNL A   1      38.243  34.510  34.788  1.00  0.00     0.031 C 
ATOM     55  C   UNL A   1      38.823  30.001  29.598  1.00  0.00     0.029 A 
ATOM     56  C   UNL A   1      39.775  29.831  30.696  1.00  0.00     0.049 A 
ATOM     57  H   UNL A   1      39.902  30.962  32.440  1.00  0.00     0.167 HD
ATOM     58  C   UNL A   1      40.033  33.393  36.083  1.00  0.00     0.037 A 
ATOM     59  C   UNL A   1      40.740  28.892  30.762  1.00  0.00     0.037 A 
ATOM     60  C   UNL A   1      41.041  32.381  36.270  1.00  0.00     0.049 A 
ATOM     61  C   UNL A   1      41.623  28.825  31.981  1.00  0.00     0.074 A 
ATOM     62  C   UNL A   1      41.864  32.177  37.364  1.00  0.00     0.029 A 
ATOM     63  N   UNL A   1      41.369  31.407  35.338  1.00  0.00    -0.354 N 
ATOM     64  N   UNL A   1      41.600  29.571  33.059  1.00  0.00    -0.248 NA
ATOM     65  C   UNL A   1      42.659  27.782  31.994  1.00  0.00     0.031 C 
ATOM     66  C   UNL A   1      42.722  31.111  37.075  1.00  0.00     0.029 A 
ATOM     67  C   UNL A   1      42.398  30.614  35.822  1.00  0.00     0.049 A 
ATOM     68  H   UNL A   1      40.934  31.294  34.461  1.00  0.00     0.167 HD
ATOM     69  C   UNL A   1      42.599  29.072  33.890  1.00  0.00     0.074 A 
ATOM     70  C   UNL A   1      43.197  27.952  33.194  1.00  0.00     0.031 C 
ATOM     71  C   UNL A   1      42.984  29.501  35.119  1.00  0.00     0.037 A 
BRANCH  58  72
ATOM     72  C   UNL A   1      39.835  34.412  37.171  1.00  0.00     0.058 A 
ATOM     73  C   UNL A   1      39.006  34.165  38.277  1.00  0.00     0.135 A 
ATOM     74  C   UNL A   1      40.510  35.643  37.123  1.00  0.00     0.135 A 
ATOM     75  F   UNL A   1      38.324  33.012  38.366  1.00  0.00    -0.206 F 
ATOM     76  C   UNL A   1      38.831  35.112  39.282  1.00  0.00     0.059 A 
ATOM     77  C   UNL A   1      40.371  36.594  38.130  1.00  0.00     0.059 A 
ATOM     78  F   UNL A   1      41.314  35.933  36.089  1.00  0.00    -0.206 F 
ATOM     79  C   UNL A   1      39.518  36.324  39.200  1.00  0.00     0.060 A 
BRANCH  79  80
ATOM     80  S   UNL A   1      39.287  37.541  40.514  1.00  0.00     0.124 S 
ATOM     81  O   UNL A   1      40.600  38.176  40.559  1.00  0.00    -0.237 OA
ATOM     82  O   UNL A   1      38.202  38.364  39.990  1.00  0.00    -0.237 OA
ATOM     83  O   UNL A   1      38.945  36.726  41.675  1.00  0.00    -0.744 OA
ENDBRANCH  79  80
ENDBRANCH  58  72
BRANCH  59  84
ATOM     84  C   UNL A   1      40.926  27.939  29.634  1.00  0.00     0.058 A 
ATOM     85  C   UNL A   1      40.067  26.845  29.454  1.00  0.00     0.135 A 
ATOM     86  C   UNL A   1      41.971  28.107  28.712  1.00  0.00     0.135 A 
ATOM     87  F   UNL A   1      39.060  26.635  30.316  1.00  0.00    -0.206 F 
ATOM     88  C   UNL A   1      40.245  25.942  28.411  1.00  0.00     0.059 A 
ATOM     89  C   UNL A   1      42.154  27.232  27.645  1.00  0.00     0.059 A 
ATOM     90  F   UNL A   1      42.816  29.143  28.834  1.00  0.00    -0.206 F 
ATOM     91  C   UNL A   1      41.290  26.147  27.509  1.00  0.00     0.060 A 
BRANCH  91  92
ATOM     92  S   UNL A   1      41.483  25.000  26.127  1.00  0.00     0.124 S 
ATOM     93  O   UNL A   1      42.461  24.058  26.660  1.00  0.00    -0.237 OA
ATOM     94  O   UNL A   1      40.126  24.488  25.963  1.00  0.00    -0.237 OA
ATOM     95  O   UNL A   1      41.955  25.856  25.044  1.00  0.00    -0.744 OA
ENDBRANCH  91  92
ENDBRANCH  59  84
BRANCH  71  96
ATOM     96  C   UNL A   1      44.085  28.737  35.804  1.00  0.00     0.058 A 
ATOM     97  C   UNL A   1      43.815  27.672  36.677  1.00  0.00     0.135 A 
ATOM     98  C   UNL A   1      45.432  29.053  35.555  1.00  0.00     0.135 A 
ATOM     99  F   UNL A   1      42.546  27.331  36.954  1.00  0.00    -0.206 F 
ATOM    100  C   UNL A   1      44.838  26.968  37.304  1.00  0.00     0.059 A 
ATOM    101  C   UNL A   1      46.471  28.343  36.148  1.00  0.00     0.059 A 
ATOM    102  F   UNL A   1      45.748  30.053  34.718  1.00  0.00    -0.206 F 
ATOM    103  C   UNL A   1      46.164  27.312  37.034  1.00  0.00     0.060 A 
BRANCH 103 104
ATOM    104  S   UNL A   1      47.483  26.380  37.841  1.00  0.00     0.124 S 
ATOM    105  O   UNL A   1      48.638  26.739  37.026  1.00  0.00    -0.237 OA
ATOM    106  O   UNL A   1      47.469  26.926  39.195  1.00  0.00    -0.237 OA
ATOM    107  O   UNL A   1      47.040  24.993  37.727  1.00  0.00    -0.744 OA
ENDBRANCH 103 104
ENDBRANCH  71  96
ENDBRANCH  45  46
ENDBRANCH  38  40
ENDBRANCH  37  38
ENDBRANCH  36  37
ENDBRANCH  35  36
ENDBRANCH  34  35
ENDBRANCH  33  34
ENDBRANCH  32  33
ENDBRANCH   1  32
TORSDOF 27
ENDMDL
MODEL 3
REMARK VINA RESULT:      -9.8      1.915      8.201
REMARK SMILES CCCCCCNC(=O)Oc1cccc(-c2ccc([C@@H](C)C(=O)OCCOCCOC(=O)c3ccc(-c4c5nc(c(-c6c(F)cc(S(=O)(=O)[O-])cc6F)c6ccc([nH]6)c(-c6c(F)cc(S(=O)(=O)[O-])cc6F)c6nc(c(-c7c(F)cc(S(=O)(=O)[O-])cc7F)c7ccc4[nH]7)C=C6)C=C5)cc3)cc2N)c1
REMARK SMILES IDX 24 1 22 2 23 3 20 4 21 5 19 6 16 7 17 8 100 9 18 10 99 11
REMARK SMILES IDX 15 12 11 13 12 14 102 15 13 16 14 17 10 18 8 19 7 20 9 22
REMARK SMILES IDX 6 23 5 24 4 25 3 26 2 27 1 28 101 29 25 32 26 33 27 34 28 35
REMARK SMILES IDX 29 36 30 37 31 38 32 39 33 40 34 41 98 42 35 43 97 44 36 45
REMARK SMILES IDX 37 46 38 47 91 48 39 49 96 50 90 51 92 52 40 53 95 54 89 55
REMARK SMILES IDX 88 56 41 58 75 59 54 60 74 61 55 62 58 63 73 64 93 65 56 66
REMARK SMILES IDX 57 67 72 69 94 70 59 71 42 72 43 73 52 74 44 75 45 76 51 77
REMARK SMILES IDX 53 78 46 79 47 80 48 81 49 82 50 83 76 84 77 85 86 86 78 87
REMARK SMILES IDX 79 88 85 89 87 90 80 91 81 92 82 93 83 94 84 95 60 96 61 97
REMARK SMILES IDX 70 98 62 99 63 100 69 101 71 102 64 103 65 104 66 105 67 106
REMARK SMILES IDX 68 107
REMARK H PARENT 7 21 101 30 101 31 92 57 58 68
REMARK Flexibility Score: inf
ROOT
ATOM      1  O   UNL A   1      31.365  29.764  24.383  1.00  0.00    -0.463 OA
ENDROOT
BRANCH   1   2
ATOM      2  C   UNL A   1      30.143  30.054  23.867  1.00  0.00     0.313 C 
ATOM      3  O   UNL A   1      29.475  31.038  24.172  1.00  0.00    -0.252 OA
BRANCH   2   4
ATOM      4  C   UNL A   1      29.632  29.022  22.875  1.00  0.00     0.126 C 
ATOM      5  C   UNL A   1      28.107  29.040  22.869  1.00  0.00     0.025 C 
BRANCH   4   6
ATOM      6  C   UNL A   1      30.187  27.602  22.961  1.00  0.00    -0.032 A 
ATOM      7  C   UNL A   1      31.348  25.026  23.370  1.00  0.00     0.005 A 
ATOM      8  C   UNL A   1      31.725  25.846  22.287  1.00  0.00     0.011 A 
ATOM      9  C   UNL A   1      30.329  25.492  24.231  1.00  0.00     0.040 A 
ATOM     10  C   UNL A   1      31.160  27.113  22.087  1.00  0.00     0.005 A 
ATOM     11  C   UNL A   1      29.775  26.768  24.017  1.00  0.00     0.030 A 
BRANCH   7  12
ATOM     12  C   UNL A   1      32.055  23.743  23.591  1.00  0.00    -0.013 A 
ATOM     13  C   UNL A   1      33.937  22.460  24.443  1.00  0.00     0.133 A 
ATOM     14  C   UNL A   1      33.442  21.295  23.861  1.00  0.00     0.047 A 
ATOM     15  C   UNL A   1      33.255  23.673  24.322  1.00  0.00     0.056 A 
ATOM     16  C   UNL A   1      32.240  21.339  23.162  1.00  0.00     0.004 A 
ATOM     17  C   UNL A   1      31.558  22.553  23.024  1.00  0.00     0.009 A 
BRANCH  13  18
ATOM     18  O   UNL A   1      35.216  22.370  25.024  1.00  0.00    -0.410 OA
BRANCH  18  19
ATOM     19  C   UNL A   1      35.379  22.625  26.377  1.00  0.00     0.412 C 
ATOM     20  N   UNL A   1      36.629  23.077  26.695  1.00  0.00    -0.321 N 
ATOM     21  H   UNL A   1      36.798  23.261  27.648  1.00  0.00     0.167 HD
ATOM     22  O   UNL A   1      34.523  22.476  27.246  1.00  0.00    -0.224 OA
BRANCH  20  23
ATOM     23  C   UNL A   1      37.732  23.317  25.786  1.00  0.00     0.119 C 
BRANCH  23  24
ATOM     24  C   UNL A   1      38.790  24.236  26.400  1.00  0.00     0.021 C 
BRANCH  24  25
ATOM     25  C   UNL A   1      39.846  23.525  27.257  1.00  0.00     0.002 C 
BRANCH  25  26
ATOM     26  C   UNL A   1      40.771  22.562  26.502  1.00  0.00    -0.000 C 
BRANCH  26  27
ATOM     27  C   UNL A   1      41.024  21.219  27.188  1.00  0.00    -0.003 C 
ATOM     28  C   UNL A   1      40.565  20.024  26.365  1.00  0.00     0.004 C 
ENDBRANCH  26  27
ENDBRANCH  25  26
ENDBRANCH  24  25
ENDBRANCH  23  24
ENDBRANCH  20  23
ENDBRANCH  18  19
ENDBRANCH  13  18
ENDBRANCH   7  12
BRANCH   9  29
ATOM     29  N   UNL A   1      29.952  24.806  25.385  1.00  0.00    -0.398 N 
ATOM     30  H   UNL A   1      30.013  25.247  26.263  1.00  0.00     0.156 HD
ATOM     31  H   UNL A   1      29.623  23.879  25.322  1.00  0.00     0.156 HD
ENDBRANCH   9  29
ENDBRANCH   4   6
ENDBRANCH   2   4
ENDBRANCH   1   2
BRANCH   1  32
ATOM     32  C   UNL A   1      31.437  29.654  25.815  1.00  0.00     0.261 C 
BRANCH  32  33
ATOM     33  C   UNL A   1      31.876  30.974  26.456  1.00  0.00     0.202 C 
BRANCH  33  34
ATOM     34  O   UNL A   1      33.121  30.959  27.155  1.00  0.00    -0.374 OA
BRANCH  34  35
ATOM     35  C   UNL A   1      33.661  32.215  27.566  1.00  0.00     0.202 C 
BRANCH  35  36
ATOM     36  C   UNL A   1      32.668  33.332  27.914  1.00  0.00     0.261 C 
BRANCH  36  37
ATOM     37  O   UNL A   1      33.317  34.534  28.364  1.00  0.00    -0.460 OA
BRANCH  37  38
ATOM     38  C   UNL A   1      33.623  34.542  29.684  1.00  0.00     0.338 C 
ATOM     39  O   UNL A   1      32.902  34.891  30.605  1.00  0.00    -0.246 OA
BRANCH  38  40
ATOM     40  C   UNL A   1      34.918  33.871  29.913  1.00  0.00     0.060 A 
ATOM     41  C   UNL A   1      34.932  32.823  30.842  1.00  0.00     0.016 A 
ATOM     42  C   UNL A   1      36.103  34.305  29.316  1.00  0.00     0.016 A 
ATOM     43  C   UNL A   1      36.140  32.253  31.233  1.00  0.00     0.010 A 
ATOM     44  C   UNL A   1      37.318  33.732  29.712  1.00  0.00     0.010 A 
ATOM     45  C   UNL A   1      37.345  32.735  30.706  1.00  0.00    -0.014 A 
BRANCH  45  46
ATOM     46  C   UNL A   1      38.621  32.305  31.334  1.00  0.00     0.031 A 
ATOM     47  C   UNL A   1      38.993  32.856  32.686  1.00  0.00     0.074 A 
ATOM     48  C   UNL A   1      39.398  31.376  30.748  1.00  0.00     0.049 A 
ATOM     49  N   UNL A   1      40.031  32.585  33.435  1.00  0.00    -0.248 NA
ATOM     50  C   UNL A   1      38.070  33.842  33.273  1.00  0.00     0.031 C 
ATOM     51  C   UNL A   1      39.126  30.740  29.459  1.00  0.00     0.029 A 
ATOM     52  N   UNL A   1      40.571  30.800  31.165  1.00  0.00    -0.354 N 
ATOM     53  C   UNL A   1      39.890  33.367  34.577  1.00  0.00     0.074 A 
ATOM     54  C   UNL A   1      38.684  34.147  34.407  1.00  0.00     0.031 C 
ATOM     55  C   UNL A   1      40.106  29.861  29.191  1.00  0.00     0.029 A 
ATOM     56  C   UNL A   1      41.087  29.888  30.276  1.00  0.00     0.049 A 
ATOM     57  H   UNL A   1      41.004  31.019  32.022  1.00  0.00     0.167 HD
ATOM     58  C   UNL A   1      40.683  33.419  35.674  1.00  0.00     0.037 A 
ATOM     59  C   UNL A   1      42.225  29.167  30.325  1.00  0.00     0.037 A 
ATOM     60  C   UNL A   1      41.880  32.635  35.843  1.00  0.00     0.049 A 
ATOM     61  C   UNL A   1      43.120  29.280  31.532  1.00  0.00     0.074 A 
ATOM     62  C   UNL A   1      42.742  32.603  36.925  1.00  0.00     0.029 A 
ATOM     63  N   UNL A   1      42.387  31.750  34.903  1.00  0.00    -0.354 N 
ATOM     64  N   UNL A   1      42.959  30.005  32.613  1.00  0.00    -0.248 NA
ATOM     65  C   UNL A   1      44.347  28.472  31.527  1.00  0.00     0.031 C 
ATOM     66  C   UNL A   1      43.796  31.736  36.621  1.00  0.00     0.029 A 
ATOM     67  C   UNL A   1      43.564  31.185  35.370  1.00  0.00     0.049 A 
ATOM     68  H   UNL A   1      41.973  31.553  34.032  1.00  0.00     0.167 HD
ATOM     69  C   UNL A   1      44.050  29.719  33.429  1.00  0.00     0.074 A 
ATOM     70  C   UNL A   1      44.856  28.747  32.721  1.00  0.00     0.031 C 
ATOM     71  C   UNL A   1      44.356  30.217  34.654  1.00  0.00     0.037 A 
BRANCH  58  72
ATOM     72  C   UNL A   1      40.295  34.375  36.768  1.00  0.00     0.058 A 
ATOM     73  C   UNL A   1      39.400  34.011  37.788  1.00  0.00     0.135 A 
ATOM     74  C   UNL A   1      40.851  35.664  36.817  1.00  0.00     0.135 A 
ATOM     75  F   UNL A   1      38.827  32.797  37.781  1.00  0.00    -0.206 F 
ATOM     76  C   UNL A   1      39.049  34.899  38.799  1.00  0.00     0.059 A 
ATOM     77  C   UNL A   1      40.536  36.559  37.835  1.00  0.00     0.059 A 
ATOM     78  F   UNL A   1      41.711  36.065  35.868  1.00  0.00    -0.206 F 
ATOM     79  C   UNL A   1      39.622  36.173  38.815  1.00  0.00     0.060 A 
BRANCH  79  80
ATOM     80  S   UNL A   1      39.163  37.313  40.137  1.00  0.00     0.124 S 
ATOM     81  O   UNL A   1      38.451  36.427  41.053  1.00  0.00    -0.237 OA
ATOM     82  O   UNL A   1      40.461  37.792  40.601  1.00  0.00    -0.237 OA
ATOM     83  O   UNL A   1      38.338  38.307  39.459  1.00  0.00    -0.744 OA
ENDBRANCH  79  80
ENDBRANCH  58  72
BRANCH  59  84
ATOM     84  C   UNL A   1      42.587  28.274  29.190  1.00  0.00     0.058 A 
ATOM     85  C   UNL A   1      43.591  28.627  28.276  1.00  0.00     0.135 A 
ATOM     86  C   UNL A   1      41.931  27.048  28.999  1.00  0.00     0.135 A 
ATOM     87  F   UNL A   1      44.238  29.795  28.410  1.00  0.00    -0.206 F 
ATOM     88  C   UNL A   1      43.923  27.804  27.205  1.00  0.00     0.059 A 
ATOM     89  C   UNL A   1      42.264  26.196  27.951  1.00  0.00     0.059 A 
ATOM     90  F   UNL A   1      40.969  26.660  29.850  1.00  0.00    -0.206 F 
ATOM     91  C   UNL A   1      43.255  26.588  27.053  1.00  0.00     0.060 A 
BRANCH  91  92
ATOM     92  S   UNL A   1      43.729  25.501  25.690  1.00  0.00     0.124 S 
ATOM     93  O   UNL A   1      42.510  25.486  24.889  1.00  0.00    -0.237 OA
ATOM     94  O   UNL A   1      44.864  26.212  25.112  1.00  0.00    -0.237 OA
ATOM     95  O   UNL A   1      44.060  24.248  26.360  1.00  0.00    -0.744 OA
ENDBRANCH  91  92
ENDBRANCH  59  84
BRANCH  71  96
ATOM     96  C   UNL A   1      45.600  29.694  35.323  1.00  0.00     0.058 A 
ATOM     97  C   UNL A   1      45.577  28.556  36.143  1.00  0.00     0.135 A 
ATOM     98  C   UNL A   1      46.839  30.320  35.108  1.00  0.00     0.135 A 
ATOM     99  F   UNL A   1      44.418  27.921  36.385  1.00  0.00    -0.206 F 
ATOM    100  C   UNL A   1      46.730  28.076  36.754  1.00  0.00     0.059 A 
ATOM    101  C   UNL A   1      48.010  29.840  35.685  1.00  0.00     0.059 A 
ATOM    102  F   UNL A   1      46.921  31.405  34.321  1.00  0.00    -0.206 F 
ATOM    103  C   UNL A   1      47.944  28.726  36.519  1.00  0.00     0.060 A 
BRANCH 103 104
ATOM    104  S   UNL A   1      49.437  28.085  37.305  1.00  0.00     0.124 S 
ATOM    105  O   UNL A   1      50.080  29.312  37.761  1.00  0.00    -0.237 OA
ATOM    106  O   UNL A   1      48.896  27.225  38.353  1.00  0.00    -0.237 OA
ATOM    107  O   UNL A   1      50.119  27.384  36.220  1.00  0.00    -0.744 OA
ENDBRANCH 103 104
ENDBRANCH  71  96
ENDBRANCH  45  46
ENDBRANCH  38  40
ENDBRANCH  37  38
ENDBRANCH  36  37
ENDBRANCH  35  36
ENDBRANCH  34  35
ENDBRANCH  33  34
ENDBRANCH  32  33
ENDBRANCH   1  32
TORSDOF 27
ENDMDL
