MODEL 1
REMARK VINA RESULT:     -11.3      0.000      0.000
REMARK SMILES C[C@H](NC(=O)N1CC[C@@H](C(=O)OCCOCCOC(=O)c2ccc(-c3c4nc(c(-c5c(F)cc(S(=O)(=O)[O-])cc5F)c5ccc([nH]5)c(-c5c(F)cc(S(=O)(=O)[O-])cc5F)c5nc(c(-c6c(F)cc(S(=O)(=O)[O-])cc6F)c6ccc3[nH]6)C=C5)C=C4)cc2)[C@H]1C)c1ccc(Cl)cc1
REMARK SMILES IDX 15 1 14 2 13 3 12 4 10 5 11 6 9 7 6 8 7 9 87 10 8 11 88 12
REMARK SMILES IDX 4 13 3 14 5 16 2 17 1 18 89 19 90 20 95 21 91 22 94 23 92 24
REMARK SMILES IDX 93 25 16 26 17 27 18 28 19 29 20 30 21 31 22 32 86 33 23 34
REMARK SMILES IDX 85 35 24 36 25 37 26 38 79 39 27 40 84 41 78 42 80 43 28 44
REMARK SMILES IDX 83 45 77 46 76 47 29 49 63 50 42 51 62 52 43 53 46 54 61 55
REMARK SMILES IDX 81 56 44 57 45 58 60 60 82 61 47 62 30 63 31 64 40 65 32 66
REMARK SMILES IDX 33 67 39 68 41 69 34 70 35 71 36 72 37 73 38 74 64 75 65 76
REMARK SMILES IDX 74 77 66 78 67 79 73 80 75 81 68 82 69 83 70 84 71 85 72 86
REMARK SMILES IDX 48 87 49 88 58 89 50 90 51 91 57 92 59 93 52 94 53 95 54 96
REMARK SMILES IDX 55 97 56 98
REMARK H PARENT 3 15 80 48 46 59
REMARK Flexibility Score: inf
ROOT
ATOM      1  O   UNL A   1      34.332  31.988  27.618  1.00  0.00    -0.374 OA
ENDROOT
BRANCH   1   2
ATOM      2  C   UNL A   1      33.118  31.275  27.368  1.00  0.00     0.202 C 
BRANCH   2   3
ATOM      3  C   UNL A   1      33.286  29.941  26.634  1.00  0.00     0.261 C 
BRANCH   3   4
ATOM      4  O   UNL A   1      32.010  29.450  26.177  1.00  0.00    -0.463 OA
BRANCH   4   5
ATOM      5  C   UNL A   1      31.682  28.192  26.547  1.00  0.00     0.311 C 
ATOM      6  O   UNL A   1      31.635  27.797  27.706  1.00  0.00    -0.252 OA
BRANCH   5   7
ATOM      7  C   UNL A   1      31.372  27.288  25.376  1.00  0.00     0.123 C 
ATOM      8  N   UNL A   1      31.800  25.442  23.937  1.00  0.00    -0.321 N 
ATOM      9  C   UNL A   1      30.430  25.370  24.428  1.00  0.00     0.122 C 
ATOM     10  C   UNL A   1      32.497  26.591  24.573  1.00  0.00     0.098 C 
ATOM     11  C   UNL A   1      30.438  26.144  25.732  1.00  0.00     0.039 C 
ATOM     12  C   UNL A   1      33.713  26.131  25.365  1.00  0.00     0.032 C 
BRANCH   8  13
ATOM     13  C   UNL A   1      32.026  25.072  22.637  1.00  0.00     0.318 C 
ATOM     14  N   UNL A   1      32.557  23.853  22.384  1.00  0.00    -0.331 N 
ATOM     15  H   UNL A   1      32.937  23.743  21.483  1.00  0.00     0.165 HD
ATOM     16  O   UNL A   1      31.712  25.781  21.680  1.00  0.00    -0.249 OA
BRANCH  14  17
ATOM     17  C   UNL A   1      32.652  22.679  23.242  1.00  0.00     0.111 C 
ATOM     18  C   UNL A   1      32.118  21.446  22.504  1.00  0.00     0.036 C 
BRANCH  17  19
ATOM     19  C   UNL A   1      34.075  22.425  23.726  1.00  0.00    -0.026 A 
ATOM     20  C   UNL A   1      35.196  23.053  23.154  1.00  0.00     0.007 A 
ATOM     21  C   UNL A   1      34.281  21.557  24.812  1.00  0.00     0.007 A 
ATOM     22  C   UNL A   1      36.481  22.826  23.655  1.00  0.00     0.021 A 
ATOM     23  C   UNL A   1      35.569  21.303  25.288  1.00  0.00     0.021 A 
ATOM     24  C   UNL A   1      36.661  21.948  24.717  1.00  0.00     0.041 A 
ATOM     25  Cl  UNL A   1      38.239  21.685  25.349  1.00  0.00    -0.084 Cl
ENDBRANCH  17  19
ENDBRANCH  14  17
ENDBRANCH   8  13
ENDBRANCH   5   7
ENDBRANCH   4   5
ENDBRANCH   3   4
ENDBRANCH   2   3
ENDBRANCH   1   2
BRANCH   1  26
ATOM     26  C   UNL A   1      34.384  32.783  28.800  1.00  0.00     0.202 C 
BRANCH  26  27
ATOM     27  C   UNL A   1      35.347  32.318  29.905  1.00  0.00     0.261 C 
BRANCH  27  28
ATOM     28  O   UNL A   1      35.815  30.974  29.721  1.00  0.00    -0.460 OA
BRANCH  28  29
ATOM     29  C   UNL A   1      36.533  30.458  30.752  1.00  0.00     0.338 C 
ATOM     30  O   UNL A   1      36.114  30.135  31.852  1.00  0.00    -0.246 OA
BRANCH  29  31
ATOM     31  C   UNL A   1      37.906  30.182  30.282  1.00  0.00     0.060 A 
ATOM     32  C   UNL A   1      38.175  30.110  28.910  1.00  0.00     0.016 A 
ATOM     33  C   UNL A   1      38.926  29.968  31.203  1.00  0.00     0.016 A 
ATOM     34  C   UNL A   1      39.465  29.793  28.463  1.00  0.00     0.010 A 
ATOM     35  C   UNL A   1      40.215  29.679  30.757  1.00  0.00     0.010 A 
ATOM     36  C   UNL A   1      40.492  29.551  29.385  1.00  0.00    -0.014 A 
BRANCH  36  37
ATOM     37  C   UNL A   1      41.827  29.023  28.983  1.00  0.00     0.031 A 
ATOM     38  C   UNL A   1      42.984  29.992  28.886  1.00  0.00     0.074 A 
ATOM     39  C   UNL A   1      42.003  27.734  28.631  1.00  0.00     0.049 A 
ATOM     40  N   UNL A   1      44.175  29.816  28.375  1.00  0.00    -0.248 NA
ATOM     41  C   UNL A   1      42.747  31.353  29.399  1.00  0.00     0.031 C 
ATOM     42  C   UNL A   1      40.975  26.695  28.665  1.00  0.00     0.029 A 
ATOM     43  N   UNL A   1      43.115  27.086  28.147  1.00  0.00    -0.354 N 
ATOM     44  C   UNL A   1      44.818  31.046  28.486  1.00  0.00     0.074 A 
ATOM     45  C   UNL A   1      43.865  31.973  29.052  1.00  0.00     0.031 C 
ATOM     46  C   UNL A   1      41.504  25.541  28.217  1.00  0.00     0.029 A 
ATOM     47  C   UNL A   1      42.894  25.765  27.826  1.00  0.00     0.049 A 
ATOM     48  H   UNL A   1      43.989  27.526  28.038  1.00  0.00     0.167 HD
ATOM     49  C   UNL A   1      46.096  31.368  28.176  1.00  0.00     0.037 A 
ATOM     50  C   UNL A   1      43.711  24.851  27.262  1.00  0.00     0.037 A 
ATOM     51  C   UNL A   1      47.058  30.436  27.653  1.00  0.00     0.049 A 
ATOM     52  C   UNL A   1      45.125  25.242  26.897  1.00  0.00     0.074 A 
ATOM     53  C   UNL A   1      48.387  30.659  27.338  1.00  0.00     0.029 A 
ATOM     54  N   UNL A   1      46.802  29.101  27.386  1.00  0.00    -0.354 N 
ATOM     55  N   UNL A   1      45.723  26.402  27.034  1.00  0.00    -0.248 NA
ATOM     56  C   UNL A   1      45.978  24.200  26.303  1.00  0.00     0.031 C 
ATOM     57  C   UNL A   1      48.925  29.468  26.843  1.00  0.00     0.029 A 
ATOM     58  C   UNL A   1      47.947  28.489  26.908  1.00  0.00     0.049 A 
ATOM     59  H   UNL A   1      45.934  28.654  27.515  1.00  0.00     0.167 HD
ATOM     60  C   UNL A   1      47.033  26.209  26.603  1.00  0.00     0.074 A 
ATOM     61  C   UNL A   1      47.141  24.828  26.191  1.00  0.00     0.031 C 
ATOM     62  C   UNL A   1      48.057  27.096  26.558  1.00  0.00     0.037 A 
BRANCH  49  63
ATOM     63  C   UNL A   1      46.549  32.783  28.425  1.00  0.00     0.058 A 
ATOM     64  C   UNL A   1      46.436  33.770  27.434  1.00  0.00     0.135 A 
ATOM     65  C   UNL A   1      47.023  33.174  29.688  1.00  0.00     0.135 A 
ATOM     66  F   UNL A   1      46.004  33.448  26.203  1.00  0.00    -0.206 F 
ATOM     67  C   UNL A   1      46.792  35.091  27.678  1.00  0.00     0.059 A 
ATOM     68  C   UNL A   1      47.354  34.497  29.966  1.00  0.00     0.059 A 
ATOM     69  F   UNL A   1      47.151  32.271  30.672  1.00  0.00    -0.206 F 
ATOM     70  C   UNL A   1      47.241  35.447  28.951  1.00  0.00     0.060 A 
BRANCH  70  71
ATOM     71  S   UNL A   1      47.651  37.177  29.261  1.00  0.00     0.124 S 
ATOM     72  O   UNL A   1      49.034  37.237  28.795  1.00  0.00    -0.237 OA
ATOM     73  O   UNL A   1      46.674  37.879  28.437  1.00  0.00    -0.237 OA
ATOM     74  O   UNL A   1      47.469  37.318  30.702  1.00  0.00    -0.744 OA
ENDBRANCH  70  71
ENDBRANCH  49  63
BRANCH  50  75
ATOM     75  C   UNL A   1      43.236  23.461  27.006  1.00  0.00     0.058 A 
ATOM     76  C   UNL A   1      43.084  22.546  28.060  1.00  0.00     0.135 A 
ATOM     77  C   UNL A   1      42.980  23.002  25.704  1.00  0.00     0.135 A 
ATOM     78  F   UNL A   1      43.322  22.932  29.322  1.00  0.00    -0.206 F 
ATOM     79  C   UNL A   1      42.742  21.216  27.830  1.00  0.00     0.059 A 
ATOM     80  C   UNL A   1      42.604  21.684  25.452  1.00  0.00     0.059 A 
ATOM     81  F   UNL A   1      43.092  23.838  24.660  1.00  0.00    -0.206 F 
ATOM     82  C   UNL A   1      42.510  20.794  26.521  1.00  0.00     0.060 A 
BRANCH  82  83
ATOM     83  S   UNL A   1      42.073  19.065  26.234  1.00  0.00     0.124 S 
ATOM     84  O   UNL A   1      40.677  19.180  25.830  1.00  0.00    -0.237 OA
ATOM     85  O   UNL A   1      43.014  18.681  25.187  1.00  0.00    -0.237 OA
ATOM     86  O   UNL A   1      42.305  18.442  27.534  1.00  0.00    -0.744 OA
ENDBRANCH  82  83
ENDBRANCH  50  75
BRANCH  62  87
ATOM     87  C   UNL A   1      49.416  26.600  26.147  1.00  0.00     0.058 A 
ATOM     88  C   UNL A   1      49.936  26.817  24.863  1.00  0.00     0.135 A 
ATOM     89  C   UNL A   1      50.254  25.995  27.100  1.00  0.00     0.135 A 
ATOM     90  F   UNL A   1      49.177  27.386  23.914  1.00  0.00    -0.206 F 
ATOM     91  C   UNL A   1      51.238  26.448  24.536  1.00  0.00     0.059 A 
ATOM     92  C   UNL A   1      51.567  25.645  26.805  1.00  0.00     0.059 A 
ATOM     93  F   UNL A   1      49.809  25.772  28.347  1.00  0.00    -0.206 F 
ATOM     94  C   UNL A   1      52.050  25.874  25.517  1.00  0.00     0.060 A 
BRANCH  94  95
ATOM     95  S   UNL A   1      53.761  25.477  25.101  1.00  0.00     0.124 S 
ATOM     96  O   UNL A   1      53.827  25.885  23.702  1.00  0.00    -0.237 OA
ATOM     97  O   UNL A   1      54.510  26.307  26.039  1.00  0.00    -0.237 OA
ATOM     98  O   UNL A   1      53.846  24.039  25.339  1.00  0.00    -0.744 OA
ENDBRANCH  94  95
ENDBRANCH  62  87
ENDBRANCH  36  37
ENDBRANCH  29  31
ENDBRANCH  28  29
ENDBRANCH  27  28
ENDBRANCH  26  27
ENDBRANCH   1  26
TORSDOF 20
ENDMDL
MODEL 2
REMARK VINA RESULT:     -10.9      6.279     11.897
REMARK SMILES C[C@H](NC(=O)N1CC[C@@H](C(=O)OCCOCCOC(=O)c2ccc(-c3c4nc(c(-c5c(F)cc(S(=O)(=O)[O-])cc5F)c5ccc([nH]5)c(-c5c(F)cc(S(=O)(=O)[O-])cc5F)c5nc(c(-c6c(F)cc(S(=O)(=O)[O-])cc6F)c6ccc3[nH]6)C=C5)C=C4)cc2)[C@H]1C)c1ccc(Cl)cc1
REMARK SMILES IDX 15 1 14 2 13 3 12 4 10 5 11 6 9 7 6 8 7 9 87 10 8 11 88 12
REMARK SMILES IDX 4 13 3 14 5 16 2 17 1 18 89 19 90 20 95 21 91 22 94 23 92 24
REMARK SMILES IDX 93 25 16 26 17 27 18 28 19 29 20 30 21 31 22 32 86 33 23 34
REMARK SMILES IDX 85 35 24 36 25 37 26 38 79 39 27 40 84 41 78 42 80 43 28 44
REMARK SMILES IDX 83 45 77 46 76 47 29 49 63 50 42 51 62 52 43 53 46 54 61 55
REMARK SMILES IDX 81 56 44 57 45 58 60 60 82 61 47 62 30 63 31 64 40 65 32 66
REMARK SMILES IDX 33 67 39 68 41 69 34 70 35 71 36 72 37 73 38 74 64 75 65 76
REMARK SMILES IDX 74 77 66 78 67 79 73 80 75 81 68 82 69 83 70 84 71 85 72 86
REMARK SMILES IDX 48 87 49 88 58 89 50 90 51 91 57 92 59 93 52 94 53 95 54 96
REMARK SMILES IDX 55 97 56 98
REMARK H PARENT 3 15 80 48 46 59
REMARK Flexibility Score: inf
ROOT
ATOM      1  O   UNL A   1      37.853  21.580  25.844  1.00  0.00    -0.374 OA
ENDROOT
BRANCH   1   2
ATOM      2  C   UNL A   1      37.441  21.426  24.484  1.00  0.00     0.202 C 
BRANCH   2   3
ATOM      3  C   UNL A   1      36.617  22.587  23.917  1.00  0.00     0.261 C 
BRANCH   3   4
ATOM      4  O   UNL A   1      35.207  22.317  24.044  1.00  0.00    -0.463 OA
BRANCH   4   5
ATOM      5  C   UNL A   1      34.369  23.307  23.662  1.00  0.00     0.311 C 
ATOM      6  O   UNL A   1      34.358  23.820  22.550  1.00  0.00    -0.252 OA
BRANCH   5   7
ATOM      7  C   UNL A   1      33.422  23.740  24.758  1.00  0.00     0.123 C 
ATOM      8  N   UNL A   1      31.619  23.402  26.273  1.00  0.00    -0.321 N 
ATOM      9  C   UNL A   1      32.779  23.903  27.000  1.00  0.00     0.122 C 
ATOM     10  C   UNL A   1      31.980  23.182  24.848  1.00  0.00     0.098 C 
ATOM     11  C   UNL A   1      33.973  23.506  26.154  1.00  0.00     0.039 C 
ATOM     12  C   UNL A   1      31.788  21.727  24.447  1.00  0.00     0.032 C 
BRANCH   8  13
ATOM     13  C   UNL A   1      30.386  23.861  26.657  1.00  0.00     0.318 C 
ATOM     14  N   UNL A   1      29.966  25.069  26.212  1.00  0.00    -0.331 N 
ATOM     15  H   UNL A   1      29.215  25.459  26.714  1.00  0.00     0.165 HD
ATOM     16  O   UNL A   1      29.613  23.193  27.345  1.00  0.00    -0.249 OA
BRANCH  14  17
ATOM     17  C   UNL A   1      30.457  25.879  25.106  1.00  0.00     0.111 C 
ATOM     18  C   UNL A   1      29.313  26.190  24.135  1.00  0.00     0.036 C 
BRANCH  17  19
ATOM     19  C   UNL A   1      31.111  27.173  25.577  1.00  0.00    -0.026 A 
ATOM     20  C   UNL A   1      31.472  28.207  24.693  1.00  0.00     0.007 A 
ATOM     21  C   UNL A   1      31.333  27.366  26.951  1.00  0.00     0.007 A 
ATOM     22  C   UNL A   1      32.031  29.397  25.170  1.00  0.00     0.021 A 
ATOM     23  C   UNL A   1      31.924  28.539  27.421  1.00  0.00     0.021 A 
ATOM     24  C   UNL A   1      32.258  29.555  26.531  1.00  0.00     0.041 A 
ATOM     25  Cl  UNL A   1      32.925  31.027  27.120  1.00  0.00    -0.084 Cl
ENDBRANCH  17  19
ENDBRANCH  14  17
ENDBRANCH   8  13
ENDBRANCH   5   7
ENDBRANCH   4   5
ENDBRANCH   3   4
ENDBRANCH   2   3
ENDBRANCH   1   2
BRANCH   1  26
ATOM     26  C   UNL A   1      39.246  21.769  26.082  1.00  0.00     0.202 C 
BRANCH  26  27
ATOM     27  C   UNL A   1      39.692  23.183  26.490  1.00  0.00     0.261 C 
BRANCH  27  28
ATOM     28  O   UNL A   1      41.054  23.239  26.939  1.00  0.00    -0.460 OA
BRANCH  28  29
ATOM     29  C   UNL A   1      41.770  24.308  26.504  1.00  0.00     0.338 C 
ATOM     30  O   UNL A   1      42.428  24.385  25.477  1.00  0.00    -0.246 OA
BRANCH  29  31
ATOM     31  C   UNL A   1      41.500  25.455  27.394  1.00  0.00     0.060 A 
ATOM     32  C   UNL A   1      42.234  26.639  27.251  1.00  0.00     0.016 A 
ATOM     33  C   UNL A   1      40.535  25.350  28.389  1.00  0.00     0.016 A 
ATOM     34  C   UNL A   1      42.018  27.710  28.129  1.00  0.00     0.010 A 
ATOM     35  C   UNL A   1      40.303  26.425  29.246  1.00  0.00     0.010 A 
ATOM     36  C   UNL A   1      41.065  27.602  29.152  1.00  0.00    -0.014 A 
BRANCH  36  37
ATOM     37  C   UNL A   1      40.924  28.620  30.231  1.00  0.00     0.031 A 
ATOM     38  C   UNL A   1      41.820  28.511  31.445  1.00  0.00     0.074 A 
ATOM     39  C   UNL A   1      39.973  29.574  30.186  1.00  0.00     0.049 A 
ATOM     40  N   UNL A   1      41.753  29.145  32.587  1.00  0.00    -0.248 NA
ATOM     41  C   UNL A   1      42.910  27.523  31.372  1.00  0.00     0.031 C 
ATOM     42  C   UNL A   1      39.034  29.788  29.086  1.00  0.00     0.029 A 
ATOM     43  N   UNL A   1      39.623  30.529  31.111  1.00  0.00    -0.354 N 
ATOM     44  C   UNL A   1      42.776  28.619  33.371  1.00  0.00     0.074 A 
ATOM     45  C   UNL A   1      43.404  27.570  32.600  1.00  0.00     0.031 C 
ATOM     46  C   UNL A   1      38.214  30.807  29.401  1.00  0.00     0.029 A 
ATOM     47  C   UNL A   1      38.538  31.293  30.740  1.00  0.00     0.049 A 
ATOM     48  H   UNL A   1      40.103  30.655  31.962  1.00  0.00     0.167 HD
ATOM     49  C   UNL A   1      43.179  28.994  34.607  1.00  0.00     0.037 A 
ATOM     50  C   UNL A   1      37.873  32.256  31.413  1.00  0.00     0.037 A 
ATOM     51  C   UNL A   1      42.583  30.066  35.359  1.00  0.00     0.049 A 
ATOM     52  C   UNL A   1      38.323  32.637  32.805  1.00  0.00     0.074 A 
ATOM     53  C   UNL A   1      42.942  30.543  36.607  1.00  0.00     0.029 A 
ATOM     54  N   UNL A   1      41.517  30.839  34.926  1.00  0.00    -0.354 N 
ATOM     55  N   UNL A   1      39.308  32.146  33.518  1.00  0.00    -0.248 NA
ATOM     56  C   UNL A   1      37.573  33.707  33.483  1.00  0.00     0.031 C 
ATOM     57  C   UNL A   1      42.069  31.580  36.946  1.00  0.00     0.029 A 
ATOM     58  C   UNL A   1      41.205  31.787  35.883  1.00  0.00     0.049 A 
ATOM     59  H   UNL A   1      41.051  30.729  34.065  1.00  0.00     0.167 HD
ATOM     60  C   UNL A   1      39.333  32.889  34.697  1.00  0.00     0.074 A 
ATOM     61  C   UNL A   1      38.260  33.853  34.608  1.00  0.00     0.031 C 
ATOM     62  C   UNL A   1      40.173  32.783  35.755  1.00  0.00     0.037 A 
BRANCH  49  63
ATOM     63  C   UNL A   1      44.345  28.267  35.223  1.00  0.00     0.058 A 
ATOM     64  C   UNL A   1      44.159  27.111  35.997  1.00  0.00     0.135 A 
ATOM     65  C   UNL A   1      45.664  28.680  34.970  1.00  0.00     0.135 A 
ATOM     66  F   UNL A   1      42.919  26.681  36.283  1.00  0.00    -0.206 F 
ATOM     67  C   UNL A   1      45.235  26.398  36.513  1.00  0.00     0.059 A 
ATOM     68  C   UNL A   1      46.758  27.963  35.449  1.00  0.00     0.059 A 
ATOM     69  F   UNL A   1      45.901  29.779  34.237  1.00  0.00    -0.206 F 
ATOM     70  C   UNL A   1      46.531  26.828  36.225  1.00  0.00     0.060 A 
BRANCH  70  71
ATOM     71  S   UNL A   1      47.914  25.860  36.865  1.00  0.00     0.124 S 
ATOM     72  O   UNL A   1      49.042  26.462  36.160  1.00  0.00    -0.237 OA
ATOM     73  O   UNL A   1      47.844  26.129  38.297  1.00  0.00    -0.237 OA
ATOM     74  O   UNL A   1      47.586  24.494  36.470  1.00  0.00    -0.744 OA
ENDBRANCH  70  71
ENDBRANCH  49  63
BRANCH  50  75
ATOM     75  C   UNL A   1      36.708  32.949  30.793  1.00  0.00     0.058 A 
ATOM     76  C   UNL A   1      36.893  33.900  29.775  1.00  0.00     0.135 A 
ATOM     77  C   UNL A   1      35.396  32.723  31.240  1.00  0.00     0.135 A 
ATOM     78  F   UNL A   1      38.127  34.158  29.317  1.00  0.00    -0.206 F 
ATOM     79  C   UNL A   1      35.830  34.633  29.257  1.00  0.00     0.059 A 
ATOM     80  C   UNL A   1      34.312  33.420  30.713  1.00  0.00     0.059 A 
ATOM     81  F   UNL A   1      35.159  31.813  32.197  1.00  0.00    -0.206 F 
ATOM     82  C   UNL A   1      34.543  34.389  29.738  1.00  0.00     0.060 A 
BRANCH  82  83
ATOM     83  S   UNL A   1      33.171  35.350  29.062  1.00  0.00     0.124 S 
ATOM     84  O   UNL A   1      33.877  36.434  28.389  1.00  0.00    -0.237 OA
ATOM     85  O   UNL A   1      32.514  34.378  28.194  1.00  0.00    -0.237 OA
ATOM     86  O   UNL A   1      32.413  35.732  30.250  1.00  0.00    -0.744 OA
ENDBRANCH  82  83
ENDBRANCH  50  75
BRANCH  62  87
ATOM     87  C   UNL A   1      40.051  33.788  36.868  1.00  0.00     0.058 A 
ATOM     88  C   UNL A   1      40.795  34.976  36.889  1.00  0.00     0.135 A 
ATOM     89  C   UNL A   1      39.083  33.602  37.871  1.00  0.00     0.135 A 
ATOM     90  F   UNL A   1      41.735  35.201  35.959  1.00  0.00    -0.206 F 
ATOM     91  C   UNL A   1      40.587  35.944  37.868  1.00  0.00     0.059 A 
ATOM     92  C   UNL A   1      38.838  34.568  38.841  1.00  0.00     0.059 A 
ATOM     93  F   UNL A   1      38.336  32.486  37.891  1.00  0.00    -0.206 F 
ATOM     94  C   UNL A   1      39.598  35.737  38.833  1.00  0.00     0.060 A 
BRANCH  94  95
ATOM     95  S   UNL A   1      39.285  37.037  40.045  1.00  0.00     0.124 S 
ATOM     96  O   UNL A   1      38.522  37.998  39.257  1.00  0.00    -0.237 OA
ATOM     97  O   UNL A   1      38.536  36.327  41.077  1.00  0.00    -0.237 OA
ATOM     98  O   UNL A   1      40.624  37.469  40.436  1.00  0.00    -0.744 OA
ENDBRANCH  94  95
ENDBRANCH  62  87
ENDBRANCH  36  37
ENDBRANCH  29  31
ENDBRANCH  28  29
ENDBRANCH  27  28
ENDBRANCH  26  27
ENDBRANCH   1  26
TORSDOF 20
ENDMDL
MODEL 3
REMARK VINA RESULT:     -10.8      6.256     11.798
REMARK SMILES C[C@H](NC(=O)N1CC[C@@H](C(=O)OCCOCCOC(=O)c2ccc(-c3c4nc(c(-c5c(F)cc(S(=O)(=O)[O-])cc5F)c5ccc([nH]5)c(-c5c(F)cc(S(=O)(=O)[O-])cc5F)c5nc(c(-c6c(F)cc(S(=O)(=O)[O-])cc6F)c6ccc3[nH]6)C=C5)C=C4)cc2)[C@H]1C)c1ccc(Cl)cc1
REMARK SMILES IDX 15 1 14 2 13 3 12 4 10 5 11 6 9 7 6 8 7 9 87 10 8 11 88 12
REMARK SMILES IDX 4 13 3 14 5 16 2 17 1 18 89 19 90 20 95 21 91 22 94 23 92 24
REMARK SMILES IDX 93 25 16 26 17 27 18 28 19 29 20 30 21 31 22 32 86 33 23 34
REMARK SMILES IDX 85 35 24 36 25 37 26 38 79 39 27 40 84 41 78 42 80 43 28 44
REMARK SMILES IDX 83 45 77 46 76 47 29 49 63 50 42 51 62 52 43 53 46 54 61 55
REMARK SMILES IDX 81 56 44 57 45 58 60 60 82 61 47 62 30 63 31 64 40 65 32 66
REMARK SMILES IDX 33 67 39 68 41 69 34 70 35 71 36 72 37 73 38 74 64 75 65 76
REMARK SMILES IDX 74 77 66 78 67 79 73 80 75 81 68 82 69 83 70 84 71 85 72 86
REMARK SMILES IDX 48 87 49 88 58 89 50 90 51 91 57 92 59 93 52 94 53 95 54 96
REMARK SMILES IDX 55 97 56 98
REMARK H PARENT 3 15 80 48 46 59
REMARK Flexibility Score: inf
ROOT
ATOM      1  O   UNL A   1      38.891  21.066  25.662  1.00  0.00    -0.374 OA
ENDROOT
BRANCH   1   2
ATOM      2  C   UNL A   1      37.765  21.555  24.930  1.00  0.00     0.202 C 
BRANCH   2   3
ATOM      3  C   UNL A   1      36.706  22.276  25.770  1.00  0.00     0.261 C 
BRANCH   3   4
ATOM      4  O   UNL A   1      36.201  23.429  25.068  1.00  0.00    -0.463 OA
BRANCH   4   5
ATOM      5  C   UNL A   1      35.115  23.231  24.288  1.00  0.00     0.311 C 
ATOM      6  O   UNL A   1      35.100  22.536  23.278  1.00  0.00    -0.252 OA
BRANCH   5   7
ATOM      7  C   UNL A   1      33.887  23.962  24.780  1.00  0.00     0.123 C 
ATOM      8  N   UNL A   1      32.057  24.295  26.264  1.00  0.00    -0.321 N 
ATOM      9  C   UNL A   1      32.813  25.534  26.137  1.00  0.00     0.122 C 
ATOM     10  C   UNL A   1      32.736  23.216  25.499  1.00  0.00     0.098 C 
ATOM     11  C   UNL A   1      34.209  25.103  25.730  1.00  0.00     0.039 C 
ATOM     12  C   UNL A   1      33.137  22.062  26.408  1.00  0.00     0.032 C 
BRANCH   8  13
ATOM     13  C   UNL A   1      30.692  24.393  26.346  1.00  0.00     0.318 C 
ATOM     14  N   UNL A   1      30.027  25.100  25.404  1.00  0.00    -0.331 N 
ATOM     15  H   UNL A   1      29.108  25.357  25.647  1.00  0.00     0.165 HD
ATOM     16  O   UNL A   1      30.036  23.812  27.211  1.00  0.00    -0.249 OA
BRANCH  14  17
ATOM     17  C   UNL A   1      30.462  25.542  24.085  1.00  0.00     0.111 C 
ATOM     18  C   UNL A   1      30.305  24.402  23.073  1.00  0.00     0.036 C 
BRANCH  17  19
ATOM     19  C   UNL A   1      29.707  26.776  23.605  1.00  0.00    -0.026 A 
ATOM     20  C   UNL A   1      28.328  26.952  23.815  1.00  0.00     0.007 A 
ATOM     21  C   UNL A   1      30.418  27.802  22.959  1.00  0.00     0.007 A 
ATOM     22  C   UNL A   1      27.680  28.119  23.396  1.00  0.00     0.021 A 
ATOM     23  C   UNL A   1      29.764  28.950  22.510  1.00  0.00     0.021 A 
ATOM     24  C   UNL A   1      28.401  29.110  22.742  1.00  0.00     0.041 A 
ATOM     25  Cl  UNL A   1      27.611  30.555  22.246  1.00  0.00    -0.084 Cl
ENDBRANCH  17  19
ENDBRANCH  14  17
ENDBRANCH   8  13
ENDBRANCH   5   7
ENDBRANCH   4   5
ENDBRANCH   3   4
ENDBRANCH   2   3
ENDBRANCH   1   2
BRANCH   1  26
ATOM     26  C   UNL A   1      39.649  22.021  26.401  1.00  0.00     0.202 C 
BRANCH  26  27
ATOM     27  C   UNL A   1      41.173  22.003  26.199  1.00  0.00     0.261 C 
BRANCH  27  28
ATOM     28  O   UNL A   1      41.866  22.949  27.027  1.00  0.00    -0.460 OA
BRANCH  28  29
ATOM     29  C   UNL A   1      42.248  24.096  26.410  1.00  0.00     0.338 C 
ATOM     30  O   UNL A   1      42.635  24.221  25.258  1.00  0.00    -0.246 OA
BRANCH  29  31
ATOM     31  C   UNL A   1      41.967  25.234  27.308  1.00  0.00     0.060 A 
ATOM     32  C   UNL A   1      42.757  26.388  27.244  1.00  0.00     0.016 A 
ATOM     33  C   UNL A   1      40.932  25.150  28.234  1.00  0.00     0.016 A 
ATOM     34  C   UNL A   1      42.527  27.448  28.132  1.00  0.00     0.010 A 
ATOM     35  C   UNL A   1      40.687  26.215  29.099  1.00  0.00     0.010 A 
ATOM     36  C   UNL A   1      41.503  27.360  29.086  1.00  0.00    -0.014 A 
BRANCH  36  37
ATOM     37  C   UNL A   1      41.332  28.359  30.178  1.00  0.00     0.031 A 
ATOM     38  C   UNL A   1      42.202  28.236  31.409  1.00  0.00     0.074 A 
ATOM     39  C   UNL A   1      40.375  29.307  30.128  1.00  0.00     0.049 A 
ATOM     40  N   UNL A   1      42.107  28.851  32.559  1.00  0.00    -0.248 NA
ATOM     41  C   UNL A   1      43.301  27.256  31.344  1.00  0.00     0.031 C 
ATOM     42  C   UNL A   1      39.459  29.533  29.011  1.00  0.00     0.029 A 
ATOM     43  N   UNL A   1      39.999  30.244  31.061  1.00  0.00    -0.354 N 
ATOM     44  C   UNL A   1      43.116  28.319  33.357  1.00  0.00     0.074 A 
ATOM     45  C   UNL A   1      43.768  27.287  32.582  1.00  0.00     0.031 C 
ATOM     46  C   UNL A   1      38.625  30.541  29.325  1.00  0.00     0.029 A 
ATOM     47  C   UNL A   1      38.917  31.007  30.679  1.00  0.00     0.049 A 
ATOM     48  H   UNL A   1      40.459  30.360  31.923  1.00  0.00     0.167 HD
ATOM     49  C   UNL A   1      43.490  28.677  34.608  1.00  0.00     0.037 A 
ATOM     50  C   UNL A   1      38.230  31.954  31.352  1.00  0.00     0.037 A 
ATOM     51  C   UNL A   1      42.870  29.733  35.363  1.00  0.00     0.049 A 
ATOM     52  C   UNL A   1      38.648  32.316  32.759  1.00  0.00     0.074 A 
ATOM     53  C   UNL A   1      43.198  30.191  36.626  1.00  0.00     0.029 A 
ATOM     54  N   UNL A   1      41.808  30.505  34.920  1.00  0.00    -0.354 N 
ATOM     55  N   UNL A   1      39.621  31.820  33.486  1.00  0.00    -0.248 NA
ATOM     56  C   UNL A   1      37.875  33.369  33.438  1.00  0.00     0.031 C 
ATOM     57  C   UNL A   1      42.311  31.216  36.963  1.00  0.00     0.029 A 
ATOM     58  C   UNL A   1      41.469  31.435  35.885  1.00  0.00     0.049 A 
ATOM     59  H   UNL A   1      41.362  30.406  34.048  1.00  0.00     0.167 HD
ATOM     60  C   UNL A   1      39.615  32.543  34.676  1.00  0.00     0.074 A 
ATOM     61  C   UNL A   1      38.537  33.502  34.580  1.00  0.00     0.031 C 
ATOM     62  C   UNL A   1      40.432  32.426  35.751  1.00  0.00     0.037 A 
BRANCH  49  63
ATOM     63  C   UNL A   1      44.647  27.947  35.236  1.00  0.00     0.058 A 
ATOM     64  C   UNL A   1      45.963  28.420  35.113  1.00  0.00     0.135 A 
ATOM     65  C   UNL A   1      44.431  26.812  36.036  1.00  0.00     0.135 A 
ATOM     66  F   UNL A   1      46.228  29.491  34.347  1.00  0.00    -0.206 F 
ATOM     67  C   UNL A   1      47.026  27.787  35.745  1.00  0.00     0.059 A 
ATOM     68  C   UNL A   1      45.477  26.181  36.705  1.00  0.00     0.059 A 
ATOM     69  F   UNL A   1      43.193  26.316  36.188  1.00  0.00    -0.206 F 
ATOM     70  C   UNL A   1      46.771  26.673  36.547  1.00  0.00     0.060 A 
BRANCH  70  71
ATOM     71  S   UNL A   1      48.161  25.896  37.397  1.00  0.00     0.124 S 
ATOM     72  O   UNL A   1      48.483  24.800  36.488  1.00  0.00    -0.237 OA
ATOM     73  O   UNL A   1      49.135  26.980  37.453  1.00  0.00    -0.237 OA
ATOM     74  O   UNL A   1      47.595  25.497  38.682  1.00  0.00    -0.744 OA
ENDBRANCH  70  71
ENDBRANCH  49  63
BRANCH  50  75
ATOM     75  C   UNL A   1      37.074  32.650  30.718  1.00  0.00     0.058 A 
ATOM     76  C   UNL A   1      35.756  32.246  30.985  1.00  0.00     0.135 A 
ATOM     77  C   UNL A   1      37.260  33.690  29.793  1.00  0.00     0.135 A 
ATOM     78  F   UNL A   1      35.523  31.253  31.856  1.00  0.00    -0.206 F 
ATOM     79  C   UNL A   1      34.669  32.813  30.326  1.00  0.00     0.059 A 
ATOM     80  C   UNL A   1      36.187  34.295  29.145  1.00  0.00     0.059 A 
ATOM     81  F   UNL A   1      38.497  34.128  29.513  1.00  0.00    -0.206 F 
ATOM     82  C   UNL A   1      34.897  33.834  29.402  1.00  0.00     0.060 A 
BRANCH  82  83
ATOM     83  S   UNL A   1      33.480  34.558  28.548  1.00  0.00     0.124 S 
ATOM     84  O   UNL A   1      32.614  34.913  29.666  1.00  0.00    -0.237 OA
ATOM     85  O   UNL A   1      34.091  35.674  27.832  1.00  0.00    -0.237 OA
ATOM     86  O   UNL A   1      33.005  33.466  27.703  1.00  0.00    -0.744 OA
ENDBRANCH  82  83
ENDBRANCH  50  75
BRANCH  62  87
ATOM     87  C   UNL A   1      40.279  33.412  36.877  1.00  0.00     0.058 A 
ATOM     88  C   UNL A   1      41.053  34.578  36.961  1.00  0.00     0.135 A 
ATOM     89  C   UNL A   1      39.256  33.233  37.825  1.00  0.00     0.135 A 
ATOM     90  F   UNL A   1      42.046  34.796  36.086  1.00  0.00    -0.206 F 
ATOM     91  C   UNL A   1      40.820  35.532  37.949  1.00  0.00     0.059 A 
ATOM     92  C   UNL A   1      38.987  34.187  38.800  1.00  0.00     0.059 A 
ATOM     93  F   UNL A   1      38.480  32.139  37.783  1.00  0.00    -0.206 F 
ATOM     94  C   UNL A   1      39.777  35.333  38.856  1.00  0.00     0.060 A 
BRANCH  94  95
ATOM     95  S   UNL A   1      39.436  36.618  40.078  1.00  0.00     0.124 S 
ATOM     96  O   UNL A   1      40.758  36.834  40.656  1.00  0.00    -0.237 OA
ATOM     97  O   UNL A   1      38.921  37.705  39.251  1.00  0.00    -0.237 OA
ATOM     98  O   UNL A   1      38.458  35.995  40.965  1.00  0.00    -0.744 OA
ENDBRANCH  94  95
ENDBRANCH  62  87
ENDBRANCH  36  37
ENDBRANCH  29  31
ENDBRANCH  28  29
ENDBRANCH  27  28
ENDBRANCH  26  27
ENDBRANCH   1  26
TORSDOF 20
ENDMDL
