MODEL 1
REMARK VINA RESULT:     -12.3      0.000      0.000
REMARK SMILES COc1cc2c(CC(=O)OCCOCCOC(=O)c3ccc(-c4c5nc(c(-c6c(F)cc(S(=O)(=O)[O-])cc6F)c6ccc([nH]6)c(-c6c(F)cc(S(=O)(=O)[O-])cc6F)c6nc(c(-c7c(F)cc(S(=O)(=O)[O-])cc7F)c7ccc4[nH]7)C=C6)C=C5)cc3)c(C)n(C(=O)c3ccc(Cl)cc3)c2cc1Cl
REMARK SMILES IDX 13 1 12 2 11 3 10 4 8 5 9 6 7 7 6 8 3 9 4 10 99 11 5 12
REMARK SMILES IDX 98 13 100 14 97 15 85 16 87 17 86 18 2 19 1 20 88 21 89 22
REMARK SMILES IDX 90 23 91 24 96 25 92 26 95 27 93 28 94 29 14 30 15 31 16 32
REMARK SMILES IDX 17 33 18 34 19 35 20 36 84 37 21 38 83 39 22 40 23 41 24 42
REMARK SMILES IDX 77 43 25 44 82 45 76 46 78 47 26 48 81 49 75 50 74 51 27 53
REMARK SMILES IDX 61 54 40 55 60 56 41 57 44 58 59 59 79 60 42 61 43 62 58 64
REMARK SMILES IDX 80 65 45 66 28 67 29 68 38 69 30 70 31 71 37 72 39 73 32 74
REMARK SMILES IDX 33 75 34 76 35 77 36 78 62 79 63 80 72 81 64 82 65 83 71 84
REMARK SMILES IDX 73 85 66 86 67 87 68 88 69 89 70 90 46 91 47 92 56 93 48 94
REMARK SMILES IDX 49 95 55 96 57 97 50 98 51 99 52 100 53 101 54 102
REMARK H PARENT 78 52 44 63
REMARK Flexibility Score: inf
ROOT
ATOM      1  O   UNL A   1      35.701  22.673  25.120  1.00  0.00    -0.374 OA
ENDROOT
BRANCH   1   2
ATOM      2  C   UNL A   1      34.858  22.628  23.977  1.00  0.00     0.202 C 
BRANCH   2   3
ATOM      3  C   UNL A   1      34.687  23.856  23.064  1.00  0.00     0.261 C 
BRANCH   3   4
ATOM      4  O   UNL A   1      33.522  23.849  22.216  1.00  0.00    -0.463 OA
BRANCH   4   5
ATOM      5  C   UNL A   1      32.978  25.077  22.021  1.00  0.00     0.310 C 
ATOM      6  O   UNL A   1      33.490  25.951  21.322  1.00  0.00    -0.252 OA
BRANCH   5   7
ATOM      7  C   UNL A   1      31.662  25.349  22.713  1.00  0.00     0.160 C 
BRANCH   7   8
ATOM      8  C   UNL A   1      31.501  26.508  23.673  1.00  0.00    -0.008 A 
ATOM      9  C   UNL A   1      29.506  29.539  22.380  1.00  0.00     0.138 A 
ATOM     10  C   UNL A   1      30.203  28.318  22.289  1.00  0.00     0.058 A 
ATOM     11  C   UNL A   1      29.636  30.296  23.534  1.00  0.00     0.085 A 
ATOM     12  C   UNL A   1      30.892  27.772  23.405  1.00  0.00     0.008 A 
ATOM     13  C   UNL A   1      30.483  29.864  24.559  1.00  0.00     0.051 A 
ATOM     14  Cl  UNL A   1      28.706  31.706  23.904  1.00  0.00    -0.080 Cl
ATOM     15  C   UNL A   1      31.042  28.568  24.545  1.00  0.00     0.058 A 
ATOM     16  C   UNL A   1      32.052  26.585  24.952  1.00  0.00     0.028 A 
ATOM     17  N   UNL A   1      31.782  27.848  25.505  1.00  0.00    -0.280 N 
ATOM     18  C   UNL A   1      32.829  25.491  25.624  1.00  0.00     0.065 C 
BRANCH   9  19
ATOM     19  O   UNL A   1      28.595  29.741  21.376  1.00  0.00    -0.495 OA
ATOM     20  C   UNL A   1      28.433  31.077  20.918  1.00  0.00     0.278 C 
ENDBRANCH   9  19
BRANCH  17  21
ATOM     21  C   UNL A   1      32.199  28.339  26.784  1.00  0.00     0.262 C 
ATOM     22  O   UNL A   1      31.664  27.915  27.806  1.00  0.00    -0.268 OA
BRANCH  21  23
ATOM     23  C   UNL A   1      33.305  29.287  27.015  1.00  0.00     0.040 A 
ATOM     24  C   UNL A   1      34.633  28.846  27.079  1.00  0.00     0.015 A 
ATOM     25  C   UNL A   1      32.987  30.632  27.244  1.00  0.00     0.015 A 
ATOM     26  C   UNL A   1      35.630  29.739  27.484  1.00  0.00     0.021 A 
ATOM     27  C   UNL A   1      33.991  31.522  27.629  1.00  0.00     0.021 A 
ATOM     28  C   UNL A   1      35.301  31.066  27.775  1.00  0.00     0.041 A 
ATOM     29  Cl  UNL A   1      36.515  32.142  28.350  1.00  0.00    -0.084 Cl
ENDBRANCH  21  23
ENDBRANCH  17  21
ENDBRANCH   7   8
ENDBRANCH   5   7
ENDBRANCH   4   5
ENDBRANCH   3   4
ENDBRANCH   2   3
ENDBRANCH   1   2
BRANCH   1  30
ATOM     30  C   UNL A   1      36.453  21.506  25.432  1.00  0.00     0.202 C 
BRANCH  30  31
ATOM     31  C   UNL A   1      37.995  21.534  25.398  1.00  0.00     0.261 C 
BRANCH  31  32
ATOM     32  O   UNL A   1      38.554  22.704  25.991  1.00  0.00    -0.460 OA
BRANCH  32  33
ATOM     33  C   UNL A   1      39.849  22.568  26.397  1.00  0.00     0.338 C 
ATOM     34  O   UNL A   1      40.632  21.692  26.110  1.00  0.00    -0.246 OA
BRANCH  33  35
ATOM     35  C   UNL A   1      40.205  23.907  26.903  1.00  0.00     0.060 A 
ATOM     36  C   UNL A   1      41.379  24.091  27.636  1.00  0.00     0.016 A 
ATOM     37  C   UNL A   1      39.154  24.837  26.952  1.00  0.00     0.016 A 
ATOM     38  C   UNL A   1      41.451  25.170  28.506  1.00  0.00     0.010 A 
ATOM     39  C   UNL A   1      39.219  25.894  27.850  1.00  0.00     0.010 A 
ATOM     40  C   UNL A   1      40.349  26.037  28.659  1.00  0.00    -0.014 A 
BRANCH  40  41
ATOM     41  C   UNL A   1      40.550  27.277  29.416  1.00  0.00     0.031 A 
ATOM     42  C   UNL A   1      41.595  28.099  28.741  1.00  0.00     0.074 A 
ATOM     43  C   UNL A   1      39.839  27.733  30.472  1.00  0.00     0.049 A 
ATOM     44  N   UNL A   1      42.797  28.320  29.155  1.00  0.00    -0.248 NA
ATOM     45  C   UNL A   1      41.369  28.489  27.336  1.00  0.00     0.031 C 
ATOM     46  C   UNL A   1      38.657  27.151  31.107  1.00  0.00     0.029 A 
ATOM     47  N   UNL A   1      39.999  28.896  31.179  1.00  0.00    -0.354 N 
ATOM     48  C   UNL A   1      43.392  29.097  28.167  1.00  0.00     0.074 A 
ATOM     49  C   UNL A   1      42.567  28.965  26.998  1.00  0.00     0.031 C 
ATOM     50  C   UNL A   1      38.081  28.067  31.928  1.00  0.00     0.029 A 
ATOM     51  C   UNL A   1      38.916  29.256  31.986  1.00  0.00     0.049 A 
ATOM     52  H   UNL A   1      40.819  29.439  31.122  1.00  0.00     0.167 HD
ATOM     53  C   UNL A   1      44.348  30.010  28.481  1.00  0.00     0.037 A 
ATOM     54  C   UNL A   1      38.721  30.445  32.630  1.00  0.00     0.037 A 
ATOM     55  C   UNL A   1      44.909  29.739  29.780  1.00  0.00     0.049 A 
ATOM     56  C   UNL A   1      40.055  31.088  32.751  1.00  0.00     0.074 A 
ATOM     57  C   UNL A   1      45.579  28.672  30.345  1.00  0.00     0.029 A 
ATOM     58  N   UNL A   1      44.463  30.506  30.828  1.00  0.00    -0.354 N 
ATOM     59  N   UNL A   1      41.013  30.617  33.501  1.00  0.00    -0.248 NA
ATOM     60  C   UNL A   1      40.474  31.958  31.663  1.00  0.00     0.031 C 
ATOM     61  C   UNL A   1      45.094  28.600  31.682  1.00  0.00     0.029 A 
ATOM     62  C   UNL A   1      44.224  29.671  31.884  1.00  0.00     0.049 A 
ATOM     63  H   UNL A   1      44.338  31.483  30.820  1.00  0.00     0.167 HD
ATOM     64  C   UNL A   1      42.157  30.760  32.731  1.00  0.00     0.074 A 
ATOM     65  C   UNL A   1      41.771  31.643  31.630  1.00  0.00     0.031 C 
ATOM     66  C   UNL A   1      43.221  29.922  32.893  1.00  0.00     0.037 A 
BRANCH  53  67
ATOM     67  C   UNL A   1      44.448  31.373  27.835  1.00  0.00     0.058 A 
ATOM     68  C   UNL A   1      45.525  31.629  26.962  1.00  0.00     0.135 A 
ATOM     69  C   UNL A   1      43.732  32.513  28.268  1.00  0.00     0.135 A 
ATOM     70  F   UNL A   1      46.274  30.621  26.485  1.00  0.00    -0.206 F 
ATOM     71  C   UNL A   1      45.921  32.923  26.626  1.00  0.00     0.059 A 
ATOM     72  C   UNL A   1      44.078  33.806  27.902  1.00  0.00     0.059 A 
ATOM     73  F   UNL A   1      42.726  32.449  29.146  1.00  0.00    -0.206 F 
ATOM     74  C   UNL A   1      45.199  34.005  27.116  1.00  0.00     0.060 A 
BRANCH  74  75
ATOM     75  S   UNL A   1      45.765  35.676  26.768  1.00  0.00     0.124 S 
ATOM     76  O   UNL A   1      44.501  36.399  26.681  1.00  0.00    -0.237 OA
ATOM     77  O   UNL A   1      46.589  35.960  27.939  1.00  0.00    -0.237 OA
ATOM     78  O   UNL A   1      46.496  35.527  25.513  1.00  0.00    -0.744 OA
ENDBRANCH  74  75
ENDBRANCH  53  67
BRANCH  54  79
ATOM     79  C   UNL A   1      37.465  31.224  32.874  1.00  0.00     0.058 A 
ATOM     80  C   UNL A   1      37.362  32.181  33.909  1.00  0.00     0.135 A 
ATOM     81  C   UNL A   1      36.444  31.272  31.905  1.00  0.00     0.135 A 
ATOM     82  F   UNL A   1      38.299  32.239  34.868  1.00  0.00    -0.206 F 
ATOM     83  C   UNL A   1      36.338  33.142  33.958  1.00  0.00     0.059 A 
ATOM     84  C   UNL A   1      35.414  32.220  31.932  1.00  0.00     0.059 A 
ATOM     85  F   UNL A   1      36.471  30.451  30.845  1.00  0.00    -0.206 F 
ATOM     86  C   UNL A   1      35.377  33.168  32.949  1.00  0.00     0.060 A 
BRANCH  86  87
ATOM     87  S   UNL A   1      34.140  34.495  32.915  1.00  0.00     0.124 S 
ATOM     88  O   UNL A   1      34.571  35.343  34.023  1.00  0.00    -0.237 OA
ATOM     89  O   UNL A   1      34.319  35.054  31.580  1.00  0.00    -0.237 OA
ATOM     90  O   UNL A   1      32.879  33.789  33.129  1.00  0.00    -0.744 OA
ENDBRANCH  86  87
ENDBRANCH  54  79
BRANCH  66  91
ATOM     91  C   UNL A   1      43.280  29.039  34.109  1.00  0.00     0.058 A 
ATOM     92  C   UNL A   1      42.638  27.793  34.227  1.00  0.00     0.135 A 
ATOM     93  C   UNL A   1      44.213  29.384  35.098  1.00  0.00     0.135 A 
ATOM     94  F   UNL A   1      41.797  27.356  33.278  1.00  0.00    -0.206 F 
ATOM     95  C   UNL A   1      42.920  26.927  35.289  1.00  0.00     0.059 A 
ATOM     96  C   UNL A   1      44.529  28.526  36.143  1.00  0.00     0.059 A 
ATOM     97  F   UNL A   1      44.892  30.539  35.005  1.00  0.00    -0.206 F 
ATOM     98  C   UNL A   1      43.879  27.298  36.234  1.00  0.00     0.060 A 
BRANCH  98  99
ATOM     99  S   UNL A   1      44.339  26.133  37.535  1.00  0.00     0.124 S 
ATOM    100  O   UNL A   1      43.354  25.071  37.361  1.00  0.00    -0.237 OA
ATOM    101  O   UNL A   1      45.714  25.790  37.180  1.00  0.00    -0.237 OA
ATOM    102  O   UNL A   1      44.201  26.915  38.762  1.00  0.00    -0.744 OA
ENDBRANCH  98  99
ENDBRANCH  66  91
ENDBRANCH  40  41
ENDBRANCH  33  35
ENDBRANCH  32  33
ENDBRANCH  31  32
ENDBRANCH  30  31
ENDBRANCH   1  30
TORSDOF 21
ENDMDL
MODEL 2
REMARK VINA RESULT:     -12.1      1.336      3.193
REMARK SMILES COc1cc2c(CC(=O)OCCOCCOC(=O)c3ccc(-c4c5nc(c(-c6c(F)cc(S(=O)(=O)[O-])cc6F)c6ccc([nH]6)c(-c6c(F)cc(S(=O)(=O)[O-])cc6F)c6nc(c(-c7c(F)cc(S(=O)(=O)[O-])cc7F)c7ccc4[nH]7)C=C6)C=C5)cc3)c(C)n(C(=O)c3ccc(Cl)cc3)c2cc1Cl
REMARK SMILES IDX 13 1 12 2 11 3 10 4 8 5 9 6 7 7 6 8 3 9 4 10 99 11 5 12
REMARK SMILES IDX 98 13 100 14 97 15 85 16 87 17 86 18 2 19 1 20 88 21 89 22
REMARK SMILES IDX 90 23 91 24 96 25 92 26 95 27 93 28 94 29 14 30 15 31 16 32
REMARK SMILES IDX 17 33 18 34 19 35 20 36 84 37 21 38 83 39 22 40 23 41 24 42
REMARK SMILES IDX 77 43 25 44 82 45 76 46 78 47 26 48 81 49 75 50 74 51 27 53
REMARK SMILES IDX 61 54 40 55 60 56 41 57 44 58 59 59 79 60 42 61 43 62 58 64
REMARK SMILES IDX 80 65 45 66 28 67 29 68 38 69 30 70 31 71 37 72 39 73 32 74
REMARK SMILES IDX 33 75 34 76 35 77 36 78 62 79 63 80 72 81 64 82 65 83 71 84
REMARK SMILES IDX 73 85 66 86 67 87 68 88 69 89 70 90 46 91 47 92 56 93 48 94
REMARK SMILES IDX 49 95 55 96 57 97 50 98 51 99 52 100 53 101 54 102
REMARK H PARENT 78 52 44 63
REMARK Flexibility Score: inf
ROOT
ATOM      1  O   UNL A   1      35.679  20.575  25.364  1.00  0.00    -0.374 OA
ENDROOT
BRANCH   1   2
ATOM      2  C   UNL A   1      35.085  21.458  26.306  1.00  0.00     0.202 C 
BRANCH   2   3
ATOM      3  C   UNL A   1      33.766  22.188  25.991  1.00  0.00     0.261 C 
BRANCH   3   4
ATOM      4  O   UNL A   1      33.868  23.614  25.811  1.00  0.00    -0.463 OA
BRANCH   4   5
ATOM      5  C   UNL A   1      34.166  23.986  24.539  1.00  0.00     0.310 C 
ATOM      6  O   UNL A   1      34.276  23.197  23.602  1.00  0.00    -0.252 OA
BRANCH   5   7
ATOM      7  C   UNL A   1      34.360  25.466  24.300  1.00  0.00     0.160 C 
BRANCH   7   8
ATOM      8  C   UNL A   1      33.199  26.434  24.365  1.00  0.00    -0.008 A 
ATOM      9  C   UNL A   1      33.632  29.473  26.695  1.00  0.00     0.138 A 
ATOM     10  C   UNL A   1      33.940  28.212  26.146  1.00  0.00     0.058 A 
ATOM     11  C   UNL A   1      32.384  30.021  26.443  1.00  0.00     0.085 A 
ATOM     12  C   UNL A   1      33.075  27.577  25.215  1.00  0.00     0.008 A 
ATOM     13  C   UNL A   1      31.445  29.304  25.697  1.00  0.00     0.051 A 
ATOM     14  Cl  UNL A   1      31.907  31.631  26.859  1.00  0.00    -0.080 Cl
ATOM     15  C   UNL A   1      31.807  28.128  25.006  1.00  0.00     0.058 A 
ATOM     16  C   UNL A   1      31.984  26.291  23.697  1.00  0.00     0.028 A 
ATOM     17  N   UNL A   1      31.112  27.324  24.081  1.00  0.00    -0.280 N 
ATOM     18  C   UNL A   1      31.655  25.190  22.732  1.00  0.00     0.065 C 
BRANCH   9  19
ATOM     19  O   UNL A   1      34.704  30.117  27.255  1.00  0.00    -0.495 OA
ATOM     20  C   UNL A   1      35.748  29.296  27.765  1.00  0.00     0.278 C 
ENDBRANCH   9  19
BRANCH  17  21
ATOM     21  C   UNL A   1      29.759  27.518  23.650  1.00  0.00     0.262 C 
ATOM     22  O   UNL A   1      28.891  26.716  23.985  1.00  0.00    -0.268 OA
BRANCH  21  23
ATOM     23  C   UNL A   1      29.268  28.672  22.874  1.00  0.00     0.040 A 
ATOM     24  C   UNL A   1      30.116  29.374  22.009  1.00  0.00     0.015 A 
ATOM     25  C   UNL A   1      27.949  29.095  23.083  1.00  0.00     0.015 A 
ATOM     26  C   UNL A   1      29.669  30.571  21.437  1.00  0.00     0.021 A 
ATOM     27  C   UNL A   1      27.504  30.280  22.494  1.00  0.00     0.021 A 
ATOM     28  C   UNL A   1      28.374  31.025  21.697  1.00  0.00     0.041 A 
ATOM     29  Cl  UNL A   1      27.854  32.536  21.058  1.00  0.00    -0.084 Cl
ENDBRANCH  21  23
ENDBRANCH  17  21
ENDBRANCH   7   8
ENDBRANCH   5   7
ENDBRANCH   4   5
ENDBRANCH   3   4
ENDBRANCH   2   3
ENDBRANCH   1   2
BRANCH   1  30
ATOM     30  C   UNL A   1      36.874  21.002  24.721  1.00  0.00     0.202 C 
BRANCH  30  31
ATOM     31  C   UNL A   1      38.239  20.859  25.427  1.00  0.00     0.261 C 
BRANCH  31  32
ATOM     32  O   UNL A   1      38.857  22.109  25.724  1.00  0.00    -0.460 OA
BRANCH  32  33
ATOM     33  C   UNL A   1      40.049  22.007  26.379  1.00  0.00     0.338 C 
ATOM     34  O   UNL A   1      41.016  21.350  26.070  1.00  0.00    -0.246 OA
BRANCH  33  35
ATOM     35  C   UNL A   1      40.055  23.169  27.289  1.00  0.00     0.060 A 
ATOM     36  C   UNL A   1      39.103  24.179  27.143  1.00  0.00     0.016 A 
ATOM     37  C   UNL A   1      41.250  23.379  27.997  1.00  0.00     0.016 A 
ATOM     38  C   UNL A   1      39.406  25.445  27.626  1.00  0.00     0.010 A 
ATOM     39  C   UNL A   1      41.560  24.655  28.446  1.00  0.00     0.010 A 
ATOM     40  C   UNL A   1      40.659  25.699  28.223  1.00  0.00    -0.014 A 
BRANCH  40  41
ATOM     41  C   UNL A   1      40.845  26.981  28.910  1.00  0.00     0.031 A 
ATOM     42  C   UNL A   1      41.979  27.715  28.281  1.00  0.00     0.074 A 
ATOM     43  C   UNL A   1      40.062  27.537  29.863  1.00  0.00     0.049 A 
ATOM     44  N   UNL A   1      43.148  27.920  28.788  1.00  0.00    -0.248 NA
ATOM     45  C   UNL A   1      41.897  28.012  26.838  1.00  0.00     0.031 C 
ATOM     46  C   UNL A   1      38.804  27.044  30.425  1.00  0.00     0.029 A 
ATOM     47  N   UNL A   1      40.208  28.740  30.502  1.00  0.00    -0.354 N 
ATOM     48  C   UNL A   1      43.862  28.603  27.809  1.00  0.00     0.074 A 
ATOM     49  C   UNL A   1      43.139  28.419  26.581  1.00  0.00     0.031 C 
ATOM     50  C   UNL A   1      38.196  28.036  31.126  1.00  0.00     0.029 A 
ATOM     51  C   UNL A   1      39.073  29.195  31.180  1.00  0.00     0.049 A 
ATOM     52  H   UNL A   1      41.052  29.247  30.485  1.00  0.00     0.167 HD
ATOM     53  C   UNL A   1      44.824  29.501  28.148  1.00  0.00     0.037 A 
ATOM     54  C   UNL A   1      38.872  30.434  31.722  1.00  0.00     0.037 A 
ATOM     55  C   UNL A   1      45.255  29.302  29.508  1.00  0.00     0.049 A 
ATOM     56  C   UNL A   1      40.216  31.034  31.922  1.00  0.00     0.074 A 
ATOM     57  C   UNL A   1      45.825  28.254  30.203  1.00  0.00     0.029 A 
ATOM     58  N   UNL A   1      44.750  30.158  30.457  1.00  0.00    -0.354 N 
ATOM     59  N   UNL A   1      41.082  30.582  32.787  1.00  0.00    -0.248 NA
ATOM     60  C   UNL A   1      40.768  31.809  30.822  1.00  0.00     0.031 C 
ATOM     61  C   UNL A   1      45.220  28.294  31.491  1.00  0.00     0.029 A 
ATOM     62  C   UNL A   1      44.382  29.409  31.540  1.00  0.00     0.049 A 
ATOM     63  H   UNL A   1      44.668  31.135  30.372  1.00  0.00     0.167 HD
ATOM     64  C   UNL A   1      42.295  30.629  32.118  1.00  0.00     0.074 A 
ATOM     65  C   UNL A   1      42.048  31.445  30.929  1.00  0.00     0.031 C 
ATOM     66  C   UNL A   1      43.304  29.767  32.433  1.00  0.00     0.037 A 
BRANCH  53  67
ATOM     67  C   UNL A   1      45.039  30.810  27.424  1.00  0.00     0.058 A 
ATOM     68  C   UNL A   1      46.283  31.041  26.801  1.00  0.00     0.135 A 
ATOM     69  C   UNL A   1      44.216  31.949  27.578  1.00  0.00     0.135 A 
ATOM     70  F   UNL A   1      47.146  30.031  26.601  1.00  0.00    -0.206 F 
ATOM     71  C   UNL A   1      46.717  32.319  26.452  1.00  0.00     0.059 A 
ATOM     72  C   UNL A   1      44.607  33.223  27.188  1.00  0.00     0.059 A 
ATOM     73  F   UNL A   1      43.035  31.913  28.203  1.00  0.00    -0.206 F 
ATOM     74  C   UNL A   1      45.875  33.405  26.666  1.00  0.00     0.060 A 
BRANCH  74  75
ATOM     75  S   UNL A   1      46.467  35.065  26.310  1.00  0.00     0.124 S 
ATOM     76  O   UNL A   1      47.346  34.823  25.171  1.00  0.00    -0.237 OA
ATOM     77  O   UNL A   1      45.222  35.770  26.022  1.00  0.00    -0.237 OA
ATOM     78  O   UNL A   1      47.132  35.457  27.549  1.00  0.00    -0.744 OA
ENDBRANCH  74  75
ENDBRANCH  53  67
BRANCH  54  79
ATOM     79  C   UNL A   1      37.634  31.273  31.796  1.00  0.00     0.058 A 
ATOM     80  C   UNL A   1      37.031  31.619  33.027  1.00  0.00     0.135 A 
ATOM     81  C   UNL A   1      37.194  32.012  30.681  1.00  0.00     0.135 A 
ATOM     82  F   UNL A   1      37.400  30.994  34.156  1.00  0.00    -0.206 F 
ATOM     83  C   UNL A   1      36.086  32.651  33.149  1.00  0.00     0.059 A 
ATOM     84  C   UNL A   1      36.253  33.045  30.777  1.00  0.00     0.059 A 
ATOM     85  F   UNL A   1      37.737  31.812  29.472  1.00  0.00    -0.206 F 
ATOM     86  C   UNL A   1      35.718  33.376  32.017  1.00  0.00     0.060 A 
BRANCH  86  87
ATOM     87  S   UNL A   1      34.616  34.808  32.183  1.00  0.00     0.124 S 
ATOM     88  O   UNL A   1      34.374  35.171  30.790  1.00  0.00    -0.237 OA
ATOM     89  O   UNL A   1      33.478  34.245  32.900  1.00  0.00    -0.237 OA
ATOM     90  O   UNL A   1      35.416  35.766  32.943  1.00  0.00    -0.744 OA
ENDBRANCH  86  87
ENDBRANCH  54  79
BRANCH  66  91
ATOM     91  C   UNL A   1      43.217  28.971  33.705  1.00  0.00     0.058 A 
ATOM     92  C   UNL A   1      42.535  27.748  33.841  1.00  0.00     0.135 A 
ATOM     93  C   UNL A   1      44.052  29.366  34.760  1.00  0.00     0.135 A 
ATOM     94  F   UNL A   1      41.783  27.261  32.842  1.00  0.00    -0.206 F 
ATOM     95  C   UNL A   1      42.684  26.954  34.983  1.00  0.00     0.059 A 
ATOM     96  C   UNL A   1      44.238  28.578  35.889  1.00  0.00     0.059 A 
ATOM     97  F   UNL A   1      44.767  30.500  34.660  1.00  0.00    -0.206 F 
ATOM     98  C   UNL A   1      43.551  27.372  35.995  1.00  0.00     0.060 A 
BRANCH  98  99
ATOM     99  S   UNL A   1      43.847  26.293  37.413  1.00  0.00     0.124 S 
ATOM    100  O   UNL A   1      44.064  25.000  36.776  1.00  0.00    -0.237 OA
ATOM    101  O   UNL A   1      45.020  26.902  38.033  1.00  0.00    -0.237 OA
ATOM    102  O   UNL A   1      42.615  26.405  38.192  1.00  0.00    -0.744 OA
ENDBRANCH  98  99
ENDBRANCH  66  91
ENDBRANCH  40  41
ENDBRANCH  33  35
ENDBRANCH  32  33
ENDBRANCH  31  32
ENDBRANCH  30  31
ENDBRANCH   1  30
TORSDOF 21
ENDMDL
MODEL 3
REMARK VINA RESULT:     -11.6      1.964      3.440
REMARK SMILES COc1cc2c(CC(=O)OCCOCCOC(=O)c3ccc(-c4c5nc(c(-c6c(F)cc(S(=O)(=O)[O-])cc6F)c6ccc([nH]6)c(-c6c(F)cc(S(=O)(=O)[O-])cc6F)c6nc(c(-c7c(F)cc(S(=O)(=O)[O-])cc7F)c7ccc4[nH]7)C=C6)C=C5)cc3)c(C)n(C(=O)c3ccc(Cl)cc3)c2cc1Cl
REMARK SMILES IDX 13 1 12 2 11 3 10 4 8 5 9 6 7 7 6 8 3 9 4 10 99 11 5 12
REMARK SMILES IDX 98 13 100 14 97 15 85 16 87 17 86 18 2 19 1 20 88 21 89 22
REMARK SMILES IDX 90 23 91 24 96 25 92 26 95 27 93 28 94 29 14 30 15 31 16 32
REMARK SMILES IDX 17 33 18 34 19 35 20 36 84 37 21 38 83 39 22 40 23 41 24 42
REMARK SMILES IDX 77 43 25 44 82 45 76 46 78 47 26 48 81 49 75 50 74 51 27 53
REMARK SMILES IDX 61 54 40 55 60 56 41 57 44 58 59 59 79 60 42 61 43 62 58 64
REMARK SMILES IDX 80 65 45 66 28 67 29 68 38 69 30 70 31 71 37 72 39 73 32 74
REMARK SMILES IDX 33 75 34 76 35 77 36 78 62 79 63 80 72 81 64 82 65 83 71 84
REMARK SMILES IDX 73 85 66 86 67 87 68 88 69 89 70 90 46 91 47 92 56 93 48 94
REMARK SMILES IDX 49 95 55 96 57 97 50 98 51 99 52 100 53 101 54 102
REMARK H PARENT 78 52 44 63
REMARK Flexibility Score: inf
ROOT
ATOM      1  O   UNL A   1      35.378  21.010  24.595  1.00  0.00    -0.374 OA
ENDROOT
BRANCH   1   2
ATOM      2  C   UNL A   1      34.773  21.037  25.881  1.00  0.00     0.202 C 
BRANCH   2   3
ATOM      3  C   UNL A   1      34.043  22.294  26.390  1.00  0.00     0.261 C 
BRANCH   3   4
ATOM      4  O   UNL A   1      32.770  22.063  27.026  1.00  0.00    -0.463 OA
BRANCH   4   5
ATOM      5  C   UNL A   1      31.797  22.925  26.634  1.00  0.00     0.310 C 
ATOM      6  O   UNL A   1      30.752  22.576  26.086  1.00  0.00    -0.252 OA
BRANCH   5   7
ATOM      7  C   UNL A   1      32.045  24.390  26.909  1.00  0.00     0.160 C 
BRANCH   7   8
ATOM      8  C   UNL A   1      32.038  25.414  25.795  1.00  0.00    -0.008 A 
ATOM      9  C   UNL A   1      32.865  24.111  22.264  1.00  0.00     0.138 A 
ATOM     10  C   UNL A   1      32.770  24.062  23.670  1.00  0.00     0.058 A 
ATOM     11  C   UNL A   1      32.754  25.339  21.632  1.00  0.00     0.085 A 
ATOM     12  C   UNL A   1      32.399  25.205  24.428  1.00  0.00     0.008 A 
ATOM     13  C   UNL A   1      32.597  26.503  22.391  1.00  0.00     0.051 A 
ATOM     14  Cl  UNL A   1      32.643  25.566  19.921  1.00  0.00    -0.080 Cl
ATOM     15  C   UNL A   1      32.330  26.439  23.775  1.00  0.00     0.058 A 
ATOM     16  C   UNL A   1      31.807  26.780  25.950  1.00  0.00     0.028 A 
ATOM     17  N   UNL A   1      31.985  27.430  24.717  1.00  0.00    -0.280 N 
ATOM     18  C   UNL A   1      31.443  27.452  27.241  1.00  0.00     0.065 C 
BRANCH   9  19
ATOM     19  O   UNL A   1      32.849  22.881  21.659  1.00  0.00    -0.495 OA
ATOM     20  C   UNL A   1      32.464  21.776  22.467  1.00  0.00     0.278 C 
ENDBRANCH   9  19
BRANCH  17  21
ATOM     21  C   UNL A   1      31.873  28.834  24.455  1.00  0.00     0.262 C 
ATOM     22  O   UNL A   1      32.825  29.576  24.691  1.00  0.00    -0.268 OA
BRANCH  21  23
ATOM     23  C   UNL A   1      30.711  29.498  23.835  1.00  0.00     0.040 A 
ATOM     24  C   UNL A   1      30.098  28.963  22.696  1.00  0.00     0.015 A 
ATOM     25  C   UNL A   1      30.282  30.718  24.373  1.00  0.00     0.015 A 
ATOM     26  C   UNL A   1      29.123  29.714  22.030  1.00  0.00     0.021 A 
ATOM     27  C   UNL A   1      29.296  31.453  23.713  1.00  0.00     0.021 A 
ATOM     28  C   UNL A   1      28.742  30.961  22.531  1.00  0.00     0.041 A 
ATOM     29  Cl  UNL A   1      27.603  31.918  21.666  1.00  0.00    -0.084 Cl
ENDBRANCH  21  23
ENDBRANCH  17  21
ENDBRANCH   7   8
ENDBRANCH   5   7
ENDBRANCH   4   5
ENDBRANCH   3   4
ENDBRANCH   2   3
ENDBRANCH   1   2
BRANCH   1  30
ATOM     30  C   UNL A   1      36.577  21.755  24.413  1.00  0.00     0.202 C 
BRANCH  30  31
ATOM     31  C   UNL A   1      37.846  21.408  25.217  1.00  0.00     0.261 C 
BRANCH  31  32
ATOM     32  O   UNL A   1      38.277  22.458  26.079  1.00  0.00    -0.460 OA
BRANCH  32  33
ATOM     33  C   UNL A   1      39.576  22.362  26.482  1.00  0.00     0.338 C 
ATOM     34  O   UNL A   1      40.464  21.710  25.985  1.00  0.00    -0.246 OA
BRANCH  33  35
ATOM     35  C   UNL A   1      39.759  23.523  27.374  1.00  0.00     0.060 A 
ATOM     36  C   UNL A   1      38.897  24.617  27.287  1.00  0.00     0.016 A 
ATOM     37  C   UNL A   1      41.017  23.623  27.989  1.00  0.00     0.016 A 
ATOM     38  C   UNL A   1      39.352  25.852  27.730  1.00  0.00     0.010 A 
ATOM     39  C   UNL A   1      41.479  24.867  28.399  1.00  0.00     0.010 A 
ATOM     40  C   UNL A   1      40.664  25.990  28.230  1.00  0.00    -0.014 A 
BRANCH  40  41
ATOM     41  C   UNL A   1      41.020  27.252  28.885  1.00  0.00     0.031 A 
ATOM     42  C   UNL A   1      42.269  27.789  28.272  1.00  0.00     0.074 A 
ATOM     43  C   UNL A   1      40.303  27.950  29.796  1.00  0.00     0.049 A 
ATOM     44  N   UNL A   1      43.440  27.835  28.812  1.00  0.00    -0.248 NA
ATOM     45  C   UNL A   1      42.272  28.046  26.820  1.00  0.00     0.031 C 
ATOM     46  C   UNL A   1      38.970  27.669  30.329  1.00  0.00     0.029 A 
ATOM     47  N   UNL A   1      40.609  29.139  30.404  1.00  0.00    -0.354 N 
ATOM     48  C   UNL A   1      44.275  28.371  27.837  1.00  0.00     0.074 A 
ATOM     49  C   UNL A   1      43.568  28.255  26.592  1.00  0.00     0.031 C 
ATOM     50  C   UNL A   1      38.497  28.763  30.981  1.00  0.00     0.029 A 
ATOM     51  C   UNL A   1      39.535  29.780  31.031  1.00  0.00     0.049 A 
ATOM     52  H   UNL A   1      41.519  29.514  30.400  1.00  0.00     0.167 HD
ATOM     53  C   UNL A   1      45.351  29.127  28.181  1.00  0.00     0.037 A 
ATOM     54  C   UNL A   1      39.507  31.052  31.530  1.00  0.00     0.037 A 
ATOM     55  C   UNL A   1      45.709  28.912  29.560  1.00  0.00     0.049 A 
ATOM     56  C   UNL A   1      40.919  31.453  31.756  1.00  0.00     0.074 A 
ATOM     57  C   UNL A   1      46.096  27.815  30.304  1.00  0.00     0.029 A 
ATOM     58  N   UNL A   1      45.311  29.865  30.467  1.00  0.00    -0.354 N 
ATOM     59  N   UNL A   1      41.684  30.907  32.661  1.00  0.00    -0.248 NA
ATOM     60  C   UNL A   1      41.612  32.100  30.652  1.00  0.00     0.031 C 
ATOM     61  C   UNL A   1      45.468  27.988  31.570  1.00  0.00     0.029 A 
ATOM     62  C   UNL A   1      44.805  29.215  31.559  1.00  0.00     0.049 A 
ATOM     63  H   UNL A   1      45.378  30.840  30.351  1.00  0.00     0.167 HD
ATOM     64  C   UNL A   1      42.908  30.751  32.032  1.00  0.00     0.074 A 
ATOM     65  C   UNL A   1      42.819  31.554  30.812  1.00  0.00     0.031 C 
ATOM     66  C   UNL A   1      43.767  29.759  32.404  1.00  0.00     0.037 A 
BRANCH  53  67
ATOM     67  C   UNL A   1      45.780  30.365  27.427  1.00  0.00     0.058 A 
ATOM     68  C   UNL A   1      47.148  30.536  27.132  1.00  0.00     0.135 A 
ATOM     69  C   UNL A   1      44.974  31.515  27.262  1.00  0.00     0.135 A 
ATOM     70  F   UNL A   1      48.007  29.510  27.251  1.00  0.00    -0.206 F 
ATOM     71  C   UNL A   1      47.689  31.776  26.798  1.00  0.00     0.059 A 
ATOM     72  C   UNL A   1      45.485  32.747  26.878  1.00  0.00     0.059 A 
ATOM     73  F   UNL A   1      43.671  31.538  27.560  1.00  0.00    -0.206 F 
ATOM     74  C   UNL A   1      46.849  32.879  26.690  1.00  0.00     0.060 A 
BRANCH  74  75
ATOM     75  S   UNL A   1      47.555  34.499  26.357  1.00  0.00     0.124 S 
ATOM     76  O   UNL A   1      48.982  34.224  26.476  1.00  0.00    -0.237 OA
ATOM     77  O   UNL A   1      47.062  34.766  25.009  1.00  0.00    -0.237 OA
ATOM     78  O   UNL A   1      46.983  35.336  27.407  1.00  0.00    -0.744 OA
ENDBRANCH  74  75
ENDBRANCH  53  67
BRANCH  54  79
ATOM     79  C   UNL A   1      38.406  32.068  31.539  1.00  0.00     0.058 A 
ATOM     80  C   UNL A   1      37.531  32.239  30.442  1.00  0.00     0.135 A 
ATOM     81  C   UNL A   1      37.994  32.676  32.740  1.00  0.00     0.135 A 
ATOM     82  F   UNL A   1      37.816  31.675  29.258  1.00  0.00    -0.206 F 
ATOM     83  C   UNL A   1      36.313  32.933  30.541  1.00  0.00     0.059 A 
ATOM     84  C   UNL A   1      36.785  33.373  32.863  1.00  0.00     0.059 A 
ATOM     85  F   UNL A   1      38.715  32.532  33.861  1.00  0.00    -0.206 F 
ATOM     86  C   UNL A   1      35.937  33.481  31.767  1.00  0.00     0.060 A 
BRANCH  86  87
ATOM     87  S   UNL A   1      34.302  34.246  31.949  1.00  0.00     0.124 S 
ATOM     88  O   UNL A   1      33.593  33.264  32.764  1.00  0.00    -0.237 OA
ATOM     89  O   UNL A   1      34.620  35.508  32.607  1.00  0.00    -0.237 OA
ATOM     90  O   UNL A   1      33.829  34.367  30.572  1.00  0.00    -0.744 OA
ENDBRANCH  86  87
ENDBRANCH  54  79
BRANCH  66  91
ATOM     91  C   UNL A   1      43.526  29.028  33.696  1.00  0.00     0.058 A 
ATOM     92  C   UNL A   1      42.647  27.941  33.850  1.00  0.00     0.135 A 
ATOM     93  C   UNL A   1      44.398  29.311  34.758  1.00  0.00     0.135 A 
ATOM     94  F   UNL A   1      41.842  27.556  32.849  1.00  0.00    -0.206 F 
ATOM     95  C   UNL A   1      42.642  27.168  35.016  1.00  0.00     0.059 A 
ATOM     96  C   UNL A   1      44.430  28.538  35.911  1.00  0.00     0.059 A 
ATOM     97  F   UNL A   1      45.294  30.306  34.642  1.00  0.00    -0.206 F 
ATOM     98  C   UNL A   1      43.550  27.467  36.036  1.00  0.00     0.060 A 
BRANCH  98  99
ATOM     99  S   UNL A   1      43.636  26.397  37.488  1.00  0.00     0.124 S 
ATOM    100  O   UNL A   1      44.249  25.190  36.946  1.00  0.00    -0.237 OA
ATOM    101  O   UNL A   1      44.466  27.176  38.404  1.00  0.00    -0.237 OA
ATOM    102  O   UNL A   1      42.240  26.259  37.896  1.00  0.00    -0.744 OA
ENDBRANCH  98  99
ENDBRANCH  66  91
ENDBRANCH  40  41
ENDBRANCH  33  35
ENDBRANCH  32  33
ENDBRANCH  31  32
ENDBRANCH  30  31
ENDBRANCH   1  30
TORSDOF 21
ENDMDL
