MODEL 1
REMARK VINA RESULT:     -10.4      0.000      0.000
REMARK SMILES CC(C)Cc1ccc([C@H](C)C(=O)OCCOCCOC(=O)c2ccc(-c3c4nc(c(-c5c(F)cc(S(=O)(=O)[O-])cc5F)c5ccc([nH]5)c(-c5c(F)cc(S(=O)(=O)[O-])cc5F)c5nc(c(-c6c(F)cc(S(=O)(=O)[O-])cc6F)c6ccc3[nH]6)C=C5)C=C4)cc2)cc1
REMARK SMILES IDX 16 1 15 2 14 3 13 4 11 5 12 6 9 7 10 8 8 9 5 10 6 11 89 12
REMARK SMILES IDX 7 13 88 14 4 15 2 16 1 17 3 18 17 19 18 20 19 21 20 22 21 23
REMARK SMILES IDX 22 24 23 25 87 26 24 27 86 28 25 29 26 30 27 31 80 32 28 33
REMARK SMILES IDX 85 34 79 35 81 36 29 37 84 38 78 39 77 40 30 42 64 43 43 44
REMARK SMILES IDX 63 45 44 46 47 47 62 48 82 49 45 50 46 51 61 53 83 54 48 55
REMARK SMILES IDX 31 56 32 57 41 58 33 59 34 60 40 61 42 62 35 63 36 64 37 65
REMARK SMILES IDX 38 66 39 67 65 68 66 69 75 70 67 71 68 72 74 73 76 74 69 75
REMARK SMILES IDX 70 76 71 77 72 78 73 79 49 80 50 81 59 82 51 83 52 84 58 85
REMARK SMILES IDX 60 86 53 87 54 88 55 89 56 90 57 91
REMARK H PARENT 81 41 47 52
REMARK Flexibility Score: inf
ROOT
ATOM      1  O   UNL A   1      34.567  30.714  28.045  1.00  0.00    -0.374 OA
ENDROOT
BRANCH   1   2
ATOM      2  C   UNL A   1      33.690  29.966  27.204  1.00  0.00     0.202 C 
BRANCH   2   3
ATOM      3  C   UNL A   1      34.094  28.524  26.882  1.00  0.00     0.261 C 
BRANCH   3   4
ATOM      4  O   UNL A   1      32.957  27.710  26.558  1.00  0.00    -0.463 OA
BRANCH   4   5
ATOM      5  C   UNL A   1      32.823  27.389  25.242  1.00  0.00     0.313 C 
ATOM      6  O   UNL A   1      33.701  27.533  24.396  1.00  0.00    -0.252 OA
BRANCH   5   7
ATOM      7  C   UNL A   1      31.471  26.747  24.925  1.00  0.00     0.126 C 
ATOM      8  C   UNL A   1      30.726  26.122  26.106  1.00  0.00     0.025 C 
BRANCH   7   9
ATOM      9  C   UNL A   1      30.614  27.726  24.152  1.00  0.00    -0.034 A 
ATOM     10  C   UNL A   1      28.891  29.620  22.995  1.00  0.00    -0.048 A 
ATOM     11  C   UNL A   1      30.122  30.016  23.531  1.00  0.00     0.004 A 
ATOM     12  C   UNL A   1      28.546  28.265  23.003  1.00  0.00     0.004 A 
ATOM     13  C   UNL A   1      30.974  29.080  24.111  1.00  0.00     0.005 A 
ATOM     14  C   UNL A   1      29.402  27.324  23.575  1.00  0.00     0.005 A 
BRANCH  10  15
ATOM     15  C   UNL A   1      27.917  30.654  22.492  1.00  0.00     0.038 C 
BRANCH  15  16
ATOM     16  C   UNL A   1      28.604  31.872  21.838  1.00  0.00    -0.013 C 
ATOM     17  C   UNL A   1      27.932  32.303  20.531  1.00  0.00     0.008 C 
ATOM     18  C   UNL A   1      28.605  33.043  22.822  1.00  0.00     0.008 C 
ENDBRANCH  15  16
ENDBRANCH  10  15
ENDBRANCH   7   9
ENDBRANCH   5   7
ENDBRANCH   4   5
ENDBRANCH   3   4
ENDBRANCH   2   3
ENDBRANCH   1   2
BRANCH   1  19
ATOM     19  C   UNL A   1      34.462  32.136  28.039  1.00  0.00     0.202 C 
BRANCH  19  20
ATOM     20  C   UNL A   1      35.342  32.918  29.021  1.00  0.00     0.261 C 
BRANCH  20  21
ATOM     21  O   UNL A   1      36.719  32.500  28.984  1.00  0.00    -0.460 OA
BRANCH  21  22
ATOM     22  C   UNL A   1      37.089  31.717  30.026  1.00  0.00     0.338 C 
ATOM     23  O   UNL A   1      36.568  31.675  31.132  1.00  0.00    -0.246 OA
BRANCH  22  24
ATOM     24  C   UNL A   1      38.121  30.748  29.619  1.00  0.00     0.060 A 
ATOM     25  C   UNL A   1      39.157  30.506  30.530  1.00  0.00     0.016 A 
ATOM     26  C   UNL A   1      38.160  30.198  28.336  1.00  0.00     0.016 A 
ATOM     27  C   UNL A   1      40.279  29.785  30.134  1.00  0.00     0.010 A 
ATOM     28  C   UNL A   1      39.294  29.477  27.937  1.00  0.00     0.010 A 
ATOM     29  C   UNL A   1      40.381  29.319  28.817  1.00  0.00    -0.014 A 
BRANCH  29  30
ATOM     30  C   UNL A   1      41.712  28.877  28.328  1.00  0.00     0.031 A 
ATOM     31  C   UNL A   1      42.835  29.882  28.287  1.00  0.00     0.074 A 
ATOM     32  C   UNL A   1      41.947  27.589  28.023  1.00  0.00     0.049 A 
ATOM     33  N   UNL A   1      44.093  29.711  27.971  1.00  0.00    -0.248 NA
ATOM     34  C   UNL A   1      42.493  31.266  28.659  1.00  0.00     0.031 C 
ATOM     35  C   UNL A   1      40.958  26.515  28.069  1.00  0.00     0.029 A 
ATOM     36  N   UNL A   1      43.105  26.965  27.631  1.00  0.00    -0.354 N 
ATOM     37  C   UNL A   1      44.692  30.958  28.111  1.00  0.00     0.074 A 
ATOM     38  C   UNL A   1      43.652  31.885  28.500  1.00  0.00     0.031 C 
ATOM     39  C   UNL A   1      41.553  25.360  27.725  1.00  0.00     0.029 A 
ATOM     40  C   UNL A   1      42.960  25.615  27.418  1.00  0.00     0.049 A 
ATOM     41  H   UNL A   1      43.960  27.440  27.512  1.00  0.00     0.167 HD
ATOM     42  C   UNL A   1      45.992  31.300  27.949  1.00  0.00     0.037 A 
ATOM     43  C   UNL A   1      43.860  24.694  27.022  1.00  0.00     0.037 A 
ATOM     44  C   UNL A   1      47.028  30.378  27.562  1.00  0.00     0.049 A 
ATOM     45  C   UNL A   1      45.290  25.107  26.790  1.00  0.00     0.074 A 
ATOM     46  C   UNL A   1      48.373  30.628  27.359  1.00  0.00     0.029 A 
ATOM     47  N   UNL A   1      46.830  29.028  27.317  1.00  0.00    -0.354 N 
ATOM     48  N   UNL A   1      45.842  26.289  26.933  1.00  0.00    -0.248 NA
ATOM     49  C   UNL A   1      46.223  24.057  26.354  1.00  0.00     0.031 C 
ATOM     50  C   UNL A   1      48.984  29.434  26.958  1.00  0.00     0.029 A 
ATOM     51  C   UNL A   1      48.026  28.432  26.954  1.00  0.00     0.049 A 
ATOM     52  H   UNL A   1      45.966  28.561  27.391  1.00  0.00     0.167 HD
ATOM     53  C   UNL A   1      47.192  26.117  26.638  1.00  0.00     0.074 A 
ATOM     54  C   UNL A   1      47.372  24.718  26.312  1.00  0.00     0.031 C 
ATOM     55  C   UNL A   1      48.192  27.033  26.644  1.00  0.00     0.037 A 
BRANCH  42  56
ATOM     56  C   UNL A   1      46.356  32.742  28.169  1.00  0.00     0.058 A 
ATOM     57  C   UNL A   1      46.824  33.204  29.410  1.00  0.00     0.135 A 
ATOM     58  C   UNL A   1      46.235  33.675  27.127  1.00  0.00     0.135 A 
ATOM     59  F   UNL A   1      46.940  32.357  30.446  1.00  0.00    -0.206 F 
ATOM     60  C   UNL A   1      47.123  34.546  29.621  1.00  0.00     0.059 A 
ATOM     61  C   UNL A   1      46.553  35.018  27.308  1.00  0.00     0.059 A 
ATOM     62  F   UNL A   1      45.791  33.288  25.921  1.00  0.00    -0.206 F 
ATOM     63  C   UNL A   1      46.978  35.446  28.565  1.00  0.00     0.060 A 
BRANCH  63  64
ATOM     64  S   UNL A   1      47.350  37.190  28.855  1.00  0.00     0.124 S 
ATOM     65  O   UNL A   1      48.774  37.133  29.170  1.00  0.00    -0.237 OA
ATOM     66  O   UNL A   1      47.009  37.801  27.576  1.00  0.00    -0.237 OA
ATOM     67  O   UNL A   1      46.475  37.542  29.969  1.00  0.00    -0.744 OA
ENDBRANCH  63  64
ENDBRANCH  42  56
BRANCH  43  68
ATOM     68  C   UNL A   1      43.438  23.280  26.834  1.00  0.00     0.058 A 
ATOM     69  C   UNL A   1      43.253  22.743  25.552  1.00  0.00     0.135 A 
ATOM     70  C   UNL A   1      43.216  22.440  27.935  1.00  0.00     0.135 A 
ATOM     71  F   UNL A   1      43.444  23.510  24.469  1.00  0.00    -0.206 F 
ATOM     72  C   UNL A   1      42.851  21.423  25.367  1.00  0.00     0.059 A 
ATOM     73  C   UNL A   1      42.835  21.111  27.775  1.00  0.00     0.059 A 
ATOM     74  F   UNL A   1      43.388  22.905  29.182  1.00  0.00    -0.206 F 
ATOM     75  C   UNL A   1      42.648  20.614  26.486  1.00  0.00     0.060 A 
BRANCH  75  76
ATOM     76  S   UNL A   1      42.180  18.888  26.236  1.00  0.00     0.124 S 
ATOM     77  O   UNL A   1      42.374  18.334  27.571  1.00  0.00    -0.237 OA
ATOM     78  O   UNL A   1      40.795  19.007  25.790  1.00  0.00    -0.237 OA
ATOM     79  O   UNL A   1      43.121  18.430  25.218  1.00  0.00    -0.744 OA
ENDBRANCH  75  76
ENDBRANCH  43  68
BRANCH  55  80
ATOM     80  C   UNL A   1      49.581  26.548  26.334  1.00  0.00     0.058 A 
ATOM     81  C   UNL A   1      50.147  26.689  25.058  1.00  0.00     0.135 A 
ATOM     82  C   UNL A   1      50.370  25.972  27.342  1.00  0.00     0.135 A 
ATOM     83  F   UNL A   1      49.432  27.229  24.058  1.00  0.00    -0.206 F 
ATOM     84  C   UNL A   1      51.439  26.250  24.785  1.00  0.00     0.059 A 
ATOM     85  C   UNL A   1      51.674  25.549  27.098  1.00  0.00     0.059 A 
ATOM     86  F   UNL A   1      49.881  25.825  28.584  1.00  0.00    -0.206 F 
ATOM     87  C   UNL A   1      52.194  25.680  25.812  1.00  0.00     0.060 A 
BRANCH  87  88
ATOM     88  S   UNL A   1      53.878  25.134  25.454  1.00  0.00     0.124 S 
ATOM     89  O   UNL A   1      54.625  25.757  26.542  1.00  0.00    -0.237 OA
ATOM     90  O   UNL A   1      53.758  23.681  25.519  1.00  0.00    -0.237 OA
ATOM     91  O   UNL A   1      54.135  25.677  24.123  1.00  0.00    -0.744 OA
ENDBRANCH  87  88
ENDBRANCH  55  80
ENDBRANCH  29  30
ENDBRANCH  22  24
ENDBRANCH  21  22
ENDBRANCH  20  21
ENDBRANCH  19  20
ENDBRANCH   1  19
TORSDOF 20
ENDMDL
MODEL 2
REMARK VINA RESULT:     -10.3      2.201      3.687
REMARK SMILES CC(C)Cc1ccc([C@H](C)C(=O)OCCOCCOC(=O)c2ccc(-c3c4nc(c(-c5c(F)cc(S(=O)(=O)[O-])cc5F)c5ccc([nH]5)c(-c5c(F)cc(S(=O)(=O)[O-])cc5F)c5nc(c(-c6c(F)cc(S(=O)(=O)[O-])cc6F)c6ccc3[nH]6)C=C5)C=C4)cc2)cc1
REMARK SMILES IDX 16 1 15 2 14 3 13 4 11 5 12 6 9 7 10 8 8 9 5 10 6 11 89 12
REMARK SMILES IDX 7 13 88 14 4 15 2 16 1 17 3 18 17 19 18 20 19 21 20 22 21 23
REMARK SMILES IDX 22 24 23 25 87 26 24 27 86 28 25 29 26 30 27 31 80 32 28 33
REMARK SMILES IDX 85 34 79 35 81 36 29 37 84 38 78 39 77 40 30 42 64 43 43 44
REMARK SMILES IDX 63 45 44 46 47 47 62 48 82 49 45 50 46 51 61 53 83 54 48 55
REMARK SMILES IDX 31 56 32 57 41 58 33 59 34 60 40 61 42 62 35 63 36 64 37 65
REMARK SMILES IDX 38 66 39 67 65 68 66 69 75 70 67 71 68 72 74 73 76 74 69 75
REMARK SMILES IDX 70 76 71 77 72 78 73 79 49 80 50 81 59 82 51 83 52 84 58 85
REMARK SMILES IDX 60 86 53 87 54 88 55 89 56 90 57 91
REMARK H PARENT 81 41 47 52
REMARK Flexibility Score: inf
ROOT
ATOM      1  O   UNL A   1      35.241  34.350  32.944  1.00  0.00    -0.374 OA
ENDROOT
BRANCH   1   2
ATOM      2  C   UNL A   1      34.003  34.514  32.254  1.00  0.00     0.202 C 
BRANCH   2   3
ATOM      3  C   UNL A   1      34.074  34.747  30.742  1.00  0.00     0.261 C 
BRANCH   3   4
ATOM      4  O   UNL A   1      33.871  33.532  30.004  1.00  0.00    -0.463 OA
BRANCH   4   5
ATOM      5  C   UNL A   1      33.603  33.691  28.679  1.00  0.00     0.313 C 
ATOM      6  O   UNL A   1      32.721  34.416  28.226  1.00  0.00    -0.252 OA
BRANCH   5   7
ATOM      7  C   UNL A   1      34.576  32.920  27.784  1.00  0.00     0.126 C 
ATOM      8  C   UNL A   1      36.025  32.844  28.269  1.00  0.00     0.025 C 
BRANCH   7   9
ATOM      9  C   UNL A   1      33.999  31.558  27.464  1.00  0.00    -0.034 A 
ATOM     10  C   UNL A   1      32.823  29.023  27.168  1.00  0.00    -0.048 A 
ATOM     11  C   UNL A   1      32.065  30.184  26.972  1.00  0.00     0.004 A 
ATOM     12  C   UNL A   1      34.183  29.138  27.472  1.00  0.00     0.004 A 
ATOM     13  C   UNL A   1      32.645  31.440  27.125  1.00  0.00     0.005 A 
ATOM     14  C   UNL A   1      34.768  30.396  27.617  1.00  0.00     0.005 A 
BRANCH  10  15
ATOM     15  C   UNL A   1      32.159  27.671  27.135  1.00  0.00     0.038 C 
BRANCH  15  16
ATOM     16  C   UNL A   1      32.394  26.909  25.814  1.00  0.00    -0.013 C 
ATOM     17  C   UNL A   1      33.463  25.819  25.938  1.00  0.00     0.008 C 
ATOM     18  C   UNL A   1      31.079  26.281  25.348  1.00  0.00     0.008 C 
ENDBRANCH  15  16
ENDBRANCH  10  15
ENDBRANCH   7   9
ENDBRANCH   5   7
ENDBRANCH   4   5
ENDBRANCH   3   4
ENDBRANCH   2   3
ENDBRANCH   1   2
BRANCH   1  19
ATOM     19  C   UNL A   1      35.703  33.024  33.200  1.00  0.00     0.202 C 
BRANCH  19  20
ATOM     20  C   UNL A   1      36.781  32.456  32.270  1.00  0.00     0.261 C 
BRANCH  20  21
ATOM     21  O   UNL A   1      36.251  31.513  31.318  1.00  0.00    -0.460 OA
BRANCH  21  22
ATOM     22  C   UNL A   1      36.855  30.301  31.343  1.00  0.00     0.338 C 
ATOM     23  O   UNL A   1      36.328  29.224  31.588  1.00  0.00    -0.246 OA
BRANCH  22  24
ATOM     24  C   UNL A   1      38.242  30.390  30.853  1.00  0.00     0.060 A 
ATOM     25  C   UNL A   1      38.419  30.494  29.468  1.00  0.00     0.016 A 
ATOM     26  C   UNL A   1      39.341  30.232  31.700  1.00  0.00     0.016 A 
ATOM     27  C   UNL A   1      39.687  30.354  28.915  1.00  0.00     0.010 A 
ATOM     28  C   UNL A   1      40.617  30.086  31.140  1.00  0.00     0.010 A 
ATOM     29  C   UNL A   1      40.785  30.088  29.743  1.00  0.00    -0.014 A 
BRANCH  29  30
ATOM     30  C   UNL A   1      42.037  29.596  29.115  1.00  0.00     0.031 A 
ATOM     31  C   UNL A   1      43.217  30.531  29.032  1.00  0.00     0.074 A 
ATOM     32  C   UNL A   1      42.161  28.317  28.720  1.00  0.00     0.049 A 
ATOM     33  N   UNL A   1      44.430  30.303  28.598  1.00  0.00    -0.248 NA
ATOM     34  C   UNL A   1      43.000  31.908  29.509  1.00  0.00     0.031 C 
ATOM     35  C   UNL A   1      41.110  27.304  28.792  1.00  0.00     0.029 A 
ATOM     36  N   UNL A   1      43.238  27.649  28.193  1.00  0.00    -0.354 N 
ATOM     37  C   UNL A   1      45.119  31.501  28.754  1.00  0.00     0.074 A 
ATOM     38  C   UNL A   1      44.180  32.464  29.284  1.00  0.00     0.031 C 
ATOM     39  C   UNL A   1      41.597  26.139  28.333  1.00  0.00     0.029 A 
ATOM     40  C   UNL A   1      42.986  26.326  27.919  1.00  0.00     0.049 A 
ATOM     41  H   UNL A   1      44.109  28.077  28.025  1.00  0.00     0.167 HD
ATOM     42  C   UNL A   1      46.421  31.772  28.497  1.00  0.00     0.037 A 
ATOM     43  C   UNL A   1      43.787  25.377  27.394  1.00  0.00     0.037 A 
ATOM     44  C   UNL A   1      47.357  30.815  27.969  1.00  0.00     0.049 A 
ATOM     45  C   UNL A   1      45.217  25.716  27.061  1.00  0.00     0.074 A 
ATOM     46  C   UNL A   1      48.694  30.994  27.663  1.00  0.00     0.029 A 
ATOM     47  N   UNL A   1      47.051  29.497  27.668  1.00  0.00    -0.354 N 
ATOM     48  N   UNL A   1      45.856  26.851  27.220  1.00  0.00    -0.248 NA
ATOM     49  C   UNL A   1      46.038  24.640  26.487  1.00  0.00     0.031 C 
ATOM     50  C   UNL A   1      49.189  29.792  27.144  1.00  0.00     0.029 A 
ATOM     51  C   UNL A   1      48.171  28.852  27.168  1.00  0.00     0.049 A 
ATOM     52  H   UNL A   1      46.167  29.079  27.792  1.00  0.00     0.167 HD
ATOM     53  C   UNL A   1      47.162  26.616  26.799  1.00  0.00     0.074 A 
ATOM     54  C   UNL A   1      47.221  25.231  26.380  1.00  0.00     0.031 C 
ATOM     55  C   UNL A   1      48.217  27.468  26.768  1.00  0.00     0.037 A 
BRANCH  42  56
ATOM     56  C   UNL A   1      46.897  33.173  28.764  1.00  0.00     0.058 A 
ATOM     57  C   UNL A   1      47.430  33.547  30.009  1.00  0.00     0.135 A 
ATOM     58  C   UNL A   1      46.818  34.156  27.764  1.00  0.00     0.135 A 
ATOM     59  F   UNL A   1      47.510  32.651  31.005  1.00  0.00    -0.206 F 
ATOM     60  C   UNL A   1      47.834  34.853  30.265  1.00  0.00     0.059 A 
ATOM     61  C   UNL A   1      47.239  35.463  27.990  1.00  0.00     0.059 A 
ATOM     62  F   UNL A   1      46.314  33.854  26.557  1.00  0.00    -0.206 F 
ATOM     63  C   UNL A   1      47.728  35.806  29.250  1.00  0.00     0.060 A 
BRANCH  63  64
ATOM     64  S   UNL A   1      48.236  37.503  29.600  1.00  0.00     0.124 S 
ATOM     65  O   UNL A   1      49.561  37.296  30.177  1.00  0.00    -0.237 OA
ATOM     66  O   UNL A   1      48.211  38.118  28.277  1.00  0.00    -0.237 OA
ATOM     67  O   UNL A   1      47.214  37.978  30.528  1.00  0.00    -0.744 OA
ENDBRANCH  63  64
ENDBRANCH  42  56
BRANCH  43  68
ATOM     68  C   UNL A   1      43.259  24.006  27.165  1.00  0.00     0.058 A 
ATOM     69  C   UNL A   1      43.175  23.078  28.212  1.00  0.00     0.135 A 
ATOM     70  C   UNL A   1      42.825  23.602  25.894  1.00  0.00     0.135 A 
ATOM     71  F   UNL A   1      43.587  23.414  29.443  1.00  0.00    -0.206 F 
ATOM     72  C   UNL A   1      42.688  21.790  28.005  1.00  0.00     0.059 A 
ATOM     73  C   UNL A   1      42.314  22.328  25.667  1.00  0.00     0.059 A 
ATOM     74  F   UNL A   1      42.877  24.458  24.861  1.00  0.00    -0.206 F 
ATOM     75  C   UNL A   1      42.257  21.426  26.729  1.00  0.00     0.060 A 
BRANCH  75  76
ATOM     76  S   UNL A   1      41.576  19.772  26.481  1.00  0.00     0.124 S 
ATOM     77  O   UNL A   1      40.154  20.057  26.337  1.00  0.00    -0.237 OA
ATOM     78  O   UNL A   1      42.266  19.334  25.272  1.00  0.00    -0.237 OA
ATOM     79  O   UNL A   1      41.959  19.066  27.701  1.00  0.00    -0.744 OA
ENDBRANCH  75  76
ENDBRANCH  43  68
BRANCH  55  80
ATOM     80  C   UNL A   1      49.539  26.918  26.310  1.00  0.00     0.058 A 
ATOM     81  C   UNL A   1      50.351  26.143  27.152  1.00  0.00     0.135 A 
ATOM     82  C   UNL A   1      49.979  27.136  24.994  1.00  0.00     0.135 A 
ATOM     83  F   UNL A   1      49.978  25.908  28.420  1.00  0.00    -0.206 F 
ATOM     84  C   UNL A   1      51.566  25.625  26.714  1.00  0.00     0.059 A 
ATOM     85  C   UNL A   1      51.178  26.607  24.527  1.00  0.00     0.059 A 
ATOM     86  F   UNL A   1      49.234  27.861  24.144  1.00  0.00    -0.206 F 
ATOM     87  C   UNL A   1      51.972  25.865  25.400  1.00  0.00     0.060 A 
BRANCH  87  88
ATOM     88  S   UNL A   1      53.539  25.170  24.833  1.00  0.00     0.124 S 
ATOM     89  O   UNL A   1      53.419  23.782  25.267  1.00  0.00    -0.237 OA
ATOM     90  O   UNL A   1      53.478  25.389  23.391  1.00  0.00    -0.237 OA
ATOM     91  O   UNL A   1      54.538  25.965  25.539  1.00  0.00    -0.744 OA
ENDBRANCH  87  88
ENDBRANCH  55  80
ENDBRANCH  29  30
ENDBRANCH  22  24
ENDBRANCH  21  22
ENDBRANCH  20  21
ENDBRANCH  19  20
ENDBRANCH   1  19
TORSDOF 20
ENDMDL
MODEL 3
REMARK VINA RESULT:      -9.9      5.087      7.019
REMARK SMILES CC(C)Cc1ccc([C@H](C)C(=O)OCCOCCOC(=O)c2ccc(-c3c4nc(c(-c5c(F)cc(S(=O)(=O)[O-])cc5F)c5ccc([nH]5)c(-c5c(F)cc(S(=O)(=O)[O-])cc5F)c5nc(c(-c6c(F)cc(S(=O)(=O)[O-])cc6F)c6ccc3[nH]6)C=C5)C=C4)cc2)cc1
REMARK SMILES IDX 16 1 15 2 14 3 13 4 11 5 12 6 9 7 10 8 8 9 5 10 6 11 89 12
REMARK SMILES IDX 7 13 88 14 4 15 2 16 1 17 3 18 17 19 18 20 19 21 20 22 21 23
REMARK SMILES IDX 22 24 23 25 87 26 24 27 86 28 25 29 26 30 27 31 80 32 28 33
REMARK SMILES IDX 85 34 79 35 81 36 29 37 84 38 78 39 77 40 30 42 64 43 43 44
REMARK SMILES IDX 63 45 44 46 47 47 62 48 82 49 45 50 46 51 61 53 83 54 48 55
REMARK SMILES IDX 31 56 32 57 41 58 33 59 34 60 40 61 42 62 35 63 36 64 37 65
REMARK SMILES IDX 38 66 39 67 65 68 66 69 75 70 67 71 68 72 74 73 76 74 69 75
REMARK SMILES IDX 70 76 71 77 72 78 73 79 49 80 50 81 59 82 51 83 52 84 58 85
REMARK SMILES IDX 60 86 53 87 54 88 55 89 56 90 57 91
REMARK H PARENT 81 41 47 52
REMARK Flexibility Score: inf
ROOT
ATOM      1  O   UNL A   1      32.298  28.349  26.185  1.00  0.00    -0.374 OA
ENDROOT
BRANCH   1   2
ATOM      2  C   UNL A   1      33.161  28.633  25.084  1.00  0.00     0.202 C 
BRANCH   2   3
ATOM      3  C   UNL A   1      32.524  28.673  23.692  1.00  0.00     0.261 C 
BRANCH   3   4
ATOM      4  O   UNL A   1      31.094  28.790  23.762  1.00  0.00    -0.463 OA
BRANCH   4   5
ATOM      5  C   UNL A   1      30.395  27.806  23.133  1.00  0.00     0.313 C 
ATOM      6  O   UNL A   1      30.432  27.586  21.926  1.00  0.00    -0.252 OA
BRANCH   5   7
ATOM      7  C   UNL A   1      29.600  26.933  24.106  1.00  0.00     0.126 C 
ATOM      8  C   UNL A   1      28.128  26.700  23.757  1.00  0.00     0.025 C 
BRANCH   7   9
ATOM      9  C   UNL A   1      30.348  25.641  24.355  1.00  0.00    -0.034 A 
ATOM     10  C   UNL A   1      31.454  23.106  24.848  1.00  0.00    -0.048 A 
ATOM     11  C   UNL A   1      31.081  23.477  23.551  1.00  0.00     0.004 A 
ATOM     12  C   UNL A   1      31.310  24.027  25.890  1.00  0.00     0.004 A 
ATOM     13  C   UNL A   1      30.526  24.730  23.306  1.00  0.00     0.005 A 
ATOM     14  C   UNL A   1      30.763  25.286  25.646  1.00  0.00     0.005 A 
BRANCH  10  15
ATOM     15  C   UNL A   1      31.927  21.703  25.127  1.00  0.00     0.038 C 
BRANCH  15  16
ATOM     16  C   UNL A   1      33.089  21.258  24.216  1.00  0.00    -0.013 C 
ATOM     17  C   UNL A   1      34.080  22.387  23.919  1.00  0.00     0.008 C 
ATOM     18  C   UNL A   1      33.830  20.089  24.869  1.00  0.00     0.008 C 
ENDBRANCH  15  16
ENDBRANCH  10  15
ENDBRANCH   7   9
ENDBRANCH   5   7
ENDBRANCH   4   5
ENDBRANCH   3   4
ENDBRANCH   2   3
ENDBRANCH   1   2
BRANCH   1  19
ATOM     19  C   UNL A   1      31.946  29.418  27.061  1.00  0.00     0.202 C 
BRANCH  19  20
ATOM     20  C   UNL A   1      32.802  30.689  27.011  1.00  0.00     0.261 C 
BRANCH  20  21
ATOM     21  O   UNL A   1      33.714  30.788  28.122  1.00  0.00    -0.460 OA
BRANCH  21  22
ATOM     22  C   UNL A   1      34.864  31.445  27.838  1.00  0.00     0.338 C 
ATOM     23  O   UNL A   1      34.977  32.622  27.524  1.00  0.00    -0.246 OA
BRANCH  22  24
ATOM     24  C   UNL A   1      36.039  30.605  28.127  1.00  0.00     0.060 A 
ATOM     25  C   UNL A   1      36.030  29.897  29.335  1.00  0.00     0.016 A 
ATOM     26  C   UNL A   1      37.178  30.618  27.319  1.00  0.00     0.016 A 
ATOM     27  C   UNL A   1      37.187  29.268  29.783  1.00  0.00     0.010 A 
ATOM     28  C   UNL A   1      38.345  29.988  27.775  1.00  0.00     0.010 A 
ATOM     29  C   UNL A   1      38.368  29.363  29.035  1.00  0.00    -0.014 A 
BRANCH  29  30
ATOM     30  C   UNL A   1      39.649  28.999  29.693  1.00  0.00     0.031 A 
ATOM     31  C   UNL A   1      40.031  29.710  30.966  1.00  0.00     0.074 A 
ATOM     32  C   UNL A   1      40.407  27.991  29.229  1.00  0.00     0.049 A 
ATOM     33  N   UNL A   1      41.057  29.511  31.754  1.00  0.00    -0.248 NA
ATOM     34  C   UNL A   1      39.132  30.786  31.415  1.00  0.00     0.031 C 
ATOM     35  C   UNL A   1      40.120  27.197  28.036  1.00  0.00     0.029 A 
ATOM     36  N   UNL A   1      41.569  27.452  29.721  1.00  0.00    -0.354 N 
ATOM     37  C   UNL A   1      40.924  30.429  32.789  1.00  0.00     0.074 A 
ATOM     38  C   UNL A   1      39.741  31.213  32.510  1.00  0.00     0.031 C 
ATOM     39  C   UNL A   1      41.077  26.265  27.892  1.00  0.00     0.029 A 
ATOM     40  C   UNL A   1      42.054  26.407  28.971  1.00  0.00     0.049 A 
ATOM     41  H   UNL A   1      42.015  27.783  30.534  1.00  0.00     0.167 HD
ATOM     42  C   UNL A   1      41.703  30.595  33.884  1.00  0.00     0.037 A 
ATOM     43  C   UNL A   1      43.159  25.654  29.139  1.00  0.00     0.037 A 
ATOM     44  C   UNL A   1      42.880  29.815  34.164  1.00  0.00     0.049 A 
ATOM     45  C   UNL A   1      44.045  25.894  30.334  1.00  0.00     0.074 A 
ATOM     46  C   UNL A   1      43.744  29.913  35.240  1.00  0.00     0.029 A 
ATOM     47  N   UNL A   1      43.359  28.793  33.358  1.00  0.00    -0.354 N 
ATOM     48  N   UNL A   1      43.902  26.761  31.308  1.00  0.00    -0.248 NA
ATOM     49  C   UNL A   1      45.237  25.043  30.458  1.00  0.00     0.031 C 
ATOM     50  C   UNL A   1      44.766  28.972  35.067  1.00  0.00     0.029 A 
ATOM     51  C   UNL A   1      44.513  28.259  33.906  1.00  0.00     0.049 A 
ATOM     52  H   UNL A   1      42.939  28.491  32.519  1.00  0.00     0.167 HD
ATOM     53  C   UNL A   1      44.965  26.537  32.178  1.00  0.00     0.074 A 
ATOM     54  C   UNL A   1      45.741  25.452  31.615  1.00  0.00     0.031 C 
ATOM     55  C   UNL A   1      45.268  27.168  33.339  1.00  0.00     0.037 A 
BRANCH  42  56
ATOM     56  C   UNL A   1      41.312  31.681  34.848  1.00  0.00     0.058 A 
ATOM     57  C   UNL A   1      40.331  31.476  35.832  1.00  0.00     0.135 A 
ATOM     58  C   UNL A   1      41.925  32.942  34.786  1.00  0.00     0.135 A 
ATOM     59  F   UNL A   1      39.701  30.294  35.922  1.00  0.00    -0.206 F 
ATOM     60  C   UNL A   1      39.946  32.495  36.697  1.00  0.00     0.059 A 
ATOM     61  C   UNL A   1      41.573  33.969  35.658  1.00  0.00     0.059 A 
ATOM     62  F   UNL A   1      42.867  33.192  33.863  1.00  0.00    -0.206 F 
ATOM     63  C   UNL A   1      40.568  33.740  36.597  1.00  0.00     0.060 A 
BRANCH  63  64
ATOM     64  S   UNL A   1      40.045  35.062  37.711  1.00  0.00     0.124 S 
ATOM     65  O   UNL A   1      39.704  36.120  36.765  1.00  0.00    -0.237 OA
ATOM     66  O   UNL A   1      38.920  34.455  38.414  1.00  0.00    -0.237 OA
ATOM     67  O   UNL A   1      41.231  35.307  38.526  1.00  0.00    -0.744 OA
ENDBRANCH  63  64
ENDBRANCH  42  56
BRANCH  43  68
ATOM     68  C   UNL A   1      43.483  24.586  28.155  1.00  0.00     0.058 A 
ATOM     69  C   UNL A   1      42.881  23.323  28.233  1.00  0.00     0.135 A 
ATOM     70  C   UNL A   1      44.399  24.814  27.118  1.00  0.00     0.135 A 
ATOM     71  F   UNL A   1      42.006  23.054  29.213  1.00  0.00    -0.206 F 
ATOM     72  C   UNL A   1      43.184  22.315  27.321  1.00  0.00     0.059 A 
ATOM     73  C   UNL A   1      44.701  23.830  26.182  1.00  0.00     0.059 A 
ATOM     74  F   UNL A   1      44.996  26.010  26.997  1.00  0.00    -0.206 F 
ATOM     75  C   UNL A   1      44.094  22.580  26.297  1.00  0.00     0.060 A 
BRANCH  75  76
ATOM     76  S   UNL A   1      44.440  21.286  25.086  1.00  0.00     0.124 S 
ATOM     77  O   UNL A   1      44.250  22.000  23.829  1.00  0.00    -0.237 OA
ATOM     78  O   UNL A   1      45.815  20.920  25.411  1.00  0.00    -0.237 OA
ATOM     79  O   UNL A   1      43.440  20.267  25.391  1.00  0.00    -0.744 OA
ENDBRANCH  75  76
ENDBRANCH  43  68
BRANCH  55  80
ATOM     80  C   UNL A   1      46.461  26.673  34.108  1.00  0.00     0.058 A 
ATOM     81  C   UNL A   1      46.353  25.661  35.074  1.00  0.00     0.135 A 
ATOM     82  C   UNL A   1      47.739  27.191  33.841  1.00  0.00     0.135 A 
ATOM     83  F   UNL A   1      45.154  25.136  35.369  1.00  0.00    -0.206 F 
ATOM     84  C   UNL A   1      47.467  25.199  35.769  1.00  0.00     0.059 A 
ATOM     85  C   UNL A   1      48.870  26.726  34.506  1.00  0.00     0.059 A 
ATOM     86  F   UNL A   1      47.900  28.152  32.916  1.00  0.00    -0.206 F 
ATOM     87  C   UNL A   1      48.721  25.739  35.479  1.00  0.00     0.060 A 
BRANCH  87  88
ATOM     88  S   UNL A   1      50.163  25.117  36.369  1.00  0.00     0.124 S 
ATOM     89  O   UNL A   1      50.025  25.789  37.656  1.00  0.00    -0.237 OA
ATOM     90  O   UNL A   1      49.929  23.676  36.379  1.00  0.00    -0.237 OA
ATOM     91  O   UNL A   1      51.286  25.557  35.546  1.00  0.00    -0.744 OA
ENDBRANCH  87  88
ENDBRANCH  55  80
ENDBRANCH  29  30
ENDBRANCH  22  24
ENDBRANCH  21  22
ENDBRANCH  20  21
ENDBRANCH  19  20
ENDBRANCH   1  19
TORSDOF 20
ENDMDL
