MODEL 1
REMARK VINA RESULT:      -8.0      0.000      0.000
REMARK SMILES CC(C)C[C@H](NC(=O)[C@H](C)NC(=O)[C@@H](NC(=O)CNC(=O)OCc1ccccc1)C(C)C)C(=O)OCCOCCOC(=O)c1ccc(-c2c3nc(c(-c4c(F)cc(S(=O)(=O)[O-])cc4F)c4ccc([nH]4)c(-c4c(F)cc(S(=O)(=O)[O-])cc4F)c4nc(c(-c5c(F)cc(S(=O)(=O)[O-])cc5F)c5ccc2[nH]5)C=C4)C=C3)cc1
REMARK SMILES IDX 33 1 34 2 5 3 4 4 2 5 1 6 3 7 6 8 7 9 8 11 9 12 10 13 11 14
REMARK SMILES IDX 12 15 13 17 14 18 15 19 16 20 17 22 18 23 19 24 20 25 21 27
REMARK SMILES IDX 22 28 23 29 24 30 25 31 29 32 26 33 28 34 27 35 30 36 31 37
REMARK SMILES IDX 32 38 35 39 36 40 37 41 38 42 39 43 40 44 41 45 42 46 43 47
REMARK SMILES IDX 44 48 45 49 109 50 46 51 108 52 47 53 48 54 49 55 102 56
REMARK SMILES IDX 50 57 107 58 101 59 103 60 51 61 106 62 100 63 99 64 52 66
REMARK SMILES IDX 86 67 65 68 85 69 66 70 69 71 84 72 104 73 67 74 68 75 83 77
REMARK SMILES IDX 105 78 70 79 53 80 54 81 63 82 55 83 56 84 62 85 64 86 57 87
REMARK SMILES IDX 58 88 59 89 60 90 61 91 87 92 88 93 97 94 89 95 90 96 96 97
REMARK SMILES IDX 98 98 91 99 92 100 93 101 94 102 95 103 71 104 72 105 81 106
REMARK SMILES IDX 73 107 74 108 80 109 82 110 75 111 76 112 77 113 78 114
REMARK SMILES IDX 79 115
REMARK H PARENT 6 10 11 16 15 21 19 26 103 65 69 76
REMARK Flexibility Score: inf
ROOT
ATOM      1  C   UNL A   1      32.292  28.646  26.522  1.00  0.00     0.328 C 
ATOM      2  O   UNL A   1      31.537  29.551  26.179  1.00  0.00    -0.250 OA
ENDROOT
BRANCH   1   3
ATOM      3  C   UNL A   1      32.137  27.220  25.968  1.00  0.00     0.192 C 
BRANCH   3   4
ATOM      4  C   UNL A   1      31.303  27.283  24.672  1.00  0.00     0.040 C 
BRANCH   4   5
ATOM      5  C   UNL A   1      32.020  27.368  23.305  1.00  0.00    -0.015 C 
ATOM      6  C   UNL A   1      32.166  28.769  22.715  1.00  0.00     0.007 C 
ATOM      7  C   UNL A   1      33.414  26.747  23.460  1.00  0.00     0.007 C 
ENDBRANCH   4   5
ENDBRANCH   3   4
BRANCH   3   8
ATOM      8  N   UNL A   1      31.713  26.114  26.837  1.00  0.00    -0.341 N 
ATOM      9  C   UNL A   1      31.251  24.889  26.408  1.00  0.00     0.242 C 
ATOM     10  H   UNL A   1      31.764  26.260  27.809  1.00  0.00     0.164 HD
ATOM     11  O   UNL A   1      30.177  24.499  26.873  1.00  0.00    -0.273 OA
BRANCH   9  12
ATOM     12  C   UNL A   1      32.149  23.926  25.558  1.00  0.00     0.168 C 
ATOM     13  C   UNL A   1      31.451  22.919  24.666  1.00  0.00     0.041 C 
BRANCH  12  14
ATOM     14  N   UNL A   1      33.095  23.220  26.427  1.00  0.00    -0.343 N 
ATOM     15  C   UNL A   1      33.817  22.080  26.269  1.00  0.00     0.243 C 
ATOM     16  H   UNL A   1      33.234  23.659  27.297  1.00  0.00     0.164 HD
ATOM     17  O   UNL A   1      34.367  21.645  27.291  1.00  0.00    -0.273 OA
BRANCH  15  18
ATOM     18  C   UNL A   1      34.122  21.393  24.896  1.00  0.00     0.174 C 
BRANCH  18  19
ATOM     19  N   UNL A   1      35.222  22.001  24.111  1.00  0.00    -0.343 N 
ATOM     20  C   UNL A   1      36.265  22.847  24.330  1.00  0.00     0.240 C 
ATOM     21  H   UNL A   1      35.189  21.712  23.171  1.00  0.00     0.164 HD
ATOM     22  O   UNL A   1      36.922  23.151  23.326  1.00  0.00    -0.273 OA
BRANCH  20  23
ATOM     23  C   UNL A   1      36.644  23.443  25.697  1.00  0.00     0.219 C 
BRANCH  23  24
ATOM     24  N   UNL A   1      37.676  22.646  26.318  1.00  0.00    -0.312 N 
ATOM     25  C   UNL A   1      38.996  22.900  26.480  1.00  0.00     0.407 C 
ATOM     26  H   UNL A   1      37.371  21.782  26.681  1.00  0.00     0.167 HD
ATOM     27  O   UNL A   1      39.740  21.989  26.822  1.00  0.00    -0.225 OA
BRANCH  25  28
ATOM     28  O   UNL A   1      39.358  24.158  26.152  1.00  0.00    -0.445 OA
BRANCH  28  29
ATOM     29  C   UNL A   1      40.240  24.784  27.096  1.00  0.00     0.270 C 
BRANCH  29  30
ATOM     30  C   UNL A   1      40.019  26.259  27.340  1.00  0.00    -0.011 A 
ATOM     31  C   UNL A   1      39.198  26.738  28.370  1.00  0.00     0.007 A 
ATOM     32  C   UNL A   1      40.681  27.183  26.517  1.00  0.00     0.007 A 
ATOM     33  C   UNL A   1      39.089  28.108  28.608  1.00  0.00     0.000 A 
ATOM     34  C   UNL A   1      40.557  28.554  26.746  1.00  0.00     0.000 A 
ATOM     35  C   UNL A   1      39.772  29.014  27.800  1.00  0.00     0.000 A 
ENDBRANCH  29  30
ENDBRANCH  28  29
ENDBRANCH  25  28
ENDBRANCH  23  24
ENDBRANCH  20  23
ENDBRANCH  18  19
BRANCH  18  36
ATOM     36  C   UNL A   1      34.128  19.853  24.983  1.00  0.00     0.015 C 
ATOM     37  C   UNL A   1      33.125  19.116  24.093  1.00  0.00     0.010 C 
ATOM     38  C   UNL A   1      35.524  19.251  24.794  1.00  0.00     0.010 C 
ENDBRANCH  18  36
ENDBRANCH  15  18
ENDBRANCH  12  14
ENDBRANCH   9  12
ENDBRANCH   3   8
ENDBRANCH   1   3
BRANCH   1  39
ATOM     39  O   UNL A   1      33.253  28.758  27.473  1.00  0.00    -0.462 OA
BRANCH  39  40
ATOM     40  C   UNL A   1      34.562  29.107  26.987  1.00  0.00     0.261 C 
BRANCH  40  41
ATOM     41  C   UNL A   1      35.481  29.585  28.110  1.00  0.00     0.202 C 
BRANCH  41  42
ATOM     42  O   UNL A   1      35.816  30.969  28.128  1.00  0.00    -0.374 OA
BRANCH  42  43
ATOM     43  C   UNL A   1      35.230  31.781  29.133  1.00  0.00     0.202 C 
BRANCH  43  44
ATOM     44  C   UNL A   1      36.128  32.410  30.205  1.00  0.00     0.261 C 
BRANCH  44  45
ATOM     45  O   UNL A   1      37.419  31.859  30.364  1.00  0.00    -0.460 OA
BRANCH  45  46
ATOM     46  C   UNL A   1      37.512  31.021  31.420  1.00  0.00     0.338 C 
ATOM     47  O   UNL A   1      36.648  30.668  32.196  1.00  0.00    -0.246 OA
BRANCH  46  48
ATOM     48  C   UNL A   1      38.880  30.524  31.416  1.00  0.00     0.060 A 
ATOM     49  C   UNL A   1      39.156  29.376  32.157  1.00  0.00     0.016 A 
ATOM     50  C   UNL A   1      39.862  31.199  30.686  1.00  0.00     0.016 A 
ATOM     51  C   UNL A   1      40.458  28.915  32.206  1.00  0.00     0.010 A 
ATOM     52  C   UNL A   1      41.167  30.730  30.732  1.00  0.00     0.010 A 
ATOM     53  C   UNL A   1      41.467  29.607  31.520  1.00  0.00    -0.014 A 
BRANCH  53  54
ATOM     54  C   UNL A   1      42.865  29.200  31.730  1.00  0.00     0.031 A 
ATOM     55  C   UNL A   1      43.460  28.166  30.820  1.00  0.00     0.074 A 
ATOM     56  C   UNL A   1      43.585  29.812  32.684  1.00  0.00     0.049 A 
ATOM     57  N   UNL A   1      44.675  27.692  30.801  1.00  0.00    -0.248 NA
ATOM     58  C   UNL A   1      42.568  27.589  29.799  1.00  0.00     0.031 C 
ATOM     59  C   UNL A   1      43.075  30.840  33.596  1.00  0.00     0.029 A 
ATOM     60  N   UNL A   1      44.897  29.669  33.038  1.00  0.00    -0.354 N 
ATOM     61  C   UNL A   1      44.698  26.768  29.764  1.00  0.00     0.074 A 
ATOM     62  C   UNL A   1      43.366  26.711  29.206  1.00  0.00     0.031 C 
ATOM     63  C   UNL A   1      44.070  31.240  34.401  1.00  0.00     0.029 A 
ATOM     64  C   UNL A   1      45.272  30.475  34.085  1.00  0.00     0.049 A 
ATOM     65  H   UNL A   1      45.515  29.049  32.585  1.00  0.00     0.167 HD
ATOM     66  C   UNL A   1      45.751  26.049  29.311  1.00  0.00     0.037 A 
ATOM     67  C   UNL A   1      46.454  30.563  34.721  1.00  0.00     0.037 A 
ATOM     68  C   UNL A   1      47.067  26.127  29.888  1.00  0.00     0.049 A 
ATOM     69  C   UNL A   1      47.592  29.709  34.228  1.00  0.00     0.074 A 
ATOM     70  C   UNL A   1      48.214  25.452  29.513  1.00  0.00     0.029 A 
ATOM     71  N   UNL A   1      47.409  26.930  30.968  1.00  0.00    -0.354 N 
ATOM     72  N   UNL A   1      47.613  28.859  33.228  1.00  0.00    -0.248 NA
ATOM     73  C   UNL A   1      48.868  29.833  34.942  1.00  0.00     0.031 C 
ATOM     74  C   UNL A   1      49.236  25.806  30.400  1.00  0.00     0.029 A 
ATOM     75  C   UNL A   1      48.744  26.750  31.288  1.00  0.00     0.049 A 
ATOM     76  H   UNL A   1      46.794  27.539  31.437  1.00  0.00     0.167 HD
ATOM     77  C   UNL A   1      48.910  28.362  33.179  1.00  0.00     0.074 A 
ATOM     78  C   UNL A   1      49.648  29.031  34.231  1.00  0.00     0.031 C 
ATOM     79  C   UNL A   1      49.446  27.434  32.346  1.00  0.00     0.037 A 
BRANCH  66  80
ATOM     80  C   UNL A   1      45.524  25.116  28.154  1.00  0.00     0.058 A 
ATOM     81  C   UNL A   1      45.074  23.800  28.342  1.00  0.00     0.135 A 
ATOM     82  C   UNL A   1      45.704  25.563  26.835  1.00  0.00     0.135 A 
ATOM     83  F   UNL A   1      44.911  23.311  29.582  1.00  0.00    -0.206 F 
ATOM     84  C   UNL A   1      44.814  22.958  27.265  1.00  0.00     0.059 A 
ATOM     85  C   UNL A   1      45.423  24.748  25.742  1.00  0.00     0.059 A 
ATOM     86  F   UNL A   1      46.145  26.807  26.597  1.00  0.00    -0.206 F 
ATOM     87  C   UNL A   1      44.981  23.445  25.967  1.00  0.00     0.060 A 
BRANCH  87  88
ATOM     88  S   UNL A   1      44.589  22.356  24.582  1.00  0.00     0.124 S 
ATOM     89  O   UNL A   1      43.131  22.305  24.653  1.00  0.00    -0.237 OA
ATOM     90  O   UNL A   1      45.142  23.088  23.447  1.00  0.00    -0.237 OA
ATOM     91  O   UNL A   1      45.276  21.114  24.920  1.00  0.00    -0.744 OA
ENDBRANCH  87  88
ENDBRANCH  66  80
BRANCH  67  92
ATOM     92  C   UNL A   1      46.611  31.468  35.889  1.00  0.00     0.058 A 
ATOM     93  C   UNL A   1      47.055  32.789  35.737  1.00  0.00     0.135 A 
ATOM     94  C   UNL A   1      46.331  31.020  37.191  1.00  0.00     0.135 A 
ATOM     95  F   UNL A   1      47.335  33.266  34.515  1.00  0.00    -0.206 F 
ATOM     96  C   UNL A   1      47.252  33.623  36.834  1.00  0.00     0.059 A 
ATOM     97  C   UNL A   1      46.487  31.844  38.300  1.00  0.00     0.059 A 
ATOM     98  F   UNL A   1      45.881  29.772  37.392  1.00  0.00    -0.206 F 
ATOM     99  C   UNL A   1      46.968  33.139  38.112  1.00  0.00     0.060 A 
BRANCH  99 100
ATOM    100  S   UNL A   1      47.217  34.231  39.528  1.00  0.00     0.124 S 
ATOM    101  O   UNL A   1      46.113  33.839  40.396  1.00  0.00    -0.237 OA
ATOM    102  O   UNL A   1      48.552  33.850  39.977  1.00  0.00    -0.237 OA
ATOM    103  O   UNL A   1      47.118  35.565  38.942  1.00  0.00    -0.744 OA
ENDBRANCH  99 100
ENDBRANCH  67  92
BRANCH  79 104
ATOM    104  C   UNL A   1      50.905  27.119  32.533  1.00  0.00     0.058 A 
ATOM    105  C   UNL A   1      51.906  27.833  31.856  1.00  0.00     0.135 A 
ATOM    106  C   UNL A   1      51.304  26.102  33.414  1.00  0.00     0.135 A 
ATOM    107  F   UNL A   1      51.577  28.813  30.999  1.00  0.00    -0.206 F 
ATOM    108  C   UNL A   1      53.252  27.517  32.010  1.00  0.00     0.059 A 
ATOM    109  C   UNL A   1      52.645  25.794  33.612  1.00  0.00     0.059 A 
ATOM    110  F   UNL A   1      50.387  25.399  34.098  1.00  0.00    -0.206 F 
ATOM    111  C   UNL A   1      53.610  26.494  32.890  1.00  0.00     0.060 A 
BRANCH 111 112
ATOM    112  S   UNL A   1      55.359  26.095  33.081  1.00  0.00     0.124 S 
ATOM    113  O   UNL A   1      55.500  24.957  32.179  1.00  0.00    -0.237 OA
ATOM    114  O   UNL A   1      56.009  27.329  32.651  1.00  0.00    -0.237 OA
ATOM    115  O   UNL A   1      55.485  25.790  34.502  1.00  0.00    -0.744 OA
ENDBRANCH 111 112
ENDBRANCH  79 104
ENDBRANCH  53  54
ENDBRANCH  46  48
ENDBRANCH  45  46
ENDBRANCH  44  45
ENDBRANCH  43  44
ENDBRANCH  42  43
ENDBRANCH  41  42
ENDBRANCH  40  41
ENDBRANCH  39  40
ENDBRANCH   1  39
TORSDOF 30
ENDMDL
MODEL 2
REMARK VINA RESULT:      -8.0      4.422      5.458
REMARK SMILES CC(C)C[C@H](NC(=O)[C@H](C)NC(=O)[C@@H](NC(=O)CNC(=O)OCc1ccccc1)C(C)C)C(=O)OCCOCCOC(=O)c1ccc(-c2c3nc(c(-c4c(F)cc(S(=O)(=O)[O-])cc4F)c4ccc([nH]4)c(-c4c(F)cc(S(=O)(=O)[O-])cc4F)c4nc(c(-c5c(F)cc(S(=O)(=O)[O-])cc5F)c5ccc2[nH]5)C=C4)C=C3)cc1
REMARK SMILES IDX 33 1 34 2 5 3 4 4 2 5 1 6 3 7 6 8 7 9 8 11 9 12 10 13 11 14
REMARK SMILES IDX 12 15 13 17 14 18 15 19 16 20 17 22 18 23 19 24 20 25 21 27
REMARK SMILES IDX 22 28 23 29 24 30 25 31 29 32 26 33 28 34 27 35 30 36 31 37
REMARK SMILES IDX 32 38 35 39 36 40 37 41 38 42 39 43 40 44 41 45 42 46 43 47
REMARK SMILES IDX 44 48 45 49 109 50 46 51 108 52 47 53 48 54 49 55 102 56
REMARK SMILES IDX 50 57 107 58 101 59 103 60 51 61 106 62 100 63 99 64 52 66
REMARK SMILES IDX 86 67 65 68 85 69 66 70 69 71 84 72 104 73 67 74 68 75 83 77
REMARK SMILES IDX 105 78 70 79 53 80 54 81 63 82 55 83 56 84 62 85 64 86 57 87
REMARK SMILES IDX 58 88 59 89 60 90 61 91 87 92 88 93 97 94 89 95 90 96 96 97
REMARK SMILES IDX 98 98 91 99 92 100 93 101 94 102 95 103 71 104 72 105 81 106
REMARK SMILES IDX 73 107 74 108 80 109 82 110 75 111 76 112 77 113 78 114
REMARK SMILES IDX 79 115
REMARK H PARENT 6 10 11 16 15 21 19 26 103 65 69 76
REMARK Flexibility Score: inf
ROOT
ATOM      1  C   UNL A   1      32.185  28.981  24.096  1.00  0.00     0.328 C 
ATOM      2  O   UNL A   1      33.150  29.373  23.446  1.00  0.00    -0.250 OA
ENDROOT
BRANCH   1   3
ATOM      3  C   UNL A   1      30.881  28.542  23.410  1.00  0.00     0.192 C 
BRANCH   3   4
ATOM      4  C   UNL A   1      30.349  29.718  22.565  1.00  0.00     0.040 C 
BRANCH   4   5
ATOM      5  C   UNL A   1      28.877  30.164  22.716  1.00  0.00    -0.015 C 
ATOM      6  C   UNL A   1      28.633  31.366  23.625  1.00  0.00     0.007 C 
ATOM      7  C   UNL A   1      28.330  30.480  21.318  1.00  0.00     0.007 C 
ENDBRANCH   4   5
ENDBRANCH   3   4
BRANCH   3   8
ATOM      8  N   UNL A   1      29.809  27.889  24.173  1.00  0.00    -0.341 N 
ATOM      9  C   UNL A   1      29.371  26.596  23.992  1.00  0.00     0.242 C 
ATOM     10  H   UNL A   1      29.367  28.420  24.874  1.00  0.00     0.164 HD
ATOM     11  O   UNL A   1      28.158  26.430  23.837  1.00  0.00    -0.273 OA
BRANCH   9  12
ATOM     12  C   UNL A   1      30.322  25.369  24.208  1.00  0.00     0.168 C 
ATOM     13  C   UNL A   1      30.237  24.230  23.212  1.00  0.00     0.041 C 
BRANCH  12  14
ATOM     14  N   UNL A   1      30.156  24.834  25.562  1.00  0.00    -0.343 N 
ATOM     15  C   UNL A   1      30.823  23.882  26.265  1.00  0.00     0.243 C 
ATOM     16  H   UNL A   1      29.415  25.247  26.061  1.00  0.00     0.164 HD
ATOM     17  O   UNL A   1      30.289  23.520  27.323  1.00  0.00    -0.273 OA
BRANCH  15  18
ATOM     18  C   UNL A   1      32.254  23.347  25.919  1.00  0.00     0.174 C 
BRANCH  18  19
ATOM     19  N   UNL A   1      32.294  22.192  24.993  1.00  0.00    -0.343 N 
ATOM     20  C   UNL A   1      33.197  21.259  24.587  1.00  0.00     0.240 C 
ATOM     21  H   UNL A   1      31.425  22.064  24.547  1.00  0.00     0.164 HD
ATOM     22  O   UNL A   1      32.802  20.485  23.706  1.00  0.00    -0.273 OA
BRANCH  20  23
ATOM     23  C   UNL A   1      34.633  21.131  25.123  1.00  0.00     0.219 C 
BRANCH  23  24
ATOM     24  N   UNL A   1      35.559  21.781  24.225  1.00  0.00    -0.312 N 
ATOM     25  C   UNL A   1      36.663  22.518  24.494  1.00  0.00     0.407 C 
ATOM     26  H   UNL A   1      35.356  21.672  23.268  1.00  0.00     0.167 HD
ATOM     27  O   UNL A   1      37.172  23.178  23.596  1.00  0.00    -0.225 OA
BRANCH  25  28
ATOM     28  O   UNL A   1      37.034  22.499  25.791  1.00  0.00    -0.445 OA
BRANCH  28  29
ATOM     29  C   UNL A   1      38.410  22.152  26.007  1.00  0.00     0.270 C 
BRANCH  29  30
ATOM     30  C   UNL A   1      39.280  23.223  26.623  1.00  0.00    -0.011 A 
ATOM     31  C   UNL A   1      40.660  23.057  26.813  1.00  0.00     0.007 A 
ATOM     32  C   UNL A   1      38.687  24.438  26.998  1.00  0.00     0.007 A 
ATOM     33  C   UNL A   1      41.435  24.104  27.309  1.00  0.00     0.000 A 
ATOM     34  C   UNL A   1      39.462  25.478  27.511  1.00  0.00     0.000 A 
ATOM     35  C   UNL A   1      40.838  25.315  27.653  1.00  0.00     0.000 A 
ENDBRANCH  29  30
ENDBRANCH  28  29
ENDBRANCH  25  28
ENDBRANCH  23  24
ENDBRANCH  20  23
ENDBRANCH  18  19
BRANCH  18  36
ATOM     36  C   UNL A   1      33.264  24.477  25.632  1.00  0.00     0.015 C 
ATOM     37  C   UNL A   1      33.565  24.765  24.160  1.00  0.00     0.010 C 
ATOM     38  C   UNL A   1      32.917  25.784  26.352  1.00  0.00     0.010 C 
ENDBRANCH  18  36
ENDBRANCH  15  18
ENDBRANCH  12  14
ENDBRANCH   9  12
ENDBRANCH   3   8
ENDBRANCH   1   3
BRANCH   1  39
ATOM     39  O   UNL A   1      32.112  28.986  25.451  1.00  0.00    -0.462 OA
BRANCH  39  40
ATOM     40  C   UNL A   1      32.144  30.289  26.063  1.00  0.00     0.261 C 
BRANCH  40  41
ATOM     41  C   UNL A   1      33.250  30.402  27.111  1.00  0.00     0.202 C 
BRANCH  41  42
ATOM     42  O   UNL A   1      33.517  31.699  27.634  1.00  0.00    -0.374 OA
BRANCH  42  43
ATOM     43  C   UNL A   1      34.691  31.874  28.410  1.00  0.00     0.202 C 
BRANCH  43  44
ATOM     44  C   UNL A   1      34.565  32.073  29.925  1.00  0.00     0.261 C 
BRANCH  44  45
ATOM     45  O   UNL A   1      35.747  32.388  30.631  1.00  0.00    -0.460 OA
BRANCH  45  46
ATOM     46  C   UNL A   1      36.288  31.322  31.264  1.00  0.00     0.338 C 
ATOM     47  O   UNL A   1      35.751  30.506  31.983  1.00  0.00    -0.246 OA
BRANCH  46  48
ATOM     48  C   UNL A   1      37.681  31.274  30.844  1.00  0.00     0.060 A 
ATOM     49  C   UNL A   1      38.642  30.997  31.814  1.00  0.00     0.016 A 
ATOM     50  C   UNL A   1      38.010  31.504  29.505  1.00  0.00     0.016 A 
ATOM     51  C   UNL A   1      39.975  30.994  31.446  1.00  0.00     0.010 A 
ATOM     52  C   UNL A   1      39.348  31.493  29.138  1.00  0.00     0.010 A 
ATOM     53  C   UNL A   1      40.329  31.271  30.117  1.00  0.00    -0.014 A 
BRANCH  53  54
ATOM     54  C   UNL A   1      41.754  31.434  29.791  1.00  0.00     0.031 A 
ATOM     55  C   UNL A   1      42.479  30.296  29.137  1.00  0.00     0.074 A 
ATOM     56  C   UNL A   1      42.345  32.617  30.027  1.00  0.00     0.049 A 
ATOM     57  N   UNL A   1      43.718  30.237  28.731  1.00  0.00    -0.248 NA
ATOM     58  C   UNL A   1      41.710  29.059  28.913  1.00  0.00     0.031 C 
ATOM     59  C   UNL A   1      41.694  33.775  30.646  1.00  0.00     0.029 A 
ATOM     60  N   UNL A   1      43.616  33.045  29.765  1.00  0.00    -0.354 N 
ATOM     61  C   UNL A   1      43.875  28.965  28.195  1.00  0.00     0.074 A 
ATOM     62  C   UNL A   1      42.622  28.266  28.370  1.00  0.00     0.031 C 
ATOM     63  C   UNL A   1      42.574  34.786  30.709  1.00  0.00     0.029 A 
ATOM     64  C   UNL A   1      43.852  34.336  30.167  1.00  0.00     0.049 A 
ATOM     65  H   UNL A   1      44.297  32.482  29.330  1.00  0.00     0.167 HD
ATOM     66  C   UNL A   1      44.969  28.442  27.595  1.00  0.00     0.037 A 
ATOM     67  C   UNL A   1      44.985  35.059  30.116  1.00  0.00     0.037 A 
ATOM     68  C   UNL A   1      46.204  29.165  27.437  1.00  0.00     0.049 A 
ATOM     69  C   UNL A   1      46.202  34.430  29.490  1.00  0.00     0.074 A 
ATOM     70  C   UNL A   1      47.379  28.743  26.841  1.00  0.00     0.029 A 
ATOM     71  N   UNL A   1      46.422  30.462  27.881  1.00  0.00    -0.354 N 
ATOM     72  N   UNL A   1      46.333  33.236  28.961  1.00  0.00    -0.248 NA
ATOM     73  C   UNL A   1      47.420  35.248  29.446  1.00  0.00     0.031 C 
ATOM     74  C   UNL A   1      48.324  29.765  26.973  1.00  0.00     0.029 A 
ATOM     75  C   UNL A   1      47.720  30.849  27.595  1.00  0.00     0.049 A 
ATOM     76  H   UNL A   1      45.753  31.024  28.333  1.00  0.00     0.167 HD
ATOM     77  C   UNL A   1      47.643  33.166  28.500  1.00  0.00     0.074 A 
ATOM     78  C   UNL A   1      48.249  34.451  28.788  1.00  0.00     0.031 C 
ATOM     79  C   UNL A   1      48.292  32.138  27.899  1.00  0.00     0.037 A 
BRANCH  66  80
ATOM     80  C   UNL A   1      44.885  27.032  27.080  1.00  0.00     0.058 A 
ATOM     81  C   UNL A   1      44.411  26.744  25.791  1.00  0.00     0.135 A 
ATOM     82  C   UNL A   1      45.339  25.960  27.864  1.00  0.00     0.135 A 
ATOM     83  F   UNL A   1      43.939  27.727  25.007  1.00  0.00    -0.206 F 
ATOM     84  C   UNL A   1      44.386  25.442  25.298  1.00  0.00     0.059 A 
ATOM     85  C   UNL A   1      45.350  24.654  27.382  1.00  0.00     0.059 A 
ATOM     86  F   UNL A   1      45.790  26.176  29.109  1.00  0.00    -0.206 F 
ATOM     87  C   UNL A   1      44.868  24.405  26.097  1.00  0.00     0.060 A 
BRANCH  87  88
ATOM     88  S   UNL A   1      44.877  22.731  25.423  1.00  0.00     0.124 S 
ATOM     89  O   UNL A   1      44.232  22.933  24.128  1.00  0.00    -0.237 OA
ATOM     90  O   UNL A   1      46.303  22.423  25.377  1.00  0.00    -0.237 OA
ATOM     91  O   UNL A   1      44.103  21.967  26.396  1.00  0.00    -0.744 OA
ENDBRANCH  87  88
ENDBRANCH  66  80
BRANCH  67  92
ATOM     92  C   UNL A   1      45.025  36.433  30.681  1.00  0.00     0.058 A 
ATOM     93  C   UNL A   1      44.638  37.548  29.925  1.00  0.00     0.135 A 
ATOM     94  C   UNL A   1      45.469  36.658  31.996  1.00  0.00     0.135 A 
ATOM     95  F   UNL A   1      44.205  37.386  28.666  1.00  0.00    -0.206 F 
ATOM     96  C   UNL A   1      44.723  38.840  30.435  1.00  0.00     0.059 A 
ATOM     97  C   UNL A   1      45.531  37.936  32.539  1.00  0.00     0.059 A 
ATOM     98  F   UNL A   1      45.830  35.625  32.771  1.00  0.00    -0.206 F 
ATOM     99  C   UNL A   1      45.174  39.023  31.744  1.00  0.00     0.060 A 
BRANCH  99 100
ATOM    100  S   UNL A   1      45.271  40.702  32.400  1.00  0.00     0.124 S 
ATOM    101  O   UNL A   1      46.309  41.285  31.558  1.00  0.00    -0.237 OA
ATOM    102  O   UNL A   1      43.916  41.195  32.180  1.00  0.00    -0.237 OA
ATOM    103  O   UNL A   1      45.635  40.493  33.799  1.00  0.00    -0.744 OA
ENDBRANCH  99 100
ENDBRANCH  67  92
BRANCH  79 104
ATOM    104  C   UNL A   1      49.719  32.381  27.493  1.00  0.00     0.058 A 
ATOM    105  C   UNL A   1      50.794  31.874  28.240  1.00  0.00     0.135 A 
ATOM    106  C   UNL A   1      50.013  33.114  26.333  1.00  0.00     0.135 A 
ATOM    107  F   UNL A   1      50.567  31.170  29.361  1.00  0.00    -0.206 F 
ATOM    108  C   UNL A   1      52.112  32.127  27.877  1.00  0.00     0.059 A 
ATOM    109  C   UNL A   1      51.322  33.347  25.930  1.00  0.00     0.059 A 
ATOM    110  F   UNL A   1      49.021  33.606  25.573  1.00  0.00    -0.206 F 
ATOM    111  C   UNL A   1      52.365  32.866  26.720  1.00  0.00     0.060 A 
BRANCH 111 112
ATOM    112  S   UNL A   1      54.080  33.186  26.259  1.00  0.00     0.124 S 
ATOM    113  O   UNL A   1      54.168  32.506  24.971  1.00  0.00    -0.237 OA
ATOM    114  O   UNL A   1      54.123  34.644  26.211  1.00  0.00    -0.237 OA
ATOM    115  O   UNL A   1      54.843  32.576  27.344  1.00  0.00    -0.744 OA
ENDBRANCH 111 112
ENDBRANCH  79 104
ENDBRANCH  53  54
ENDBRANCH  46  48
ENDBRANCH  45  46
ENDBRANCH  44  45
ENDBRANCH  43  44
ENDBRANCH  42  43
ENDBRANCH  41  42
ENDBRANCH  40  41
ENDBRANCH  39  40
ENDBRANCH   1  39
TORSDOF 30
ENDMDL
MODEL 3
REMARK VINA RESULT:      -8.0      4.724      7.520
REMARK SMILES CC(C)C[C@H](NC(=O)[C@H](C)NC(=O)[C@@H](NC(=O)CNC(=O)OCc1ccccc1)C(C)C)C(=O)OCCOCCOC(=O)c1ccc(-c2c3nc(c(-c4c(F)cc(S(=O)(=O)[O-])cc4F)c4ccc([nH]4)c(-c4c(F)cc(S(=O)(=O)[O-])cc4F)c4nc(c(-c5c(F)cc(S(=O)(=O)[O-])cc5F)c5ccc2[nH]5)C=C4)C=C3)cc1
REMARK SMILES IDX 33 1 34 2 5 3 4 4 2 5 1 6 3 7 6 8 7 9 8 11 9 12 10 13 11 14
REMARK SMILES IDX 12 15 13 17 14 18 15 19 16 20 17 22 18 23 19 24 20 25 21 27
REMARK SMILES IDX 22 28 23 29 24 30 25 31 29 32 26 33 28 34 27 35 30 36 31 37
REMARK SMILES IDX 32 38 35 39 36 40 37 41 38 42 39 43 40 44 41 45 42 46 43 47
REMARK SMILES IDX 44 48 45 49 109 50 46 51 108 52 47 53 48 54 49 55 102 56
REMARK SMILES IDX 50 57 107 58 101 59 103 60 51 61 106 62 100 63 99 64 52 66
REMARK SMILES IDX 86 67 65 68 85 69 66 70 69 71 84 72 104 73 67 74 68 75 83 77
REMARK SMILES IDX 105 78 70 79 53 80 54 81 63 82 55 83 56 84 62 85 64 86 57 87
REMARK SMILES IDX 58 88 59 89 60 90 61 91 87 92 88 93 97 94 89 95 90 96 96 97
REMARK SMILES IDX 98 98 91 99 92 100 93 101 94 102 95 103 71 104 72 105 81 106
REMARK SMILES IDX 73 107 74 108 80 109 82 110 75 111 76 112 77 113 78 114
REMARK SMILES IDX 79 115
REMARK H PARENT 6 10 11 16 15 21 19 26 103 65 69 76
REMARK Flexibility Score: inf
ROOT
ATOM      1  C   UNL A   1      33.205  27.971  25.393  1.00  0.00     0.328 C 
ATOM      2  O   UNL A   1      34.002  28.372  24.549  1.00  0.00    -0.250 OA
ENDROOT
BRANCH   1   3
ATOM      3  C   UNL A   1      32.564  26.577  25.289  1.00  0.00     0.192 C 
BRANCH   3   4
ATOM      4  C   UNL A   1      31.243  26.699  24.500  1.00  0.00     0.040 C 
BRANCH   4   5
ATOM      5  C   UNL A   1      31.264  26.611  22.957  1.00  0.00    -0.015 C 
ATOM      6  C   UNL A   1      31.268  27.944  22.213  1.00  0.00     0.007 C 
ATOM      7  C   UNL A   1      32.504  25.808  22.544  1.00  0.00     0.007 C 
ENDBRANCH   4   5
ENDBRANCH   3   4
BRANCH   3   8
ATOM      8  N   UNL A   1      32.414  25.724  26.477  1.00  0.00    -0.341 N 
ATOM      9  C   UNL A   1      31.860  24.464  26.492  1.00  0.00     0.242 C 
ATOM     10  H   UNL A   1      32.738  26.084  27.333  1.00  0.00     0.164 HD
ATOM     11  O   UNL A   1      30.965  24.253  27.316  1.00  0.00    -0.273 OA
BRANCH   9  12
ATOM     12  C   UNL A   1      32.488  23.281  25.677  1.00  0.00     0.168 C 
ATOM     13  C   UNL A   1      31.686  22.723  24.518  1.00  0.00     0.041 C 
BRANCH  12  14
ATOM     14  N   UNL A   1      32.853  22.185  26.578  1.00  0.00    -0.343 N 
ATOM     15  C   UNL A   1      33.334  20.934  26.359  1.00  0.00     0.243 C 
ATOM     16  H   UNL A   1      32.724  22.398  27.530  1.00  0.00     0.164 HD
ATOM     17  O   UNL A   1      33.338  20.179  27.341  1.00  0.00    -0.273 OA
BRANCH  15  18
ATOM     18  C   UNL A   1      34.009  20.450  25.031  1.00  0.00     0.174 C 
BRANCH  18  19
ATOM     19  N   UNL A   1      35.487  20.348  25.071  1.00  0.00    -0.343 N 
ATOM     20  C   UNL A   1      36.555  21.000  24.537  1.00  0.00     0.240 C 
ATOM     21  H   UNL A   1      35.775  19.600  25.643  1.00  0.00     0.164 HD
ATOM     22  O   UNL A   1      37.661  20.510  24.798  1.00  0.00    -0.273 OA
BRANCH  20  23
ATOM     23  C   UNL A   1      36.468  22.249  23.644  1.00  0.00     0.219 C 
BRANCH  23  24
ATOM     24  N   UNL A   1      35.816  23.325  24.355  1.00  0.00    -0.312 N 
ATOM     25  C   UNL A   1      36.296  24.154  25.312  1.00  0.00     0.407 C 
ATOM     26  H   UNL A   1      34.876  23.479  24.105  1.00  0.00     0.167 HD
ATOM     27  O   UNL A   1      35.510  24.841  25.953  1.00  0.00    -0.225 OA
BRANCH  25  28
ATOM     28  O   UNL A   1      37.627  24.058  25.506  1.00  0.00    -0.445 OA
BRANCH  28  29
ATOM     29  C   UNL A   1      38.007  23.745  26.855  1.00  0.00     0.270 C 
BRANCH  29  30
ATOM     30  C   UNL A   1      39.286  24.377  27.352  1.00  0.00    -0.011 A 
ATOM     31  C   UNL A   1      39.346  25.702  27.806  1.00  0.00     0.007 A 
ATOM     32  C   UNL A   1      40.454  23.599  27.382  1.00  0.00     0.007 A 
ATOM     33  C   UNL A   1      40.531  26.217  28.332  1.00  0.00     0.000 A 
ATOM     34  C   UNL A   1      41.642  24.121  27.892  1.00  0.00     0.000 A 
ATOM     35  C   UNL A   1      41.676  25.425  28.380  1.00  0.00     0.000 A 
ENDBRANCH  29  30
ENDBRANCH  28  29
ENDBRANCH  25  28
ENDBRANCH  23  24
ENDBRANCH  20  23
ENDBRANCH  18  19
BRANCH  18  36
ATOM     36  C   UNL A   1      33.269  19.266  24.377  1.00  0.00     0.015 C 
ATOM     37  C   UNL A   1      32.485  19.573  23.101  1.00  0.00     0.010 C 
ATOM     38  C   UNL A   1      34.175  18.052  24.146  1.00  0.00     0.010 C 
ENDBRANCH  18  36
ENDBRANCH  15  18
ENDBRANCH  12  14
ENDBRANCH   9  12
ENDBRANCH   3   8
ENDBRANCH   1   3
BRANCH   1  39
ATOM     39  O   UNL A   1      32.727  28.714  26.422  1.00  0.00    -0.462 OA
BRANCH  39  40
ATOM     40  C   UNL A   1      33.078  30.110  26.386  1.00  0.00     0.261 C 
BRANCH  40  41
ATOM     41  C   UNL A   1      34.123  30.465  27.442  1.00  0.00     0.202 C 
BRANCH  41  42
ATOM     42  O   UNL A   1      33.887  31.633  28.221  1.00  0.00    -0.374 OA
BRANCH  42  43
ATOM     43  C   UNL A   1      34.292  32.882  27.684  1.00  0.00     0.202 C 
BRANCH  43  44
ATOM     44  C   UNL A   1      33.596  34.162  28.163  1.00  0.00     0.261 C 
BRANCH  44  45
ATOM     45  O   UNL A   1      32.796  34.062  29.323  1.00  0.00    -0.460 OA
BRANCH  45  46
ATOM     46  C   UNL A   1      32.983  35.085  30.187  1.00  0.00     0.338 C 
ATOM     47  O   UNL A   1      32.341  36.107  30.314  1.00  0.00    -0.246 OA
BRANCH  46  48
ATOM     48  C   UNL A   1      34.097  34.690  31.038  1.00  0.00     0.060 A 
ATOM     49  C   UNL A   1      34.739  35.686  31.770  1.00  0.00     0.016 A 
ATOM     50  C   UNL A   1      34.485  33.349  31.094  1.00  0.00     0.016 A 
ATOM     51  C   UNL A   1      35.829  35.340  32.547  1.00  0.00     0.010 A 
ATOM     52  C   UNL A   1      35.575  33.004  31.880  1.00  0.00     0.010 A 
ATOM     53  C   UNL A   1      36.265  34.007  32.578  1.00  0.00    -0.014 A 
BRANCH  53  54
ATOM     54  C   UNL A   1      37.526  33.698  33.270  1.00  0.00     0.031 A 
ATOM     55  C   UNL A   1      38.779  33.560  32.457  1.00  0.00     0.074 A 
ATOM     56  C   UNL A   1      37.531  33.616  34.610  1.00  0.00     0.049 A 
ATOM     57  N   UNL A   1      39.998  33.331  32.861  1.00  0.00    -0.248 NA
ATOM     58  C   UNL A   1      38.641  33.695  30.996  1.00  0.00     0.031 C 
ATOM     59  C   UNL A   1      36.350  33.756  35.467  1.00  0.00     0.029 A 
ATOM     60  N   UNL A   1      38.559  33.407  35.485  1.00  0.00    -0.354 N 
ATOM     61  C   UNL A   1      40.774  33.303  31.709  1.00  0.00     0.074 A 
ATOM     62  C   UNL A   1      39.885  33.491  30.585  1.00  0.00     0.031 C 
ATOM     63  C   UNL A   1      36.726  33.636  36.749  1.00  0.00     0.029 A 
ATOM     64  C   UNL A   1      38.162  33.377  36.799  1.00  0.00     0.049 A 
ATOM     65  H   UNL A   1      39.495  33.289  35.201  1.00  0.00     0.167 HD
ATOM     66  C   UNL A   1      42.114  33.153  31.610  1.00  0.00     0.037 A 
ATOM     67  C   UNL A   1      38.883  33.148  37.910  1.00  0.00     0.037 A 
ATOM     68  C   UNL A   1      42.975  32.967  32.749  1.00  0.00     0.049 A 
ATOM     69  C   UNL A   1      40.366  32.930  37.763  1.00  0.00     0.074 A 
ATOM     70  C   UNL A   1      44.348  32.809  32.776  1.00  0.00     0.029 A 
ATOM     71  N   UNL A   1      42.539  32.912  34.066  1.00  0.00    -0.354 N 
ATOM     72  N   UNL A   1      41.096  32.933  36.672  1.00  0.00    -0.248 NA
ATOM     73  C   UNL A   1      41.124  32.687  38.996  1.00  0.00     0.031 C 
ATOM     74  C   UNL A   1      44.737  32.605  34.104  1.00  0.00     0.029 A 
ATOM     75  C   UNL A   1      43.614  32.699  34.913  1.00  0.00     0.049 A 
ATOM     76  H   UNL A   1      41.604  33.010  34.357  1.00  0.00     0.167 HD
ATOM     77  C   UNL A   1      42.404  32.715  37.088  1.00  0.00     0.074 A 
ATOM     78  C   UNL A   1      42.364  32.614  38.534  1.00  0.00     0.031 C 
ATOM     79  C   UNL A   1      43.536  32.602  36.350  1.00  0.00     0.037 A 
BRANCH  66  80
ATOM     80  C   UNL A   1      42.728  33.172  30.238  1.00  0.00     0.058 A 
ATOM     81  C   UNL A   1      43.087  34.372  29.605  1.00  0.00     0.135 A 
ATOM     82  C   UNL A   1      43.013  31.970  29.569  1.00  0.00     0.135 A 
ATOM     83  F   UNL A   1      42.813  35.552  30.186  1.00  0.00    -0.206 F 
ATOM     84  C   UNL A   1      43.704  34.381  28.357  1.00  0.00     0.059 A 
ATOM     85  C   UNL A   1      43.654  31.954  28.334  1.00  0.00     0.059 A 
ATOM     86  F   UNL A   1      42.679  30.794  30.121  1.00  0.00    -0.206 F 
ATOM     87  C   UNL A   1      43.994  33.167  27.734  1.00  0.00     0.060 A 
BRANCH  87  88
ATOM     88  S   UNL A   1      44.841  33.197  26.141  1.00  0.00     0.124 S 
ATOM     89  O   UNL A   1      45.129  34.621  25.989  1.00  0.00    -0.237 OA
ATOM     90  O   UNL A   1      45.996  32.341  26.389  1.00  0.00    -0.237 OA
ATOM     91  O   UNL A   1      43.849  32.657  25.217  1.00  0.00    -0.744 OA
ENDBRANCH  87  88
ENDBRANCH  66  80
BRANCH  67  92
ATOM     92  C   UNL A   1      38.219  33.095  39.239  1.00  0.00     0.058 A 
ATOM     93  C   UNL A   1      37.451  31.990  39.631  1.00  0.00     0.135 A 
ATOM     94  C   UNL A   1      38.331  34.166  40.143  1.00  0.00     0.135 A 
ATOM     95  F   UNL A   1      37.315  30.942  38.805  1.00  0.00    -0.206 F 
ATOM     96  C   UNL A   1      36.787  31.961  40.854  1.00  0.00     0.059 A 
ATOM     97  C   UNL A   1      37.705  34.146  41.384  1.00  0.00     0.059 A 
ATOM     98  F   UNL A   1      39.072  35.239  39.828  1.00  0.00    -0.206 F 
ATOM     99  C   UNL A   1      36.918  33.046  41.722  1.00  0.00     0.060 A 
BRANCH  99 100
ATOM    100  S   UNL A   1      36.061  32.995  43.309  1.00  0.00     0.124 S 
ATOM    101  O   UNL A   1      37.179  32.923  44.242  1.00  0.00    -0.237 OA
ATOM    102  O   UNL A   1      35.316  34.249  43.296  1.00  0.00    -0.237 OA
ATOM    103  O   UNL A   1      35.243  31.788  43.209  1.00  0.00    -0.744 OA
ENDBRANCH  99 100
ENDBRANCH  67  92
BRANCH  79 104
ATOM    104  C   UNL A   1      44.819  32.384  37.104  1.00  0.00     0.058 A 
ATOM    105  C   UNL A   1      45.293  31.096  37.396  1.00  0.00     0.135 A 
ATOM    106  C   UNL A   1      45.591  33.479  37.522  1.00  0.00     0.135 A 
ATOM    107  F   UNL A   1      44.590  30.015  37.021  1.00  0.00    -0.206 F 
ATOM    108  C   UNL A   1      46.465  30.901  38.119  1.00  0.00     0.059 A 
ATOM    109  C   UNL A   1      46.784  33.308  38.214  1.00  0.00     0.059 A 
ATOM    110  F   UNL A   1      45.191  34.733  37.254  1.00  0.00    -0.206 F 
ATOM    111  C   UNL A   1      47.202  32.015  38.525  1.00  0.00     0.060 A 
BRANCH 111 112
ATOM    112  S   UNL A   1      48.721  31.748  39.462  1.00  0.00     0.124 S 
ATOM    113  O   UNL A   1      49.321  30.634  38.735  1.00  0.00    -0.237 OA
ATOM    114  O   UNL A   1      49.400  33.032  39.326  1.00  0.00    -0.237 OA
ATOM    115  O   UNL A   1      48.242  31.436  40.805  1.00  0.00    -0.744 OA
ENDBRANCH 111 112
ENDBRANCH  79 104
ENDBRANCH  53  54
ENDBRANCH  46  48
ENDBRANCH  45  46
ENDBRANCH  44  45
ENDBRANCH  43  44
ENDBRANCH  42  43
ENDBRANCH  41  42
ENDBRANCH  40  41
ENDBRANCH  39  40
ENDBRANCH   1  39
TORSDOF 30
ENDMDL
