MODEL 1
REMARK VINA RESULT:     -11.0      0.000      0.000
REMARK SMILES CC(C)(Cn1ccc2ccc([N+](=O)[O-])cc21)C(=O)OCCOCCOC(=O)c1ccc(-c2c3nc(c(-c4c(F)cc(S(=O)(=O)[O-])cc4F)c4ccc([nH]4)c(-c4c(F)cc(S(=O)(=O)[O-])cc4F)c4nc(c(-c5c(F)cc(S(=O)(=O)[O-])cc5F)c5ccc2[nH]5)C=C4)C=C3)cc1
REMARK SMILES IDX 22 1 21 2 20 3 19 4 17 5 18 6 2 7 1 8 3 9 4 10 5 11 6 12
REMARK SMILES IDX 16 13 7 14 8 15 15 16 9 17 11 18 10 19 12 20 13 21 14 22
REMARK SMILES IDX 23 23 24 24 25 25 26 26 27 27 28 28 29 29 93 30 30 31 92 32
REMARK SMILES IDX 31 33 32 34 33 35 86 36 34 37 91 38 85 39 87 40 35 41 90 42
REMARK SMILES IDX 84 43 83 44 36 46 70 47 49 48 69 49 50 50 53 51 68 52 88 53
REMARK SMILES IDX 51 54 52 55 67 57 89 58 54 59 37 60 38 61 47 62 39 63 40 64
REMARK SMILES IDX 46 65 48 66 41 67 42 68 43 69 44 70 45 71 71 72 72 73 81 74
REMARK SMILES IDX 73 75 74 76 80 77 82 78 75 79 76 80 77 81 78 82 79 83 55 84
REMARK SMILES IDX 56 85 65 86 57 87 58 88 64 89 66 90 59 91 60 92 61 93 62 94
REMARK SMILES IDX 63 95
REMARK H PARENT 87 45 53 56
REMARK Flexibility Score: inf
ROOT
ATOM      1  O   UNL A   1      32.643  29.068  27.349  1.00  0.00    -0.374 OA
ENDROOT
BRANCH   1   2
ATOM      2  C   UNL A   1      31.589  28.120  27.262  1.00  0.00     0.202 C 
BRANCH   2   3
ATOM      3  C   UNL A   1      31.828  26.784  26.541  1.00  0.00     0.261 C 
BRANCH   3   4
ATOM      4  O   UNL A   1      31.315  26.692  25.198  1.00  0.00    -0.463 OA
BRANCH   4   5
ATOM      5  C   UNL A   1      32.316  26.621  24.285  1.00  0.00     0.313 C 
ATOM      6  O   UNL A   1      33.276  27.390  24.288  1.00  0.00    -0.252 OA
BRANCH   5   7
ATOM      7  C   UNL A   1      32.136  25.565  23.194  1.00  0.00     0.080 C 
ATOM      8  C   UNL A   1      31.615  26.353  21.985  1.00  0.00     0.025 C 
ATOM      9  C   UNL A   1      30.974  24.661  23.667  1.00  0.00     0.025 C 
BRANCH   7  10
ATOM     10  C   UNL A   1      33.324  24.602  22.858  1.00  0.00     0.140 C 
BRANCH  10  11
ATOM     11  N   UNL A   1      34.119  23.853  23.828  1.00  0.00    -0.346 N 
ATOM     12  C   UNL A   1      35.060  24.479  24.630  1.00  0.00     0.087 A 
ATOM     13  C   UNL A   1      34.027  22.538  24.248  1.00  0.00     0.055 A 
ATOM     14  C   UNL A   1      35.772  23.510  25.298  1.00  0.00     0.028 A 
ATOM     15  C   UNL A   1      35.207  22.259  24.951  1.00  0.00     0.000 A 
ATOM     16  C   UNL A   1      33.058  21.540  24.085  1.00  0.00     0.112 A 
ATOM     17  C   UNL A   1      35.557  20.921  25.223  1.00  0.00     0.017 A 
ATOM     18  C   UNL A   1      33.430  20.210  24.336  1.00  0.00     0.271 A 
ATOM     19  C   UNL A   1      34.686  19.892  24.853  1.00  0.00     0.086 A 
BRANCH  18  20
ATOM     20  N   UNL A   1      32.478  19.136  24.020  1.00  0.00     0.062 N 
ATOM     21  O   UNL A   1      32.082  19.038  22.849  1.00  0.00    -0.258 OA
ATOM     22  O   UNL A   1      32.115  18.395  24.946  1.00  0.00    -0.258 OA
ENDBRANCH  18  20
ENDBRANCH  10  11
ENDBRANCH   7  10
ENDBRANCH   5   7
ENDBRANCH   4   5
ENDBRANCH   3   4
ENDBRANCH   2   3
ENDBRANCH   1   2
BRANCH   1  23
ATOM     23  C   UNL A   1      32.426  30.360  26.786  1.00  0.00     0.202 C 
BRANCH  23  24
ATOM     24  C   UNL A   1      33.342  31.508  27.240  1.00  0.00     0.261 C 
BRANCH  24  25
ATOM     25  O   UNL A   1      34.567  31.031  27.815  1.00  0.00    -0.460 OA
BRANCH  25  26
ATOM     26  C   UNL A   1      35.025  31.793  28.847  1.00  0.00     0.338 C 
ATOM     27  O   UNL A   1      34.404  32.630  29.479  1.00  0.00    -0.246 OA
BRANCH  26  28
ATOM     28  C   UNL A   1      36.237  31.098  29.317  1.00  0.00     0.060 A 
ATOM     29  C   UNL A   1      37.368  31.825  29.685  1.00  0.00     0.016 A 
ATOM     30  C   UNL A   1      36.315  29.729  29.010  1.00  0.00     0.016 A 
ATOM     31  C   UNL A   1      38.604  31.195  29.618  1.00  0.00     0.010 A 
ATOM     32  C   UNL A   1      37.559  29.120  28.896  1.00  0.00     0.010 A 
ATOM     33  C   UNL A   1      38.708  29.871  29.140  1.00  0.00    -0.014 A 
BRANCH  33  34
ATOM     34  C   UNL A   1      40.036  29.252  29.155  1.00  0.00     0.031 A 
ATOM     35  C   UNL A   1      40.524  29.110  30.550  1.00  0.00     0.074 A 
ATOM     36  C   UNL A   1      40.742  28.748  28.118  1.00  0.00     0.049 A 
ATOM     37  N   UNL A   1      41.477  29.766  31.123  1.00  0.00    -0.248 NA
ATOM     38  C   UNL A   1      39.696  28.315  31.471  1.00  0.00     0.031 C 
ATOM     39  C   UNL A   1      40.328  28.556  26.729  1.00  0.00     0.029 A 
ATOM     40  N   UNL A   1      42.005  28.221  28.123  1.00  0.00    -0.354 N 
ATOM     41  C   UNL A   1      41.512  29.294  32.431  1.00  0.00     0.074 A 
ATOM     42  C   UNL A   1      40.276  28.590  32.637  1.00  0.00     0.031 C 
ATOM     43  C   UNL A   1      41.229  27.768  26.091  1.00  0.00     0.029 A 
ATOM     44  C   UNL A   1      42.347  27.499  26.979  1.00  0.00     0.049 A 
ATOM     45  H   UNL A   1      42.627  28.343  28.877  1.00  0.00     0.167 HD
ATOM     46  C   UNL A   1      42.668  29.291  33.147  1.00  0.00     0.037 A 
ATOM     47  C   UNL A   1      43.442  26.707  26.802  1.00  0.00     0.037 A 
ATOM     48  C   UNL A   1      43.615  30.232  32.599  1.00  0.00     0.049 A 
ATOM     49  C   UNL A   1      44.456  27.140  27.798  1.00  0.00     0.074 A 
ATOM     50  C   UNL A   1      43.603  31.595  32.361  1.00  0.00     0.029 A 
ATOM     51  N   UNL A   1      44.660  29.738  31.857  1.00  0.00    -0.354 N 
ATOM     52  N   UNL A   1      45.059  28.296  27.766  1.00  0.00    -0.248 NA
ATOM     53  C   UNL A   1      44.470  26.462  29.084  1.00  0.00     0.031 C 
ATOM     54  C   UNL A   1      44.312  31.766  31.136  1.00  0.00     0.029 A 
ATOM     55  C   UNL A   1      44.768  30.512  30.730  1.00  0.00     0.049 A 
ATOM     56  H   UNL A   1      45.229  28.969  32.091  1.00  0.00     0.167 HD
ATOM     57  C   UNL A   1      45.144  28.686  29.093  1.00  0.00     0.074 A 
ATOM     58  C   UNL A   1      44.836  27.482  29.864  1.00  0.00     0.031 C 
ATOM     59  C   UNL A   1      45.180  30.004  29.441  1.00  0.00     0.037 A 
BRANCH  46  60
ATOM     60  C   UNL A   1      43.073  28.154  34.063  1.00  0.00     0.058 A 
ATOM     61  C   UNL A   1      43.327  28.435  35.421  1.00  0.00     0.135 A 
ATOM     62  C   UNL A   1      43.505  26.881  33.620  1.00  0.00     0.135 A 
ATOM     63  F   UNL A   1      42.950  29.605  35.961  1.00  0.00    -0.206 F 
ATOM     64  C   UNL A   1      44.053  27.570  36.239  1.00  0.00     0.059 A 
ATOM     65  C   UNL A   1      44.182  25.983  34.434  1.00  0.00     0.059 A 
ATOM     66  F   UNL A   1      43.382  26.465  32.356  1.00  0.00    -0.206 F 
ATOM     67  C   UNL A   1      44.496  26.356  35.726  1.00  0.00     0.060 A 
BRANCH  67  68
ATOM     68  S   UNL A   1      45.545  25.296  36.732  1.00  0.00     0.124 S 
ATOM     69  O   UNL A   1      45.074  23.972  36.340  1.00  0.00    -0.237 OA
ATOM     70  O   UNL A   1      46.877  25.669  36.269  1.00  0.00    -0.237 OA
ATOM     71  O   UNL A   1      45.223  25.703  38.097  1.00  0.00    -0.744 OA
ENDBRANCH  67  68
ENDBRANCH  46  60
BRANCH  47  72
ATOM     72  C   UNL A   1      43.566  25.401  26.084  1.00  0.00     0.058 A 
ATOM     73  C   UNL A   1      44.667  25.124  25.244  1.00  0.00     0.135 A 
ATOM     74  C   UNL A   1      42.782  24.289  26.445  1.00  0.00     0.135 A 
ATOM     75  F   UNL A   1      45.485  26.114  24.855  1.00  0.00    -0.206 F 
ATOM     76  C   UNL A   1      45.003  23.823  24.843  1.00  0.00     0.059 A 
ATOM     77  C   UNL A   1      43.091  22.984  26.052  1.00  0.00     0.059 A 
ATOM     78  F   UNL A   1      41.737  24.422  27.274  1.00  0.00    -0.206 F 
ATOM     79  C   UNL A   1      44.220  22.753  25.275  1.00  0.00     0.060 A 
BRANCH  79  80
ATOM     80  S   UNL A   1      44.748  21.057  24.921  1.00  0.00     0.124 S 
ATOM     81  O   UNL A   1      43.793  20.273  25.697  1.00  0.00    -0.237 OA
ATOM     82  O   UNL A   1      44.603  20.984  23.471  1.00  0.00    -0.237 OA
ATOM     83  O   UNL A   1      46.124  21.021  25.410  1.00  0.00    -0.744 OA
ENDBRANCH  79  80
ENDBRANCH  47  72
BRANCH  59  84
ATOM     84  C   UNL A   1      45.442  31.028  28.366  1.00  0.00     0.058 A 
ATOM     85  C   UNL A   1      44.466  31.531  27.487  1.00  0.00     0.135 A 
ATOM     86  C   UNL A   1      46.699  31.652  28.352  1.00  0.00     0.135 A 
ATOM     87  F   UNL A   1      43.212  31.055  27.501  1.00  0.00    -0.206 F 
ATOM     88  C   UNL A   1      44.735  32.594  26.622  1.00  0.00     0.059 A 
ATOM     89  C   UNL A   1      46.979  32.733  27.523  1.00  0.00     0.059 A 
ATOM     90  F   UNL A   1      47.656  31.253  29.206  1.00  0.00    -0.206 F 
ATOM     91  C   UNL A   1      45.993  33.198  26.657  1.00  0.00     0.060 A 
BRANCH  91  92
ATOM     92  S   UNL A   1      46.303  34.651  25.629  1.00  0.00     0.124 S 
ATOM     93  O   UNL A   1      45.991  35.747  26.540  1.00  0.00    -0.237 OA
ATOM     94  O   UNL A   1      47.713  34.494  25.281  1.00  0.00    -0.237 OA
ATOM     95  O   UNL A   1      45.375  34.484  24.513  1.00  0.00    -0.744 OA
ENDBRANCH  91  92
ENDBRANCH  59  84
ENDBRANCH  33  34
ENDBRANCH  26  28
ENDBRANCH  25  26
ENDBRANCH  24  25
ENDBRANCH  23  24
ENDBRANCH   1  23
TORSDOF 20
ENDMDL
MODEL 2
REMARK VINA RESULT:     -10.9      2.895      9.161
REMARK SMILES CC(C)(Cn1ccc2ccc([N+](=O)[O-])cc21)C(=O)OCCOCCOC(=O)c1ccc(-c2c3nc(c(-c4c(F)cc(S(=O)(=O)[O-])cc4F)c4ccc([nH]4)c(-c4c(F)cc(S(=O)(=O)[O-])cc4F)c4nc(c(-c5c(F)cc(S(=O)(=O)[O-])cc5F)c5ccc2[nH]5)C=C4)C=C3)cc1
REMARK SMILES IDX 22 1 21 2 20 3 19 4 17 5 18 6 2 7 1 8 3 9 4 10 5 11 6 12
REMARK SMILES IDX 16 13 7 14 8 15 15 16 9 17 11 18 10 19 12 20 13 21 14 22
REMARK SMILES IDX 23 23 24 24 25 25 26 26 27 27 28 28 29 29 93 30 30 31 92 32
REMARK SMILES IDX 31 33 32 34 33 35 86 36 34 37 91 38 85 39 87 40 35 41 90 42
REMARK SMILES IDX 84 43 83 44 36 46 70 47 49 48 69 49 50 50 53 51 68 52 88 53
REMARK SMILES IDX 51 54 52 55 67 57 89 58 54 59 37 60 38 61 47 62 39 63 40 64
REMARK SMILES IDX 46 65 48 66 41 67 42 68 43 69 44 70 45 71 71 72 72 73 81 74
REMARK SMILES IDX 73 75 74 76 80 77 82 78 75 79 76 80 77 81 78 82 79 83 55 84
REMARK SMILES IDX 56 85 65 86 57 87 58 88 64 89 66 90 59 91 60 92 61 93 62 94
REMARK SMILES IDX 63 95
REMARK H PARENT 87 45 53 56
REMARK Flexibility Score: inf
ROOT
ATOM      1  O   UNL A   1      37.478  22.445  25.405  1.00  0.00    -0.374 OA
ENDROOT
BRANCH   1   2
ATOM      2  C   UNL A   1      36.169  22.494  24.857  1.00  0.00     0.202 C 
BRANCH   2   3
ATOM      3  C   UNL A   1      35.567  23.848  24.453  1.00  0.00     0.261 C 
BRANCH   3   4
ATOM      4  O   UNL A   1      34.969  23.907  23.143  1.00  0.00    -0.463 OA
BRANCH   4   5
ATOM      5  C   UNL A   1      33.929  24.778  23.108  1.00  0.00     0.313 C 
ATOM      6  O   UNL A   1      33.960  25.876  23.660  1.00  0.00    -0.252 OA
BRANCH   5   7
ATOM      7  C   UNL A   1      32.672  24.272  22.397  1.00  0.00     0.080 C 
ATOM      8  C   UNL A   1      33.192  23.682  21.081  1.00  0.00     0.025 C 
ATOM      9  C   UNL A   1      31.860  25.535  22.024  1.00  0.00     0.025 C 
BRANCH   7  10
ATOM     10  C   UNL A   1      31.683  23.333  23.167  1.00  0.00     0.140 C 
BRANCH  10  11
ATOM     11  N   UNL A   1      32.030  22.457  24.283  1.00  0.00    -0.346 N 
ATOM     12  C   UNL A   1      31.955  22.893  25.596  1.00  0.00     0.087 A 
ATOM     13  C   UNL A   1      32.321  21.104  24.313  1.00  0.00     0.055 A 
ATOM     14  C   UNL A   1      32.513  21.929  26.404  1.00  0.00     0.028 A 
ATOM     15  C   UNL A   1      32.875  20.842  25.573  1.00  0.00     0.000 A 
ATOM     16  C   UNL A   1      32.185  20.068  23.380  1.00  0.00     0.112 A 
ATOM     17  C   UNL A   1      33.567  19.633  25.794  1.00  0.00     0.017 A 
ATOM     18  C   UNL A   1      32.900  18.882  23.601  1.00  0.00     0.271 A 
ATOM     19  C   UNL A   1      33.628  18.680  24.774  1.00  0.00     0.086 A 
BRANCH  18  20
ATOM     20  N   UNL A   1      32.896  17.846  22.558  1.00  0.00     0.062 N 
ATOM     21  O   UNL A   1      32.041  17.926  21.664  1.00  0.00    -0.258 OA
ATOM     22  O   UNL A   1      33.742  16.942  22.638  1.00  0.00    -0.258 OA
ENDBRANCH  18  20
ENDBRANCH  10  11
ENDBRANCH   7  10
ENDBRANCH   5   7
ENDBRANCH   4   5
ENDBRANCH   3   4
ENDBRANCH   2   3
ENDBRANCH   1   2
BRANCH   1  23
ATOM     23  C   UNL A   1      38.164  21.194  25.383  1.00  0.00     0.202 C 
BRANCH  23  24
ATOM     24  C   UNL A   1      39.543  21.116  26.058  1.00  0.00     0.261 C 
BRANCH  24  25
ATOM     25  O   UNL A   1      40.017  22.403  26.478  1.00  0.00    -0.460 OA
BRANCH  25  26
ATOM     26  C   UNL A   1      41.299  22.668  26.103  1.00  0.00     0.338 C 
ATOM     27  O   UNL A   1      41.974  22.052  25.296  1.00  0.00    -0.246 OA
BRANCH  26  28
ATOM     28  C   UNL A   1      41.530  24.063  26.518  1.00  0.00     0.060 A 
ATOM     29  C   UNL A   1      42.585  24.378  27.373  1.00  0.00     0.016 A 
ATOM     30  C   UNL A   1      40.450  24.943  26.332  1.00  0.00     0.016 A 
ATOM     31  C   UNL A   1      42.485  25.531  28.142  1.00  0.00     0.010 A 
ATOM     32  C   UNL A   1      40.334  26.068  27.141  1.00  0.00     0.010 A 
ATOM     33  C   UNL A   1      41.322  26.329  28.090  1.00  0.00    -0.014 A 
BRANCH  33  34
ATOM     34  C   UNL A   1      41.313  27.561  28.882  1.00  0.00     0.031 A 
ATOM     35  C   UNL A   1      42.407  28.465  28.443  1.00  0.00     0.074 A 
ATOM     36  C   UNL A   1      40.419  27.956  29.815  1.00  0.00     0.049 A 
ATOM     37  N   UNL A   1      43.487  28.765  29.082  1.00  0.00    -0.248 NA
ATOM     38  C   UNL A   1      42.398  28.888  27.033  1.00  0.00     0.031 C 
ATOM     39  C   UNL A   1      39.149  27.338  30.193  1.00  0.00     0.029 A 
ATOM     40  N   UNL A   1      40.441  29.081  30.596  1.00  0.00    -0.354 N 
ATOM     41  C   UNL A   1      44.194  29.608  28.230  1.00  0.00     0.074 A 
ATOM     42  C   UNL A   1      43.594  29.462  26.932  1.00  0.00     0.031 C 
ATOM     43  C   UNL A   1      38.434  28.200  30.959  1.00  0.00     0.029 A 
ATOM     44  C   UNL A   1      39.237  29.379  31.233  1.00  0.00     0.049 A 
ATOM     45  H   UNL A   1      41.248  29.637  30.699  1.00  0.00     0.167 HD
ATOM     46  C   UNL A   1      45.039  30.554  28.720  1.00  0.00     0.037 A 
ATOM     47  C   UNL A   1      38.918  30.528  31.894  1.00  0.00     0.037 A 
ATOM     48  C   UNL A   1      45.448  30.232  30.065  1.00  0.00     0.049 A 
ATOM     49  C   UNL A   1      40.199  31.181  32.272  1.00  0.00     0.074 A 
ATOM     50  C   UNL A   1      46.089  29.157  30.655  1.00  0.00     0.029 A 
ATOM     51  N   UNL A   1      44.871  30.929  31.100  1.00  0.00    -0.354 N 
ATOM     52  N   UNL A   1      41.033  30.692  33.147  1.00  0.00    -0.248 NA
ATOM     53  C   UNL A   1      40.759  32.151  31.345  1.00  0.00     0.031 C 
ATOM     54  C   UNL A   1      45.461  29.000  31.926  1.00  0.00     0.029 A 
ATOM     55  C   UNL A   1      44.520  30.021  32.064  1.00  0.00     0.049 A 
ATOM     56  H   UNL A   1      44.734  31.904  31.141  1.00  0.00     0.167 HD
ATOM     57  C   UNL A   1      42.288  30.951  32.619  1.00  0.00     0.074 A 
ATOM     58  C   UNL A   1      42.059  31.920  31.549  1.00  0.00     0.031 C 
ATOM     59  C   UNL A   1      43.355  30.153  32.910  1.00  0.00     0.037 A 
BRANCH  46  60
ATOM     60  C   UNL A   1      45.148  31.948  28.136  1.00  0.00     0.058 A 
ATOM     61  C   UNL A   1      46.409  32.402  27.695  1.00  0.00     0.135 A 
ATOM     62  C   UNL A   1      44.158  32.952  28.261  1.00  0.00     0.135 A 
ATOM     63  F   UNL A   1      47.425  31.541  27.523  1.00  0.00    -0.206 F 
ATOM     64  C   UNL A   1      46.692  33.754  27.505  1.00  0.00     0.059 A 
ATOM     65  C   UNL A   1      44.405  34.297  28.025  1.00  0.00     0.059 A 
ATOM     66  F   UNL A   1      42.921  32.707  28.705  1.00  0.00    -0.206 F 
ATOM     67  C   UNL A   1      45.687  34.695  27.697  1.00  0.00     0.060 A 
BRANCH  67  68
ATOM     68  S   UNL A   1      46.077  36.447  27.585  1.00  0.00     0.124 S 
ATOM     69  O   UNL A   1      46.099  36.826  28.993  1.00  0.00    -0.237 OA
ATOM     70  O   UNL A   1      47.367  36.422  26.904  1.00  0.00    -0.237 OA
ATOM     71  O   UNL A   1      44.969  36.988  26.802  1.00  0.00    -0.744 OA
ENDBRANCH  67  68
ENDBRANCH  46  60
BRANCH  47  72
ATOM     72  C   UNL A   1      37.624  31.276  31.933  1.00  0.00     0.058 A 
ATOM     73  C   UNL A   1      37.013  31.628  33.156  1.00  0.00     0.135 A 
ATOM     74  C   UNL A   1      37.121  31.929  30.792  1.00  0.00     0.135 A 
ATOM     75  F   UNL A   1      37.430  31.072  34.304  1.00  0.00    -0.206 F 
ATOM     76  C   UNL A   1      36.015  32.609  33.248  1.00  0.00     0.059 A 
ATOM     77  C   UNL A   1      36.122  32.904  30.856  1.00  0.00     0.059 A 
ATOM     78  F   UNL A   1      37.652  31.709  29.581  1.00  0.00    -0.206 F 
ATOM     79  C   UNL A   1      35.593  33.262  32.091  1.00  0.00     0.060 A 
BRANCH  79  80
ATOM     80  S   UNL A   1      34.445  34.656  32.217  1.00  0.00     0.124 S 
ATOM     81  O   UNL A   1      34.164  34.948  30.816  1.00  0.00    -0.237 OA
ATOM     82  O   UNL A   1      33.343  34.082  32.982  1.00  0.00    -0.237 OA
ATOM     83  O   UNL A   1      35.223  35.674  32.921  1.00  0.00    -0.744 OA
ENDBRANCH  79  80
ENDBRANCH  47  72
BRANCH  59  84
ATOM     84  C   UNL A   1      43.236  29.173  34.050  1.00  0.00     0.058 A 
ATOM     85  C   UNL A   1      43.427  29.497  35.405  1.00  0.00     0.135 A 
ATOM     86  C   UNL A   1      42.731  27.896  33.761  1.00  0.00     0.135 A 
ATOM     87  F   UNL A   1      43.818  30.726  35.773  1.00  0.00    -0.206 F 
ATOM     88  C   UNL A   1      43.144  28.584  36.424  1.00  0.00     0.059 A 
ATOM     89  C   UNL A   1      42.412  26.984  34.761  1.00  0.00     0.059 A 
ATOM     90  F   UNL A   1      42.476  27.546  32.489  1.00  0.00    -0.206 F 
ATOM     91  C   UNL A   1      42.624  27.333  36.092  1.00  0.00     0.060 A 
BRANCH  91  92
ATOM     92  S   UNL A   1      42.142  26.199  37.413  1.00  0.00     0.124 S 
ATOM     93  O   UNL A   1      42.322  24.895  36.783  1.00  0.00    -0.237 OA
ATOM     94  O   UNL A   1      43.091  26.530  38.472  1.00  0.00    -0.237 OA
ATOM     95  O   UNL A   1      40.757  26.570  37.694  1.00  0.00    -0.744 OA
ENDBRANCH  91  92
ENDBRANCH  59  84
ENDBRANCH  33  34
ENDBRANCH  26  28
ENDBRANCH  25  26
ENDBRANCH  24  25
ENDBRANCH  23  24
ENDBRANCH   1  23
TORSDOF 20
ENDMDL
MODEL 3
REMARK VINA RESULT:     -10.5      2.849      9.598
REMARK SMILES CC(C)(Cn1ccc2ccc([N+](=O)[O-])cc21)C(=O)OCCOCCOC(=O)c1ccc(-c2c3nc(c(-c4c(F)cc(S(=O)(=O)[O-])cc4F)c4ccc([nH]4)c(-c4c(F)cc(S(=O)(=O)[O-])cc4F)c4nc(c(-c5c(F)cc(S(=O)(=O)[O-])cc5F)c5ccc2[nH]5)C=C4)C=C3)cc1
REMARK SMILES IDX 22 1 21 2 20 3 19 4 17 5 18 6 2 7 1 8 3 9 4 10 5 11 6 12
REMARK SMILES IDX 16 13 7 14 8 15 15 16 9 17 11 18 10 19 12 20 13 21 14 22
REMARK SMILES IDX 23 23 24 24 25 25 26 26 27 27 28 28 29 29 93 30 30 31 92 32
REMARK SMILES IDX 31 33 32 34 33 35 86 36 34 37 91 38 85 39 87 40 35 41 90 42
REMARK SMILES IDX 84 43 83 44 36 46 70 47 49 48 69 49 50 50 53 51 68 52 88 53
REMARK SMILES IDX 51 54 52 55 67 57 89 58 54 59 37 60 38 61 47 62 39 63 40 64
REMARK SMILES IDX 46 65 48 66 41 67 42 68 43 69 44 70 45 71 71 72 72 73 81 74
REMARK SMILES IDX 73 75 74 76 80 77 82 78 75 79 76 80 77 81 78 82 79 83 55 84
REMARK SMILES IDX 56 85 65 86 57 87 58 88 64 89 66 90 59 91 60 92 61 93 62 94
REMARK SMILES IDX 63 95
REMARK H PARENT 87 45 53 56
REMARK Flexibility Score: inf
ROOT
ATOM      1  O   UNL A   1      39.388  21.635  26.491  1.00  0.00    -0.374 OA
ENDROOT
BRANCH   1   2
ATOM      2  C   UNL A   1      38.458  21.828  25.435  1.00  0.00     0.202 C 
BRANCH   2   3
ATOM      3  C   UNL A   1      37.258  20.878  25.299  1.00  0.00     0.261 C 
BRANCH   3   4
ATOM      4  O   UNL A   1      36.028  21.326  25.902  1.00  0.00    -0.463 OA
BRANCH   4   5
ATOM      5  C   UNL A   1      34.955  20.664  25.398  1.00  0.00     0.313 C 
ATOM      6  O   UNL A   1      35.061  19.692  24.654  1.00  0.00    -0.252 OA
BRANCH   5   7
ATOM      7  C   UNL A   1      33.591  21.258  25.754  1.00  0.00     0.080 C 
ATOM      8  C   UNL A   1      33.621  21.390  27.281  1.00  0.00     0.025 C 
ATOM      9  C   UNL A   1      32.553  20.159  25.425  1.00  0.00     0.025 C 
BRANCH   7  10
ATOM     10  C   UNL A   1      33.103  22.549  25.015  1.00  0.00     0.140 C 
BRANCH  10  11
ATOM     11  N   UNL A   1      32.073  23.470  25.492  1.00  0.00    -0.346 N 
ATOM     12  C   UNL A   1      31.035  23.038  26.302  1.00  0.00     0.087 A 
ATOM     13  C   UNL A   1      31.981  24.848  25.401  1.00  0.00     0.055 A 
ATOM     14  C   UNL A   1      30.132  24.068  26.433  1.00  0.00     0.028 A 
ATOM     15  C   UNL A   1      30.665  25.184  25.744  1.00  0.00     0.000 A 
ATOM     16  C   UNL A   1      32.889  25.853  25.042  1.00  0.00     0.112 A 
ATOM     17  C   UNL A   1      30.171  26.469  25.437  1.00  0.00     0.017 A 
ATOM     18  C   UNL A   1      32.379  27.118  24.715  1.00  0.00     0.271 A 
ATOM     19  C   UNL A   1      31.023  27.415  24.861  1.00  0.00     0.086 A 
BRANCH  18  20
ATOM     20  N   UNL A   1      33.294  28.137  24.184  1.00  0.00     0.062 N 
ATOM     21  O   UNL A   1      33.223  29.282  24.655  1.00  0.00    -0.258 OA
ATOM     22  O   UNL A   1      34.079  27.798  23.286  1.00  0.00    -0.258 OA
ENDBRANCH  18  20
ENDBRANCH  10  11
ENDBRANCH   7  10
ENDBRANCH   5   7
ENDBRANCH   4   5
ENDBRANCH   3   4
ENDBRANCH   2   3
ENDBRANCH   1   2
BRANCH   1  23
ATOM     23  C   UNL A   1      40.514  20.795  26.241  1.00  0.00     0.202 C 
BRANCH  23  24
ATOM     24  C   UNL A   1      41.885  21.465  26.052  1.00  0.00     0.261 C 
BRANCH  24  25
ATOM     25  O   UNL A   1      41.780  22.888  25.906  1.00  0.00    -0.460 OA
BRANCH  25  26
ATOM     26  C   UNL A   1      42.878  23.468  25.348  1.00  0.00     0.338 C 
ATOM     27  O   UNL A   1      43.469  23.114  24.343  1.00  0.00    -0.246 OA
BRANCH  26  28
ATOM     28  C   UNL A   1      42.924  24.821  25.930  1.00  0.00     0.060 A 
ATOM     29  C   UNL A   1      43.474  25.025  27.195  1.00  0.00     0.016 A 
ATOM     30  C   UNL A   1      42.070  25.770  25.341  1.00  0.00     0.016 A 
ATOM     31  C   UNL A   1      43.058  26.134  27.921  1.00  0.00     0.010 A 
ATOM     32  C   UNL A   1      41.620  26.849  26.093  1.00  0.00     0.010 A 
ATOM     33  C   UNL A   1      42.067  26.997  27.405  1.00  0.00    -0.014 A 
BRANCH  33  34
ATOM     34  C   UNL A   1      41.722  28.179  28.200  1.00  0.00     0.031 A 
ATOM     35  C   UNL A   1      42.800  29.197  28.106  1.00  0.00     0.074 A 
ATOM     36  C   UNL A   1      40.574  28.443  28.862  1.00  0.00     0.049 A 
ATOM     37  N   UNL A   1      43.631  29.554  29.026  1.00  0.00    -0.248 NA
ATOM     38  C   UNL A   1      43.132  29.695  26.761  1.00  0.00     0.031 C 
ATOM     39  C   UNL A   1      39.316  27.698  28.857  1.00  0.00     0.029 A 
ATOM     40  N   UNL A   1      40.273  29.521  29.651  1.00  0.00    -0.354 N 
ATOM     41  C   UNL A   1      44.456  30.500  28.427  1.00  0.00     0.074 A 
ATOM     42  C   UNL A   1      44.249  30.375  27.010  1.00  0.00     0.031 C 
ATOM     43  C   UNL A   1      38.339  28.451  29.421  1.00  0.00     0.029 A 
ATOM     44  C   UNL A   1      38.917  29.679  29.940  1.00  0.00     0.049 A 
ATOM     45  H   UNL A   1      40.962  30.139  29.988  1.00  0.00     0.167 HD
ATOM     46  C   UNL A   1      45.039  31.488  29.158  1.00  0.00     0.037 A 
ATOM     47  C   UNL A   1      38.320  30.758  30.520  1.00  0.00     0.037 A 
ATOM     48  C   UNL A   1      45.097  31.129  30.554  1.00  0.00     0.049 A 
ATOM     49  C   UNL A   1      39.379  31.497  31.255  1.00  0.00     0.074 A 
ATOM     50  C   UNL A   1      45.656  30.083  31.266  1.00  0.00     0.029 A 
ATOM     51  N   UNL A   1      44.195  31.716  31.409  1.00  0.00    -0.354 N 
ATOM     52  N   UNL A   1      39.988  31.036  32.312  1.00  0.00    -0.248 NA
ATOM     53  C   UNL A   1      40.071  32.562  30.548  1.00  0.00     0.031 C 
ATOM     54  C   UNL A   1      44.725  29.802  32.309  1.00  0.00     0.029 A 
ATOM     55  C   UNL A   1      43.686  30.729  32.213  1.00  0.00     0.049 A 
ATOM     56  H   UNL A   1      43.957  32.671  31.440  1.00  0.00     0.167 HD
ATOM     57  C   UNL A   1      41.307  31.431  32.158  1.00  0.00     0.074 A 
ATOM     58  C   UNL A   1      41.283  32.434  31.094  1.00  0.00     0.031 C 
ATOM     59  C   UNL A   1      42.329  30.713  32.709  1.00  0.00     0.037 A 
BRANCH  46  60
ATOM     60  C   UNL A   1      45.165  32.916  28.668  1.00  0.00     0.058 A 
ATOM     61  C   UNL A   1      46.442  33.515  28.646  1.00  0.00     0.135 A 
ATOM     62  C   UNL A   1      44.079  33.808  28.504  1.00  0.00     0.135 A 
ATOM     63  F   UNL A   1      47.551  32.770  28.777  1.00  0.00    -0.206 F 
ATOM     64  C   UNL A   1      46.617  34.897  28.584  1.00  0.00     0.059 A 
ATOM     65  C   UNL A   1      44.235  35.182  28.386  1.00  0.00     0.059 A 
ATOM     66  F   UNL A   1      42.801  33.419  28.540  1.00  0.00    -0.206 F 
ATOM     67  C   UNL A   1      45.503  35.723  28.478  1.00  0.00     0.060 A 
BRANCH  67  68
ATOM     68  S   UNL A   1      45.712  37.508  28.530  1.00  0.00     0.124 S 
ATOM     69  O   UNL A   1      44.665  37.892  29.470  1.00  0.00    -0.237 OA
ATOM     70  O   UNL A   1      47.084  37.634  29.009  1.00  0.00    -0.237 OA
ATOM     71  O   UNL A   1      45.496  37.912  27.144  1.00  0.00    -0.744 OA
ENDBRANCH  67  68
ENDBRANCH  46  60
BRANCH  47  72
ATOM     72  C   UNL A   1      36.997  31.388  30.223  1.00  0.00     0.058 A 
ATOM     73  C   UNL A   1      36.242  32.028  31.231  1.00  0.00     0.135 A 
ATOM     74  C   UNL A   1      36.590  31.648  28.901  1.00  0.00     0.135 A 
ATOM     75  F   UNL A   1      36.558  31.856  32.523  1.00  0.00    -0.206 F 
ATOM     76  C   UNL A   1      35.197  32.918  30.941  1.00  0.00     0.059 A 
ATOM     77  C   UNL A   1      35.548  32.525  28.587  1.00  0.00     0.059 A 
ATOM     78  F   UNL A   1      37.258  31.132  27.859  1.00  0.00    -0.206 F 
ATOM     79  C   UNL A   1      34.873  33.180  29.611  1.00  0.00     0.060 A 
BRANCH  79  80
ATOM     80  S   UNL A   1      33.657  34.464  29.222  1.00  0.00     0.124 S 
ATOM     81  O   UNL A   1      33.053  34.717  30.526  1.00  0.00    -0.237 OA
ATOM     82  O   UNL A   1      34.495  35.533  28.689  1.00  0.00    -0.237 OA
ATOM     83  O   UNL A   1      32.782  33.817  28.246  1.00  0.00    -0.744 OA
ENDBRANCH  79  80
ENDBRANCH  47  72
BRANCH  59  84
ATOM     84  C   UNL A   1      42.001  29.666  33.742  1.00  0.00     0.058 A 
ATOM     85  C   UNL A   1      41.573  28.359  33.448  1.00  0.00     0.135 A 
ATOM     86  C   UNL A   1      42.308  29.953  35.081  1.00  0.00     0.135 A 
ATOM     87  F   UNL A   1      41.348  27.974  32.183  1.00  0.00    -0.206 F 
ATOM     88  C   UNL A   1      41.441  27.388  34.444  1.00  0.00     0.059 A 
ATOM     89  C   UNL A   1      42.216  28.994  36.084  1.00  0.00     0.059 A 
ATOM     90  F   UNL A   1      42.773  31.168  35.418  1.00  0.00    -0.206 F 
ATOM     91  C   UNL A   1      41.778  27.713  35.759  1.00  0.00     0.060 A 
BRANCH  91  92
ATOM     92  S   UNL A   1      41.726  26.425  37.026  1.00  0.00     0.124 S 
ATOM     93  O   UNL A   1      42.882  26.759  37.852  1.00  0.00    -0.237 OA
ATOM     94  O   UNL A   1      40.420  26.643  37.641  1.00  0.00    -0.237 OA
ATOM     95  O   UNL A   1      41.844  25.187  36.260  1.00  0.00    -0.744 OA
ENDBRANCH  91  92
ENDBRANCH  59  84
ENDBRANCH  33  34
ENDBRANCH  26  28
ENDBRANCH  25  26
ENDBRANCH  24  25
ENDBRANCH  23  24
ENDBRANCH   1  23
TORSDOF 20
ENDMDL
