MODEL 1
REMARK VINA RESULT:     -10.4      0.000      0.000
REMARK SMILES O=C(C[C@H](c1ccsc1)n1cccc1)OCCOCCOC(=O)c1ccc(-c2c3nc(c(-c4c(F)cc(S(=O)(=O)[O-])cc4F)c4ccc([nH]4)c(-c4c(F)cc(S(=O)(=O)[O-])cc4F)c4nc(c(-c5c(F)cc(S(=O)(=O)[O-])cc5F)c5ccc2[nH]5)C=C4)C=C3)cc1
REMARK SMILES IDX 19 1 18 2 17 3 16 4 15 5 2 6 1 7 3 8 4 9 10 10 11 11 14 12
REMARK SMILES IDX 12 13 13 14 5 15 6 16 9 17 7 18 8 19 20 20 21 21 22 22 23 23
REMARK SMILES IDX 24 24 25 25 89 26 26 27 88 28 27 29 28 30 29 31 82 32 30 33
REMARK SMILES IDX 87 34 81 35 83 36 31 37 86 38 80 39 79 40 32 42 66 43 45 44
REMARK SMILES IDX 65 45 46 46 49 47 64 48 84 49 47 50 48 51 63 53 85 54 50 55
REMARK SMILES IDX 33 56 34 57 43 58 35 59 36 60 42 61 44 62 37 63 38 64 39 65
REMARK SMILES IDX 40 66 41 67 67 68 68 69 77 70 69 71 70 72 76 73 78 74 71 75
REMARK SMILES IDX 72 76 73 77 74 78 75 79 51 80 52 81 61 82 53 83 54 84 60 85
REMARK SMILES IDX 62 86 55 87 56 88 57 89 58 90 59 91
REMARK H PARENT 83 41 49 52
REMARK Flexibility Score: inf
ROOT
ATOM      1  C   UNL A   1      33.779  31.477  27.717  1.00  0.00     0.202 C 
ENDROOT
BRANCH   1   2
ATOM      2  O   UNL A   1      33.530  30.342  26.879  1.00  0.00    -0.374 OA
BRANCH   2   3
ATOM      3  C   UNL A   1      32.303  29.626  27.000  1.00  0.00     0.202 C 
BRANCH   3   4
ATOM      4  C   UNL A   1      32.349  28.149  27.365  1.00  0.00     0.261 C 
BRANCH   4   5
ATOM      5  O   UNL A   1      31.243  27.356  26.914  1.00  0.00    -0.463 OA
BRANCH   5   6
ATOM      6  C   UNL A   1      31.310  26.073  26.500  1.00  0.00     0.308 C 
ATOM      7  O   UNL A   1      30.324  25.346  26.611  1.00  0.00    -0.252 OA
BRANCH   6   8
ATOM      8  C   UNL A   1      32.611  25.518  25.988  1.00  0.00     0.153 C 
BRANCH   8   9
ATOM      9  C   UNL A   1      32.428  24.488  24.896  1.00  0.00     0.128 C 
BRANCH   9  10
ATOM     10  N   UNL A   1      32.537  25.137  23.575  1.00  0.00    -0.346 N 
ATOM     11  C   UNL A   1      33.597  25.864  23.092  1.00  0.00     0.086 A 
ATOM     12  C   UNL A   1      31.442  25.375  22.766  1.00  0.00     0.086 A 
ATOM     13  C   UNL A   1      33.195  26.504  21.938  1.00  0.00     0.019 A 
ATOM     14  C   UNL A   1      31.831  26.200  21.735  1.00  0.00     0.019 A 
ENDBRANCH   9  10
BRANCH   9  15
ATOM     15  C   UNL A   1      33.298  23.291  25.149  1.00  0.00    -0.014 A 
ATOM     16  C   UNL A   1      33.601  22.254  24.207  1.00  0.00     0.017 A 
ATOM     17  C   UNL A   1      34.118  23.193  26.263  1.00  0.00     0.070 A 
ATOM     18  C   UNL A   1      34.650  21.463  24.615  1.00  0.00     0.065 A 
ATOM     19  S   UNL A   1      35.234  21.906  26.155  1.00  0.00    -0.152 S 
ENDBRANCH   9  15
ENDBRANCH   8   9
ENDBRANCH   6   8
ENDBRANCH   5   6
ENDBRANCH   4   5
ENDBRANCH   3   4
ENDBRANCH   2   3
ENDBRANCH   1   2
BRANCH   1  20
ATOM     20  C   UNL A   1      32.777  32.601  27.676  1.00  0.00     0.261 C 
BRANCH  20  21
ATOM     21  O   UNL A   1      33.469  33.817  27.524  1.00  0.00    -0.460 OA
BRANCH  21  22
ATOM     22  C   UNL A   1      33.234  34.650  28.560  1.00  0.00     0.338 C 
ATOM     23  O   UNL A   1      32.334  35.452  28.708  1.00  0.00    -0.246 OA
BRANCH  22  24
ATOM     24  C   UNL A   1      34.375  34.559  29.444  1.00  0.00     0.060 A 
ATOM     25  C   UNL A   1      35.615  34.654  28.816  1.00  0.00     0.016 A 
ATOM     26  C   UNL A   1      34.140  33.879  30.645  1.00  0.00     0.016 A 
ATOM     27  C   UNL A   1      36.615  33.867  29.311  1.00  0.00     0.010 A 
ATOM     28  C   UNL A   1      35.101  33.017  31.075  1.00  0.00     0.010 A 
ATOM     29  C   UNL A   1      36.319  33.026  30.395  1.00  0.00    -0.014 A 
BRANCH  29  30
ATOM     30  C   UNL A   1      37.431  32.323  30.996  1.00  0.00     0.031 A 
ATOM     31  C   UNL A   1      37.680  31.058  30.151  1.00  0.00     0.074 A 
ATOM     32  C   UNL A   1      37.893  32.881  32.154  1.00  0.00     0.049 A 
ATOM     33  N   UNL A   1      38.015  29.874  30.539  1.00  0.00    -0.248 NA
ATOM     34  C   UNL A   1      37.368  31.051  28.682  1.00  0.00     0.031 C 
ATOM     35  C   UNL A   1      37.453  34.180  32.731  1.00  0.00     0.029 A 
ATOM     36  N   UNL A   1      38.816  32.486  33.089  1.00  0.00    -0.354 N 
ATOM     37  C   UNL A   1      38.217  29.095  29.381  1.00  0.00     0.074 A 
ATOM     38  C   UNL A   1      37.621  29.801  28.296  1.00  0.00     0.031 C 
ATOM     39  C   UNL A   1      38.028  34.399  33.937  1.00  0.00     0.029 A 
ATOM     40  C   UNL A   1      38.916  33.298  34.253  1.00  0.00     0.049 A 
ATOM     41  H   UNL A   1      39.377  31.687  32.962  1.00  0.00     0.167 HD
ATOM     42  C   UNL A   1      39.044  28.014  29.366  1.00  0.00     0.037 A 
ATOM     43  C   UNL A   1      39.634  33.050  35.396  1.00  0.00     0.037 A 
ATOM     44  C   UNL A   1      39.617  27.859  30.663  1.00  0.00     0.049 A 
ATOM     45  C   UNL A   1      40.422  31.854  35.063  1.00  0.00     0.074 A 
ATOM     46  C   UNL A   1      39.051  27.476  31.851  1.00  0.00     0.029 A 
ATOM     47  N   UNL A   1      40.773  28.571  30.905  1.00  0.00    -0.354 N 
ATOM     48  N   UNL A   1      41.434  31.837  34.247  1.00  0.00    -0.248 NA
ATOM     49  C   UNL A   1      39.960  30.553  35.565  1.00  0.00     0.031 C 
ATOM     50  C   UNL A   1      39.607  28.389  32.767  1.00  0.00     0.029 A 
ATOM     51  C   UNL A   1      40.690  29.062  32.184  1.00  0.00     0.049 A 
ATOM     52  H   UNL A   1      41.519  28.702  30.278  1.00  0.00     0.167 HD
ATOM     53  C   UNL A   1      41.489  30.514  33.884  1.00  0.00     0.074 A 
ATOM     54  C   UNL A   1      40.832  29.768  34.939  1.00  0.00     0.031 C 
ATOM     55  C   UNL A   1      41.522  30.182  32.565  1.00  0.00     0.037 A 
BRANCH  42  56
ATOM     56  C   UNL A   1      39.642  27.210  28.255  1.00  0.00     0.058 A 
ATOM     57  C   UNL A   1      39.614  25.804  28.403  1.00  0.00     0.135 A 
ATOM     58  C   UNL A   1      40.516  27.722  27.287  1.00  0.00     0.135 A 
ATOM     59  F   UNL A   1      38.752  25.219  29.253  1.00  0.00    -0.206 F 
ATOM     60  C   UNL A   1      40.517  24.971  27.761  1.00  0.00     0.059 A 
ATOM     61  C   UNL A   1      41.398  26.894  26.589  1.00  0.00     0.059 A 
ATOM     62  F   UNL A   1      40.601  29.038  27.050  1.00  0.00    -0.206 F 
ATOM     63  C   UNL A   1      41.433  25.532  26.882  1.00  0.00     0.060 A 
BRANCH  63  64
ATOM     64  S   UNL A   1      42.685  24.453  26.165  1.00  0.00     0.124 S 
ATOM     65  O   UNL A   1      43.021  25.165  24.937  1.00  0.00    -0.237 OA
ATOM     66  O   UNL A   1      43.718  24.452  27.199  1.00  0.00    -0.237 OA
ATOM     67  O   UNL A   1      41.981  23.187  25.995  1.00  0.00    -0.744 OA
ENDBRANCH  63  64
ENDBRANCH  42  56
BRANCH  43  68
ATOM     68  C   UNL A   1      39.739  33.535  36.830  1.00  0.00     0.058 A 
ATOM     69  C   UNL A   1      40.762  34.315  37.384  1.00  0.00     0.135 A 
ATOM     70  C   UNL A   1      38.644  33.309  37.719  1.00  0.00     0.135 A 
ATOM     71  F   UNL A   1      41.919  34.491  36.734  1.00  0.00    -0.206 F 
ATOM     72  C   UNL A   1      40.628  34.954  38.637  1.00  0.00     0.059 A 
ATOM     73  C   UNL A   1      38.461  33.974  38.925  1.00  0.00     0.059 A 
ATOM     74  F   UNL A   1      37.665  32.441  37.433  1.00  0.00    -0.206 F 
ATOM     75  C   UNL A   1      39.445  34.830  39.368  1.00  0.00     0.060 A 
BRANCH  75  76
ATOM     76  S   UNL A   1      39.108  35.866  40.810  1.00  0.00     0.124 S 
ATOM     77  O   UNL A   1      38.669  37.113  40.195  1.00  0.00    -0.237 OA
ATOM     78  O   UNL A   1      38.080  35.102  41.511  1.00  0.00    -0.237 OA
ATOM     79  O   UNL A   1      40.400  35.920  41.491  1.00  0.00    -0.744 OA
ENDBRANCH  75  76
ENDBRANCH  43  68
BRANCH  55  80
ATOM     80  C   UNL A   1      42.134  31.231  31.648  1.00  0.00     0.058 A 
ATOM     81  C   UNL A   1      43.474  31.616  31.831  1.00  0.00     0.135 A 
ATOM     82  C   UNL A   1      41.436  31.936  30.652  1.00  0.00     0.135 A 
ATOM     83  F   UNL A   1      44.227  30.988  32.749  1.00  0.00    -0.206 F 
ATOM     84  C   UNL A   1      44.076  32.634  31.084  1.00  0.00     0.059 A 
ATOM     85  C   UNL A   1      42.009  32.963  29.888  1.00  0.00     0.059 A 
ATOM     86  F   UNL A   1      40.166  31.641  30.380  1.00  0.00    -0.206 F 
ATOM     87  C   UNL A   1      43.337  33.304  30.111  1.00  0.00     0.060 A 
BRANCH  87  88
ATOM     88  S   UNL A   1      44.147  34.587  29.125  1.00  0.00     0.124 S 
ATOM     89  O   UNL A   1      43.038  35.143  28.358  1.00  0.00    -0.237 OA
ATOM     90  O   UNL A   1      44.700  35.458  30.157  1.00  0.00    -0.237 OA
ATOM     91  O   UNL A   1      45.135  33.850  28.340  1.00  0.00    -0.744 OA
ENDBRANCH  87  88
ENDBRANCH  55  80
ENDBRANCH  29  30
ENDBRANCH  22  24
ENDBRANCH  21  22
ENDBRANCH  20  21
ENDBRANCH   1  20
TORSDOF 20
ENDMDL
MODEL 2
REMARK VINA RESULT:     -10.3      1.649      2.442
REMARK SMILES O=C(C[C@H](c1ccsc1)n1cccc1)OCCOCCOC(=O)c1ccc(-c2c3nc(c(-c4c(F)cc(S(=O)(=O)[O-])cc4F)c4ccc([nH]4)c(-c4c(F)cc(S(=O)(=O)[O-])cc4F)c4nc(c(-c5c(F)cc(S(=O)(=O)[O-])cc5F)c5ccc2[nH]5)C=C4)C=C3)cc1
REMARK SMILES IDX 19 1 18 2 17 3 16 4 15 5 2 6 1 7 3 8 4 9 10 10 11 11 14 12
REMARK SMILES IDX 12 13 13 14 5 15 6 16 9 17 7 18 8 19 20 20 21 21 22 22 23 23
REMARK SMILES IDX 24 24 25 25 89 26 26 27 88 28 27 29 28 30 29 31 82 32 30 33
REMARK SMILES IDX 87 34 81 35 83 36 31 37 86 38 80 39 79 40 32 42 66 43 45 44
REMARK SMILES IDX 65 45 46 46 49 47 64 48 84 49 47 50 48 51 63 53 85 54 50 55
REMARK SMILES IDX 33 56 34 57 43 58 35 59 36 60 42 61 44 62 37 63 38 64 39 65
REMARK SMILES IDX 40 66 41 67 67 68 68 69 77 70 69 71 70 72 76 73 78 74 71 75
REMARK SMILES IDX 72 76 73 77 74 78 75 79 51 80 52 81 61 82 53 83 54 84 60 85
REMARK SMILES IDX 62 86 55 87 56 88 57 89 58 90 59 91
REMARK H PARENT 83 41 49 52
REMARK Flexibility Score: inf
ROOT
ATOM      1  C   UNL A   1      31.411  31.992  26.769  1.00  0.00     0.202 C 
ENDROOT
BRANCH   1   2
ATOM      2  O   UNL A   1      32.295  30.882  26.572  1.00  0.00    -0.374 OA
BRANCH   2   3
ATOM      3  C   UNL A   1      32.096  29.678  27.309  1.00  0.00     0.202 C 
BRANCH   3   4
ATOM      4  C   UNL A   1      32.998  28.485  27.022  1.00  0.00     0.261 C 
BRANCH   4   5
ATOM      5  O   UNL A   1      32.538  27.579  26.012  1.00  0.00    -0.463 OA
BRANCH   5   6
ATOM      6  C   UNL A   1      31.316  27.007  25.963  1.00  0.00     0.308 C 
ATOM      7  O   UNL A   1      30.907  26.363  26.927  1.00  0.00    -0.252 OA
BRANCH   6   8
ATOM      8  C   UNL A   1      30.501  27.089  24.701  1.00  0.00     0.153 C 
BRANCH   8   9
ATOM      9  C   UNL A   1      31.113  27.996  23.656  1.00  0.00     0.128 C 
BRANCH   9  10
ATOM     10  N   UNL A   1      31.902  27.195  22.701  1.00  0.00    -0.346 N 
ATOM     11  C   UNL A   1      31.424  26.310  21.766  1.00  0.00     0.086 A 
ATOM     12  C   UNL A   1      33.260  26.983  22.844  1.00  0.00     0.086 A 
ATOM     13  C   UNL A   1      32.487  25.591  21.263  1.00  0.00     0.019 A 
ATOM     14  C   UNL A   1      33.648  26.011  21.950  1.00  0.00     0.019 A 
ENDBRANCH   9  10
BRANCH   9  15
ATOM     15  C   UNL A   1      30.077  28.922  23.089  1.00  0.00    -0.014 A 
ATOM     16  C   UNL A   1      30.296  29.919  22.084  1.00  0.00     0.017 A 
ATOM     17  C   UNL A   1      28.719  28.733  23.300  1.00  0.00     0.070 A 
ATOM     18  C   UNL A   1      29.122  30.397  21.551  1.00  0.00     0.065 A 
ATOM     19  S   UNL A   1      27.748  29.712  22.295  1.00  0.00    -0.152 S 
ENDBRANCH   9  15
ENDBRANCH   8   9
ENDBRANCH   6   8
ENDBRANCH   5   6
ENDBRANCH   4   5
ENDBRANCH   3   4
ENDBRANCH   2   3
ENDBRANCH   1   2
BRANCH   1  20
ATOM     20  C   UNL A   1      32.032  33.359  26.886  1.00  0.00     0.261 C 
BRANCH  20  21
ATOM     21  O   UNL A   1      32.987  33.334  27.920  1.00  0.00    -0.460 OA
BRANCH  21  22
ATOM     22  C   UNL A   1      33.040  34.514  28.570  1.00  0.00     0.338 C 
ATOM     23  O   UNL A   1      32.379  35.518  28.391  1.00  0.00    -0.246 OA
BRANCH  22  24
ATOM     24  C   UNL A   1      34.185  34.461  29.454  1.00  0.00     0.060 A 
ATOM     25  C   UNL A   1      35.418  34.629  28.829  1.00  0.00     0.016 A 
ATOM     26  C   UNL A   1      33.983  33.745  30.640  1.00  0.00     0.016 A 
ATOM     27  C   UNL A   1      36.456  33.881  29.308  1.00  0.00     0.010 A 
ATOM     28  C   UNL A   1      34.985  32.922  31.052  1.00  0.00     0.010 A 
ATOM     29  C   UNL A   1      36.201  33.004  30.374  1.00  0.00    -0.014 A 
BRANCH  29  30
ATOM     30  C   UNL A   1      37.345  32.343  30.961  1.00  0.00     0.031 A 
ATOM     31  C   UNL A   1      37.624  31.082  30.121  1.00  0.00     0.074 A 
ATOM     32  C   UNL A   1      37.808  32.926  32.108  1.00  0.00     0.049 A 
ATOM     33  N   UNL A   1      38.005  29.912  30.511  1.00  0.00    -0.248 NA
ATOM     34  C   UNL A   1      37.288  31.053  28.657  1.00  0.00     0.031 C 
ATOM     35  C   UNL A   1      37.333  34.213  32.683  1.00  0.00     0.029 A 
ATOM     36  N   UNL A   1      38.759  32.569  33.029  1.00  0.00    -0.354 N 
ATOM     37  C   UNL A   1      38.213  29.132  29.355  1.00  0.00     0.074 A 
ATOM     38  C   UNL A   1      37.576  29.809  28.275  1.00  0.00     0.031 C 
ATOM     39  C   UNL A   1      37.920  34.460  33.877  1.00  0.00     0.029 A 
ATOM     40  C   UNL A   1      38.850  33.392  34.186  1.00  0.00     0.049 A 
ATOM     41  H   UNL A   1      39.344  31.788  32.898  1.00  0.00     0.167 HD
ATOM     42  C   UNL A   1      39.076  28.080  29.334  1.00  0.00     0.037 A 
ATOM     43  C   UNL A   1      39.594  33.176  35.319  1.00  0.00     0.037 A 
ATOM     44  C   UNL A   1      39.675  27.954  30.622  1.00  0.00     0.049 A 
ATOM     45  C   UNL A   1      40.417  32.006  34.981  1.00  0.00     0.074 A 
ATOM     46  C   UNL A   1      39.143  27.560  31.822  1.00  0.00     0.029 A 
ATOM     47  N   UNL A   1      40.811  28.706  30.840  1.00  0.00    -0.354 N 
ATOM     48  N   UNL A   1      41.415  32.017  34.148  1.00  0.00    -0.248 NA
ATOM     49  C   UNL A   1      40.008  30.694  35.499  1.00  0.00     0.031 C 
ATOM     50  C   UNL A   1      39.682  28.498  32.722  1.00  0.00     0.029 A 
ATOM     51  C   UNL A   1      40.732  29.203  32.117  1.00  0.00     0.049 A 
ATOM     52  H   UNL A   1      41.542  28.858  30.200  1.00  0.00     0.167 HD
ATOM     53  C   UNL A   1      41.510  30.694  33.793  1.00  0.00     0.074 A 
ATOM     54  C   UNL A   1      40.895  29.934  34.864  1.00  0.00     0.031 C 
ATOM     55  C   UNL A   1      41.532  30.353  32.476  1.00  0.00     0.037 A 
BRANCH  42  56
ATOM     56  C   UNL A   1      39.683  27.289  28.219  1.00  0.00     0.058 A 
ATOM     57  C   UNL A   1      39.700  25.883  28.374  1.00  0.00     0.135 A 
ATOM     58  C   UNL A   1      40.528  27.821  27.235  1.00  0.00     0.135 A 
ATOM     59  F   UNL A   1      38.869  25.276  29.238  1.00  0.00    -0.206 F 
ATOM     60  C   UNL A   1      40.619  25.074  27.723  1.00  0.00     0.059 A 
ATOM     61  C   UNL A   1      41.425  27.017  26.529  1.00  0.00     0.059 A 
ATOM     62  F   UNL A   1      40.569  29.138  26.991  1.00  0.00    -0.206 F 
ATOM     63  C   UNL A   1      41.505  25.658  26.828  1.00  0.00     0.060 A 
BRANCH  63  64
ATOM     64  S   UNL A   1      42.779  24.613  26.099  1.00  0.00     0.124 S 
ATOM     65  O   UNL A   1      43.154  25.385  24.919  1.00  0.00    -0.237 OA
ATOM     66  O   UNL A   1      43.779  24.561  27.163  1.00  0.00    -0.237 OA
ATOM     67  O   UNL A   1      42.081  23.359  25.845  1.00  0.00    -0.744 OA
ENDBRANCH  63  64
ENDBRANCH  42  56
BRANCH  43  68
ATOM     68  C   UNL A   1      39.707  33.675  36.748  1.00  0.00     0.058 A 
ATOM     69  C   UNL A   1      40.714  34.488  37.281  1.00  0.00     0.135 A 
ATOM     70  C   UNL A   1      38.631  33.425  37.655  1.00  0.00     0.135 A 
ATOM     71  F   UNL A   1      41.857  34.692  36.613  1.00  0.00    -0.206 F 
ATOM     72  C   UNL A   1      40.580  35.133  38.531  1.00  0.00     0.059 A 
ATOM     73  C   UNL A   1      38.447  34.093  38.859  1.00  0.00     0.059 A 
ATOM     74  F   UNL A   1      37.673  32.527  37.389  1.00  0.00    -0.206 F 
ATOM     75  C   UNL A   1      39.413  34.981  39.280  1.00  0.00     0.060 A 
BRANCH  75  76
ATOM     76  S   UNL A   1      39.067  36.017  40.720  1.00  0.00     0.124 S 
ATOM     77  O   UNL A   1      38.692  37.284  40.102  1.00  0.00    -0.237 OA
ATOM     78  O   UNL A   1      37.991  35.286  41.382  1.00  0.00    -0.237 OA
ATOM     79  O   UNL A   1      40.338  36.020  41.441  1.00  0.00    -0.744 OA
ENDBRANCH  75  76
ENDBRANCH  43  68
BRANCH  55  80
ATOM     80  C   UNL A   1      42.093  31.416  31.542  1.00  0.00     0.058 A 
ATOM     81  C   UNL A   1      43.422  31.848  31.701  1.00  0.00     0.135 A 
ATOM     82  C   UNL A   1      41.355  32.089  30.552  1.00  0.00     0.135 A 
ATOM     83  F   UNL A   1      44.210  31.253  32.611  1.00  0.00    -0.206 F 
ATOM     84  C   UNL A   1      43.977  32.880  30.937  1.00  0.00     0.059 A 
ATOM     85  C   UNL A   1      41.881  33.129  29.773  1.00  0.00     0.059 A 
ATOM     86  F   UNL A   1      40.092  31.748  30.304  1.00  0.00    -0.206 F 
ATOM     87  C   UNL A   1      43.200  33.517  29.971  1.00  0.00     0.060 A 
BRANCH  87  88
ATOM     88  S   UNL A   1      43.949  34.819  28.964  1.00  0.00     0.124 S 
ATOM     89  O   UNL A   1      45.332  34.367  28.840  1.00  0.00    -0.237 OA
ATOM     90  O   UNL A   1      43.154  34.754  27.742  1.00  0.00    -0.237 OA
ATOM     91  O   UNL A   1      43.763  36.028  29.763  1.00  0.00    -0.744 OA
ENDBRANCH  87  88
ENDBRANCH  55  80
ENDBRANCH  29  30
ENDBRANCH  22  24
ENDBRANCH  21  22
ENDBRANCH  20  21
ENDBRANCH   1  20
TORSDOF 20
ENDMDL
MODEL 3
REMARK VINA RESULT:     -10.2      5.238     11.302
REMARK SMILES O=C(C[C@H](c1ccsc1)n1cccc1)OCCOCCOC(=O)c1ccc(-c2c3nc(c(-c4c(F)cc(S(=O)(=O)[O-])cc4F)c4ccc([nH]4)c(-c4c(F)cc(S(=O)(=O)[O-])cc4F)c4nc(c(-c5c(F)cc(S(=O)(=O)[O-])cc5F)c5ccc2[nH]5)C=C4)C=C3)cc1
REMARK SMILES IDX 19 1 18 2 17 3 16 4 15 5 2 6 1 7 3 8 4 9 10 10 11 11 14 12
REMARK SMILES IDX 12 13 13 14 5 15 6 16 9 17 7 18 8 19 20 20 21 21 22 22 23 23
REMARK SMILES IDX 24 24 25 25 89 26 26 27 88 28 27 29 28 30 29 31 82 32 30 33
REMARK SMILES IDX 87 34 81 35 83 36 31 37 86 38 80 39 79 40 32 42 66 43 45 44
REMARK SMILES IDX 65 45 46 46 49 47 64 48 84 49 47 50 48 51 63 53 85 54 50 55
REMARK SMILES IDX 33 56 34 57 43 58 35 59 36 60 42 61 44 62 37 63 38 64 39 65
REMARK SMILES IDX 40 66 41 67 67 68 68 69 77 70 69 71 70 72 76 73 78 74 71 75
REMARK SMILES IDX 72 76 73 77 74 78 75 79 51 80 52 81 61 82 53 83 54 84 60 85
REMARK SMILES IDX 62 86 55 87 56 88 57 89 58 90 59 91
REMARK H PARENT 83 41 49 52
REMARK Flexibility Score: inf
ROOT
ATOM      1  C   UNL A   1      38.078  20.446  25.221  1.00  0.00     0.202 C 
ENDROOT
BRANCH   1   2
ATOM      2  O   UNL A   1      36.771  19.898  25.010  1.00  0.00    -0.374 OA
BRANCH   2   3
ATOM      3  C   UNL A   1      35.631  20.754  25.033  1.00  0.00     0.202 C 
BRANCH   3   4
ATOM      4  C   UNL A   1      35.493  21.761  26.166  1.00  0.00     0.261 C 
BRANCH   4   5
ATOM      5  O   UNL A   1      34.287  21.681  26.935  1.00  0.00    -0.463 OA
BRANCH   5   6
ATOM      6  C   UNL A   1      33.505  22.723  27.288  1.00  0.00     0.308 C 
ATOM      7  O   UNL A   1      32.595  22.555  28.097  1.00  0.00    -0.252 OA
BRANCH   6   8
ATOM      8  C   UNL A   1      33.697  24.060  26.625  1.00  0.00     0.153 C 
BRANCH   8   9
ATOM      9  C   UNL A   1      32.519  24.475  25.772  1.00  0.00     0.128 C 
BRANCH   9  10
ATOM     10  N   UNL A   1      32.417  25.947  25.744  1.00  0.00    -0.346 N 
ATOM     11  C   UNL A   1      33.341  26.852  26.204  1.00  0.00     0.086 A 
ATOM     12  C   UNL A   1      31.220  26.609  25.546  1.00  0.00     0.086 A 
ATOM     13  C   UNL A   1      32.753  28.099  26.227  1.00  0.00     0.019 A 
ATOM     14  C   UNL A   1      31.410  27.945  25.818  1.00  0.00     0.019 A 
ENDBRANCH   9  10
BRANCH   9  15
ATOM     15  C   UNL A   1      32.548  23.761  24.451  1.00  0.00    -0.014 A 
ATOM     16  C   UNL A   1      33.497  23.972  23.399  1.00  0.00     0.017 A 
ATOM     17  C   UNL A   1      31.795  22.622  24.208  1.00  0.00     0.070 A 
ATOM     18  C   UNL A   1      33.460  22.977  22.449  1.00  0.00     0.065 A 
ATOM     19  S   UNL A   1      32.245  21.823  22.769  1.00  0.00    -0.152 S 
ENDBRANCH   9  15
ENDBRANCH   8   9
ENDBRANCH   6   8
ENDBRANCH   5   6
ENDBRANCH   4   5
ENDBRANCH   3   4
ENDBRANCH   2   3
ENDBRANCH   1   2
BRANCH   1  20
ATOM     20  C   UNL A   1      39.211  19.475  25.426  1.00  0.00     0.261 C 
BRANCH  20  21
ATOM     21  O   UNL A   1      40.174  20.074  26.259  1.00  0.00    -0.460 OA
BRANCH  21  22
ATOM     22  C   UNL A   1      41.387  19.505  26.098  1.00  0.00     0.338 C 
ATOM     23  O   UNL A   1      41.661  18.355  25.820  1.00  0.00    -0.246 OA
BRANCH  22  24
ATOM     24  C   UNL A   1      42.372  20.487  26.495  1.00  0.00     0.060 A 
ATOM     25  C   UNL A   1      42.283  20.907  27.819  1.00  0.00     0.016 A 
ATOM     26  C   UNL A   1      42.896  21.255  25.449  1.00  0.00     0.016 A 
ATOM     27  C   UNL A   1      42.546  22.225  28.065  1.00  0.00     0.010 A 
ATOM     28  C   UNL A   1      43.056  22.588  25.670  1.00  0.00     0.010 A 
ATOM     29  C   UNL A   1      42.874  23.046  26.976  1.00  0.00    -0.014 A 
BRANCH  29  30
ATOM     30  C   UNL A   1      43.299  24.394  27.281  1.00  0.00     0.031 A 
ATOM     31  C   UNL A   1      42.026  25.245  27.455  1.00  0.00     0.074 A 
ATOM     32  C   UNL A   1      44.653  24.582  27.247  1.00  0.00     0.049 A 
ATOM     33  N   UNL A   1      41.806  26.463  27.092  1.00  0.00    -0.248 NA
ATOM     34  C   UNL A   1      40.758  24.621  27.964  1.00  0.00     0.031 C 
ATOM     35  C   UNL A   1      45.675  23.515  27.074  1.00  0.00     0.029 A 
ATOM     36  N   UNL A   1      45.454  25.691  27.346  1.00  0.00    -0.354 N 
ATOM     37  C   UNL A   1      40.525  26.816  27.565  1.00  0.00     0.074 A 
ATOM     38  C   UNL A   1      39.860  25.605  27.910  1.00  0.00     0.031 C 
ATOM     39  C   UNL A   1      46.918  24.041  26.982  1.00  0.00     0.029 A 
ATOM     40  C   UNL A   1      46.843  25.482  27.117  1.00  0.00     0.049 A 
ATOM     41  H   UNL A   1      45.089  26.579  27.561  1.00  0.00     0.167 HD
ATOM     42  C   UNL A   1      40.177  28.105  27.829  1.00  0.00     0.037 A 
ATOM     43  C   UNL A   1      47.830  26.429  27.001  1.00  0.00     0.037 A 
ATOM     44  C   UNL A   1      41.296  28.947  27.554  1.00  0.00     0.049 A 
ATOM     45  C   UNL A   1      47.156  27.686  27.358  1.00  0.00     0.074 A 
ATOM     46  C   UNL A   1      41.883  29.295  26.366  1.00  0.00     0.029 A 
ATOM     47  N   UNL A   1      42.194  29.120  28.587  1.00  0.00    -0.354 N 
ATOM     48  N   UNL A   1      46.781  28.010  28.559  1.00  0.00    -0.248 NA
ATOM     49  C   UNL A   1      46.739  28.584  26.273  1.00  0.00     0.031 C 
ATOM     50  C   UNL A   1      43.256  29.186  26.657  1.00  0.00     0.029 A 
ATOM     51  C   UNL A   1      43.453  29.091  28.042  1.00  0.00     0.049 A 
ATOM     52  H   UNL A   1      41.973  29.241  29.538  1.00  0.00     0.167 HD
ATOM     53  C   UNL A   1      45.807  28.947  28.314  1.00  0.00     0.074 A 
ATOM     54  C   UNL A   1      46.071  29.481  26.992  1.00  0.00     0.031 C 
ATOM     55  C   UNL A   1      44.585  28.812  28.897  1.00  0.00     0.037 A 
BRANCH  42  56
ATOM     56  C   UNL A   1      39.033  28.714  28.577  1.00  0.00     0.058 A 
ATOM     57  C   UNL A   1      38.327  29.750  27.923  1.00  0.00     0.135 A 
ATOM     58  C   UNL A   1      38.836  28.596  29.959  1.00  0.00     0.135 A 
ATOM     59  F   UNL A   1      38.393  29.893  26.588  1.00  0.00    -0.206 F 
ATOM     60  C   UNL A   1      37.611  30.714  28.617  1.00  0.00     0.059 A 
ATOM     61  C   UNL A   1      38.076  29.525  30.671  1.00  0.00     0.059 A 
ATOM     62  F   UNL A   1      39.438  27.632  30.669  1.00  0.00    -0.206 F 
ATOM     63  C   UNL A   1      37.523  30.614  29.998  1.00  0.00     0.060 A 
BRANCH  63  64
ATOM     64  S   UNL A   1      36.708  31.950  30.891  1.00  0.00     0.124 S 
ATOM     65  O   UNL A   1      37.825  32.543  31.619  1.00  0.00    -0.237 OA
ATOM     66  O   UNL A   1      36.163  32.759  29.803  1.00  0.00    -0.237 OA
ATOM     67  O   UNL A   1      35.715  31.256  31.702  1.00  0.00    -0.744 OA
ENDBRANCH  63  64
ENDBRANCH  42  56
BRANCH  43  68
ATOM     68  C   UNL A   1      49.264  26.559  26.521  1.00  0.00     0.058 A 
ATOM     69  C   UNL A   1      50.416  26.621  27.313  1.00  0.00     0.135 A 
ATOM     70  C   UNL A   1      49.534  26.485  25.120  1.00  0.00     0.135 A 
ATOM     71  F   UNL A   1      50.332  26.843  28.631  1.00  0.00    -0.206 F 
ATOM     72  C   UNL A   1      51.711  26.448  26.776  1.00  0.00     0.059 A 
ATOM     73  C   UNL A   1      50.789  26.253  24.573  1.00  0.00     0.059 A 
ATOM     74  F   UNL A   1      48.564  26.602  24.203  1.00  0.00    -0.206 F 
ATOM     75  C   UNL A   1      51.880  26.198  25.413  1.00  0.00     0.060 A 
BRANCH  75  76
ATOM     76  S   UNL A   1      53.470  25.668  24.735  1.00  0.00     0.124 S 
ATOM     77  O   UNL A   1      53.525  24.269  25.143  1.00  0.00    -0.237 OA
ATOM     78  O   UNL A   1      53.298  25.911  23.306  1.00  0.00    -0.237 OA
ATOM     79  O   UNL A   1      54.425  26.555  25.395  1.00  0.00    -0.744 OA
ENDBRANCH  75  76
ENDBRANCH  43  68
BRANCH  55  80
ATOM     80  C   UNL A   1      44.580  28.062  30.221  1.00  0.00     0.058 A 
ATOM     81  C   UNL A   1      45.308  28.572  31.310  1.00  0.00     0.135 A 
ATOM     82  C   UNL A   1      43.958  26.820  30.441  1.00  0.00     0.135 A 
ATOM     83  F   UNL A   1      45.923  29.761  31.202  1.00  0.00    -0.206 F 
ATOM     84  C   UNL A   1      45.418  27.893  32.529  1.00  0.00     0.059 A 
ATOM     85  C   UNL A   1      44.052  26.114  31.648  1.00  0.00     0.059 A 
ATOM     86  F   UNL A   1      43.226  26.254  29.483  1.00  0.00    -0.206 F 
ATOM     87  C   UNL A   1      44.785  26.663  32.693  1.00  0.00     0.060 A 
BRANCH  87  88
ATOM     88  S   UNL A   1      44.904  25.823  34.290  1.00  0.00     0.124 S 
ATOM     89  O   UNL A   1      45.262  24.461  33.905  1.00  0.00    -0.237 OA
ATOM     90  O   UNL A   1      45.954  26.585  34.957  1.00  0.00    -0.237 OA
ATOM     91  O   UNL A   1      43.568  25.973  34.862  1.00  0.00    -0.744 OA
ENDBRANCH  87  88
ENDBRANCH  55  80
ENDBRANCH  29  30
ENDBRANCH  22  24
ENDBRANCH  21  22
ENDBRANCH  20  21
ENDBRANCH   1  20
TORSDOF 20
ENDMDL
