MODEL 1
REMARK VINA RESULT:     -11.8      0.000      0.000
REMARK SMILES COc1cc(S(=O)(=O)Nc2cccc(C(=O)OCCOCCOC(=O)c3ccc(-c4c5nc(c(-c6c(F)cc(S(=O)(=O)[O-])cc6F)c6ccc([nH]6)c(-c6c(F)cc(S(=O)(=O)[O-])cc6F)c6nc(c(-c7c(F)cc(S(=O)(=O)[O-])cc7F)c7ccc4[nH]7)C=C6)C=C5)cc3)c2)c(OC)cc1C
REMARK SMILES IDX 19 1 18 2 17 3 15 4 16 5 14 6 10 7 11 8 92 9 12 10 13 11
REMARK SMILES IDX 9 12 6 14 7 15 8 16 5 17 3 18 4 19 97 20 96 21 98 22 93 23
REMARK SMILES IDX 2 24 1 25 94 26 95 27 20 28 21 29 22 30 23 31 24 32 25 33
REMARK SMILES IDX 26 34 27 35 91 36 28 37 90 38 29 39 30 40 31 41 84 42 32 43
REMARK SMILES IDX 89 44 83 45 85 46 33 47 88 48 82 49 81 50 34 52 68 53 47 54
REMARK SMILES IDX 67 55 48 56 51 57 66 58 86 59 49 60 50 61 65 63 87 64 52 65
REMARK SMILES IDX 35 66 36 67 45 68 37 69 38 70 44 71 46 72 39 73 40 74 41 75
REMARK SMILES IDX 42 76 43 77 69 78 70 79 79 80 71 81 72 82 78 83 80 84 73 85
REMARK SMILES IDX 74 86 75 87 76 88 77 89 53 90 54 91 63 92 55 93 56 94 62 95
REMARK SMILES IDX 64 96 57 97 58 98 59 99 60 100 61 101
REMARK H PARENT 9 13 85 51 51 62
REMARK Flexibility Score: inf
ROOT
ATOM      1  C   UNL A   1      30.731  29.427  24.117  1.00  0.00     0.202 C 
ENDROOT
BRANCH   1   2
ATOM      2  C   UNL A   1      29.999  28.683  23.029  1.00  0.00     0.261 C 
BRANCH   2   3
ATOM      3  O   UNL A   1      30.203  27.265  23.110  1.00  0.00    -0.460 OA
BRANCH   3   4
ATOM      4  C   UNL A   1      29.371  26.585  23.927  1.00  0.00     0.338 C 
ATOM      5  O   UNL A   1      28.155  26.644  23.953  1.00  0.00    -0.246 OA
BRANCH   4   6
ATOM      6  C   UNL A   1      30.193  25.855  24.907  1.00  0.00     0.062 A 
ATOM      7  C   UNL A   1      32.269  24.714  25.245  1.00  0.00     0.050 A 
ATOM      8  C   UNL A   1      31.744  24.074  26.369  1.00  0.00     0.027 A 
ATOM      9  C   UNL A   1      31.534  25.690  24.583  1.00  0.00     0.042 A 
ATOM     10  C   UNL A   1      30.426  24.327  26.760  1.00  0.00     0.003 A 
ATOM     11  C   UNL A   1      29.639  25.197  26.011  1.00  0.00     0.016 A 
BRANCH   7  12
ATOM     12  N   UNL A   1      33.482  24.351  24.613  1.00  0.00    -0.279 N 
ATOM     13  H   UNL A   1      34.299  24.838  24.867  1.00  0.00     0.180 HD
BRANCH  12  14
ATOM     14  S   UNL A   1      33.611  23.146  23.468  1.00  0.00     0.265 S 
ATOM     15  O   UNL A   1      34.730  23.499  22.612  1.00  0.00    -0.201 OA
ATOM     16  O   UNL A   1      32.281  23.041  22.900  1.00  0.00    -0.201 OA
BRANCH  14  17
ATOM     17  C   UNL A   1      33.997  21.533  24.119  1.00  0.00     0.133 A 
ATOM     18  C   UNL A   1      33.268  19.208  24.057  1.00  0.00     0.123 A 
ATOM     19  C   UNL A   1      33.045  20.554  23.776  1.00  0.00     0.073 A 
ATOM     20  C   UNL A   1      34.502  18.787  24.540  1.00  0.00    -0.005 A 
ATOM     21  C   UNL A   1      35.406  19.767  24.954  1.00  0.00     0.055 A 
ATOM     22  C   UNL A   1      34.881  17.346  24.701  1.00  0.00     0.048 C 
ATOM     23  C   UNL A   1      35.126  21.140  24.837  1.00  0.00     0.139 A 
BRANCH  18  24
ATOM     24  O   UNL A   1      32.245  18.337  23.799  1.00  0.00    -0.496 OA
ATOM     25  C   UNL A   1      32.148  18.092  22.390  1.00  0.00     0.278 C 
ENDBRANCH  18  24
BRANCH  23  26
ATOM     26  O   UNL A   1      35.897  22.069  25.460  1.00  0.00    -0.495 OA
ATOM     27  C   UNL A   1      37.307  21.846  25.461  1.00  0.00     0.278 C 
ENDBRANCH  23  26
ENDBRANCH  14  17
ENDBRANCH  12  14
ENDBRANCH   7  12
ENDBRANCH   4   6
ENDBRANCH   3   4
ENDBRANCH   2   3
ENDBRANCH   1   2
BRANCH   1  28
ATOM     28  O   UNL A   1      32.120  29.218  23.877  1.00  0.00    -0.374 OA
BRANCH  28  29
ATOM     29  C   UNL A   1      32.978  29.326  24.989  1.00  0.00     0.202 C 
BRANCH  29  30
ATOM     30  C   UNL A   1      32.408  30.213  26.096  1.00  0.00     0.261 C 
BRANCH  30  31
ATOM     31  O   UNL A   1      33.090  30.008  27.354  1.00  0.00    -0.460 OA
BRANCH  31  32
ATOM     32  C   UNL A   1      34.089  30.892  27.653  1.00  0.00     0.338 C 
ATOM     33  O   UNL A   1      33.956  32.105  27.601  1.00  0.00    -0.246 OA
BRANCH  32  34
ATOM     34  C   UNL A   1      35.297  30.185  28.157  1.00  0.00     0.060 A 
ATOM     35  C   UNL A   1      35.409  29.764  29.494  1.00  0.00     0.016 A 
ATOM     36  C   UNL A   1      36.396  30.087  27.308  1.00  0.00     0.016 A 
ATOM     37  C   UNL A   1      36.653  29.347  30.003  1.00  0.00     0.010 A 
ATOM     38  C   UNL A   1      37.632  29.810  27.844  1.00  0.00     0.010 A 
ATOM     39  C   UNL A   1      37.780  29.424  29.183  1.00  0.00    -0.014 A 
BRANCH  39  40
ATOM     40  C   UNL A   1      39.168  29.169  29.572  1.00  0.00     0.031 A 
ATOM     41  C   UNL A   1      39.812  27.913  29.102  1.00  0.00     0.074 A 
ATOM     42  C   UNL A   1      39.948  30.148  30.095  1.00  0.00     0.049 A 
ATOM     43  N   UNL A   1      40.913  27.446  29.582  1.00  0.00    -0.248 NA
ATOM     44  C   UNL A   1      39.273  27.066  28.036  1.00  0.00     0.031 C 
ATOM     45  C   UNL A   1      41.407  30.219  30.078  1.00  0.00     0.029 A 
ATOM     46  N   UNL A   1      39.586  31.312  30.786  1.00  0.00    -0.354 N 
ATOM     47  C   UNL A   1      41.393  26.510  28.694  1.00  0.00     0.074 A 
ATOM     48  C   UNL A   1      40.299  26.245  27.794  1.00  0.00     0.031 C 
ATOM     49  C   UNL A   1      41.819  31.152  30.951  1.00  0.00     0.029 A 
ATOM     50  C   UNL A   1      40.644  31.657  31.638  1.00  0.00     0.049 A 
ATOM     51  H   UNL A   1      38.737  31.801  30.689  1.00  0.00     0.167 HD
ATOM     52  C   UNL A   1      42.715  26.181  28.724  1.00  0.00     0.037 A 
ATOM     53  C   UNL A   1      40.478  31.759  32.984  1.00  0.00     0.037 A 
ATOM     54  C   UNL A   1      43.417  26.951  29.758  1.00  0.00     0.049 A 
ATOM     55  C   UNL A   1      41.340  30.724  33.653  1.00  0.00     0.074 A 
ATOM     56  C   UNL A   1      44.250  28.058  29.702  1.00  0.00     0.029 A 
ATOM     57  N   UNL A   1      43.019  26.838  31.091  1.00  0.00    -0.354 N 
ATOM     58  N   UNL A   1      41.729  29.642  33.032  1.00  0.00    -0.248 NA
ATOM     59  C   UNL A   1      41.938  30.853  34.976  1.00  0.00     0.031 C 
ATOM     60  C   UNL A   1      44.328  28.623  31.002  1.00  0.00     0.029 A 
ATOM     61  C   UNL A   1      43.544  27.864  31.856  1.00  0.00     0.049 A 
ATOM     62  H   UNL A   1      42.442  26.121  31.441  1.00  0.00     0.167 HD
ATOM     63  C   UNL A   1      42.668  28.999  33.777  1.00  0.00     0.074 A 
ATOM     64  C   UNL A   1      42.732  29.767  35.009  1.00  0.00     0.031 C 
ATOM     65  C   UNL A   1      43.343  27.913  33.301  1.00  0.00     0.037 A 
BRANCH  52  66
ATOM     66  C   UNL A   1      43.398  25.377  27.633  1.00  0.00     0.058 A 
ATOM     67  C   UNL A   1      43.574  23.981  27.746  1.00  0.00     0.135 A 
ATOM     68  C   UNL A   1      43.907  25.934  26.438  1.00  0.00     0.135 A 
ATOM     69  F   UNL A   1      43.088  23.293  28.787  1.00  0.00    -0.206 F 
ATOM     70  C   UNL A   1      44.257  23.216  26.798  1.00  0.00     0.059 A 
ATOM     71  C   UNL A   1      44.643  25.199  25.499  1.00  0.00     0.059 A 
ATOM     72  F   UNL A   1      43.663  27.211  26.110  1.00  0.00    -0.206 F 
ATOM     73  C   UNL A   1      44.806  23.834  25.684  1.00  0.00     0.060 A 
BRANCH  73  74
ATOM     74  S   UNL A   1      45.685  22.823  24.476  1.00  0.00     0.124 S 
ATOM     75  O   UNL A   1      44.610  22.402  23.583  1.00  0.00    -0.237 OA
ATOM     76  O   UNL A   1      46.635  23.780  23.918  1.00  0.00    -0.237 OA
ATOM     77  O   UNL A   1      46.270  21.758  25.284  1.00  0.00    -0.744 OA
ENDBRANCH  73  74
ENDBRANCH  52  66
BRANCH  53  78
ATOM     78  C   UNL A   1      39.139  32.288  33.379  1.00  0.00     0.058 A 
ATOM     79  C   UNL A   1      38.863  33.641  33.078  1.00  0.00     0.135 A 
ATOM     80  C   UNL A   1      38.033  31.443  33.559  1.00  0.00     0.135 A 
ATOM     81  F   UNL A   1      39.877  34.498  32.870  1.00  0.00    -0.206 F 
ATOM     82  C   UNL A   1      37.567  34.105  32.836  1.00  0.00     0.059 A 
ATOM     83  C   UNL A   1      36.727  31.882  33.294  1.00  0.00     0.059 A 
ATOM     84  F   UNL A   1      38.217  30.147  33.844  1.00  0.00    -0.206 F 
ATOM     85  C   UNL A   1      36.508  33.200  32.883  1.00  0.00     0.060 A 
BRANCH  85  86
ATOM     86  S   UNL A   1      34.929  33.650  32.083  1.00  0.00     0.124 S 
ATOM     87  O   UNL A   1      35.017  32.949  30.810  1.00  0.00    -0.237 OA
ATOM     88  O   UNL A   1      33.925  33.137  33.016  1.00  0.00    -0.237 OA
ATOM     89  O   UNL A   1      35.004  35.106  32.032  1.00  0.00    -0.744 OA
ENDBRANCH  85  86
ENDBRANCH  53  78
BRANCH  65  90
ATOM     90  C   UNL A   1      43.979  26.860  34.167  1.00  0.00     0.058 A 
ATOM     91  C   UNL A   1      45.358  26.808  34.429  1.00  0.00     0.135 A 
ATOM     92  C   UNL A   1      43.179  25.970  34.926  1.00  0.00     0.135 A 
ATOM     93  F   UNL A   1      46.216  27.677  33.876  1.00  0.00    -0.206 F 
ATOM     94  C   UNL A   1      45.913  25.889  35.311  1.00  0.00     0.059 A 
ATOM     95  C   UNL A   1      43.706  25.095  35.866  1.00  0.00     0.059 A 
ATOM     96  F   UNL A   1      41.844  25.930  34.802  1.00  0.00    -0.206 F 
ATOM     97  C   UNL A   1      45.079  25.037  36.025  1.00  0.00     0.060 A 
BRANCH  97  98
ATOM     98  S   UNL A   1      45.807  23.878  37.187  1.00  0.00     0.124 S 
ATOM     99  O   UNL A   1      45.358  22.604  36.633  1.00  0.00    -0.237 OA
ATOM    100  O   UNL A   1      47.234  24.155  37.059  1.00  0.00    -0.237 OA
ATOM    101  O   UNL A   1      45.212  24.258  38.463  1.00  0.00    -0.744 OA
ENDBRANCH  97  98
ENDBRANCH  65  90
ENDBRANCH  39  40
ENDBRANCH  32  34
ENDBRANCH  31  32
ENDBRANCH  30  31
ENDBRANCH  29  30
ENDBRANCH  28  29
ENDBRANCH   1  28
TORSDOF 22
ENDMDL
MODEL 2
REMARK VINA RESULT:     -11.5      1.819      2.780
REMARK SMILES COc1cc(S(=O)(=O)Nc2cccc(C(=O)OCCOCCOC(=O)c3ccc(-c4c5nc(c(-c6c(F)cc(S(=O)(=O)[O-])cc6F)c6ccc([nH]6)c(-c6c(F)cc(S(=O)(=O)[O-])cc6F)c6nc(c(-c7c(F)cc(S(=O)(=O)[O-])cc7F)c7ccc4[nH]7)C=C6)C=C5)cc3)c2)c(OC)cc1C
REMARK SMILES IDX 19 1 18 2 17 3 15 4 16 5 14 6 10 7 11 8 92 9 12 10 13 11
REMARK SMILES IDX 9 12 6 14 7 15 8 16 5 17 3 18 4 19 97 20 96 21 98 22 93 23
REMARK SMILES IDX 2 24 1 25 94 26 95 27 20 28 21 29 22 30 23 31 24 32 25 33
REMARK SMILES IDX 26 34 27 35 91 36 28 37 90 38 29 39 30 40 31 41 84 42 32 43
REMARK SMILES IDX 89 44 83 45 85 46 33 47 88 48 82 49 81 50 34 52 68 53 47 54
REMARK SMILES IDX 67 55 48 56 51 57 66 58 86 59 49 60 50 61 65 63 87 64 52 65
REMARK SMILES IDX 35 66 36 67 45 68 37 69 38 70 44 71 46 72 39 73 40 74 41 75
REMARK SMILES IDX 42 76 43 77 69 78 70 79 79 80 71 81 72 82 78 83 80 84 73 85
REMARK SMILES IDX 74 86 75 87 76 88 77 89 53 90 54 91 63 92 55 93 56 94 62 95
REMARK SMILES IDX 64 96 57 97 58 98 59 99 60 100 61 101
REMARK H PARENT 9 13 85 51 51 62
REMARK Flexibility Score: inf
ROOT
ATOM      1  C   UNL A   1      30.525  31.292  24.926  1.00  0.00     0.202 C 
ENDROOT
BRANCH   1   2
ATOM      2  C   UNL A   1      29.337  31.128  24.012  1.00  0.00     0.261 C 
BRANCH   2   3
ATOM      3  O   UNL A   1      29.724  30.750  22.683  1.00  0.00    -0.460 OA
BRANCH   3   4
ATOM      4  C   UNL A   1      28.967  29.807  22.084  1.00  0.00     0.338 C 
ATOM      5  O   UNL A   1      28.142  29.975  21.204  1.00  0.00    -0.246 OA
BRANCH   4   6
ATOM      6  C   UNL A   1      29.192  28.531  22.784  1.00  0.00     0.062 A 
ATOM      7  C   UNL A   1      30.529  26.547  22.837  1.00  0.00     0.050 A 
ATOM      8  C   UNL A   1      29.553  25.899  23.595  1.00  0.00     0.027 A 
ATOM      9  C   UNL A   1      30.402  27.897  22.530  1.00  0.00     0.042 A 
ATOM     10  C   UNL A   1      28.382  26.576  23.945  1.00  0.00     0.003 A 
ATOM     11  C   UNL A   1      28.187  27.886  23.514  1.00  0.00     0.016 A 
BRANCH   7  12
ATOM     12  N   UNL A   1      31.620  25.895  22.215  1.00  0.00    -0.279 N 
ATOM     13  H   UNL A   1      31.516  25.612  21.278  1.00  0.00     0.180 HD
BRANCH  12  14
ATOM     14  S   UNL A   1      33.072  25.580  22.973  1.00  0.00     0.265 S 
ATOM     15  O   UNL A   1      33.167  26.496  24.096  1.00  0.00    -0.201 OA
ATOM     16  O   UNL A   1      34.057  25.646  21.911  1.00  0.00    -0.201 OA
BRANCH  14  17
ATOM     17  C   UNL A   1      33.211  23.948  23.674  1.00  0.00     0.133 A 
ATOM     18  C   UNL A   1      32.015  22.343  25.065  1.00  0.00     0.123 A 
ATOM     19  C   UNL A   1      32.159  23.631  24.555  1.00  0.00     0.073 A 
ATOM     20  C   UNL A   1      32.814  21.308  24.592  1.00  0.00    -0.005 A 
ATOM     21  C   UNL A   1      33.904  21.644  23.786  1.00  0.00     0.055 A 
ATOM     22  C   UNL A   1      32.608  19.869  24.958  1.00  0.00     0.048 C 
ATOM     23  C   UNL A   1      34.167  22.970  23.400  1.00  0.00     0.139 A 
BRANCH  18  24
ATOM     24  O   UNL A   1      31.039  22.147  26.003  1.00  0.00    -0.496 OA
ATOM     25  C   UNL A   1      30.576  23.407  26.505  1.00  0.00     0.278 C 
ENDBRANCH  18  24
BRANCH  23  26
ATOM     26  O   UNL A   1      35.351  23.313  22.829  1.00  0.00    -0.495 OA
ATOM     27  C   UNL A   1      36.537  22.992  23.556  1.00  0.00     0.278 C 
ENDBRANCH  23  26
ENDBRANCH  14  17
ENDBRANCH  12  14
ENDBRANCH   7  12
ENDBRANCH   4   6
ENDBRANCH   3   4
ENDBRANCH   2   3
ENDBRANCH   1   2
BRANCH   1  28
ATOM     28  O   UNL A   1      31.083  29.991  25.091  1.00  0.00    -0.374 OA
BRANCH  28  29
ATOM     29  C   UNL A   1      31.739  29.732  26.310  1.00  0.00     0.202 C 
BRANCH  29  30
ATOM     30  C   UNL A   1      33.185  30.229  26.324  1.00  0.00     0.261 C 
BRANCH  30  31
ATOM     31  O   UNL A   1      33.645  30.506  27.666  1.00  0.00    -0.460 OA
BRANCH  31  32
ATOM     32  C   UNL A   1      34.806  31.220  27.773  1.00  0.00     0.338 C 
ATOM     33  O   UNL A   1      34.873  32.429  27.613  1.00  0.00    -0.246 OA
BRANCH  32  34
ATOM     34  C   UNL A   1      35.929  30.354  28.222  1.00  0.00     0.060 A 
ATOM     35  C   UNL A   1      36.021  29.881  29.543  1.00  0.00     0.016 A 
ATOM     36  C   UNL A   1      36.985  30.148  27.339  1.00  0.00     0.016 A 
ATOM     37  C   UNL A   1      37.216  29.298  30.004  1.00  0.00     0.010 A 
ATOM     38  C   UNL A   1      38.191  29.703  27.831  1.00  0.00     0.010 A 
ATOM     39  C   UNL A   1      38.323  29.260  29.155  1.00  0.00    -0.014 A 
BRANCH  39  40
ATOM     40  C   UNL A   1      39.678  28.824  29.495  1.00  0.00     0.031 A 
ATOM     41  C   UNL A   1      40.124  27.483  29.029  1.00  0.00     0.074 A 
ATOM     42  C   UNL A   1      40.604  29.695  29.966  1.00  0.00     0.049 A 
ATOM     43  N   UNL A   1      41.170  26.878  29.478  1.00  0.00    -0.248 NA
ATOM     44  C   UNL A   1      39.431  26.700  28.004  1.00  0.00     0.031 C 
ATOM     45  C   UNL A   1      42.058  29.564  29.892  1.00  0.00     0.029 A 
ATOM     46  N   UNL A   1      40.434  30.909  30.644  1.00  0.00    -0.354 N 
ATOM     47  C   UNL A   1      41.480  25.869  28.594  1.00  0.00     0.074 A 
ATOM     48  C   UNL A   1      40.324  25.742  27.742  1.00  0.00     0.031 C 
ATOM     49  C   UNL A   1      42.629  30.447  30.727  1.00  0.00     0.029 A 
ATOM     50  C   UNL A   1      41.563  31.120  31.447  1.00  0.00     0.049 A 
ATOM     51  H   UNL A   1      39.657  31.509  30.568  1.00  0.00     0.167 HD
ATOM     52  C   UNL A   1      42.746  25.362  28.581  1.00  0.00     0.037 A 
ATOM     53  C   UNL A   1      41.468  31.267  32.796  1.00  0.00     0.037 A 
ATOM     54  C   UNL A   1      43.588  26.046  29.569  1.00  0.00     0.049 A 
ATOM     55  C   UNL A   1      42.207  30.135  33.455  1.00  0.00     0.074 A 
ATOM     56  C   UNL A   1      44.562  27.027  29.457  1.00  0.00     0.029 A 
ATOM     57  N   UNL A   1      43.233  26.012  30.919  1.00  0.00    -0.354 N 
ATOM     58  N   UNL A   1      42.418  28.999  32.844  1.00  0.00    -0.248 NA
ATOM     59  C   UNL A   1      42.870  30.204  34.750  1.00  0.00     0.031 C 
ATOM     60  C   UNL A   1      44.768  27.598  30.740  1.00  0.00     0.029 A 
ATOM     61  C   UNL A   1      43.924  26.968  31.640  1.00  0.00     0.049 A 
ATOM     62  H   UNL A   1      42.578  25.387  31.307  1.00  0.00     0.167 HD
ATOM     63  C   UNL A   1      43.290  28.246  33.567  1.00  0.00     0.074 A 
ATOM     64  C   UNL A   1      43.509  29.019  34.778  1.00  0.00     0.031 C 
ATOM     65  C   UNL A   1      43.791  27.070  33.090  1.00  0.00     0.037 A 
BRANCH  52  66
ATOM     66  C   UNL A   1      43.267  24.454  27.483  1.00  0.00     0.058 A 
ATOM     67  C   UNL A   1      42.949  23.078  27.451  1.00  0.00     0.135 A 
ATOM     68  C   UNL A   1      44.095  24.885  26.422  1.00  0.00     0.135 A 
ATOM     69  F   UNL A   1      42.121  22.527  28.346  1.00  0.00    -0.206 F 
ATOM     70  C   UNL A   1      43.464  22.196  26.498  1.00  0.00     0.059 A 
ATOM     71  C   UNL A   1      44.668  24.012  25.488  1.00  0.00     0.059 A 
ATOM     72  F   UNL A   1      44.339  26.189  26.220  1.00  0.00    -0.206 F 
ATOM     73  C   UNL A   1      44.338  22.665  25.529  1.00  0.00     0.060 A 
BRANCH  73  74
ATOM     74  S   UNL A   1      44.989  21.504  24.313  1.00  0.00     0.124 S 
ATOM     75  O   UNL A   1      46.420  21.524  24.597  1.00  0.00    -0.237 OA
ATOM     76  O   UNL A   1      44.290  20.274  24.667  1.00  0.00    -0.237 OA
ATOM     77  O   UNL A   1      44.604  22.097  23.036  1.00  0.00    -0.744 OA
ENDBRANCH  73  74
ENDBRANCH  52  66
BRANCH  53  78
ATOM     78  C   UNL A   1      40.231  31.982  33.230  1.00  0.00     0.058 A 
ATOM     79  C   UNL A   1      39.120  31.189  33.597  1.00  0.00     0.135 A 
ATOM     80  C   UNL A   1      40.272  33.287  33.743  1.00  0.00     0.135 A 
ATOM     81  F   UNL A   1      39.032  29.921  33.159  1.00  0.00    -0.206 F 
ATOM     82  C   UNL A   1      38.170  31.616  34.529  1.00  0.00     0.059 A 
ATOM     83  C   UNL A   1      39.345  33.726  34.701  1.00  0.00     0.059 A 
ATOM     84  F   UNL A   1      41.296  34.097  33.440  1.00  0.00    -0.206 F 
ATOM     85  C   UNL A   1      38.328  32.866  35.127  1.00  0.00     0.060 A 
BRANCH  85  86
ATOM     86  S   UNL A   1      37.431  33.220  36.678  1.00  0.00     0.124 S 
ATOM     87  O   UNL A   1      38.271  34.236  37.295  1.00  0.00    -0.237 OA
ATOM     88  O   UNL A   1      36.125  33.683  36.209  1.00  0.00    -0.237 OA
ATOM     89  O   UNL A   1      37.400  31.915  37.330  1.00  0.00    -0.744 OA
ENDBRANCH  85  86
ENDBRANCH  53  78
BRANCH  65  90
ATOM     90  C   UNL A   1      44.311  25.954  33.955  1.00  0.00     0.058 A 
ATOM     91  C   UNL A   1      43.476  25.087  34.678  1.00  0.00     0.135 A 
ATOM     92  C   UNL A   1      45.683  25.601  33.928  1.00  0.00     0.135 A 
ATOM     93  F   UNL A   1      42.143  25.230  34.685  1.00  0.00    -0.206 F 
ATOM     94  C   UNL A   1      43.970  24.001  35.391  1.00  0.00     0.059 A 
ATOM     95  C   UNL A   1      46.186  24.479  34.572  1.00  0.00     0.059 A 
ATOM     96  F   UNL A   1      46.591  26.320  33.253  1.00  0.00    -0.206 F 
ATOM     97  C   UNL A   1      45.327  23.704  35.331  1.00  0.00     0.060 A 
BRANCH  97  98
ATOM     98  S   UNL A   1      45.947  22.279  36.228  1.00  0.00     0.124 S 
ATOM     99  O   UNL A   1      45.599  22.635  37.600  1.00  0.00    -0.237 OA
ATOM    100  O   UNL A   1      45.182  21.180  35.647  1.00  0.00    -0.237 OA
ATOM    101  O   UNL A   1      47.372  22.276  35.917  1.00  0.00    -0.744 OA
ENDBRANCH  97  98
ENDBRANCH  65  90
ENDBRANCH  39  40
ENDBRANCH  32  34
ENDBRANCH  31  32
ENDBRANCH  30  31
ENDBRANCH  29  30
ENDBRANCH  28  29
ENDBRANCH   1  28
TORSDOF 22
ENDMDL
MODEL 3
REMARK VINA RESULT:     -11.5      1.182      2.273
REMARK SMILES COc1cc(S(=O)(=O)Nc2cccc(C(=O)OCCOCCOC(=O)c3ccc(-c4c5nc(c(-c6c(F)cc(S(=O)(=O)[O-])cc6F)c6ccc([nH]6)c(-c6c(F)cc(S(=O)(=O)[O-])cc6F)c6nc(c(-c7c(F)cc(S(=O)(=O)[O-])cc7F)c7ccc4[nH]7)C=C6)C=C5)cc3)c2)c(OC)cc1C
REMARK SMILES IDX 19 1 18 2 17 3 15 4 16 5 14 6 10 7 11 8 92 9 12 10 13 11
REMARK SMILES IDX 9 12 6 14 7 15 8 16 5 17 3 18 4 19 97 20 96 21 98 22 93 23
REMARK SMILES IDX 2 24 1 25 94 26 95 27 20 28 21 29 22 30 23 31 24 32 25 33
REMARK SMILES IDX 26 34 27 35 91 36 28 37 90 38 29 39 30 40 31 41 84 42 32 43
REMARK SMILES IDX 89 44 83 45 85 46 33 47 88 48 82 49 81 50 34 52 68 53 47 54
REMARK SMILES IDX 67 55 48 56 51 57 66 58 86 59 49 60 50 61 65 63 87 64 52 65
REMARK SMILES IDX 35 66 36 67 45 68 37 69 38 70 44 71 46 72 39 73 40 74 41 75
REMARK SMILES IDX 42 76 43 77 69 78 70 79 79 80 71 81 72 82 78 83 80 84 73 85
REMARK SMILES IDX 74 86 75 87 76 88 77 89 53 90 54 91 63 92 55 93 56 94 62 95
REMARK SMILES IDX 64 96 57 97 58 98 59 99 60 100 61 101
REMARK H PARENT 9 13 85 51 51 62
REMARK Flexibility Score: inf
ROOT
ATOM      1  C   UNL A   1      30.017  30.068  24.035  1.00  0.00     0.202 C 
ENDROOT
BRANCH   1   2
ATOM      2  C   UNL A   1      29.885  29.693  22.582  1.00  0.00     0.261 C 
BRANCH   2   3
ATOM      3  O   UNL A   1      30.475  28.417  22.295  1.00  0.00    -0.460 OA
BRANCH   3   4
ATOM      4  C   UNL A   1      29.895  27.344  22.873  1.00  0.00     0.338 C 
ATOM      5  O   UNL A   1      28.855  27.322  23.507  1.00  0.00    -0.246 OA
BRANCH   4   6
ATOM      6  C   UNL A   1      30.818  26.204  22.743  1.00  0.00     0.062 A 
ATOM      7  C   UNL A   1      31.806  24.355  23.897  1.00  0.00     0.050 A 
ATOM      8  C   UNL A   1      32.816  24.285  22.937  1.00  0.00     0.027 A 
ATOM      9  C   UNL A   1      30.744  25.237  23.738  1.00  0.00     0.042 A 
ATOM     10  C   UNL A   1      32.828  25.190  21.872  1.00  0.00     0.003 A 
ATOM     11  C   UNL A   1      31.843  26.170  21.790  1.00  0.00     0.016 A 
BRANCH   7  12
ATOM     12  N   UNL A   1      31.833  23.671  25.135  1.00  0.00    -0.279 N 
ATOM     13  H   UNL A   1      31.004  23.238  25.442  1.00  0.00     0.180 HD
BRANCH  12  14
ATOM     14  S   UNL A   1      33.184  23.555  26.106  1.00  0.00     0.265 S 
ATOM     15  O   UNL A   1      32.752  22.955  27.356  1.00  0.00    -0.201 OA
ATOM     16  O   UNL A   1      33.744  24.893  26.110  1.00  0.00    -0.201 OA
BRANCH  14  17
ATOM     17  C   UNL A   1      34.465  22.486  25.479  1.00  0.00     0.133 A 
ATOM     18  C   UNL A   1      36.881  22.168  25.492  1.00  0.00     0.123 A 
ATOM     19  C   UNL A   1      35.763  22.954  25.759  1.00  0.00     0.073 A 
ATOM     20  C   UNL A   1      36.729  20.846  25.090  1.00  0.00    -0.005 A 
ATOM     21  C   UNL A   1      35.448  20.418  24.736  1.00  0.00     0.055 A 
ATOM     22  C   UNL A   1      37.871  19.886  24.951  1.00  0.00     0.048 C 
ATOM     23  C   UNL A   1      34.325  21.258  24.835  1.00  0.00     0.139 A 
BRANCH  18  24
ATOM     24  O   UNL A   1      38.109  22.741  25.683  1.00  0.00    -0.496 OA
ATOM     25  C   UNL A   1      37.973  23.974  26.400  1.00  0.00     0.278 C 
ENDBRANCH  18  24
BRANCH  23  26
ATOM     26  O   UNL A   1      33.141  20.916  24.264  1.00  0.00    -0.495 OA
ATOM     27  C   UNL A   1      32.286  20.050  25.012  1.00  0.00     0.278 C 
ENDBRANCH  23  26
ENDBRANCH  14  17
ENDBRANCH  12  14
ENDBRANCH   7  12
ENDBRANCH   4   6
ENDBRANCH   3   4
ENDBRANCH   2   3
ENDBRANCH   1   2
BRANCH   1  28
ATOM     28  O   UNL A   1      31.392  29.897  24.367  1.00  0.00    -0.374 OA
BRANCH  28  29
ATOM     29  C   UNL A   1      31.677  29.402  25.656  1.00  0.00     0.202 C 
BRANCH  29  30
ATOM     30  C   UNL A   1      32.340  30.444  26.558  1.00  0.00     0.261 C 
BRANCH  30  31
ATOM     31  O   UNL A   1      33.755  30.195  26.717  1.00  0.00    -0.460 OA
BRANCH  31  32
ATOM     32  C   UNL A   1      34.389  30.906  27.697  1.00  0.00     0.338 C 
ATOM     33  O   UNL A   1      33.951  31.943  28.171  1.00  0.00    -0.246 OA
BRANCH  32  34
ATOM     34  C   UNL A   1      35.601  30.190  28.180  1.00  0.00     0.060 A 
ATOM     35  C   UNL A   1      35.737  29.778  29.518  1.00  0.00     0.016 A 
ATOM     36  C   UNL A   1      36.679  30.074  27.309  1.00  0.00     0.016 A 
ATOM     37  C   UNL A   1      36.987  29.352  30.003  1.00  0.00     0.010 A 
ATOM     38  C   UNL A   1      37.924  29.788  27.820  1.00  0.00     0.010 A 
ATOM     39  C   UNL A   1      38.097  29.411  29.159  1.00  0.00    -0.014 A 
BRANCH  39  40
ATOM     40  C   UNL A   1      39.490  29.144  29.519  1.00  0.00     0.031 A 
ATOM     41  C   UNL A   1      40.110  27.876  29.047  1.00  0.00     0.074 A 
ATOM     42  C   UNL A   1      40.292  30.119  30.015  1.00  0.00     0.049 A 
ATOM     43  N   UNL A   1      41.216  27.402  29.508  1.00  0.00    -0.248 NA
ATOM     44  C   UNL A   1      39.538  27.025  28.002  1.00  0.00     0.031 C 
ATOM     45  C   UNL A   1      41.751  30.174  29.966  1.00  0.00     0.029 A 
ATOM     46  N   UNL A   1      39.959  31.294  30.702  1.00  0.00    -0.354 N 
ATOM     47  C   UNL A   1      41.666  26.452  28.619  1.00  0.00     0.074 A 
ATOM     48  C   UNL A   1      40.549  26.191  27.746  1.00  0.00     0.031 C 
ATOM     49  C   UNL A   1      42.193  31.111  30.819  1.00  0.00     0.029 A 
ATOM     50  C   UNL A   1      41.038  31.636  31.527  1.00  0.00     0.049 A 
ATOM     51  H   UNL A   1      39.113  31.792  30.619  1.00  0.00     0.167 HD
ATOM     52  C   UNL A   1      42.985  26.108  28.623  1.00  0.00     0.037 A 
ATOM     53  C   UNL A   1      40.904  31.753  32.875  1.00  0.00     0.037 A 
ATOM     54  C   UNL A   1      43.718  26.881  29.633  1.00  0.00     0.049 A 
ATOM     55  C   UNL A   1      41.769  30.714  33.536  1.00  0.00     0.074 A 
ATOM     56  C   UNL A   1      44.562  27.978  29.548  1.00  0.00     0.029 A 
ATOM     57  N   UNL A   1      43.348  26.785  30.976  1.00  0.00    -0.354 N 
ATOM     58  N   UNL A   1      42.132  29.622  32.917  1.00  0.00    -0.248 NA
ATOM     59  C   UNL A   1      42.397  30.850  34.843  1.00  0.00     0.031 C 
ATOM     60  C   UNL A   1      44.674  28.554  30.840  1.00  0.00     0.029 A 
ATOM     61  C   UNL A   1      43.901  27.812  31.719  1.00  0.00     0.049 A 
ATOM     62  H   UNL A   1      42.771  26.078  31.346  1.00  0.00     0.167 HD
ATOM     63  C   UNL A   1      43.080  28.975  33.648  1.00  0.00     0.074 A 
ATOM     64  C   UNL A   1      43.181  29.755  34.870  1.00  0.00     0.031 C 
ATOM     65  C   UNL A   1      43.733  27.878  33.168  1.00  0.00     0.037 A 
BRANCH  52  66
ATOM     66  C   UNL A   1      43.635  25.287  27.525  1.00  0.00     0.058 A 
ATOM     67  C   UNL A   1      43.541  23.878  27.505  1.00  0.00     0.135 A 
ATOM     68  C   UNL A   1      44.373  25.837  26.453  1.00  0.00     0.135 A 
ATOM     69  F   UNL A   1      42.819  23.208  28.412  1.00  0.00    -0.206 F 
ATOM     70  C   UNL A   1      44.181  23.082  26.552  1.00  0.00     0.059 A 
ATOM     71  C   UNL A   1      45.069  25.059  25.519  1.00  0.00     0.059 A 
ATOM     72  F   UNL A   1      44.404  27.161  26.241  1.00  0.00    -0.206 F 
ATOM     73  C   UNL A   1      44.960  23.678  25.571  1.00  0.00     0.060 A 
BRANCH  73  74
ATOM     74  S   UNL A   1      45.776  22.626  24.355  1.00  0.00     0.124 S 
ATOM     75  O   UNL A   1      44.671  22.244  23.482  1.00  0.00    -0.237 OA
ATOM     76  O   UNL A   1      46.754  23.541  23.776  1.00  0.00    -0.237 OA
ATOM     77  O   UNL A   1      46.333  21.543  25.159  1.00  0.00    -0.744 OA
ENDBRANCH  73  74
ENDBRANCH  52  66
BRANCH  53  78
ATOM     78  C   UNL A   1      39.580  32.300  33.295  1.00  0.00     0.058 A 
ATOM     79  C   UNL A   1      39.313  33.654  32.989  1.00  0.00     0.135 A 
ATOM     80  C   UNL A   1      38.469  31.470  33.505  1.00  0.00     0.135 A 
ATOM     81  F   UNL A   1      40.333  34.498  32.753  1.00  0.00    -0.206 F 
ATOM     82  C   UNL A   1      38.017  34.132  32.771  1.00  0.00     0.059 A 
ATOM     83  C   UNL A   1      37.162  31.921  33.264  1.00  0.00     0.059 A 
ATOM     84  F   UNL A   1      38.643  30.174  33.796  1.00  0.00    -0.206 F 
ATOM     85  C   UNL A   1      36.949  33.239  32.847  1.00  0.00     0.060 A 
BRANCH  85  86
ATOM     86  S   UNL A   1      35.359  33.701  32.078  1.00  0.00     0.124 S 
ATOM     87  O   UNL A   1      34.834  34.681  33.018  1.00  0.00    -0.237 OA
ATOM     88  O   UNL A   1      35.761  34.231  30.775  1.00  0.00    -0.237 OA
ATOM     89  O   UNL A   1      34.658  32.423  32.009  1.00  0.00    -0.744 OA
ENDBRANCH  85  86
ENDBRANCH  53  78
BRANCH  65  90
ATOM     90  C   UNL A   1      44.376  26.826  34.030  1.00  0.00     0.058 A 
ATOM     91  C   UNL A   1      43.647  25.835  34.708  1.00  0.00     0.135 A 
ATOM     92  C   UNL A   1      45.784  26.667  34.045  1.00  0.00     0.135 A 
ATOM     93  F   UNL A   1      42.308  25.792  34.670  1.00  0.00    -0.206 F 
ATOM     94  C   UNL A   1      44.265  24.812  35.418  1.00  0.00     0.059 A 
ATOM     95  C   UNL A   1      46.418  25.611  34.686  1.00  0.00     0.059 A 
ATOM     96  F   UNL A   1      46.604  27.521  33.415  1.00  0.00    -0.206 F 
ATOM     97  C   UNL A   1      45.651  24.708  35.400  1.00  0.00     0.060 A 
BRANCH  97  98
ATOM     98  S   UNL A   1      46.435  23.363  36.293  1.00  0.00     0.124 S 
ATOM     99  O   UNL A   1      46.783  22.462  35.198  1.00  0.00    -0.237 OA
ATOM    100  O   UNL A   1      47.559  24.028  36.945  1.00  0.00    -0.237 OA
ATOM    101  O   UNL A   1      45.385  22.895  37.190  1.00  0.00    -0.744 OA
ENDBRANCH  97  98
ENDBRANCH  65  90
ENDBRANCH  39  40
ENDBRANCH  32  34
ENDBRANCH  31  32
ENDBRANCH  30  31
ENDBRANCH  29  30
ENDBRANCH  28  29
ENDBRANCH   1  28
TORSDOF 22
ENDMDL
