MODEL 1
REMARK VINA RESULT:     -12.3      0.000      0.000
REMARK SMILES Cc1ccc(S(=O)(=O)N(c2ccccc2)[C@H](C)C(=O)OCCOCCOC(=O)c2ccc(-c3c4nc(c(-c5c(F)cc(S(=O)(=O)[O-])cc5F)c5ccc([nH]5)c(-c5c(F)cc(S(=O)(=O)[O-])cc5F)c5nc(c(-c6c(F)cc(S(=O)(=O)[O-])cc6F)c6ccc3[nH]6)C=C5)C=C4)cc2)cc1
REMARK SMILES IDX 23 1 22 2 21 3 20 4 18 5 19 6 16 7 17 8 9 9 6 10 7 11 8 12
REMARK SMILES IDX 5 13 1 14 2 15 3 16 96 17 4 18 95 19 10 20 11 21 15 22 12 23
REMARK SMILES IDX 14 24 13 25 24 26 25 27 26 28 27 29 28 30 29 31 30 32 94 33
REMARK SMILES IDX 31 34 93 35 32 36 33 37 34 38 87 39 35 40 92 41 86 42 88 43
REMARK SMILES IDX 36 44 91 45 85 46 84 47 37 49 71 50 50 51 70 52 51 53 54 54
REMARK SMILES IDX 69 55 89 56 52 57 53 58 68 60 90 61 55 62 38 63 39 64 48 65
REMARK SMILES IDX 40 66 41 67 47 68 49 69 42 70 43 71 44 72 45 73 46 74 72 75
REMARK SMILES IDX 73 76 82 77 74 78 75 79 81 80 83 81 76 82 77 83 78 84 79 85
REMARK SMILES IDX 80 86 56 87 57 88 66 89 58 90 59 91 65 92 67 93 60 94 61 95
REMARK SMILES IDX 62 96 63 97 64 98
REMARK H PARENT 88 48 54 59
REMARK Flexibility Score: inf
ROOT
ATOM      1  O   UNL A   1      33.086  29.703  25.499  1.00  0.00    -0.374 OA
ENDROOT
BRANCH   1   2
ATOM      2  C   UNL A   1      32.166  28.873  24.787  1.00  0.00     0.202 C 
BRANCH   2   3
ATOM      3  C   UNL A   1      31.551  27.990  25.828  1.00  0.00     0.261 C 
BRANCH   3   4
ATOM      4  O   UNL A   1      31.134  26.817  25.136  1.00  0.00    -0.462 OA
BRANCH   4   5
ATOM      5  C   UNL A   1      31.365  25.596  25.694  1.00  0.00     0.329 C 
ATOM      6  O   UNL A   1      31.405  25.330  26.882  1.00  0.00    -0.250 OA
BRANCH   5   7
ATOM      7  C   UNL A   1      31.605  24.621  24.552  1.00  0.00     0.206 C 
ATOM      8  C   UNL A   1      31.609  25.398  23.226  1.00  0.00     0.045 C 
BRANCH   7   9
ATOM      9  N   UNL A   1      32.855  23.766  24.696  1.00  0.00    -0.252 N 
BRANCH   9  10
ATOM     10  S   UNL A   1      34.205  24.551  23.972  1.00  0.00     0.265 S 
ATOM     11  O   UNL A   1      34.216  25.883  24.572  1.00  0.00    -0.201 OA
ATOM     12  O   UNL A   1      34.149  24.402  22.544  1.00  0.00    -0.201 OA
BRANCH  10  13
ATOM     13  C   UNL A   1      35.674  23.724  24.520  1.00  0.00     0.088 A 
ATOM     14  C   UNL A   1      39.051  21.504  25.941  1.00  0.00     0.044 C 
ATOM     15  C   UNL A   1      37.901  22.306  25.421  1.00  0.00    -0.051 A 
ATOM     16  C   UNL A   1      37.537  23.517  26.029  1.00  0.00     0.005 A 
ATOM     17  C   UNL A   1      37.210  21.877  24.287  1.00  0.00     0.005 A 
ATOM     18  C   UNL A   1      36.411  24.219  25.594  1.00  0.00     0.022 A 
ATOM     19  C   UNL A   1      36.135  22.615  23.812  1.00  0.00     0.022 A 
ENDBRANCH  10  13
ENDBRANCH   9  10
BRANCH   9  20
ATOM     20  C   UNL A   1      32.696  22.336  24.530  1.00  0.00     0.053 A 
ATOM     21  C   UNL A   1      32.932  21.410  25.541  1.00  0.00     0.027 A 
ATOM     22  C   UNL A   1      32.304  21.860  23.279  1.00  0.00     0.027 A 
ATOM     23  C   UNL A   1      32.960  20.042  25.269  1.00  0.00     0.002 A 
ATOM     24  C   UNL A   1      32.244  20.482  23.027  1.00  0.00     0.002 A 
ATOM     25  C   UNL A   1      32.616  19.573  24.013  1.00  0.00     0.000 A 
ENDBRANCH   9  20
ENDBRANCH   7   9
ENDBRANCH   5   7
ENDBRANCH   4   5
ENDBRANCH   3   4
ENDBRANCH   2   3
ENDBRANCH   1   2
BRANCH   1  26
ATOM     26  C   UNL A   1      32.838  29.842  26.880  1.00  0.00     0.202 C 
BRANCH  26  27
ATOM     27  C   UNL A   1      33.932  30.622  27.611  1.00  0.00     0.261 C 
BRANCH  27  28
ATOM     28  O   UNL A   1      35.237  30.242  27.119  1.00  0.00    -0.460 OA
BRANCH  28  29
ATOM     29  C   UNL A   1      36.305  30.718  27.828  1.00  0.00     0.338 C 
ATOM     30  O   UNL A   1      36.436  31.887  28.147  1.00  0.00    -0.246 OA
BRANCH  29  31
ATOM     31  C   UNL A   1      37.257  29.616  28.165  1.00  0.00     0.060 A 
ATOM     32  C   UNL A   1      37.190  28.941  29.399  1.00  0.00     0.016 A 
ATOM     33  C   UNL A   1      38.360  29.422  27.343  1.00  0.00     0.016 A 
ATOM     34  C   UNL A   1      38.294  28.205  29.870  1.00  0.00     0.010 A 
ATOM     35  C   UNL A   1      39.480  28.812  27.865  1.00  0.00     0.010 A 
ATOM     36  C   UNL A   1      39.471  28.209  29.132  1.00  0.00    -0.014 A 
BRANCH  36  37
ATOM     37  C   UNL A   1      40.778  27.663  29.520  1.00  0.00     0.031 A 
ATOM     38  C   UNL A   1      41.123  26.299  29.014  1.00  0.00     0.074 A 
ATOM     39  C   UNL A   1      41.757  28.436  30.054  1.00  0.00     0.049 A 
ATOM     40  N   UNL A   1      42.235  25.694  29.237  1.00  0.00    -0.248 NA
ATOM     41  C   UNL A   1      40.204  25.480  28.225  1.00  0.00     0.031 C 
ATOM     42  C   UNL A   1      43.197  28.201  29.942  1.00  0.00     0.029 A 
ATOM     43  N   UNL A   1      41.713  29.586  30.836  1.00  0.00    -0.354 N 
ATOM     44  C   UNL A   1      42.314  24.590  28.417  1.00  0.00     0.074 A 
ATOM     45  C   UNL A   1      40.989  24.461  27.867  1.00  0.00     0.031 C 
ATOM     46  C   UNL A   1      43.841  28.953  30.847  1.00  0.00     0.029 A 
ATOM     47  C   UNL A   1      42.830  29.572  31.679  1.00  0.00     0.049 A 
ATOM     48  H   UNL A   1      41.021  30.285  30.802  1.00  0.00     0.167 HD
ATOM     49  C   UNL A   1      43.530  23.987  28.268  1.00  0.00     0.037 A 
ATOM     50  C   UNL A   1      42.785  29.501  33.045  1.00  0.00     0.037 A 
ATOM     51  C   UNL A   1      44.498  24.569  29.215  1.00  0.00     0.049 A 
ATOM     52  C   UNL A   1      43.443  28.228  33.555  1.00  0.00     0.074 A 
ATOM     53  C   UNL A   1      45.547  25.468  29.134  1.00  0.00     0.029 A 
ATOM     54  N   UNL A   1      44.232  24.432  30.567  1.00  0.00    -0.354 N 
ATOM     55  N   UNL A   1      43.954  27.333  32.752  1.00  0.00    -0.248 NA
ATOM     56  C   UNL A   1      43.540  27.809  34.950  1.00  0.00     0.031 C 
ATOM     57  C   UNL A   1      45.888  25.872  30.468  1.00  0.00     0.029 A 
ATOM     58  C   UNL A   1      45.063  25.200  31.355  1.00  0.00     0.049 A 
ATOM     59  H   UNL A   1      43.526  23.850  30.926  1.00  0.00     0.167 HD
ATOM     60  C   UNL A   1      44.374  26.241  33.440  1.00  0.00     0.074 A 
ATOM     61  C   UNL A   1      44.079  26.579  34.825  1.00  0.00     0.031 C 
ATOM     62  C   UNL A   1      44.896  25.148  32.807  1.00  0.00     0.037 A 
BRANCH  49  63
ATOM     63  C   UNL A   1      43.919  22.931  27.241  1.00  0.00     0.058 A 
ATOM     64  C   UNL A   1      43.098  21.792  27.056  1.00  0.00     0.135 A 
ATOM     65  C   UNL A   1      45.077  22.931  26.432  1.00  0.00     0.135 A 
ATOM     66  F   UNL A   1      41.953  21.637  27.735  1.00  0.00    -0.206 F 
ATOM     67  C   UNL A   1      43.409  20.750  26.173  1.00  0.00     0.059 A 
ATOM     68  C   UNL A   1      45.409  21.903  25.543  1.00  0.00     0.059 A 
ATOM     69  F   UNL A   1      45.965  23.924  26.441  1.00  0.00    -0.206 F 
ATOM     70  C   UNL A   1      44.571  20.812  25.419  1.00  0.00     0.060 A 
BRANCH  70  71
ATOM     71  S   UNL A   1      44.964  19.472  24.282  1.00  0.00     0.124 S 
ATOM     72  O   UNL A   1      46.418  19.405  24.379  1.00  0.00    -0.237 OA
ATOM     73  O   UNL A   1      44.233  18.352  24.865  1.00  0.00    -0.237 OA
ATOM     74  O   UNL A   1      44.451  19.948  23.000  1.00  0.00    -0.744 OA
ENDBRANCH  70  71
ENDBRANCH  49  63
BRANCH  50  75
ATOM     75  C   UNL A   1      41.639  30.256  33.638  1.00  0.00     0.058 A 
ATOM     76  C   UNL A   1      41.794  31.657  33.685  1.00  0.00     0.135 A 
ATOM     77  C   UNL A   1      40.338  29.759  33.468  1.00  0.00     0.135 A 
ATOM     78  F   UNL A   1      43.005  32.190  33.920  1.00  0.00    -0.206 F 
ATOM     79  C   UNL A   1      40.778  32.512  33.266  1.00  0.00     0.059 A 
ATOM     80  C   UNL A   1      39.304  30.601  33.049  1.00  0.00     0.059 A 
ATOM     81  F   UNL A   1      40.124  28.435  33.448  1.00  0.00    -0.206 F 
ATOM     82  C   UNL A   1      39.570  31.958  32.855  1.00  0.00     0.060 A 
BRANCH  82  83
ATOM     83  S   UNL A   1      38.494  32.967  31.798  1.00  0.00     0.124 S 
ATOM     84  O   UNL A   1      37.727  31.953  31.086  1.00  0.00    -0.237 OA
ATOM     85  O   UNL A   1      37.758  33.748  32.789  1.00  0.00    -0.237 OA
ATOM     86  O   UNL A   1      39.442  33.732  31.001  1.00  0.00    -0.744 OA
ENDBRANCH  82  83
ENDBRANCH  50  75
BRANCH  62  87
ATOM     87  C   UNL A   1      45.249  23.893  33.548  1.00  0.00     0.058 A 
ATOM     88  C   UNL A   1      46.552  23.632  33.991  1.00  0.00     0.135 A 
ATOM     89  C   UNL A   1      44.288  22.891  33.806  1.00  0.00     0.135 A 
ATOM     90  F   UNL A   1      47.559  24.470  33.696  1.00  0.00    -0.206 F 
ATOM     91  C   UNL A   1      46.854  22.512  34.758  1.00  0.00     0.059 A 
ATOM     92  C   UNL A   1      44.583  21.730  34.504  1.00  0.00     0.059 A 
ATOM     93  F   UNL A   1      43.004  23.024  33.444  1.00  0.00    -0.206 F 
ATOM     94  C   UNL A   1      45.857  21.578  35.026  1.00  0.00     0.060 A 
BRANCH  94  95
ATOM     95  S   UNL A   1      46.220  20.176  36.090  1.00  0.00     0.124 S 
ATOM     96  O   UNL A   1      47.665  20.033  35.941  1.00  0.00    -0.237 OA
ATOM     97  O   UNL A   1      45.764  20.675  37.384  1.00  0.00    -0.237 OA
ATOM     98  O   UNL A   1      45.424  19.096  35.516  1.00  0.00    -0.744 OA
ENDBRANCH  94  95
ENDBRANCH  62  87
ENDBRANCH  36  37
ENDBRANCH  29  31
ENDBRANCH  28  29
ENDBRANCH  27  28
ENDBRANCH  26  27
ENDBRANCH   1  26
TORSDOF 21
ENDMDL
MODEL 2
REMARK VINA RESULT:     -12.1      1.974      3.327
REMARK SMILES Cc1ccc(S(=O)(=O)N(c2ccccc2)[C@H](C)C(=O)OCCOCCOC(=O)c2ccc(-c3c4nc(c(-c5c(F)cc(S(=O)(=O)[O-])cc5F)c5ccc([nH]5)c(-c5c(F)cc(S(=O)(=O)[O-])cc5F)c5nc(c(-c6c(F)cc(S(=O)(=O)[O-])cc6F)c6ccc3[nH]6)C=C5)C=C4)cc2)cc1
REMARK SMILES IDX 23 1 22 2 21 3 20 4 18 5 19 6 16 7 17 8 9 9 6 10 7 11 8 12
REMARK SMILES IDX 5 13 1 14 2 15 3 16 96 17 4 18 95 19 10 20 11 21 15 22 12 23
REMARK SMILES IDX 14 24 13 25 24 26 25 27 26 28 27 29 28 30 29 31 30 32 94 33
REMARK SMILES IDX 31 34 93 35 32 36 33 37 34 38 87 39 35 40 92 41 86 42 88 43
REMARK SMILES IDX 36 44 91 45 85 46 84 47 37 49 71 50 50 51 70 52 51 53 54 54
REMARK SMILES IDX 69 55 89 56 52 57 53 58 68 60 90 61 55 62 38 63 39 64 48 65
REMARK SMILES IDX 40 66 41 67 47 68 49 69 42 70 43 71 44 72 45 73 46 74 72 75
REMARK SMILES IDX 73 76 82 77 74 78 75 79 81 80 83 81 76 82 77 83 78 84 79 85
REMARK SMILES IDX 80 86 56 87 57 88 66 89 58 90 59 91 65 92 67 93 60 94 61 95
REMARK SMILES IDX 62 96 63 97 64 98
REMARK H PARENT 88 48 54 59
REMARK Flexibility Score: inf
ROOT
ATOM      1  O   UNL A   1      31.167  28.575  25.623  1.00  0.00    -0.374 OA
ENDROOT
BRANCH   1   2
ATOM      2  C   UNL A   1      30.840  27.876  24.421  1.00  0.00     0.202 C 
BRANCH   2   3
ATOM      3  C   UNL A   1      30.751  26.436  24.819  1.00  0.00     0.261 C 
BRANCH   3   4
ATOM      4  O   UNL A   1      32.067  26.070  25.225  1.00  0.00    -0.462 OA
BRANCH   4   5
ATOM      5  C   UNL A   1      33.069  26.055  24.302  1.00  0.00     0.329 C 
ATOM      6  O   UNL A   1      34.076  26.741  24.302  1.00  0.00    -0.250 OA
BRANCH   5   7
ATOM      7  C   UNL A   1      32.680  25.041  23.238  1.00  0.00     0.206 C 
ATOM      8  C   UNL A   1      33.197  25.526  21.874  1.00  0.00     0.045 C 
BRANCH   7   9
ATOM      9  N   UNL A   1      33.127  23.615  23.523  1.00  0.00    -0.252 N 
BRANCH   9  10
ATOM     10  S   UNL A   1      31.828  22.703  24.192  1.00  0.00     0.265 S 
ATOM     11  O   UNL A   1      30.686  23.013  23.336  1.00  0.00    -0.201 OA
ATOM     12  O   UNL A   1      31.753  22.927  25.609  1.00  0.00    -0.201 OA
BRANCH  10  13
ATOM     13  C   UNL A   1      32.196  20.984  23.962  1.00  0.00     0.088 A 
ATOM     14  C   UNL A   1      33.371  16.896  23.448  1.00  0.00     0.044 C 
ATOM     15  C   UNL A   1      32.917  18.309  23.631  1.00  0.00    -0.051 A 
ATOM     16  C   UNL A   1      32.400  19.044  22.553  1.00  0.00     0.005 A 
ATOM     17  C   UNL A   1      32.957  18.893  24.898  1.00  0.00     0.005 A 
ATOM     18  C   UNL A   1      32.058  20.389  22.710  1.00  0.00     0.022 A 
ATOM     19  C   UNL A   1      32.547  20.209  25.066  1.00  0.00     0.022 A 
ENDBRANCH  10  13
ENDBRANCH   9  10
BRANCH   9  20
ATOM     20  C   UNL A   1      34.462  23.439  24.054  1.00  0.00     0.053 A 
ATOM     21  C   UNL A   1      34.802  23.670  25.383  1.00  0.00     0.027 A 
ATOM     22  C   UNL A   1      35.470  23.036  23.178  1.00  0.00     0.027 A 
ATOM     23  C   UNL A   1      36.135  23.680  25.792  1.00  0.00     0.002 A 
ATOM     24  C   UNL A   1      36.801  22.958  23.609  1.00  0.00     0.002 A 
ATOM     25  C   UNL A   1      37.139  23.325  24.908  1.00  0.00     0.000 A 
ENDBRANCH   9  20
ENDBRANCH   7   9
ENDBRANCH   5   7
ENDBRANCH   4   5
ENDBRANCH   3   4
ENDBRANCH   2   3
ENDBRANCH   1   2
BRANCH   1  26
ATOM     26  C   UNL A   1      31.680  29.877  25.451  1.00  0.00     0.202 C 
BRANCH  26  27
ATOM     27  C   UNL A   1      32.293  30.456  26.728  1.00  0.00     0.261 C 
BRANCH  27  28
ATOM     28  O   UNL A   1      33.731  30.537  26.605  1.00  0.00    -0.460 OA
BRANCH  28  29
ATOM     29  C   UNL A   1      34.384  31.156  27.634  1.00  0.00     0.338 C 
ATOM     30  O   UNL A   1      34.078  32.255  28.063  1.00  0.00    -0.246 OA
BRANCH  29  31
ATOM     31  C   UNL A   1      35.492  30.300  28.156  1.00  0.00     0.060 A 
ATOM     32  C   UNL A   1      35.509  29.857  29.492  1.00  0.00     0.016 A 
ATOM     33  C   UNL A   1      36.627  30.139  27.371  1.00  0.00     0.016 A 
ATOM     34  C   UNL A   1      36.707  29.404  30.078  1.00  0.00     0.010 A 
ATOM     35  C   UNL A   1      37.821  29.820  27.984  1.00  0.00     0.010 A 
ATOM     36  C   UNL A   1      37.883  29.463  29.340  1.00  0.00    -0.014 A 
BRANCH  36  37
ATOM     37  C   UNL A   1      39.252  29.211  29.808  1.00  0.00     0.031 A 
ATOM     38  C   UNL A   1      39.893  27.931  29.379  1.00  0.00     0.074 A 
ATOM     39  C   UNL A   1      40.024  30.187  30.348  1.00  0.00     0.049 A 
ATOM     40  N   UNL A   1      41.092  27.576  29.676  1.00  0.00    -0.248 NA
ATOM     41  C   UNL A   1      39.203  26.913  28.589  1.00  0.00     0.031 C 
ATOM     42  C   UNL A   1      41.486  30.251  30.308  1.00  0.00     0.029 A 
ATOM     43  N   UNL A   1      39.707  31.331  31.074  1.00  0.00    -0.354 N 
ATOM     44  C   UNL A   1      41.437  26.484  28.911  1.00  0.00     0.074 A 
ATOM     45  C   UNL A   1      40.196  26.065  28.312  1.00  0.00     0.031 C 
ATOM     46  C   UNL A   1      41.915  31.150  31.204  1.00  0.00     0.029 A 
ATOM     47  C   UNL A   1      40.759  31.577  31.964  1.00  0.00     0.049 A 
ATOM     48  H   UNL A   1      38.890  31.871  30.979  1.00  0.00     0.167 HD
ATOM     49  C   UNL A   1      42.756  26.139  28.842  1.00  0.00     0.037 A 
ATOM     50  C   UNL A   1      40.659  31.546  33.328  1.00  0.00     0.037 A 
ATOM     51  C   UNL A   1      43.535  26.941  29.802  1.00  0.00     0.049 A 
ATOM     52  C   UNL A   1      41.536  30.455  33.923  1.00  0.00     0.074 A 
ATOM     53  C   UNL A   1      44.382  28.033  29.726  1.00  0.00     0.029 A 
ATOM     54  N   UNL A   1      43.234  26.800  31.146  1.00  0.00    -0.354 N 
ATOM     55  N   UNL A   1      42.259  29.657  33.184  1.00  0.00    -0.248 NA
ATOM     56  C   UNL A   1      41.645  30.114  35.339  1.00  0.00     0.031 C 
ATOM     57  C   UNL A   1      44.565  28.545  31.053  1.00  0.00     0.029 A 
ATOM     58  C   UNL A   1      43.850  27.750  31.934  1.00  0.00     0.049 A 
ATOM     59  H   UNL A   1      42.644  26.097  31.500  1.00  0.00     0.167 HD
ATOM     60  C   UNL A   1      42.858  28.699  33.938  1.00  0.00     0.074 A 
ATOM     61  C   UNL A   1      42.430  29.018  35.292  1.00  0.00     0.031 C 
ATOM     62  C   UNL A   1      43.623  27.716  33.377  1.00  0.00     0.037 A 
BRANCH  49  63
ATOM     63  C   UNL A   1      43.404  25.150  27.881  1.00  0.00     0.058 A 
ATOM     64  C   UNL A   1      43.170  25.262  26.489  1.00  0.00     0.135 A 
ATOM     65  C   UNL A   1      44.225  24.053  28.229  1.00  0.00     0.135 A 
ATOM     66  F   UNL A   1      42.422  26.253  25.983  1.00  0.00    -0.206 F 
ATOM     67  C   UNL A   1      43.682  24.365  25.544  1.00  0.00     0.059 A 
ATOM     68  C   UNL A   1      44.749  23.145  27.304  1.00  0.00     0.059 A 
ATOM     69  F   UNL A   1      44.582  23.788  29.485  1.00  0.00    -0.206 F 
ATOM     70  C   UNL A   1      44.471  23.304  25.960  1.00  0.00     0.060 A 
BRANCH  70  71
ATOM     71  S   UNL A   1      45.131  22.155  24.740  1.00  0.00     0.124 S 
ATOM     72  O   UNL A   1      44.121  21.102  24.734  1.00  0.00    -0.237 OA
ATOM     73  O   UNL A   1      45.195  22.984  23.542  1.00  0.00    -0.237 OA
ATOM     74  O   UNL A   1      46.425  21.768  25.298  1.00  0.00    -0.744 OA
ENDBRANCH  70  71
ENDBRANCH  49  63
BRANCH  50  75
ATOM     75  C   UNL A   1      39.355  32.070  33.838  1.00  0.00     0.058 A 
ATOM     76  C   UNL A   1      39.123  33.443  33.616  1.00  0.00     0.135 A 
ATOM     77  C   UNL A   1      38.237  31.222  33.838  1.00  0.00     0.135 A 
ATOM     78  F   UNL A   1      40.144  34.314  33.677  1.00  0.00    -0.206 F 
ATOM     79  C   UNL A   1      37.910  33.900  33.106  1.00  0.00     0.059 A 
ATOM     80  C   UNL A   1      37.010  31.661  33.332  1.00  0.00     0.059 A 
ATOM     81  F   UNL A   1      38.391  29.911  34.076  1.00  0.00    -0.206 F 
ATOM     82  C   UNL A   1      36.896  32.976  32.875  1.00  0.00     0.060 A 
BRANCH  82  83
ATOM     83  S   UNL A   1      35.580  33.437  31.715  1.00  0.00     0.124 S 
ATOM     84  O   UNL A   1      34.523  32.497  32.061  1.00  0.00    -0.237 OA
ATOM     85  O   UNL A   1      35.342  34.831  32.081  1.00  0.00    -0.237 OA
ATOM     86  O   UNL A   1      36.208  33.248  30.415  1.00  0.00    -0.744 OA
ENDBRANCH  82  83
ENDBRANCH  50  75
BRANCH  62  87
ATOM     87  C   UNL A   1      44.186  26.588  34.189  1.00  0.00     0.058 A 
ATOM     88  C   UNL A   1      45.565  26.400  34.347  1.00  0.00     0.135 A 
ATOM     89  C   UNL A   1      43.350  25.631  34.806  1.00  0.00     0.135 A 
ATOM     90  F   UNL A   1      46.444  27.189  33.707  1.00  0.00    -0.206 F 
ATOM     91  C   UNL A   1      46.080  25.409  35.176  1.00  0.00     0.059 A 
ATOM     92  C   UNL A   1      43.844  24.589  35.576  1.00  0.00     0.059 A 
ATOM     93  F   UNL A   1      42.013  25.703  34.740  1.00  0.00    -0.206 F 
ATOM     94  C   UNL A   1      45.208  24.522  35.802  1.00  0.00     0.060 A 
BRANCH  94  95
ATOM     95  S   UNL A   1      45.862  23.297  36.943  1.00  0.00     0.124 S 
ATOM     96  O   UNL A   1      45.338  22.048  36.399  1.00  0.00    -0.237 OA
ATOM     97  O   UNL A   1      47.298  23.501  36.788  1.00  0.00    -0.237 OA
ATOM     98  O   UNL A   1      45.304  23.698  38.231  1.00  0.00    -0.744 OA
ENDBRANCH  94  95
ENDBRANCH  62  87
ENDBRANCH  36  37
ENDBRANCH  29  31
ENDBRANCH  28  29
ENDBRANCH  27  28
ENDBRANCH  26  27
ENDBRANCH   1  26
TORSDOF 21
ENDMDL
MODEL 3
REMARK VINA RESULT:     -12.0      1.751      3.174
REMARK SMILES Cc1ccc(S(=O)(=O)N(c2ccccc2)[C@H](C)C(=O)OCCOCCOC(=O)c2ccc(-c3c4nc(c(-c5c(F)cc(S(=O)(=O)[O-])cc5F)c5ccc([nH]5)c(-c5c(F)cc(S(=O)(=O)[O-])cc5F)c5nc(c(-c6c(F)cc(S(=O)(=O)[O-])cc6F)c6ccc3[nH]6)C=C5)C=C4)cc2)cc1
REMARK SMILES IDX 23 1 22 2 21 3 20 4 18 5 19 6 16 7 17 8 9 9 6 10 7 11 8 12
REMARK SMILES IDX 5 13 1 14 2 15 3 16 96 17 4 18 95 19 10 20 11 21 15 22 12 23
REMARK SMILES IDX 14 24 13 25 24 26 25 27 26 28 27 29 28 30 29 31 30 32 94 33
REMARK SMILES IDX 31 34 93 35 32 36 33 37 34 38 87 39 35 40 92 41 86 42 88 43
REMARK SMILES IDX 36 44 91 45 85 46 84 47 37 49 71 50 50 51 70 52 51 53 54 54
REMARK SMILES IDX 69 55 89 56 52 57 53 58 68 60 90 61 55 62 38 63 39 64 48 65
REMARK SMILES IDX 40 66 41 67 47 68 49 69 42 70 43 71 44 72 45 73 46 74 72 75
REMARK SMILES IDX 73 76 82 77 74 78 75 79 81 80 83 81 76 82 77 83 78 84 79 85
REMARK SMILES IDX 80 86 56 87 57 88 66 89 58 90 59 91 65 92 67 93 60 94 61 95
REMARK SMILES IDX 62 96 63 97 64 98
REMARK H PARENT 88 48 54 59
REMARK Flexibility Score: inf
ROOT
ATOM      1  O   UNL A   1      31.337  29.139  24.950  1.00  0.00    -0.374 OA
ENDROOT
BRANCH   1   2
ATOM      2  C   UNL A   1      30.890  29.298  23.602  1.00  0.00     0.202 C 
BRANCH   2   3
ATOM      3  C   UNL A   1      31.310  28.045  22.901  1.00  0.00     0.261 C 
BRANCH   3   4
ATOM      4  O   UNL A   1      32.281  27.439  23.749  1.00  0.00    -0.462 OA
BRANCH   4   5
ATOM      5  C   UNL A   1      33.286  26.705  23.195  1.00  0.00     0.329 C 
ATOM      6  O   UNL A   1      33.584  26.646  22.015  1.00  0.00    -0.250 OA
BRANCH   5   7
ATOM      7  C   UNL A   1      33.951  25.934  24.325  1.00  0.00     0.206 C 
ATOM      8  C   UNL A   1      33.285  26.324  25.653  1.00  0.00     0.045 C 
BRANCH   7   9
ATOM      9  N   UNL A   1      33.972  24.424  24.139  1.00  0.00    -0.252 N 
BRANCH   9  10
ATOM     10  S   UNL A   1      32.524  23.724  24.753  1.00  0.00     0.265 S 
ATOM     11  O   UNL A   1      31.453  24.473  24.102  1.00  0.00    -0.201 OA
ATOM     12  O   UNL A   1      32.588  23.650  26.186  1.00  0.00    -0.201 OA
BRANCH  10  13
ATOM     13  C   UNL A   1      32.429  22.058  24.155  1.00  0.00     0.088 A 
ATOM     14  C   UNL A   1      32.493  18.013  22.746  1.00  0.00     0.044 C 
ATOM     15  C   UNL A   1      32.425  19.422  23.242  1.00  0.00    -0.051 A 
ATOM     16  C   UNL A   1      32.109  20.475  22.371  1.00  0.00     0.005 A 
ATOM     17  C   UNL A   1      32.625  19.693  24.596  1.00  0.00     0.005 A 
ATOM     18  C   UNL A   1      32.131  21.798  22.819  1.00  0.00     0.022 A 
ATOM     19  C   UNL A   1      32.574  21.002  25.054  1.00  0.00     0.022 A 
ENDBRANCH  10  13
ENDBRANCH   9  10
BRANCH   9  20
ATOM     20  C   UNL A   1      35.234  23.752  24.365  1.00  0.00     0.053 A 
ATOM     21  C   UNL A   1      35.783  22.821  23.489  1.00  0.00     0.027 A 
ATOM     22  C   UNL A   1      35.929  24.038  25.541  1.00  0.00     0.027 A 
ATOM     23  C   UNL A   1      36.893  22.060  23.853  1.00  0.00     0.002 A 
ATOM     24  C   UNL A   1      37.098  23.336  25.868  1.00  0.00     0.002 A 
ATOM     25  C   UNL A   1      37.555  22.314  25.042  1.00  0.00     0.000 A 
ENDBRANCH   9  20
ENDBRANCH   7   9
ENDBRANCH   5   7
ENDBRANCH   4   5
ENDBRANCH   3   4
ENDBRANCH   2   3
ENDBRANCH   1   2
BRANCH   1  26
ATOM     26  C   UNL A   1      31.490  30.331  25.686  1.00  0.00     0.202 C 
BRANCH  26  27
ATOM     27  C   UNL A   1      32.382  30.167  26.918  1.00  0.00     0.261 C 
BRANCH  27  28
ATOM     28  O   UNL A   1      33.706  30.684  26.655  1.00  0.00    -0.460 OA
BRANCH  28  29
ATOM     29  C   UNL A   1      34.364  31.215  27.729  1.00  0.00     0.338 C 
ATOM     30  O   UNL A   1      34.070  32.281  28.242  1.00  0.00    -0.246 OA
BRANCH  29  31
ATOM     31  C   UNL A   1      35.460  30.307  28.186  1.00  0.00     0.060 A 
ATOM     32  C   UNL A   1      35.523  29.842  29.513  1.00  0.00     0.016 A 
ATOM     33  C   UNL A   1      36.550  30.114  27.345  1.00  0.00     0.016 A 
ATOM     34  C   UNL A   1      36.727  29.333  30.035  1.00  0.00     0.010 A 
ATOM     35  C   UNL A   1      37.757  29.739  27.896  1.00  0.00     0.010 A 
ATOM     36  C   UNL A   1      37.869  29.357  29.242  1.00  0.00    -0.014 A 
BRANCH  36  37
ATOM     37  C   UNL A   1      39.247  29.044  29.640  1.00  0.00     0.031 A 
ATOM     38  C   UNL A   1      39.806  27.735  29.186  1.00  0.00     0.074 A 
ATOM     39  C   UNL A   1      40.089  29.986  30.135  1.00  0.00     0.049 A 
ATOM     40  N   UNL A   1      41.002  27.326  29.423  1.00  0.00    -0.248 NA
ATOM     41  C   UNL A   1      39.030  26.748  28.437  1.00  0.00     0.031 C 
ATOM     42  C   UNL A   1      41.548  29.982  30.021  1.00  0.00     0.029 A 
ATOM     43  N   UNL A   1      39.862  31.144  30.872  1.00  0.00    -0.354 N 
ATOM     44  C   UNL A   1      41.256  26.218  28.646  1.00  0.00     0.074 A 
ATOM     45  C   UNL A   1      39.969  25.855  28.113  1.00  0.00     0.031 C 
ATOM     46  C   UNL A   1      42.064  30.863  30.890  1.00  0.00     0.029 A 
ATOM     47  C   UNL A   1      40.969  31.344  31.705  1.00  0.00     0.049 A 
ATOM     48  H   UNL A   1      39.067  31.721  30.816  1.00  0.00     0.167 HD
ATOM     49  C   UNL A   1      42.553  25.813  28.511  1.00  0.00     0.037 A 
ATOM     50  C   UNL A   1      40.938  31.321  33.073  1.00  0.00     0.037 A 
ATOM     51  C   UNL A   1      43.416  26.580  29.426  1.00  0.00     0.049 A 
ATOM     52  C   UNL A   1      41.794  30.193  33.627  1.00  0.00     0.074 A 
ATOM     53  C   UNL A   1      44.307  27.633  29.301  1.00  0.00     0.029 A 
ATOM     54  N   UNL A   1      43.179  26.457  30.784  1.00  0.00    -0.354 N 
ATOM     55  N   UNL A   1      42.441  29.360  32.856  1.00  0.00    -0.248 NA
ATOM     56  C   UNL A   1      41.960  29.851  35.037  1.00  0.00     0.031 C 
ATOM     57  C   UNL A   1      44.581  28.139  30.615  1.00  0.00     0.029 A 
ATOM     58  C   UNL A   1      43.877  27.379  31.535  1.00  0.00     0.049 A 
ATOM     59  H   UNL A   1      42.576  25.783  31.172  1.00  0.00     0.167 HD
ATOM     60  C   UNL A   1      43.033  28.378  33.583  1.00  0.00     0.074 A 
ATOM     61  C   UNL A   1      42.690  28.719  34.956  1.00  0.00     0.031 C 
ATOM     62  C   UNL A   1      43.723  27.359  32.989  1.00  0.00     0.037 A 
BRANCH  49  63
ATOM     63  C   UNL A   1      43.105  24.792  27.523  1.00  0.00     0.058 A 
ATOM     64  C   UNL A   1      42.759  23.426  27.653  1.00  0.00     0.135 A 
ATOM     65  C   UNL A   1      43.996  25.051  26.456  1.00  0.00     0.135 A 
ATOM     66  F   UNL A   1      41.913  23.006  28.606  1.00  0.00    -0.206 F 
ATOM     67  C   UNL A   1      43.263  22.418  26.822  1.00  0.00     0.059 A 
ATOM     68  C   UNL A   1      44.511  24.062  25.613  1.00  0.00     0.059 A 
ATOM     69  F   UNL A   1      44.424  26.275  26.153  1.00  0.00    -0.206 F 
ATOM     70  C   UNL A   1      44.143  22.744  25.802  1.00  0.00     0.060 A 
BRANCH  70  71
ATOM     71  S   UNL A   1      44.785  21.445  24.733  1.00  0.00     0.124 S 
ATOM     72  O   UNL A   1      46.193  21.401  25.115  1.00  0.00    -0.237 OA
ATOM     73  O   UNL A   1      43.980  20.295  25.132  1.00  0.00    -0.237 OA
ATOM     74  O   UNL A   1      44.525  21.948  23.387  1.00  0.00    -0.744 OA
ENDBRANCH  70  71
ENDBRANCH  49  63
BRANCH  50  75
ATOM     75  C   UNL A   1      39.687  31.905  33.646  1.00  0.00     0.058 A 
ATOM     76  C   UNL A   1      39.519  33.292  33.452  1.00  0.00     0.135 A 
ATOM     77  C   UNL A   1      38.527  31.118  33.685  1.00  0.00     0.135 A 
ATOM     78  F   UNL A   1      40.587  34.107  33.480  1.00  0.00    -0.206 F 
ATOM     79  C   UNL A   1      38.312  33.820  33.002  1.00  0.00     0.059 A 
ATOM     80  C   UNL A   1      37.304  31.629  33.239  1.00  0.00     0.059 A 
ATOM     81  F   UNL A   1      38.621  29.797  33.899  1.00  0.00    -0.206 F 
ATOM     82  C   UNL A   1      37.241  32.954  32.805  1.00  0.00     0.060 A 
BRANCH  82  83
ATOM     83  S   UNL A   1      35.902  33.502  31.709  1.00  0.00     0.124 S 
ATOM     84  O   UNL A   1      35.083  32.302  31.603  1.00  0.00    -0.237 OA
ATOM     85  O   UNL A   1      35.328  34.605  32.476  1.00  0.00    -0.237 OA
ATOM     86  O   UNL A   1      36.610  33.904  30.502  1.00  0.00    -0.744 OA
ENDBRANCH  82  83
ENDBRANCH  50  75
BRANCH  62  87
ATOM     87  C   UNL A   1      44.274  26.208  33.775  1.00  0.00     0.058 A 
ATOM     88  C   UNL A   1      43.446  25.317  34.471  1.00  0.00     0.135 A 
ATOM     89  C   UNL A   1      45.665  25.985  33.885  1.00  0.00     0.135 A 
ATOM     90  F   UNL A   1      42.118  25.510  34.522  1.00  0.00    -0.206 F 
ATOM     91  C   UNL A   1      43.956  24.199  35.121  1.00  0.00     0.059 A 
ATOM     92  C   UNL A   1      46.200  24.919  34.592  1.00  0.00     0.059 A 
ATOM     93  F   UNL A   1      46.562  26.759  33.259  1.00  0.00    -0.206 F 
ATOM     94  C   UNL A   1      45.334  23.998  35.158  1.00  0.00     0.060 A 
BRANCH  94  95
ATOM     95  S   UNL A   1      45.992  22.510  35.919  1.00  0.00     0.124 S 
ATOM     96  O   UNL A   1      45.599  22.670  37.316  1.00  0.00    -0.237 OA
ATOM     97  O   UNL A   1      45.282  21.473  35.177  1.00  0.00    -0.237 OA
ATOM     98  O   UNL A   1      47.426  22.599  35.660  1.00  0.00    -0.744 OA
ENDBRANCH  94  95
ENDBRANCH  62  87
ENDBRANCH  36  37
ENDBRANCH  29  31
ENDBRANCH  28  29
ENDBRANCH  27  28
ENDBRANCH  26  27
ENDBRANCH   1  26
TORSDOF 21
ENDMDL
