MODEL 1
REMARK VINA RESULT:      -9.8      0.000      0.000
REMARK SMILES CC[C@](C)(Nc1cccc(Cl)c1C(N)=O)C(=O)OCCOCCOC(=O)c1ccc(-c2c3nc(c(-c4c(F)cc(S(=O)(=O)[O-])cc4F)c4ccc([nH]4)c(-c4c(F)cc(S(=O)(=O)[O-])cc4F)c4nc(c(-c5c(F)cc(S(=O)(=O)[O-])cc5F)c5ccc2[nH]5)C=C4)C=C3)cc1
REMARK SMILES IDX 21 1 20 2 19 3 18 4 16 5 17 6 3 7 4 8 2 9 1 10 5 11 6 13
REMARK SMILES IDX 7 14 12 15 8 16 10 17 9 18 11 19 13 20 14 21 15 22 22 25
REMARK SMILES IDX 23 26 24 27 25 28 26 29 27 30 28 31 92 32 29 33 91 34 30 35
REMARK SMILES IDX 31 36 32 37 85 38 33 39 90 40 84 41 86 42 34 43 89 44 83 45
REMARK SMILES IDX 82 46 35 48 69 49 48 50 68 51 49 52 52 53 67 54 87 55 50 56
REMARK SMILES IDX 51 57 66 59 88 60 53 61 36 62 37 63 46 64 38 65 39 66 45 67
REMARK SMILES IDX 47 68 40 69 41 70 42 71 43 72 44 73 70 74 71 75 80 76 72 77
REMARK SMILES IDX 73 78 79 79 81 80 74 81 75 82 76 83 77 84 78 85 54 86 55 87
REMARK SMILES IDX 64 88 56 89 57 90 63 91 65 92 58 93 59 94 60 95 61 96 62 97
REMARK H PARENT 5 12 14 23 14 24 86 47 52 58
REMARK Flexibility Score: inf
ROOT
ATOM      1  O   UNL A   1      32.979  29.583  24.966  1.00  0.00    -0.374 OA
ENDROOT
BRANCH   1   2
ATOM      2  C   UNL A   1      32.382  28.644  24.068  1.00  0.00     0.202 C 
BRANCH   2   3
ATOM      3  C   UNL A   1      33.353  27.943  23.121  1.00  0.00     0.261 C 
BRANCH   3   4
ATOM      4  O   UNL A   1      33.572  26.578  23.534  1.00  0.00    -0.462 OA
BRANCH   4   5
ATOM      5  C   UNL A   1      32.493  25.768  23.436  1.00  0.00     0.331 C 
ATOM      6  O   UNL A   1      31.669  25.865  22.526  1.00  0.00    -0.249 OA
BRANCH   5   7
ATOM      7  C   UNL A   1      32.288  24.791  24.621  1.00  0.00     0.133 C 
ATOM      8  C   UNL A   1      31.429  23.648  24.009  1.00  0.00     0.047 C 
BRANCH   7   9
ATOM      9  C   UNL A   1      31.561  25.602  25.735  1.00  0.00     0.037 C 
ATOM     10  C   UNL A   1      30.040  25.591  25.669  1.00  0.00     0.007 C 
ENDBRANCH   7   9
BRANCH   7  11
ATOM     11  N   UNL A   1      33.427  24.051  25.272  1.00  0.00    -0.369 N 
ATOM     12  H   UNL A   1      33.453  24.161  26.251  1.00  0.00     0.161 HD
BRANCH  11  13
ATOM     13  C   UNL A   1      34.450  23.245  24.786  1.00  0.00     0.049 A 
ATOM     14  C   UNL A   1      35.482  23.852  24.051  1.00  0.00     0.026 A 
ATOM     15  C   UNL A   1      34.652  21.890  25.231  1.00  0.00     0.081 A 
ATOM     16  C   UNL A   1      36.638  23.164  23.695  1.00  0.00     0.004 A 
ATOM     17  C   UNL A   1      35.791  21.181  24.785  1.00  0.00     0.055 A 
ATOM     18  C   UNL A   1      36.788  21.835  24.060  1.00  0.00     0.021 A 
ATOM     19  Cl  UNL A   1      36.085  19.489  25.031  1.00  0.00    -0.083 Cl
BRANCH  15  20
ATOM     20  C   UNL A   1      33.750  21.209  26.240  1.00  0.00     0.252 C 
ATOM     21  N   UNL A   1      32.588  20.658  25.793  1.00  0.00    -0.365 N 
ATOM     22  O   UNL A   1      33.954  21.154  27.445  1.00  0.00    -0.269 OA
ATOM     23  H   UNL A   1      32.373  20.674  24.833  1.00  0.00     0.159 HD
ATOM     24  H   UNL A   1      31.964  20.243  26.431  1.00  0.00     0.159 HD
ENDBRANCH  15  20
ENDBRANCH  11  13
ENDBRANCH   7  11
ENDBRANCH   5   7
ENDBRANCH   4   5
ENDBRANCH   3   4
ENDBRANCH   2   3
ENDBRANCH   1   2
BRANCH   1  25
ATOM     25  C   UNL A   1      32.125  30.108  25.984  1.00  0.00     0.202 C 
BRANCH  25  26
ATOM     26  C   UNL A   1      32.822  30.903  27.095  1.00  0.00     0.261 C 
BRANCH  26  27
ATOM     27  O   UNL A   1      33.956  30.197  27.622  1.00  0.00    -0.460 OA
BRANCH  27  28
ATOM     28  C   UNL A   1      34.767  30.932  28.427  1.00  0.00     0.338 C 
ATOM     29  O   UNL A   1      34.452  31.888  29.107  1.00  0.00    -0.246 OA
BRANCH  28  30
ATOM     30  C   UNL A   1      36.090  30.272  28.519  1.00  0.00     0.060 A 
ATOM     31  C   UNL A   1      36.458  29.688  29.734  1.00  0.00     0.016 A 
ATOM     32  C   UNL A   1      36.971  30.238  27.440  1.00  0.00     0.016 A 
ATOM     33  C   UNL A   1      37.742  29.164  29.894  1.00  0.00     0.010 A 
ATOM     34  C   UNL A   1      38.222  29.630  27.572  1.00  0.00     0.010 A 
ATOM     35  C   UNL A   1      38.657  29.180  28.830  1.00  0.00    -0.014 A 
BRANCH  35  36
ATOM     36  C   UNL A   1      40.109  28.972  29.099  1.00  0.00     0.031 A 
ATOM     37  C   UNL A   1      40.742  27.654  28.696  1.00  0.00     0.074 A 
ATOM     38  C   UNL A   1      40.877  29.947  29.625  1.00  0.00     0.049 A 
ATOM     39  N   UNL A   1      41.993  27.273  28.772  1.00  0.00    -0.248 NA
ATOM     40  C   UNL A   1      39.843  26.614  28.165  1.00  0.00     0.031 C 
ATOM     41  C   UNL A   1      40.398  31.253  30.082  1.00  0.00     0.029 A 
ATOM     42  N   UNL A   1      42.231  29.994  29.852  1.00  0.00    -0.354 N 
ATOM     43  C   UNL A   1      42.016  25.955  28.321  1.00  0.00     0.074 A 
ATOM     44  C   UNL A   1      40.650  25.573  28.056  1.00  0.00     0.031 C 
ATOM     45  C   UNL A   1      41.447  31.985  30.499  1.00  0.00     0.029 A 
ATOM     46  C   UNL A   1      42.670  31.196  30.360  1.00  0.00     0.049 A 
ATOM     47  H   UNL A   1      42.834  29.237  29.668  1.00  0.00     0.167 HD
ATOM     48  C   UNL A   1      43.076  25.142  28.101  1.00  0.00     0.037 A 
ATOM     49  C   UNL A   1      43.916  31.617  30.661  1.00  0.00     0.037 A 
ATOM     50  C   UNL A   1      44.441  25.537  28.310  1.00  0.00     0.049 A 
ATOM     51  C   UNL A   1      45.086  30.702  30.396  1.00  0.00     0.074 A 
ATOM     52  C   UNL A   1      45.595  24.818  28.059  1.00  0.00     0.029 A 
ATOM     53  N   UNL A   1      44.837  26.767  28.817  1.00  0.00    -0.354 N 
ATOM     54  N   UNL A   1      45.091  29.483  29.908  1.00  0.00    -0.248 NA
ATOM     55  C   UNL A   1      46.423  31.229  30.703  1.00  0.00     0.031 C 
ATOM     56  C   UNL A   1      46.687  25.590  28.466  1.00  0.00     0.029 A 
ATOM     57  C   UNL A   1      46.217  26.817  28.906  1.00  0.00     0.049 A 
ATOM     58  H   UNL A   1      44.227  27.495  29.074  1.00  0.00     0.167 HD
ATOM     59  C   UNL A   1      46.431  29.117  29.810  1.00  0.00     0.074 A 
ATOM     60  C   UNL A   1      47.206  30.246  30.281  1.00  0.00     0.031 C 
ATOM     61  C   UNL A   1      46.973  27.955  29.363  1.00  0.00     0.037 A 
BRANCH  48  62
ATOM     62  C   UNL A   1      42.798  23.745  27.605  1.00  0.00     0.058 A 
ATOM     63  C   UNL A   1      42.790  23.426  26.236  1.00  0.00     0.135 A 
ATOM     64  C   UNL A   1      42.554  22.704  28.516  1.00  0.00     0.135 A 
ATOM     65  F   UNL A   1      42.998  24.384  25.317  1.00  0.00    -0.206 F 
ATOM     66  C   UNL A   1      42.514  22.139  25.787  1.00  0.00     0.059 A 
ATOM     67  C   UNL A   1      42.313  21.402  28.091  1.00  0.00     0.059 A 
ATOM     68  F   UNL A   1      42.547  22.949  29.836  1.00  0.00    -0.206 F 
ATOM     69  C   UNL A   1      42.279  21.132  26.724  1.00  0.00     0.060 A 
BRANCH  69  70
ATOM     70  S   UNL A   1      41.935  19.464  26.127  1.00  0.00     0.124 S 
ATOM     71  O   UNL A   1      42.362  18.653  27.262  1.00  0.00    -0.237 OA
ATOM     72  O   UNL A   1      40.496  19.511  25.887  1.00  0.00    -0.237 OA
ATOM     73  O   UNL A   1      42.763  19.354  24.930  1.00  0.00    -0.744 OA
ENDBRANCH  69  70
ENDBRANCH  48  62
BRANCH  49  74
ATOM     74  C   UNL A   1      44.133  32.988  31.204  1.00  0.00     0.058 A 
ATOM     75  C   UNL A   1      44.179  33.222  32.588  1.00  0.00     0.135 A 
ATOM     76  C   UNL A   1      44.294  34.092  30.354  1.00  0.00     0.135 A 
ATOM     77  F   UNL A   1      44.022  32.201  33.447  1.00  0.00    -0.206 F 
ATOM     78  C   UNL A   1      44.358  34.500  33.109  1.00  0.00     0.059 A 
ATOM     79  C   UNL A   1      44.502  35.376  30.851  1.00  0.00     0.059 A 
ATOM     80  F   UNL A   1      44.272  33.924  29.023  1.00  0.00    -0.206 F 
ATOM     81  C   UNL A   1      44.522  35.571  32.231  1.00  0.00     0.060 A 
BRANCH  81  82
ATOM     82  S   UNL A   1      44.807  37.218  32.917  1.00  0.00     0.124 S 
ATOM     83  O   UNL A   1      45.727  37.790  31.943  1.00  0.00    -0.237 OA
ATOM     84  O   UNL A   1      43.459  37.779  32.931  1.00  0.00    -0.237 OA
ATOM     85  O   UNL A   1      45.373  36.940  34.234  1.00  0.00    -0.744 OA
ENDBRANCH  81  82
ENDBRANCH  49  74
BRANCH  61  86
ATOM     86  C   UNL A   1      48.475  27.863  29.303  1.00  0.00     0.058 A 
ATOM     87  C   UNL A   1      49.204  28.283  28.180  1.00  0.00     0.135 A 
ATOM     88  C   UNL A   1      49.195  27.381  30.410  1.00  0.00     0.135 A 
ATOM     89  F   UNL A   1      48.567  28.754  27.097  1.00  0.00    -0.206 F 
ATOM     90  C   UNL A   1      50.591  28.187  28.139  1.00  0.00     0.059 A 
ATOM     91  C   UNL A   1      50.584  27.309  30.403  1.00  0.00     0.059 A 
ATOM     92  F   UNL A   1      48.550  26.984  31.517  1.00  0.00    -0.206 F 
ATOM     93  C   UNL A   1      51.272  27.695  29.255  1.00  0.00     0.060 A 
BRANCH  93  94
ATOM     94  S   UNL A   1      53.071  27.575  29.188  1.00  0.00     0.124 S 
ATOM     95  O   UNL A   1      53.306  26.312  29.882  1.00  0.00    -0.237 OA
ATOM     96  O   UNL A   1      53.331  27.567  27.752  1.00  0.00    -0.237 OA
ATOM     97  O   UNL A   1      53.520  28.771  29.893  1.00  0.00    -0.744 OA
ENDBRANCH  93  94
ENDBRANCH  61  86
ENDBRANCH  35  36
ENDBRANCH  28  30
ENDBRANCH  27  28
ENDBRANCH  26  27
ENDBRANCH  25  26
ENDBRANCH   1  25
TORSDOF 21
ENDMDL
MODEL 2
REMARK VINA RESULT:      -9.8      4.130      8.762
REMARK SMILES CC[C@](C)(Nc1cccc(Cl)c1C(N)=O)C(=O)OCCOCCOC(=O)c1ccc(-c2c3nc(c(-c4c(F)cc(S(=O)(=O)[O-])cc4F)c4ccc([nH]4)c(-c4c(F)cc(S(=O)(=O)[O-])cc4F)c4nc(c(-c5c(F)cc(S(=O)(=O)[O-])cc5F)c5ccc2[nH]5)C=C4)C=C3)cc1
REMARK SMILES IDX 21 1 20 2 19 3 18 4 16 5 17 6 3 7 4 8 2 9 1 10 5 11 6 13
REMARK SMILES IDX 7 14 12 15 8 16 10 17 9 18 11 19 13 20 14 21 15 22 22 25
REMARK SMILES IDX 23 26 24 27 25 28 26 29 27 30 28 31 92 32 29 33 91 34 30 35
REMARK SMILES IDX 31 36 32 37 85 38 33 39 90 40 84 41 86 42 34 43 89 44 83 45
REMARK SMILES IDX 82 46 35 48 69 49 48 50 68 51 49 52 52 53 67 54 87 55 50 56
REMARK SMILES IDX 51 57 66 59 88 60 53 61 36 62 37 63 46 64 38 65 39 66 45 67
REMARK SMILES IDX 47 68 40 69 41 70 42 71 43 72 44 73 70 74 71 75 80 76 72 77
REMARK SMILES IDX 73 78 79 79 81 80 74 81 75 82 76 83 77 84 78 85 54 86 55 87
REMARK SMILES IDX 64 88 56 89 57 90 63 91 65 92 58 93 59 94 60 95 61 96 62 97
REMARK H PARENT 5 12 14 23 14 24 86 47 52 58
REMARK Flexibility Score: inf
ROOT
ATOM      1  O   UNL A   1      31.111  29.869  24.974  1.00  0.00    -0.374 OA
ENDROOT
BRANCH   1   2
ATOM      2  C   UNL A   1      31.002  28.789  24.043  1.00  0.00     0.202 C 
BRANCH   2   3
ATOM      3  C   UNL A   1      32.232  27.889  23.948  1.00  0.00     0.261 C 
BRANCH   3   4
ATOM      4  O   UNL A   1      31.842  26.504  23.833  1.00  0.00    -0.462 OA
BRANCH   4   5
ATOM      5  C   UNL A   1      32.004  25.766  24.955  1.00  0.00     0.331 C 
ATOM      6  O   UNL A   1      31.946  26.254  26.085  1.00  0.00    -0.249 OA
BRANCH   5   7
ATOM      7  C   UNL A   1      32.402  24.287  24.724  1.00  0.00     0.133 C 
ATOM      8  C   UNL A   1      33.057  24.300  23.313  1.00  0.00     0.047 C 
BRANCH   7   9
ATOM      9  C   UNL A   1      31.082  23.463  24.801  1.00  0.00     0.037 C 
ATOM     10  C   UNL A   1      30.902  22.627  26.062  1.00  0.00     0.007 C 
ENDBRANCH   7   9
BRANCH   7  11
ATOM     11  N   UNL A   1      33.427  23.578  25.570  1.00  0.00    -0.369 N 
ATOM     12  H   UNL A   1      33.110  23.384  26.483  1.00  0.00     0.161 HD
BRANCH  11  13
ATOM     13  C   UNL A   1      34.725  23.139  25.337  1.00  0.00     0.049 A 
ATOM     14  C   UNL A   1      35.769  24.074  25.426  1.00  0.00     0.026 A 
ATOM     15  C   UNL A   1      35.079  21.743  25.291  1.00  0.00     0.081 A 
ATOM     16  C   UNL A   1      37.107  23.692  25.403  1.00  0.00     0.004 A 
ATOM     17  C   UNL A   1      36.441  21.381  25.179  1.00  0.00     0.055 A 
ATOM     18  C   UNL A   1      37.437  22.352  25.278  1.00  0.00     0.021 A 
ATOM     19  Cl  UNL A   1      37.036  19.777  24.888  1.00  0.00    -0.083 Cl
BRANCH  15  20
ATOM     20  C   UNL A   1      34.065  20.629  25.456  1.00  0.00     0.252 C 
ATOM     21  N   UNL A   1      33.751  19.880  24.365  1.00  0.00    -0.365 N 
ATOM     22  O   UNL A   1      33.460  20.372  26.489  1.00  0.00    -0.269 OA
ATOM     23  H   UNL A   1      34.206  20.043  23.507  1.00  0.00     0.159 HD
ATOM     24  H   UNL A   1      33.068  19.174  24.433  1.00  0.00     0.159 HD
ENDBRANCH  15  20
ENDBRANCH  11  13
ENDBRANCH   7  11
ENDBRANCH   5   7
ENDBRANCH   4   5
ENDBRANCH   3   4
ENDBRANCH   2   3
ENDBRANCH   1   2
BRANCH   1  25
ATOM     25  C   UNL A   1      31.796  29.578  26.194  1.00  0.00     0.202 C 
BRANCH  25  26
ATOM     26  C   UNL A   1      32.495  30.765  26.867  1.00  0.00     0.261 C 
BRANCH  26  27
ATOM     27  O   UNL A   1      33.869  30.473  27.165  1.00  0.00    -0.460 OA
BRANCH  27  28
ATOM     28  C   UNL A   1      34.530  31.448  27.842  1.00  0.00     0.338 C 
ATOM     29  O   UNL A   1      34.062  32.477  28.285  1.00  0.00    -0.246 OA
BRANCH  28  30
ATOM     30  C   UNL A   1      35.903  30.983  28.148  1.00  0.00     0.060 A 
ATOM     31  C   UNL A   1      36.160  29.611  28.126  1.00  0.00     0.016 A 
ATOM     32  C   UNL A   1      36.925  31.875  28.471  1.00  0.00     0.016 A 
ATOM     33  C   UNL A   1      37.408  29.129  28.525  1.00  0.00     0.010 A 
ATOM     34  C   UNL A   1      38.201  31.398  28.781  1.00  0.00     0.010 A 
ATOM     35  C   UNL A   1      38.425  30.018  28.911  1.00  0.00    -0.014 A 
BRANCH  35  36
ATOM     36  C   UNL A   1      39.600  29.509  29.676  1.00  0.00     0.031 A 
ATOM     37  C   UNL A   1      39.826  30.020  31.086  1.00  0.00     0.074 A 
ATOM     38  C   UNL A   1      40.417  28.564  29.170  1.00  0.00     0.049 A 
ATOM     39  N   UNL A   1      40.738  29.675  31.960  1.00  0.00    -0.248 NA
ATOM     40  C   UNL A   1      38.925  31.081  31.566  1.00  0.00     0.031 C 
ATOM     41  C   UNL A   1      40.333  28.001  27.821  1.00  0.00     0.029 A 
ATOM     42  N   UNL A   1      41.475  27.898  29.741  1.00  0.00    -0.354 N 
ATOM     43  C   UNL A   1      40.527  30.491  33.070  1.00  0.00     0.074 A 
ATOM     44  C   UNL A   1      39.462  31.402  32.731  1.00  0.00     0.031 C 
ATOM     45  C   UNL A   1      41.275  27.050  27.682  1.00  0.00     0.029 A 
ATOM     46  C   UNL A   1      42.042  26.948  28.922  1.00  0.00     0.049 A 
ATOM     47  H   UNL A   1      41.797  28.082  30.654  1.00  0.00     0.167 HD
ATOM     48  C   UNL A   1      41.129  30.462  34.283  1.00  0.00     0.037 A 
ATOM     49  C   UNL A   1      43.052  26.084  29.153  1.00  0.00     0.037 A 
ATOM     50  C   UNL A   1      42.151  29.518  34.644  1.00  0.00     0.049 A 
ATOM     51  C   UNL A   1      43.702  26.057  30.514  1.00  0.00     0.074 A 
ATOM     52  C   UNL A   1      42.783  29.358  35.863  1.00  0.00     0.029 A 
ATOM     53  N   UNL A   1      42.687  28.570  33.785  1.00  0.00    -0.354 N 
ATOM     54  N   UNL A   1      43.442  26.792  31.571  1.00  0.00    -0.248 NA
ATOM     55  C   UNL A   1      44.768  25.066  30.722  1.00  0.00     0.031 C 
ATOM     56  C   UNL A   1      43.742  28.349  35.727  1.00  0.00     0.029 A 
ATOM     57  C   UNL A   1      43.658  27.835  34.442  1.00  0.00     0.049 A 
ATOM     58  H   UNL A   1      42.417  28.439  32.848  1.00  0.00     0.167 HD
ATOM     59  C   UNL A   1      44.282  26.323  32.578  1.00  0.00     0.074 A 
ATOM     60  C   UNL A   1      45.050  25.236  32.006  1.00  0.00     0.031 C 
ATOM     61  C   UNL A   1      44.402  26.747  33.862  1.00  0.00     0.037 A 
BRANCH  48  62
ATOM     62  C   UNL A   1      40.693  31.479  35.307  1.00  0.00     0.058 A 
ATOM     63  C   UNL A   1      41.440  32.640  35.572  1.00  0.00     0.135 A 
ATOM     64  C   UNL A   1      39.498  31.298  36.022  1.00  0.00     0.135 A 
ATOM     65  F   UNL A   1      42.602  32.857  34.933  1.00  0.00    -0.206 F 
ATOM     66  C   UNL A   1      41.040  33.563  36.532  1.00  0.00     0.059 A 
ATOM     67  C   UNL A   1      39.059  32.227  36.961  1.00  0.00     0.059 A 
ATOM     68  F   UNL A   1      38.744  30.208  35.814  1.00  0.00    -0.206 F 
ATOM     69  C   UNL A   1      39.845  33.349  37.221  1.00  0.00     0.060 A 
BRANCH  69  70
ATOM     70  S   UNL A   1      39.333  34.562  38.455  1.00  0.00     0.124 S 
ATOM     71  O   UNL A   1      38.107  33.957  38.967  1.00  0.00    -0.237 OA
ATOM     72  O   UNL A   1      40.468  34.568  39.373  1.00  0.00    -0.237 OA
ATOM     73  O   UNL A   1      39.154  35.784  37.677  1.00  0.00    -0.744 OA
ENDBRANCH  69  70
ENDBRANCH  48  62
BRANCH  49  74
ATOM     74  C   UNL A   1      43.487  25.137  28.087  1.00  0.00     0.058 A 
ATOM     75  C   UNL A   1      44.501  25.480  27.179  1.00  0.00     0.135 A 
ATOM     76  C   UNL A   1      42.895  23.871  27.951  1.00  0.00     0.135 A 
ATOM     77  F   UNL A   1      45.094  26.682  27.259  1.00  0.00    -0.206 F 
ATOM     78  C   UNL A   1      44.899  24.615  26.164  1.00  0.00     0.059 A 
ATOM     79  C   UNL A   1      43.296  22.977  26.962  1.00  0.00     0.059 A 
ATOM     80  F   UNL A   1      41.931  23.486  28.799  1.00  0.00    -0.206 F 
ATOM     81  C   UNL A   1      44.293  23.363  26.066  1.00  0.00     0.060 A 
BRANCH  81  82
ATOM     82  S   UNL A   1      44.855  22.226  24.779  1.00  0.00     0.124 S 
ATOM     83  O   UNL A   1      44.802  23.072  23.594  1.00  0.00    -0.237 OA
ATOM     84  O   UNL A   1      46.189  21.868  25.251  1.00  0.00    -0.237 OA
ATOM     85  O   UNL A   1      43.871  21.148  24.831  1.00  0.00    -0.744 OA
ENDBRANCH  81  82
ENDBRANCH  49  74
BRANCH  61  86
ATOM     86  C   UNL A   1      45.353  25.998  34.758  1.00  0.00     0.058 A 
ATOM     87  C   UNL A   1      46.687  26.397  34.930  1.00  0.00     0.135 A 
ATOM     88  C   UNL A   1      44.903  24.883  35.486  1.00  0.00     0.135 A 
ATOM     89  F   UNL A   1      47.169  27.456  34.261  1.00  0.00    -0.206 F 
ATOM     90  C   UNL A   1      47.554  25.691  35.758  1.00  0.00     0.059 A 
ATOM     91  C   UNL A   1      45.744  24.184  36.346  1.00  0.00     0.059 A 
ATOM     92  F   UNL A   1      43.631  24.469  35.375  1.00  0.00    -0.206 F 
ATOM     93  C   UNL A   1      47.073  24.584  36.460  1.00  0.00     0.060 A 
BRANCH  93  94
ATOM     94  S   UNL A   1      48.208  23.676  37.530  1.00  0.00     0.124 S 
ATOM     95  O   UNL A   1      49.064  23.012  36.552  1.00  0.00    -0.237 OA
ATOM     96  O   UNL A   1      48.835  24.746  38.299  1.00  0.00    -0.237 OA
ATOM     97  O   UNL A   1      47.328  22.796  38.293  1.00  0.00    -0.744 OA
ENDBRANCH  93  94
ENDBRANCH  61  86
ENDBRANCH  35  36
ENDBRANCH  28  30
ENDBRANCH  27  28
ENDBRANCH  26  27
ENDBRANCH  25  26
ENDBRANCH   1  25
TORSDOF 21
ENDMDL
MODEL 3
REMARK VINA RESULT:      -9.8      5.326     10.270
REMARK SMILES CC[C@](C)(Nc1cccc(Cl)c1C(N)=O)C(=O)OCCOCCOC(=O)c1ccc(-c2c3nc(c(-c4c(F)cc(S(=O)(=O)[O-])cc4F)c4ccc([nH]4)c(-c4c(F)cc(S(=O)(=O)[O-])cc4F)c4nc(c(-c5c(F)cc(S(=O)(=O)[O-])cc5F)c5ccc2[nH]5)C=C4)C=C3)cc1
REMARK SMILES IDX 21 1 20 2 19 3 18 4 16 5 17 6 3 7 4 8 2 9 1 10 5 11 6 13
REMARK SMILES IDX 7 14 12 15 8 16 10 17 9 18 11 19 13 20 14 21 15 22 22 25
REMARK SMILES IDX 23 26 24 27 25 28 26 29 27 30 28 31 92 32 29 33 91 34 30 35
REMARK SMILES IDX 31 36 32 37 85 38 33 39 90 40 84 41 86 42 34 43 89 44 83 45
REMARK SMILES IDX 82 46 35 48 69 49 48 50 68 51 49 52 52 53 67 54 87 55 50 56
REMARK SMILES IDX 51 57 66 59 88 60 53 61 36 62 37 63 46 64 38 65 39 66 45 67
REMARK SMILES IDX 47 68 40 69 41 70 42 71 43 72 44 73 70 74 71 75 80 76 72 77
REMARK SMILES IDX 73 78 79 79 81 80 74 81 75 82 76 83 77 84 78 85 54 86 55 87
REMARK SMILES IDX 64 88 56 89 57 90 63 91 65 92 58 93 59 94 60 95 61 96 62 97
REMARK H PARENT 5 12 14 23 14 24 86 47 52 58
REMARK Flexibility Score: inf
ROOT
ATOM      1  O   UNL A   1      39.322  21.966  26.542  1.00  0.00    -0.374 OA
ENDROOT
BRANCH   1   2
ATOM      2  C   UNL A   1      38.356  21.897  25.491  1.00  0.00     0.202 C 
BRANCH   2   3
ATOM      3  C   UNL A   1      37.370  23.063  25.438  1.00  0.00     0.261 C 
BRANCH   3   4
ATOM      4  O   UNL A   1      36.509  22.950  24.285  1.00  0.00    -0.462 OA
BRANCH   4   5
ATOM      5  C   UNL A   1      35.304  22.384  24.522  1.00  0.00     0.331 C 
ATOM      6  O   UNL A   1      35.175  21.199  24.833  1.00  0.00    -0.249 OA
BRANCH   5   7
ATOM      7  C   UNL A   1      34.079  23.293  24.248  1.00  0.00     0.133 C 
ATOM      8  C   UNL A   1      33.068  22.890  25.359  1.00  0.00     0.047 C 
BRANCH   7   9
ATOM      9  C   UNL A   1      33.600  22.956  22.804  1.00  0.00     0.037 C 
ATOM     10  C   UNL A   1      32.193  22.384  22.695  1.00  0.00     0.007 C 
ENDBRANCH   7   9
BRANCH   7  11
ATOM     11  N   UNL A   1      34.137  24.793  24.366  1.00  0.00    -0.369 N 
ATOM     12  H   UNL A   1      35.039  25.160  24.222  1.00  0.00     0.161 HD
BRANCH  11  13
ATOM     13  C   UNL A   1      33.186  25.771  24.635  1.00  0.00     0.049 A 
ATOM     14  C   UNL A   1      32.757  25.935  25.963  1.00  0.00     0.026 A 
ATOM     15  C   UNL A   1      32.834  26.797  23.687  1.00  0.00     0.081 A 
ATOM     16  C   UNL A   1      31.963  27.007  26.356  1.00  0.00     0.004 A 
ATOM     17  C   UNL A   1      31.955  27.830  24.084  1.00  0.00     0.055 A 
ATOM     18  C   UNL A   1      31.564  27.947  25.418  1.00  0.00     0.021 A 
ATOM     19  Cl  UNL A   1      31.249  29.014  23.030  1.00  0.00    -0.083 Cl
BRANCH  15  20
ATOM     20  C   UNL A   1      33.441  26.884  22.301  1.00  0.00     0.252 C 
ATOM     21  N   UNL A   1      33.882  28.096  21.867  1.00  0.00    -0.365 N 
ATOM     22  O   UNL A   1      33.527  25.955  21.509  1.00  0.00    -0.269 OA
ATOM     23  H   UNL A   1      33.837  28.879  22.463  1.00  0.00     0.159 HD
ATOM     24  H   UNL A   1      34.246  28.190  20.958  1.00  0.00     0.159 HD
ENDBRANCH  15  20
ENDBRANCH  11  13
ENDBRANCH   7  11
ENDBRANCH   5   7
ENDBRANCH   4   5
ENDBRANCH   3   4
ENDBRANCH   2   3
ENDBRANCH   1   2
BRANCH   1  25
ATOM     25  C   UNL A   1      40.625  21.467  26.231  1.00  0.00     0.202 C 
BRANCH  25  26
ATOM     26  C   UNL A   1      41.786  22.439  26.469  1.00  0.00     0.261 C 
BRANCH  26  27
ATOM     27  O   UNL A   1      41.337  23.670  27.057  1.00  0.00    -0.460 OA
BRANCH  27  28
ATOM     28  C   UNL A   1      42.294  24.624  27.194  1.00  0.00     0.338 C 
ATOM     29  O   UNL A   1      43.375  24.661  26.641  1.00  0.00    -0.246 OA
BRANCH  28  30
ATOM     30  C   UNL A   1      41.748  25.752  27.984  1.00  0.00     0.060 A 
ATOM     31  C   UNL A   1      42.568  26.859  28.215  1.00  0.00     0.016 A 
ATOM     32  C   UNL A   1      40.457  25.725  28.508  1.00  0.00     0.016 A 
ATOM     33  C   UNL A   1      42.131  27.886  29.054  1.00  0.00     0.010 A 
ATOM     34  C   UNL A   1      39.985  26.796  29.272  1.00  0.00     0.010 A 
ATOM     35  C   UNL A   1      40.854  27.837  29.636  1.00  0.00    -0.014 A 
BRANCH  35  36
ATOM     36  C   UNL A   1      40.537  28.717  30.798  1.00  0.00     0.031 A 
ATOM     37  C   UNL A   1      41.382  28.601  32.052  1.00  0.00     0.074 A 
ATOM     38  C   UNL A   1      39.567  29.651  30.732  1.00  0.00     0.049 A 
ATOM     39  N   UNL A   1      41.334  29.303  33.156  1.00  0.00    -0.248 NA
ATOM     40  C   UNL A   1      42.398  27.535  32.077  1.00  0.00     0.031 C 
ATOM     41  C   UNL A   1      38.661  29.857  29.601  1.00  0.00     0.029 A 
ATOM     42  N   UNL A   1      39.191  30.615  31.636  1.00  0.00    -0.354 N 
ATOM     43  C   UNL A   1      42.292  28.745  34.002  1.00  0.00     0.074 A 
ATOM     44  C   UNL A   1      42.844  27.600  33.320  1.00  0.00     0.031 C 
ATOM     45  C   UNL A   1      37.860  30.906  29.864  1.00  0.00     0.029 A 
ATOM     46  C   UNL A   1      38.180  31.435  31.189  1.00  0.00     0.049 A 
ATOM     47  H   UNL A   1      39.608  30.712  32.524  1.00  0.00     0.167 HD
ATOM     48  C   UNL A   1      42.713  29.168  35.217  1.00  0.00     0.037 A 
ATOM     49  C   UNL A   1      37.592  32.499  31.773  1.00  0.00     0.037 A 
ATOM     50  C   UNL A   1      42.206  30.340  35.874  1.00  0.00     0.049 A 
ATOM     51  C   UNL A   1      38.084  32.962  33.122  1.00  0.00     0.074 A 
ATOM     52  C   UNL A   1      42.605  30.895  37.076  1.00  0.00     0.029 A 
ATOM     53  N   UNL A   1      41.188  31.143  35.379  1.00  0.00    -0.354 N 
ATOM     54  N   UNL A   1      39.035  32.461  33.875  1.00  0.00    -0.248 NA
ATOM     55  C   UNL A   1      37.436  34.153  33.692  1.00  0.00     0.031 C 
ATOM     56  C   UNL A   1      41.792  32.002  37.336  1.00  0.00     0.029 A 
ATOM     57  C   UNL A   1      40.932  32.177  36.263  1.00  0.00     0.049 A 
ATOM     58  H   UNL A   1      40.718  30.999  34.526  1.00  0.00     0.167 HD
ATOM     59  C   UNL A   1      39.127  33.298  34.984  1.00  0.00     0.074 A 
ATOM     60  C   UNL A   1      38.141  34.343  34.798  1.00  0.00     0.031 C 
ATOM     61  C   UNL A   1      39.957  33.217  36.055  1.00  0.00     0.037 A 
BRANCH  48  62
ATOM     62  C   UNL A   1      43.777  28.356  35.911  1.00  0.00     0.058 A 
ATOM     63  C   UNL A   1      45.148  28.603  35.720  1.00  0.00     0.135 A 
ATOM     64  C   UNL A   1      43.420  27.328  36.798  1.00  0.00     0.135 A 
ATOM     65  F   UNL A   1      45.551  29.561  34.868  1.00  0.00    -0.206 F 
ATOM     66  C   UNL A   1      46.123  27.837  36.349  1.00  0.00     0.059 A 
ATOM     67  C   UNL A   1      44.378  26.573  37.468  1.00  0.00     0.059 A 
ATOM     68  F   UNL A   1      42.127  27.045  37.019  1.00  0.00    -0.206 F 
ATOM     69  C   UNL A   1      45.728  26.825  37.225  1.00  0.00     0.060 A 
BRANCH  69  70
ATOM     70  S   UNL A   1      47.005  25.848  38.045  1.00  0.00     0.124 S 
ATOM     71  O   UNL A   1      46.202  24.965  38.886  1.00  0.00    -0.237 OA
ATOM     72  O   UNL A   1      47.679  25.209  36.918  1.00  0.00    -0.237 OA
ATOM     73  O   UNL A   1      47.794  26.848  38.758  1.00  0.00    -0.744 OA
ENDBRANCH  69  70
ENDBRANCH  48  62
BRANCH  49  74
ATOM     74  C   UNL A   1      36.502  33.234  31.071  1.00  0.00     0.058 A 
ATOM     75  C   UNL A   1      35.166  33.124  31.488  1.00  0.00     0.135 A 
ATOM     76  C   UNL A   1      36.771  34.055  29.965  1.00  0.00     0.135 A 
ATOM     77  F   UNL A   1      34.851  32.344  32.534  1.00  0.00    -0.206 F 
ATOM     78  C   UNL A   1      34.135  33.785  30.826  1.00  0.00     0.059 A 
ATOM     79  C   UNL A   1      35.761  34.750  29.304  1.00  0.00     0.059 A 
ATOM     80  F   UNL A   1      38.032  34.207  29.532  1.00  0.00    -0.206 F 
ATOM     81  C   UNL A   1      34.444  34.600  29.736  1.00  0.00     0.060 A 
BRANCH  81  82
ATOM     82  S   UNL A   1      33.106  35.496  28.917  1.00  0.00     0.124 S 
ATOM     83  O   UNL A   1      33.844  36.476  28.131  1.00  0.00    -0.237 OA
ATOM     84  O   UNL A   1      32.447  34.434  28.162  1.00  0.00    -0.237 OA
ATOM     85  O   UNL A   1      32.331  36.033  30.032  1.00  0.00    -0.744 OA
ENDBRANCH  81  82
ENDBRANCH  49  74
BRANCH  61  86
ATOM     86  C   UNL A   1      39.882  34.316  37.081  1.00  0.00     0.058 A 
ATOM     87  C   UNL A   1      39.047  34.232  38.205  1.00  0.00     0.135 A 
ATOM     88  C   UNL A   1      40.695  35.455  36.952  1.00  0.00     0.135 A 
ATOM     89  F   UNL A   1      38.252  33.165  38.380  1.00  0.00    -0.206 F 
ATOM     90  C   UNL A   1      38.986  35.259  39.142  1.00  0.00     0.059 A 
ATOM     91  C   UNL A   1      40.675  36.478  37.895  1.00  0.00     0.059 A 
ATOM     92  F   UNL A   1      41.527  35.579  35.907  1.00  0.00    -0.206 F 
ATOM     93  C   UNL A   1      39.802  36.380  38.976  1.00  0.00     0.060 A 
BRANCH  93  94
ATOM     94  S   UNL A   1      39.713  37.705  40.197  1.00  0.00     0.124 S 
ATOM     95  O   UNL A   1      38.329  38.144  40.053  1.00  0.00    -0.237 OA
ATOM     96  O   UNL A   1      40.032  37.007  41.439  1.00  0.00    -0.237 OA
ATOM     97  O   UNL A   1      40.723  38.656  39.743  1.00  0.00    -0.744 OA
ENDBRANCH  93  94
ENDBRANCH  61  86
ENDBRANCH  35  36
ENDBRANCH  28  30
ENDBRANCH  27  28
ENDBRANCH  26  27
ENDBRANCH  25  26
ENDBRANCH   1  25
TORSDOF 21
ENDMDL
