MODEL 1
REMARK VINA RESULT:     -11.0      0.000      0.000
REMARK SMILES Cc1noc(C)c1CNc1ccc(Cl)c(C(=O)OCCOCCOC(=O)c2ccc(-c3c4nc(c(-c5c(F)cc(S(=O)(=O)[O-])cc5F)c5ccc([nH]5)c(-c5c(F)cc(S(=O)(=O)[O-])cc5F)c5nc(c(-c6c(F)cc(S(=O)(=O)[O-])cc6F)c6ccc3[nH]6)C=C5)C=C4)cc2)n1
REMARK SMILES IDX 21 1 20 2 19 3 18 4 16 5 17 6 15 7 10 8 11 9 93 10 12 11
REMARK SMILES IDX 13 12 14 13 9 14 8 16 7 17 1 18 2 19 3 20 4 21 5 22 6 23
REMARK SMILES IDX 22 24 23 25 24 26 25 27 26 28 27 29 28 30 92 31 29 32 91 33
REMARK SMILES IDX 30 34 31 35 32 36 85 37 33 38 90 39 84 40 86 41 34 42 89 43
REMARK SMILES IDX 83 44 82 45 35 47 69 48 48 49 68 50 49 51 52 52 67 53 87 54
REMARK SMILES IDX 50 55 51 56 66 58 88 59 53 60 36 61 37 62 46 63 38 64 39 65
REMARK SMILES IDX 45 66 47 67 40 68 41 69 42 70 43 71 44 72 70 73 71 74 80 75
REMARK SMILES IDX 72 76 73 77 79 78 81 79 74 80 75 81 76 82 77 83 78 84 54 85
REMARK SMILES IDX 55 86 64 87 56 88 57 89 63 90 65 91 58 92 59 93 60 94 61 95
REMARK SMILES IDX 62 96
REMARK H PARENT 9 15 86 46 52 57
REMARK Flexibility Score: inf
ROOT
ATOM      1  O   UNL A   1      39.428  22.268  26.484  1.00  0.00    -0.374 OA
ENDROOT
BRANCH   1   2
ATOM      2  C   UNL A   1      38.445  21.553  25.731  1.00  0.00     0.202 C 
BRANCH   2   3
ATOM      3  C   UNL A   1      37.148  22.316  25.455  1.00  0.00     0.261 C 
BRANCH   3   4
ATOM      4  O   UNL A   1      36.022  21.519  25.859  1.00  0.00    -0.458 OA
BRANCH   4   5
ATOM      5  C   UNL A   1      34.861  22.193  26.034  1.00  0.00     0.358 C 
ATOM      6  O   UNL A   1      34.646  23.081  26.847  1.00  0.00    -0.244 OA
BRANCH   5   7
ATOM      7  C   UNL A   1      33.904  21.838  24.953  1.00  0.00     0.169 A 
ATOM      8  C   UNL A   1      32.595  20.101  24.131  1.00  0.00     0.127 A 
ATOM      9  C   UNL A   1      32.281  20.846  23.005  1.00  0.00     0.048 A 
ATOM     10  N   UNL A   1      33.368  20.589  25.106  1.00  0.00    -0.222 NA
ATOM     11  C   UNL A   1      32.785  22.145  22.884  1.00  0.00     0.027 A 
ATOM     12  C   UNL A   1      33.626  22.658  23.870  1.00  0.00     0.074 A 
ATOM     13  Cl  UNL A   1      34.291  24.227  23.641  1.00  0.00    -0.082 Cl
BRANCH   8  14
ATOM     14  N   UNL A   1      32.175  18.801  24.317  1.00  0.00    -0.366 N 
ATOM     15  H   UNL A   1      31.619  18.344  23.645  1.00  0.00     0.162 HD
BRANCH  14  16
ATOM     16  C   UNL A   1      32.583  18.126  25.541  1.00  0.00     0.156 C 
BRANCH  16  17
ATOM     17  C   UNL A   1      33.448  16.923  25.346  1.00  0.00     0.037 A 
ATOM     18  C   UNL A   1      35.720  17.981  24.562  1.00  0.00     0.071 C 
ATOM     19  C   UNL A   1      34.805  16.866  24.911  1.00  0.00     0.086 A 
ATOM     20  N   UNL A   1      35.245  15.604  24.848  1.00  0.00    -0.085 NA
ATOM     21  O   UNL A   1      34.187  14.813  25.240  1.00  0.00    -0.361 OA
ATOM     22  C   UNL A   1      33.118  15.596  25.537  1.00  0.00     0.138 A 
ATOM     23  C   UNL A   1      31.901  14.890  25.976  1.00  0.00     0.091 C 
ENDBRANCH  16  17
ENDBRANCH  14  16
ENDBRANCH   8  14
ENDBRANCH   5   7
ENDBRANCH   4   5
ENDBRANCH   3   4
ENDBRANCH   2   3
ENDBRANCH   1   2
BRANCH   1  24
ATOM     24  C   UNL A   1      40.710  21.657  26.630  1.00  0.00     0.202 C 
BRANCH  24  25
ATOM     25  C   UNL A   1      41.902  22.443  26.068  1.00  0.00     0.261 C 
BRANCH  25  26
ATOM     26  O   UNL A   1      42.288  23.542  26.913  1.00  0.00    -0.460 OA
BRANCH  26  27
ATOM     27  C   UNL A   1      42.254  24.757  26.313  1.00  0.00     0.338 C 
ATOM     28  O   UNL A   1      42.443  24.997  25.127  1.00  0.00    -0.246 OA
BRANCH  27  29
ATOM     29  C   UNL A   1      41.785  25.786  27.260  1.00  0.00     0.060 A 
ATOM     30  C   UNL A   1      42.536  26.964  27.360  1.00  0.00     0.016 A 
ATOM     31  C   UNL A   1      40.681  25.578  28.090  1.00  0.00     0.016 A 
ATOM     32  C   UNL A   1      42.212  27.922  28.319  1.00  0.00     0.010 A 
ATOM     33  C   UNL A   1      40.362  26.538  29.059  1.00  0.00     0.010 A 
ATOM     34  C   UNL A   1      41.143  27.700  29.198  1.00  0.00    -0.014 A 
BRANCH  34  35
ATOM     35  C   UNL A   1      40.920  28.633  30.332  1.00  0.00     0.031 A 
ATOM     36  C   UNL A   1      41.774  28.509  31.566  1.00  0.00     0.074 A 
ATOM     37  C   UNL A   1      39.984  29.597  30.251  1.00  0.00     0.049 A 
ATOM     38  N   UNL A   1      41.735  29.205  32.673  1.00  0.00    -0.248 NA
ATOM     39  C   UNL A   1      42.810  27.463  31.552  1.00  0.00     0.031 C 
ATOM     40  C   UNL A   1      39.114  29.835  29.100  1.00  0.00     0.029 A 
ATOM     41  N   UNL A   1      39.607  30.554  31.161  1.00  0.00    -0.354 N 
ATOM     42  C   UNL A   1      42.727  28.676  33.491  1.00  0.00     0.074 A 
ATOM     43  C   UNL A   1      43.341  27.588  32.761  1.00  0.00     0.031 C 
ATOM     44  C   UNL A   1      38.295  30.865  29.377  1.00  0.00     0.029 A 
ATOM     45  C   UNL A   1      38.564  31.341  30.733  1.00  0.00     0.049 A 
ATOM     46  H   UNL A   1      40.041  30.666  32.036  1.00  0.00     0.167 HD
ATOM     47  C   UNL A   1      43.096  29.067  34.734  1.00  0.00     0.037 A 
ATOM     48  C   UNL A   1      37.890  32.320  31.370  1.00  0.00     0.037 A 
ATOM     49  C   UNL A   1      42.499  30.164  35.448  1.00  0.00     0.049 A 
ATOM     50  C   UNL A   1      38.293  32.703  32.772  1.00  0.00     0.074 A 
ATOM     51  C   UNL A   1      42.841  30.668  36.692  1.00  0.00     0.029 A 
ATOM     52  N   UNL A   1      41.433  30.924  34.991  1.00  0.00    -0.354 N 
ATOM     53  N   UNL A   1      39.264  32.224  33.513  1.00  0.00    -0.248 NA
ATOM     54  C   UNL A   1      37.508  33.761  33.426  1.00  0.00     0.031 C 
ATOM     55  C   UNL A   1      41.951  31.699  37.008  1.00  0.00     0.029 A 
ATOM     56  C   UNL A   1      41.087  31.872  35.940  1.00  0.00     0.049 A 
ATOM     57  H   UNL A   1      40.990  30.809  34.120  1.00  0.00     0.167 HD
ATOM     58  C   UNL A   1      39.226  32.942  34.703  1.00  0.00     0.074 A 
ATOM     59  C   UNL A   1      38.143  33.896  34.581  1.00  0.00     0.031 C 
ATOM     60  C   UNL A   1      40.015  32.826  35.799  1.00  0.00     0.037 A 
BRANCH  47  61
ATOM     61  C   UNL A   1      44.190  28.299  35.421  1.00  0.00     0.058 A 
ATOM     62  C   UNL A   1      45.540  28.663  35.295  1.00  0.00     0.135 A 
ATOM     63  C   UNL A   1      43.873  27.237  36.284  1.00  0.00     0.135 A 
ATOM     64  F   UNL A   1      45.897  29.660  34.471  1.00  0.00    -0.206 F 
ATOM     65  C   UNL A   1      46.539  27.998  36.000  1.00  0.00     0.059 A 
ATOM     66  C   UNL A   1      44.853  26.573  37.014  1.00  0.00     0.059 A 
ATOM     67  F   UNL A   1      42.598  26.847  36.435  1.00  0.00    -0.206 F 
ATOM     68  C   UNL A   1      46.185  26.958  36.861  1.00  0.00     0.060 A 
BRANCH  68  69
ATOM     69  S   UNL A   1      47.487  26.133  37.801  1.00  0.00     0.124 S 
ATOM     70  O   UNL A   1      46.829  25.922  39.087  1.00  0.00    -0.237 OA
ATOM     71  O   UNL A   1      47.729  24.930  37.010  1.00  0.00    -0.237 OA
ATOM     72  O   UNL A   1      48.574  27.106  37.804  1.00  0.00    -0.744 OA
ENDBRANCH  68  69
ENDBRANCH  47  61
BRANCH  48  73
ATOM     73  C   UNL A   1      36.746  33.003  30.708  1.00  0.00     0.058 A 
ATOM     74  C   UNL A   1      36.954  34.022  29.767  1.00  0.00     0.135 A 
ATOM     75  C   UNL A   1      35.422  32.680  31.039  1.00  0.00     0.135 A 
ATOM     76  F   UNL A   1      38.203  34.374  29.424  1.00  0.00    -0.206 F 
ATOM     77  C   UNL A   1      35.891  34.719  29.201  1.00  0.00     0.059 A 
ATOM     78  C   UNL A   1      34.341  33.344  30.467  1.00  0.00     0.059 A 
ATOM     79  F   UNL A   1      35.167  31.705  31.925  1.00  0.00    -0.206 F 
ATOM     80  C   UNL A   1      34.587  34.376  29.563  1.00  0.00     0.060 A 
BRANCH  80  81
ATOM     81  S   UNL A   1      33.211  35.281  28.822  1.00  0.00     0.124 S 
ATOM     82  O   UNL A   1      33.913  36.287  28.035  1.00  0.00    -0.237 OA
ATOM     83  O   UNL A   1      32.528  34.237  28.063  1.00  0.00    -0.237 OA
ATOM     84  O   UNL A   1      32.479  35.782  29.981  1.00  0.00    -0.744 OA
ENDBRANCH  80  81
ENDBRANCH  48  73
BRANCH  60  85
ATOM     85  C   UNL A   1      39.768  33.775  36.939  1.00  0.00     0.058 A 
ATOM     86  C   UNL A   1      38.926  33.441  38.010  1.00  0.00     0.135 A 
ATOM     87  C   UNL A   1      40.421  35.019  36.981  1.00  0.00     0.135 A 
ATOM     88  F   UNL A   1      38.275  32.266  38.015  1.00  0.00    -0.206 F 
ATOM     89  C   UNL A   1      38.718  34.316  39.071  1.00  0.00     0.059 A 
ATOM     90  C   UNL A   1      40.249  35.898  38.046  1.00  0.00     0.059 A 
ATOM     91  F   UNL A   1      41.247  35.383  35.988  1.00  0.00    -0.206 F 
ATOM     92  C   UNL A   1      39.384  35.543  39.081  1.00  0.00     0.060 A 
BRANCH  92  93
ATOM     93  S   UNL A   1      39.128  36.659  40.476  1.00  0.00     0.124 S 
ATOM     94  O   UNL A   1      40.483  36.790  40.999  1.00  0.00    -0.237 OA
ATOM     95  O   UNL A   1      38.580  37.848  39.831  1.00  0.00    -0.237 OA
ATOM     96  O   UNL A   1      38.194  35.930  41.328  1.00  0.00    -0.744 OA
ENDBRANCH  92  93
ENDBRANCH  60  85
ENDBRANCH  34  35
ENDBRANCH  27  29
ENDBRANCH  26  27
ENDBRANCH  25  26
ENDBRANCH  24  25
ENDBRANCH   1  24
TORSDOF 20
ENDMDL
MODEL 2
REMARK VINA RESULT:     -10.9      6.933     12.537
REMARK SMILES Cc1noc(C)c1CNc1ccc(Cl)c(C(=O)OCCOCCOC(=O)c2ccc(-c3c4nc(c(-c5c(F)cc(S(=O)(=O)[O-])cc5F)c5ccc([nH]5)c(-c5c(F)cc(S(=O)(=O)[O-])cc5F)c5nc(c(-c6c(F)cc(S(=O)(=O)[O-])cc6F)c6ccc3[nH]6)C=C5)C=C4)cc2)n1
REMARK SMILES IDX 21 1 20 2 19 3 18 4 16 5 17 6 15 7 10 8 11 9 93 10 12 11
REMARK SMILES IDX 13 12 14 13 9 14 8 16 7 17 1 18 2 19 3 20 4 21 5 22 6 23
REMARK SMILES IDX 22 24 23 25 24 26 25 27 26 28 27 29 28 30 92 31 29 32 91 33
REMARK SMILES IDX 30 34 31 35 32 36 85 37 33 38 90 39 84 40 86 41 34 42 89 43
REMARK SMILES IDX 83 44 82 45 35 47 69 48 48 49 68 50 49 51 52 52 67 53 87 54
REMARK SMILES IDX 50 55 51 56 66 58 88 59 53 60 36 61 37 62 46 63 38 64 39 65
REMARK SMILES IDX 45 66 47 67 40 68 41 69 42 70 43 71 44 72 70 73 71 74 80 75
REMARK SMILES IDX 72 76 73 77 79 78 81 79 74 80 75 81 76 82 77 83 78 84 54 85
REMARK SMILES IDX 55 86 64 87 56 88 57 89 63 90 65 91 58 92 59 93 60 94 61 95
REMARK SMILES IDX 62 96
REMARK H PARENT 9 15 86 46 52 57
REMARK Flexibility Score: inf
ROOT
ATOM      1  O   UNL A   1      34.747  29.927  27.594  1.00  0.00    -0.374 OA
ENDROOT
BRANCH   1   2
ATOM      2  C   UNL A   1      34.148  29.155  26.550  1.00  0.00     0.202 C 
BRANCH   2   3
ATOM      3  C   UNL A   1      33.094  28.144  27.005  1.00  0.00     0.261 C 
BRANCH   3   4
ATOM      4  O   UNL A   1      33.383  26.855  26.438  1.00  0.00    -0.458 OA
BRANCH   4   5
ATOM      5  C   UNL A   1      32.308  26.138  26.035  1.00  0.00     0.358 C 
ATOM      6  O   UNL A   1      31.355  25.800  26.724  1.00  0.00    -0.244 OA
BRANCH   5   7
ATOM      7  C   UNL A   1      32.341  25.965  24.560  1.00  0.00     0.169 A 
ATOM      8  C   UNL A   1      31.648  26.933  22.562  1.00  0.00     0.127 A 
ATOM      9  C   UNL A   1      32.077  25.822  21.853  1.00  0.00     0.048 A 
ATOM     10  N   UNL A   1      31.798  27.025  23.888  1.00  0.00    -0.222 NA
ATOM     11  C   UNL A   1      32.684  24.766  22.541  1.00  0.00     0.027 A 
ATOM     12  C   UNL A   1      32.813  24.825  23.928  1.00  0.00     0.074 A 
ATOM     13  Cl  UNL A   1      33.490  23.470  24.742  1.00  0.00    -0.082 Cl
BRANCH   8  14
ATOM     14  N   UNL A   1      31.006  28.002  21.974  1.00  0.00    -0.366 N 
ATOM     15  H   UNL A   1      30.853  28.033  21.002  1.00  0.00     0.162 HD
BRANCH  14  16
ATOM     16  C   UNL A   1      30.559  29.084  22.841  1.00  0.00     0.156 C 
BRANCH  16  17
ATOM     17  C   UNL A   1      29.077  29.221  22.977  1.00  0.00     0.037 A 
ATOM     18  C   UNL A   1      28.358  26.816  23.752  1.00  0.00     0.071 C 
ATOM     19  C   UNL A   1      28.127  28.230  23.361  1.00  0.00     0.086 A 
ATOM     20  N   UNL A   1      26.882  28.721  23.361  1.00  0.00    -0.085 NA
ATOM     21  O   UNL A   1      26.995  30.039  22.977  1.00  0.00    -0.361 OA
ATOM     22  C   UNL A   1      28.300  30.338  22.749  1.00  0.00     0.138 A 
ATOM     23  C   UNL A   1      28.582  31.721  22.327  1.00  0.00     0.091 C 
ENDBRANCH  16  17
ENDBRANCH  14  16
ENDBRANCH   8  14
ENDBRANCH   5   7
ENDBRANCH   4   5
ENDBRANCH   3   4
ENDBRANCH   2   3
ENDBRANCH   1   2
BRANCH   1  24
ATOM     24  C   UNL A   1      34.336  31.289  27.717  1.00  0.00     0.202 C 
BRANCH  24  25
ATOM     25  C   UNL A   1      34.629  31.965  29.063  1.00  0.00     0.261 C 
BRANCH  25  26
ATOM     26  O   UNL A   1      36.038  32.084  29.328  1.00  0.00    -0.460 OA
BRANCH  26  27
ATOM     27  C   UNL A   1      36.496  31.284  30.323  1.00  0.00     0.338 C 
ATOM     28  O   UNL A   1      35.948  31.056  31.394  1.00  0.00    -0.246 OA
BRANCH  27  29
ATOM     29  C   UNL A   1      37.706  30.563  29.888  1.00  0.00     0.060 A 
ATOM     30  C   UNL A   1      38.647  30.224  30.870  1.00  0.00     0.016 A 
ATOM     31  C   UNL A   1      37.958  30.287  28.542  1.00  0.00     0.016 A 
ATOM     32  C   UNL A   1      39.861  29.647  30.505  1.00  0.00     0.010 A 
ATOM     33  C   UNL A   1      39.184  29.715  28.178  1.00  0.00     0.010 A 
ATOM     34  C   UNL A   1      40.153  29.419  29.153  1.00  0.00    -0.014 A 
BRANCH  34  35
ATOM     35  C   UNL A   1      41.516  28.980  28.761  1.00  0.00     0.031 A 
ATOM     36  C   UNL A   1      42.637  29.986  28.739  1.00  0.00     0.074 A 
ATOM     37  C   UNL A   1      41.757  27.691  28.454  1.00  0.00     0.049 A 
ATOM     38  N   UNL A   1      43.891  29.819  28.410  1.00  0.00    -0.248 NA
ATOM     39  C   UNL A   1      42.299  31.361  29.139  1.00  0.00     0.031 C 
ATOM     40  C   UNL A   1      40.762  26.620  28.465  1.00  0.00     0.029 A 
ATOM     41  N   UNL A   1      42.918  27.068  28.066  1.00  0.00    -0.354 N 
ATOM     42  C   UNL A   1      44.491  31.066  28.551  1.00  0.00     0.074 A 
ATOM     43  C   UNL A   1      43.458  31.985  28.978  1.00  0.00     0.031 C 
ATOM     44  C   UNL A   1      41.352  25.471  28.090  1.00  0.00     0.029 A 
ATOM     45  C   UNL A   1      42.758  25.731  27.786  1.00  0.00     0.049 A 
ATOM     46  H   UNL A   1      43.781  27.533  27.995  1.00  0.00     0.167 HD
ATOM     47  C   UNL A   1      45.785  31.409  28.349  1.00  0.00     0.037 A 
ATOM     48  C   UNL A   1      43.642  24.826  27.319  1.00  0.00     0.037 A 
ATOM     49  C   UNL A   1      46.815  30.488  27.946  1.00  0.00     0.049 A 
ATOM     50  C   UNL A   1      45.066  25.249  27.059  1.00  0.00     0.074 A 
ATOM     51  C   UNL A   1      48.166  30.733  27.766  1.00  0.00     0.029 A 
ATOM     52  N   UNL A   1      46.611  29.148  27.654  1.00  0.00    -0.354 N 
ATOM     53  N   UNL A   1      45.627  26.421  27.242  1.00  0.00    -0.248 NA
ATOM     54  C   UNL A   1      45.979  24.225  26.528  1.00  0.00     0.031 C 
ATOM     55  C   UNL A   1      48.770  29.556  27.317  1.00  0.00     0.029 A 
ATOM     56  C   UNL A   1      47.805  28.562  27.266  1.00  0.00     0.049 A 
ATOM     57  H   UNL A   1      45.747  28.681  27.713  1.00  0.00     0.167 HD
ATOM     58  C   UNL A   1      46.961  26.265  26.880  1.00  0.00     0.074 A 
ATOM     59  C   UNL A   1      47.127  24.885  26.477  1.00  0.00     0.031 C 
ATOM     60  C   UNL A   1      47.960  27.182  26.881  1.00  0.00     0.037 A 
BRANCH  47  61
ATOM     61  C   UNL A   1      46.173  32.848  28.543  1.00  0.00     0.058 A 
ATOM     62  C   UNL A   1      46.592  33.339  29.789  1.00  0.00     0.135 A 
ATOM     63  C   UNL A   1      46.205  33.725  27.447  1.00  0.00     0.135 A 
ATOM     64  F   UNL A   1      46.564  32.547  30.872  1.00  0.00    -0.206 F 
ATOM     65  C   UNL A   1      47.027  34.652  29.943  1.00  0.00     0.059 A 
ATOM     66  C   UNL A   1      46.657  35.035  27.573  1.00  0.00     0.059 A 
ATOM     67  F   UNL A   1      45.810  33.306  26.235  1.00  0.00    -0.206 F 
ATOM     68  C   UNL A   1      47.062  35.490  28.827  1.00  0.00     0.060 A 
BRANCH  68  69
ATOM     69  S   UNL A   1      47.671  37.178  29.032  1.00  0.00     0.124 S 
ATOM     70  O   UNL A   1      46.973  37.593  30.246  1.00  0.00    -0.237 OA
ATOM     71  O   UNL A   1      49.110  36.976  29.168  1.00  0.00    -0.237 OA
ATOM     72  O   UNL A   1      47.247  37.845  27.806  1.00  0.00    -0.744 OA
ENDBRANCH  68  69
ENDBRANCH  47  61
BRANCH  48  73
ATOM     73  C   UNL A   1      43.214  23.428  27.041  1.00  0.00     0.058 A 
ATOM     74  C   UNL A   1      43.032  22.503  28.079  1.00  0.00     0.135 A 
ATOM     75  C   UNL A   1      43.023  22.979  25.725  1.00  0.00     0.135 A 
ATOM     76  F   UNL A   1      43.211  22.883  29.354  1.00  0.00    -0.206 F 
ATOM     77  C   UNL A   1      42.708  21.175  27.824  1.00  0.00     0.059 A 
ATOM     78  C   UNL A   1      42.673  21.661  25.445  1.00  0.00     0.059 A 
ATOM     79  F   UNL A   1      43.174  23.826  24.695  1.00  0.00    -0.206 F 
ATOM     80  C   UNL A   1      42.537  20.762  26.501  1.00  0.00     0.060 A 
BRANCH  80  81
ATOM     81  S   UNL A   1      42.112  19.037  26.175  1.00  0.00     0.124 S 
ATOM     82  O   UNL A   1      42.427  18.412  27.454  1.00  0.00    -0.237 OA
ATOM     83  O   UNL A   1      40.694  19.127  25.839  1.00  0.00    -0.237 OA
ATOM     84  O   UNL A   1      42.990  18.682  25.064  1.00  0.00    -0.744 OA
ENDBRANCH  80  81
ENDBRANCH  48  73
BRANCH  60  85
ATOM     85  C   UNL A   1      49.330  26.717  26.474  1.00  0.00     0.058 A 
ATOM     86  C   UNL A   1      50.170  26.028  27.361  1.00  0.00     0.135 A 
ATOM     87  C   UNL A   1      49.791  26.925  25.163  1.00  0.00     0.135 A 
ATOM     88  F   UNL A   1      49.780  25.808  28.627  1.00  0.00    -0.206 F 
ATOM     89  C   UNL A   1      51.430  25.582  26.973  1.00  0.00     0.059 A 
ATOM     90  C   UNL A   1      51.035  26.464  24.744  1.00  0.00     0.059 A 
ATOM     91  F   UNL A   1      49.022  27.568  24.270  1.00  0.00    -0.206 F 
ATOM     92  C   UNL A   1      51.854  25.806  25.661  1.00  0.00     0.060 A 
BRANCH  92  93
ATOM     93  S   UNL A   1      53.479  25.199  25.159  1.00  0.00     0.124 S 
ATOM     94  O   UNL A   1      53.545  25.651  23.773  1.00  0.00    -0.237 OA
ATOM     95  O   UNL A   1      54.371  25.883  26.091  1.00  0.00    -0.237 OA
ATOM     96  O   UNL A   1      53.376  23.756  25.345  1.00  0.00    -0.744 OA
ENDBRANCH  92  93
ENDBRANCH  60  85
ENDBRANCH  34  35
ENDBRANCH  27  29
ENDBRANCH  26  27
ENDBRANCH  25  26
ENDBRANCH  24  25
ENDBRANCH   1  24
TORSDOF 20
ENDMDL
MODEL 3
REMARK VINA RESULT:     -10.8      3.890      5.735
REMARK SMILES Cc1noc(C)c1CNc1ccc(Cl)c(C(=O)OCCOCCOC(=O)c2ccc(-c3c4nc(c(-c5c(F)cc(S(=O)(=O)[O-])cc5F)c5ccc([nH]5)c(-c5c(F)cc(S(=O)(=O)[O-])cc5F)c5nc(c(-c6c(F)cc(S(=O)(=O)[O-])cc6F)c6ccc3[nH]6)C=C5)C=C4)cc2)n1
REMARK SMILES IDX 21 1 20 2 19 3 18 4 16 5 17 6 15 7 10 8 11 9 93 10 12 11
REMARK SMILES IDX 13 12 14 13 9 14 8 16 7 17 1 18 2 19 3 20 4 21 5 22 6 23
REMARK SMILES IDX 22 24 23 25 24 26 25 27 26 28 27 29 28 30 92 31 29 32 91 33
REMARK SMILES IDX 30 34 31 35 32 36 85 37 33 38 90 39 84 40 86 41 34 42 89 43
REMARK SMILES IDX 83 44 82 45 35 47 69 48 48 49 68 50 49 51 52 52 67 53 87 54
REMARK SMILES IDX 50 55 51 56 66 58 88 59 53 60 36 61 37 62 46 63 38 64 39 65
REMARK SMILES IDX 45 66 47 67 40 68 41 69 42 70 43 71 44 72 70 73 71 74 80 75
REMARK SMILES IDX 72 76 73 77 79 78 81 79 74 80 75 81 76 82 77 83 78 84 54 85
REMARK SMILES IDX 55 86 64 87 56 88 57 89 63 90 65 91 58 92 59 93 60 94 61 95
REMARK SMILES IDX 62 96
REMARK H PARENT 9 15 86 46 52 57
REMARK Flexibility Score: inf
ROOT
ATOM      1  O   UNL A   1      45.106  21.912  25.320  1.00  0.00    -0.374 OA
ENDROOT
BRANCH   1   2
ATOM      2  C   UNL A   1      45.042  20.978  24.239  1.00  0.00     0.202 C 
BRANCH   2   3
ATOM      3  C   UNL A   1      44.707  19.538  24.636  1.00  0.00     0.261 C 
BRANCH   3   4
ATOM      4  O   UNL A   1      43.284  19.344  24.596  1.00  0.00    -0.458 OA
BRANCH   4   5
ATOM      5  C   UNL A   1      42.716  18.941  25.757  1.00  0.00     0.358 C 
ATOM      6  O   UNL A   1      42.809  17.835  26.271  1.00  0.00    -0.244 OA
BRANCH   5   7
ATOM      7  C   UNL A   1      42.098  20.103  26.447  1.00  0.00     0.169 A 
ATOM      8  C   UNL A   1      42.552  21.841  27.923  1.00  0.00     0.127 A 
ATOM      9  C   UNL A   1      41.206  22.169  27.979  1.00  0.00     0.048 A 
ATOM     10  N   UNL A   1      43.003  20.846  27.152  1.00  0.00    -0.222 NA
ATOM     11  C   UNL A   1      40.293  21.441  27.211  1.00  0.00     0.027 A 
ATOM     12  C   UNL A   1      40.738  20.374  26.431  1.00  0.00     0.074 A 
ATOM     13  Cl  UNL A   1      39.572  19.453  25.566  1.00  0.00    -0.082 Cl
BRANCH   8  14
ATOM     14  N   UNL A   1      43.517  22.478  28.675  1.00  0.00    -0.366 N 
ATOM     15  H   UNL A   1      44.472  22.399  28.451  1.00  0.00     0.162 HD
BRANCH  14  16
ATOM     16  C   UNL A   1      43.073  23.272  29.813  1.00  0.00     0.156 C 
BRANCH  16  17
ATOM     17  C   UNL A   1      44.158  23.981  30.556  1.00  0.00     0.037 A 
ATOM     18  C   UNL A   1      43.728  23.229  33.036  1.00  0.00     0.071 C 
ATOM     19  C   UNL A   1      44.430  23.967  31.956  1.00  0.00     0.086 A 
ATOM     20  N   UNL A   1      45.485  24.734  32.256  1.00  0.00    -0.085 NA
ATOM     21  O   UNL A   1      45.921  25.263  31.062  1.00  0.00    -0.361 OA
ATOM     22  C   UNL A   1      45.134  24.815  30.050  1.00  0.00     0.138 A 
ATOM     23  C   UNL A   1      45.478  25.298  28.700  1.00  0.00     0.091 C 
ENDBRANCH  16  17
ENDBRANCH  14  16
ENDBRANCH   8  14
ENDBRANCH   5   7
ENDBRANCH   4   5
ENDBRANCH   3   4
ENDBRANCH   2   3
ENDBRANCH   1   2
BRANCH   1  24
ATOM     24  C   UNL A   1      45.029  23.299  24.990  1.00  0.00     0.202 C 
BRANCH  24  25
ATOM     25  C   UNL A   1      43.617  23.882  24.844  1.00  0.00     0.261 C 
BRANCH  25  26
ATOM     26  O   UNL A   1      43.099  24.395  26.084  1.00  0.00    -0.460 OA
BRANCH  26  27
ATOM     27  C   UNL A   1      42.243  25.439  25.952  1.00  0.00     0.338 C 
ATOM     28  O   UNL A   1      41.497  25.662  25.007  1.00  0.00    -0.246 OA
BRANCH  27  29
ATOM     29  C   UNL A   1      42.194  26.224  27.198  1.00  0.00     0.060 A 
ATOM     30  C   UNL A   1      41.242  25.857  28.159  1.00  0.00     0.016 A 
ATOM     31  C   UNL A   1      43.006  27.344  27.399  1.00  0.00     0.016 A 
ATOM     32  C   UNL A   1      41.069  26.631  29.304  1.00  0.00     0.010 A 
ATOM     33  C   UNL A   1      42.823  28.125  28.547  1.00  0.00     0.010 A 
ATOM     34  C   UNL A   1      41.834  27.790  29.491  1.00  0.00    -0.014 A 
BRANCH  34  35
ATOM     35  C   UNL A   1      41.516  28.706  30.615  1.00  0.00     0.031 A 
ATOM     36  C   UNL A   1      42.335  28.636  31.877  1.00  0.00     0.074 A 
ATOM     37  C   UNL A   1      40.524  29.609  30.501  1.00  0.00     0.049 A 
ATOM     38  N   UNL A   1      42.215  29.328  32.980  1.00  0.00    -0.248 NA
ATOM     39  C   UNL A   1      43.435  27.658  31.899  1.00  0.00     0.031 C 
ATOM     40  C   UNL A   1      39.679  29.792  29.322  1.00  0.00     0.029 A 
ATOM     41  N   UNL A   1      40.057  30.540  31.397  1.00  0.00    -0.354 N 
ATOM     42  C   UNL A   1      43.211  28.862  33.832  1.00  0.00     0.074 A 
ATOM     43  C   UNL A   1      43.917  27.816  33.124  1.00  0.00     0.031 C 
ATOM     44  C   UNL A   1      38.788  30.768  29.569  1.00  0.00     0.029 A 
ATOM     45  C   UNL A   1      38.981  31.260  30.933  1.00  0.00     0.049 A 
ATOM     46  H   UNL A   1      40.454  30.679  32.286  1.00  0.00     0.167 HD
ATOM     47  C   UNL A   1      43.513  29.276  35.085  1.00  0.00     0.037 A 
ATOM     48  C   UNL A   1      38.226  32.194  31.546  1.00  0.00     0.037 A 
ATOM     49  C   UNL A   1      42.824  30.333  35.778  1.00  0.00     0.049 A 
ATOM     50  C   UNL A   1      38.558  32.601  32.960  1.00  0.00     0.074 A 
ATOM     51  C   UNL A   1      43.092  30.857  37.031  1.00  0.00     0.029 A 
ATOM     52  N   UNL A   1      41.729  31.024  35.284  1.00  0.00    -0.354 N 
ATOM     53  N   UNL A   1      39.532  32.184  33.733  1.00  0.00    -0.248 NA
ATOM     54  C   UNL A   1      37.686  33.607  33.585  1.00  0.00     0.031 C 
ATOM     55  C   UNL A   1      42.129  31.829  37.316  1.00  0.00     0.029 A 
ATOM     56  C   UNL A   1      41.291  31.947  36.219  1.00  0.00     0.049 A 
ATOM     57  H   UNL A   1      41.322  30.881  34.399  1.00  0.00     0.167 HD
ATOM     58  C   UNL A   1      39.408  32.898  34.920  1.00  0.00     0.074 A 
ATOM     59  C   UNL A   1      38.272  33.781  34.761  1.00  0.00     0.031 C 
ATOM     60  C   UNL A   1      40.167  32.831  36.042  1.00  0.00     0.037 A 
BRANCH  47  61
ATOM     61  C   UNL A   1      44.630  28.579  35.810  1.00  0.00     0.058 A 
ATOM     62  C   UNL A   1      44.397  27.464  36.630  1.00  0.00     0.135 A 
ATOM     63  C   UNL A   1      45.961  28.982  35.612  1.00  0.00     0.135 A 
ATOM     64  F   UNL A   1      43.143  27.047  36.865  1.00  0.00    -0.206 F 
ATOM     65  C   UNL A   1      45.446  26.775  37.232  1.00  0.00     0.059 A 
ATOM     66  C   UNL A   1      47.025  28.295  36.185  1.00  0.00     0.059 A 
ATOM     67  F   UNL A   1      46.236  30.045  34.840  1.00  0.00    -0.206 F 
ATOM     68  C   UNL A   1      46.757  27.194  36.998  1.00  0.00     0.060 A 
BRANCH  68  69
ATOM     69  S   UNL A   1      48.109  26.264  37.751  1.00  0.00     0.124 S 
ATOM     70  O   UNL A   1      47.493  24.953  37.936  1.00  0.00    -0.237 OA
ATOM     71  O   UNL A   1      49.146  26.336  36.726  1.00  0.00    -0.237 OA
ATOM     72  O   UNL A   1      48.391  27.003  38.977  1.00  0.00    -0.744 OA
ENDBRANCH  68  69
ENDBRANCH  47  61
BRANCH  48  73
ATOM     73  C   UNL A   1      37.063  32.803  30.845  1.00  0.00     0.058 A 
ATOM     74  C   UNL A   1      37.242  33.781  29.855  1.00  0.00     0.135 A 
ATOM     75  C   UNL A   1      35.749  32.451  31.185  1.00  0.00     0.135 A 
ATOM     76  F   UNL A   1      38.481  34.158  29.501  1.00  0.00    -0.206 F 
ATOM     77  C   UNL A   1      36.160  34.412  29.250  1.00  0.00     0.059 A 
ATOM     78  C   UNL A   1      34.650  33.048  30.575  1.00  0.00     0.059 A 
ATOM     79  F   UNL A   1      35.522  31.513  32.118  1.00  0.00    -0.206 F 
ATOM     80  C   UNL A   1      34.866  34.042  29.623  1.00  0.00     0.060 A 
BRANCH  80  81
ATOM     81  S   UNL A   1      33.465  34.861  28.831  1.00  0.00     0.124 S 
ATOM     82  O   UNL A   1      33.130  33.912  27.776  1.00  0.00    -0.237 OA
ATOM     83  O   UNL A   1      32.506  34.963  29.927  1.00  0.00    -0.237 OA
ATOM     84  O   UNL A   1      34.031  36.131  28.383  1.00  0.00    -0.744 OA
ENDBRANCH  80  81
ENDBRANCH  48  73
BRANCH  60  85
ATOM     85  C   UNL A   1      39.823  33.763  37.171  1.00  0.00     0.058 A 
ATOM     86  C   UNL A   1      38.911  33.402  38.174  1.00  0.00     0.135 A 
ATOM     87  C   UNL A   1      40.450  35.016  37.274  1.00  0.00     0.135 A 
ATOM     88  F   UNL A   1      38.280  32.218  38.120  1.00  0.00    -0.206 F 
ATOM     89  C   UNL A   1      38.612  34.261  39.228  1.00  0.00     0.059 A 
ATOM     90  C   UNL A   1      40.187  35.879  38.334  1.00  0.00     0.059 A 
ATOM     91  F   UNL A   1      41.340  35.405  36.348  1.00  0.00    -0.206 F 
ATOM     92  C   UNL A   1      39.255  35.498  39.299  1.00  0.00     0.060 A 
BRANCH  92  93
ATOM     93  S   UNL A   1      38.881  36.593  40.684  1.00  0.00     0.124 S 
ATOM     94  O   UNL A   1      40.213  36.858  41.217  1.00  0.00    -0.237 OA
ATOM     95  O   UNL A   1      38.226  37.720  40.026  1.00  0.00    -0.237 OA
ATOM     96  O   UNL A   1      38.015  35.783  41.534  1.00  0.00    -0.744 OA
ENDBRANCH  92  93
ENDBRANCH  60  85
ENDBRANCH  34  35
ENDBRANCH  27  29
ENDBRANCH  26  27
ENDBRANCH  25  26
ENDBRANCH  24  25
ENDBRANCH   1  24
TORSDOF 20
ENDMDL
