MODEL 1
REMARK VINA RESULT:     -11.3      0.000      0.000
REMARK SMILES Cc1cc2n(n1)[C@H](C(F)(F)F)CCN2C(=O)c1cnn([C@@H](C)C(=O)OCCOCCOC(=O)c2ccc(-c3c4nc(c(-c5c(F)cc(S(=O)(=O)[O-])cc5F)c5ccc([nH]5)c(-c5c(F)cc(S(=O)(=O)[O-])cc5F)c5nc(c(-c6c(F)cc(S(=O)(=O)[O-])cc6F)c6ccc3[nH]6)C=C5)C=C4)cc2)c1
REMARK SMILES IDX 27 1 26 2 25 3 23 4 24 5 21 6 22 7 20 8 17 9 18 10 100 11
REMARK SMILES IDX 19 12 15 13 16 14 14 15 1 16 2 17 3 18 6 19 4 20 5 21 7 22
REMARK SMILES IDX 13 23 12 24 8 25 9 26 10 27 11 28 28 29 29 30 30 31 31 32
REMARK SMILES IDX 32 33 33 34 34 35 35 36 99 37 36 38 98 39 37 40 38 41 39 42
REMARK SMILES IDX 92 43 40 44 97 45 91 46 93 47 41 48 96 49 90 50 89 51 42 53
REMARK SMILES IDX 76 54 55 55 75 56 56 57 59 58 74 59 94 60 57 61 58 62 73 64
REMARK SMILES IDX 95 65 60 66 43 67 44 68 53 69 45 70 46 71 52 72 54 73 47 74
REMARK SMILES IDX 48 75 49 76 50 77 51 78 77 79 78 80 87 81 79 82 80 83 86 84
REMARK SMILES IDX 88 85 81 86 82 87 83 88 84 89 85 90 61 91 62 92 71 93 63 94
REMARK SMILES IDX 64 95 70 96 72 97 65 98 66 99 67 100 68 101 69 102
REMARK H PARENT 93 52 59 63
REMARK Flexibility Score: inf
ROOT
ATOM      1  C   UNL A   1      38.866  19.913  25.340  1.00  0.00     0.202 C 
ENDROOT
BRANCH   1   2
ATOM      2  C   UNL A   1      37.735  20.792  24.809  1.00  0.00     0.261 C 
BRANCH   2   3
ATOM      3  O   UNL A   1      36.527  20.667  25.583  1.00  0.00    -0.462 OA
BRANCH   3   4
ATOM      4  C   UNL A   1      35.608  19.802  25.089  1.00  0.00     0.330 C 
ATOM      5  O   UNL A   1      35.891  18.740  24.536  1.00  0.00    -0.250 OA
BRANCH   4   6
ATOM      6  C   UNL A   1      34.167  20.223  25.237  1.00  0.00     0.213 C 
ATOM      7  C   UNL A   1      33.317  19.433  24.249  1.00  0.00     0.046 C 
BRANCH   6   8
ATOM      8  N   UNL A   1      33.876  21.658  25.208  1.00  0.00    -0.258 N 
ATOM      9  C   UNL A   1      32.865  23.593  25.656  1.00  0.00     0.078 A 
ATOM     10  C   UNL A   1      33.456  23.563  24.378  1.00  0.00     0.149 A 
ATOM     11  C   UNL A   1      33.209  22.358  26.188  1.00  0.00     0.123 A 
ATOM     12  N   UNL A   1      33.991  22.378  24.074  1.00  0.00    -0.180 NA
BRANCH   9  13
ATOM     13  C   UNL A   1      32.167  24.652  26.365  1.00  0.00     0.262 C 
ATOM     14  O   UNL A   1      31.387  24.423  27.271  1.00  0.00    -0.269 OA
BRANCH  13  15
ATOM     15  N   UNL A   1      32.349  26.001  25.820  1.00  0.00    -0.293 N 
ATOM     16  C   UNL A   1      28.083  27.265  23.438  1.00  0.00     0.069 C 
ATOM     17  C   UNL A   1      29.446  27.202  24.023  1.00  0.00     0.062 A 
ATOM     18  C   UNL A   1      29.998  26.213  24.880  1.00  0.00     0.072 A 
ATOM     19  N   UNL A   1      30.341  28.151  23.740  1.00  0.00    -0.176 NA
ATOM     20  C   UNL A   1      31.302  26.601  25.097  1.00  0.00     0.134 A 
ATOM     21  N   UNL A   1      31.429  27.784  24.419  1.00  0.00    -0.237 N 
ATOM     22  C   UNL A   1      32.608  28.615  24.409  1.00  0.00     0.216 C 
ATOM     23  C   UNL A   1      33.674  26.667  25.760  1.00  0.00     0.130 C 
ATOM     24  C   UNL A   1      33.590  28.176  25.505  1.00  0.00     0.059 C 
BRANCH  22  25
ATOM     25  C   UNL A   1      33.254  28.619  23.041  1.00  0.00     0.410 C 
ATOM     26  F   UNL A   1      34.563  28.963  23.152  1.00  0.00    -0.169 F 
ATOM     27  F   UNL A   1      33.232  27.381  22.490  1.00  0.00    -0.169 F 
ATOM     28  F   UNL A   1      32.702  29.477  22.164  1.00  0.00    -0.169 F 
ENDBRANCH  22  25
ENDBRANCH  13  15
ENDBRANCH   9  13
ENDBRANCH   6   8
ENDBRANCH   4   6
ENDBRANCH   3   4
ENDBRANCH   2   3
ENDBRANCH   1   2
BRANCH   1  29
ATOM     29  O   UNL A   1      39.748  20.478  26.307  1.00  0.00    -0.374 OA
BRANCH  29  30
ATOM     30  C   UNL A   1      41.076  19.984  26.440  1.00  0.00     0.202 C 
BRANCH  30  31
ATOM     31  C   UNL A   1      42.233  20.967  26.328  1.00  0.00     0.261 C 
BRANCH  31  32
ATOM     32  O   UNL A   1      42.944  20.806  25.111  1.00  0.00    -0.460 OA
BRANCH  32  33
ATOM     33  C   UNL A   1      44.293  20.870  25.236  1.00  0.00     0.338 C 
ATOM     34  O   UNL A   1      45.065  19.940  25.349  1.00  0.00    -0.246 OA
BRANCH  33  35
ATOM     35  C   UNL A   1      44.670  22.283  25.367  1.00  0.00     0.060 A 
ATOM     36  C   UNL A   1      45.376  22.620  26.519  1.00  0.00     0.016 A 
ATOM     37  C   UNL A   1      44.012  23.243  24.588  1.00  0.00     0.016 A 
ATOM     38  C   UNL A   1      45.159  23.867  27.056  1.00  0.00     0.010 A 
ATOM     39  C   UNL A   1      43.764  24.472  25.139  1.00  0.00     0.010 A 
ATOM     40  C   UNL A   1      44.256  24.722  26.415  1.00  0.00    -0.014 A 
BRANCH  40  41
ATOM     41  C   UNL A   1      43.917  25.965  27.063  1.00  0.00     0.031 A 
ATOM     42  C   UNL A   1      44.953  26.988  26.826  1.00  0.00     0.074 A 
ATOM     43  C   UNL A   1      42.754  26.154  27.713  1.00  0.00     0.049 A 
ATOM     44  N   UNL A   1      45.880  27.361  27.642  1.00  0.00    -0.248 NA
ATOM     45  C   UNL A   1      45.148  27.450  25.442  1.00  0.00     0.031 C 
ATOM     46  C   UNL A   1      41.584  25.271  27.774  1.00  0.00     0.029 A 
ATOM     47  N   UNL A   1      42.348  27.242  28.419  1.00  0.00    -0.354 N 
ATOM     48  C   UNL A   1      46.611  28.312  26.942  1.00  0.00     0.074 A 
ATOM     49  C   UNL A   1      46.297  28.116  25.555  1.00  0.00     0.031 C 
ATOM     50  C   UNL A   1      40.534  25.951  28.296  1.00  0.00     0.029 A 
ATOM     51  C   UNL A   1      40.993  27.256  28.736  1.00  0.00     0.049 A 
ATOM     52  H   UNL A   1      42.964  27.963  28.684  1.00  0.00     0.167 HD
ATOM     53  C   UNL A   1      47.138  29.388  27.587  1.00  0.00     0.037 A 
ATOM     54  C   UNL A   1      40.319  28.299  29.290  1.00  0.00     0.037 A 
ATOM     55  C   UNL A   1      47.154  29.167  29.011  1.00  0.00     0.049 A 
ATOM     56  C   UNL A   1      41.336  29.160  29.947  1.00  0.00     0.074 A 
ATOM     57  C   UNL A   1      47.816  28.317  29.872  1.00  0.00     0.029 A 
ATOM     58  N   UNL A   1      46.066  29.655  29.692  1.00  0.00    -0.354 N 
ATOM     59  N   UNL A   1      42.036  28.780  30.981  1.00  0.00    -0.248 NA
ATOM     60  C   UNL A   1      41.890  30.281  29.202  1.00  0.00     0.031 C 
ATOM     61  C   UNL A   1      46.905  28.066  30.940  1.00  0.00     0.029 A 
ATOM     62  C   UNL A   1      45.743  28.810  30.720  1.00  0.00     0.049 A 
ATOM     63  H   UNL A   1      45.588  30.488  29.474  1.00  0.00     0.167 HD
ATOM     64  C   UNL A   1      43.295  29.324  30.781  1.00  0.00     0.074 A 
ATOM     65  C   UNL A   1      43.108  30.339  29.749  1.00  0.00     0.031 C 
ATOM     66  C   UNL A   1      44.405  28.691  31.262  1.00  0.00     0.037 A 
BRANCH  53  67
ATOM     67  C   UNL A   1      47.181  30.784  26.997  1.00  0.00     0.058 A 
ATOM     68  C   UNL A   1      48.403  31.489  27.021  1.00  0.00     0.135 A 
ATOM     69  C   UNL A   1      46.042  31.562  26.684  1.00  0.00     0.135 A 
ATOM     70  F   UNL A   1      49.551  30.854  27.305  1.00  0.00    -0.206 F 
ATOM     71  C   UNL A   1      48.473  32.870  26.833  1.00  0.00     0.059 A 
ATOM     72  C   UNL A   1      46.099  32.927  26.440  1.00  0.00     0.059 A 
ATOM     73  F   UNL A   1      44.798  31.074  26.696  1.00  0.00    -0.206 F 
ATOM     74  C   UNL A   1      47.309  33.581  26.560  1.00  0.00     0.060 A 
BRANCH  74  75
ATOM     75  S   UNL A   1      47.366  35.374  26.424  1.00  0.00     0.124 S 
ATOM     76  O   UNL A   1      48.627  35.570  25.720  1.00  0.00    -0.237 OA
ATOM     77  O   UNL A   1      46.152  35.654  25.666  1.00  0.00    -0.237 OA
ATOM     78  O   UNL A   1      47.345  35.813  27.816  1.00  0.00    -0.744 OA
ENDBRANCH  74  75
ENDBRANCH  53  67
BRANCH  54  79
ATOM     79  C   UNL A   1      38.937  28.773  29.023  1.00  0.00     0.058 A 
ATOM     80  C   UNL A   1      38.010  28.954  30.068  1.00  0.00     0.135 A 
ATOM     81  C   UNL A   1      38.597  29.353  27.785  1.00  0.00     0.135 A 
ATOM     82  F   UNL A   1      38.262  28.451  31.286  1.00  0.00    -0.206 F 
ATOM     83  C   UNL A   1      36.844  29.713  29.912  1.00  0.00     0.059 A 
ATOM     84  C   UNL A   1      37.439  30.109  27.603  1.00  0.00     0.059 A 
ATOM     85  F   UNL A   1      39.435  29.282  26.738  1.00  0.00    -0.206 F 
ATOM     86  C   UNL A   1      36.580  30.308  28.679  1.00  0.00     0.060 A 
BRANCH  86  87
ATOM     87  S   UNL A   1      35.180  31.446  28.516  1.00  0.00     0.124 S 
ATOM     88  O   UNL A   1      34.169  30.591  27.905  1.00  0.00    -0.237 OA
ATOM     89  O   UNL A   1      34.938  31.838  29.900  1.00  0.00    -0.237 OA
ATOM     90  O   UNL A   1      35.709  32.503  27.657  1.00  0.00    -0.744 OA
ENDBRANCH  86  87
ENDBRANCH  54  79
BRANCH  66  91
ATOM     91  C   UNL A   1      44.197  27.658  32.339  1.00  0.00     0.058 A 
ATOM     92  C   UNL A   1      44.100  26.273  32.116  1.00  0.00     0.135 A 
ATOM     93  C   UNL A   1      44.227  28.095  33.671  1.00  0.00     0.135 A 
ATOM     94  F   UNL A   1      44.149  25.770  30.873  1.00  0.00    -0.206 F 
ATOM     95  C   UNL A   1      44.009  25.367  33.174  1.00  0.00     0.059 A 
ATOM     96  C   UNL A   1      44.168  27.209  34.740  1.00  0.00     0.059 A 
ATOM     97  F   UNL A   1      44.372  29.402  33.944  1.00  0.00    -0.206 F 
ATOM     98  C   UNL A   1      44.048  25.845  34.484  1.00  0.00     0.060 A 
BRANCH  98  99
ATOM     99  S   UNL A   1      44.017  24.669  35.855  1.00  0.00     0.124 S 
ATOM    100  O   UNL A   1      43.468  25.478  36.938  1.00  0.00    -0.237 OA
ATOM    101  O   UNL A   1      43.146  23.614  35.346  1.00  0.00    -0.237 OA
ATOM    102  O   UNL A   1      45.419  24.288  36.009  1.00  0.00    -0.744 OA
ENDBRANCH  98  99
ENDBRANCH  66  91
ENDBRANCH  40  41
ENDBRANCH  33  35
ENDBRANCH  32  33
ENDBRANCH  31  32
ENDBRANCH  30  31
ENDBRANCH  29  30
ENDBRANCH   1  29
TORSDOF 21
ENDMDL
MODEL 2
REMARK VINA RESULT:     -10.7      3.012      9.751
REMARK SMILES Cc1cc2n(n1)[C@H](C(F)(F)F)CCN2C(=O)c1cnn([C@@H](C)C(=O)OCCOCCOC(=O)c2ccc(-c3c4nc(c(-c5c(F)cc(S(=O)(=O)[O-])cc5F)c5ccc([nH]5)c(-c5c(F)cc(S(=O)(=O)[O-])cc5F)c5nc(c(-c6c(F)cc(S(=O)(=O)[O-])cc6F)c6ccc3[nH]6)C=C5)C=C4)cc2)c1
REMARK SMILES IDX 27 1 26 2 25 3 23 4 24 5 21 6 22 7 20 8 17 9 18 10 100 11
REMARK SMILES IDX 19 12 15 13 16 14 14 15 1 16 2 17 3 18 6 19 4 20 5 21 7 22
REMARK SMILES IDX 13 23 12 24 8 25 9 26 10 27 11 28 28 29 29 30 30 31 31 32
REMARK SMILES IDX 32 33 33 34 34 35 35 36 99 37 36 38 98 39 37 40 38 41 39 42
REMARK SMILES IDX 92 43 40 44 97 45 91 46 93 47 41 48 96 49 90 50 89 51 42 53
REMARK SMILES IDX 76 54 55 55 75 56 56 57 59 58 74 59 94 60 57 61 58 62 73 64
REMARK SMILES IDX 95 65 60 66 43 67 44 68 53 69 45 70 46 71 52 72 54 73 47 74
REMARK SMILES IDX 48 75 49 76 50 77 51 78 77 79 78 80 87 81 79 82 80 83 86 84
REMARK SMILES IDX 88 85 81 86 82 87 83 88 84 89 85 90 61 91 62 92 71 93 63 94
REMARK SMILES IDX 64 95 70 96 72 97 65 98 66 99 67 100 68 101 69 102
REMARK H PARENT 93 52 59 63
REMARK Flexibility Score: inf
ROOT
ATOM      1  C   UNL A   1      33.538  35.463  29.709  1.00  0.00     0.202 C 
ENDROOT
BRANCH   1   2
ATOM      2  C   UNL A   1      33.773  34.873  28.320  1.00  0.00     0.261 C 
BRANCH   2   3
ATOM      3  O   UNL A   1      33.476  33.465  28.259  1.00  0.00    -0.462 OA
BRANCH   3   4
ATOM      4  C   UNL A   1      34.522  32.665  27.938  1.00  0.00     0.330 C 
ATOM      5  O   UNL A   1      35.601  33.079  27.517  1.00  0.00    -0.250 OA
BRANCH   4   6
ATOM      6  C   UNL A   1      34.290  31.185  28.112  1.00  0.00     0.213 C 
ATOM      7  C   UNL A   1      35.625  30.503  28.386  1.00  0.00     0.046 C 
BRANCH   6   8
ATOM      8  N   UNL A   1      33.509  30.498  27.080  1.00  0.00    -0.258 N 
ATOM      9  C   UNL A   1      33.020  29.519  25.139  1.00  0.00     0.078 A 
ATOM     10  C   UNL A   1      31.907  30.139  25.739  1.00  0.00     0.149 A 
ATOM     11  C   UNL A   1      34.030  29.723  26.068  1.00  0.00     0.123 A 
ATOM     12  N   UNL A   1      32.213  30.797  26.859  1.00  0.00    -0.180 NA
BRANCH   9  13
ATOM     13  C   UNL A   1      33.139  28.733  23.922  1.00  0.00     0.262 C 
ATOM     14  O   UNL A   1      33.332  29.244  22.835  1.00  0.00    -0.269 OA
BRANCH  13  15
ATOM     15  N   UNL A   1      32.862  27.300  24.069  1.00  0.00    -0.293 N 
ATOM     16  C   UNL A   1      27.856  26.692  23.874  1.00  0.00     0.069 C 
ATOM     17  C   UNL A   1      29.327  26.528  23.986  1.00  0.00     0.062 A 
ATOM     18  C   UNL A   1      30.345  27.499  23.786  1.00  0.00     0.072 A 
ATOM     19  N   UNL A   1      29.845  25.349  24.336  1.00  0.00    -0.176 NA
ATOM     20  C   UNL A   1      31.530  26.849  24.053  1.00  0.00     0.134 A 
ATOM     21  N   UNL A   1      31.162  25.560  24.338  1.00  0.00    -0.237 N 
ATOM     22  C   UNL A   1      32.073  24.477  24.614  1.00  0.00     0.216 C 
ATOM     23  C   UNL A   1      33.896  26.326  24.499  1.00  0.00     0.130 C 
ATOM     24  C   UNL A   1      33.510  24.866  24.236  1.00  0.00     0.059 C 
BRANCH  22  25
ATOM     25  C   UNL A   1      31.968  24.038  26.058  1.00  0.00     0.410 C 
ATOM     26  F   UNL A   1      32.348  25.054  26.876  1.00  0.00    -0.169 F 
ATOM     27  F   UNL A   1      30.685  23.747  26.384  1.00  0.00    -0.169 F 
ATOM     28  F   UNL A   1      32.732  22.978  26.378  1.00  0.00    -0.169 F 
ENDBRANCH  22  25
ENDBRANCH  13  15
ENDBRANCH   9  13
ENDBRANCH   6   8
ENDBRANCH   4   6
ENDBRANCH   3   4
ENDBRANCH   2   3
ENDBRANCH   1   2
BRANCH   1  29
ATOM     29  O   UNL A   1      33.317  34.557  30.787  1.00  0.00    -0.374 OA
BRANCH  29  30
ATOM     30  C   UNL A   1      34.408  34.108  31.582  1.00  0.00     0.202 C 
BRANCH  30  31
ATOM     31  C   UNL A   1      35.017  32.746  31.279  1.00  0.00     0.261 C 
BRANCH  31  32
ATOM     32  O   UNL A   1      35.102  31.939  32.442  1.00  0.00    -0.460 OA
BRANCH  32  33
ATOM     33  C   UNL A   1      36.356  31.807  32.944  1.00  0.00     0.338 C 
ATOM     34  O   UNL A   1      36.766  32.216  34.010  1.00  0.00    -0.246 OA
BRANCH  33  35
ATOM     35  C   UNL A   1      37.201  31.207  31.903  1.00  0.00     0.060 A 
ATOM     36  C   UNL A   1      37.239  29.815  31.878  1.00  0.00     0.016 A 
ATOM     37  C   UNL A   1      38.176  31.992  31.275  1.00  0.00     0.016 A 
ATOM     38  C   UNL A   1      38.417  29.218  31.496  1.00  0.00     0.010 A 
ATOM     39  C   UNL A   1      39.364  31.403  30.930  1.00  0.00     0.010 A 
ATOM     40  C   UNL A   1      39.498  30.036  31.148  1.00  0.00    -0.014 A 
BRANCH  40  41
ATOM     41  C   UNL A   1      40.773  29.411  30.896  1.00  0.00     0.031 A 
ATOM     42  C   UNL A   1      41.556  29.279  32.139  1.00  0.00     0.074 A 
ATOM     43  C   UNL A   1      41.126  28.940  29.685  1.00  0.00     0.049 A 
ATOM     44  N   UNL A   1      42.532  30.028  32.527  1.00  0.00    -0.248 NA
ATOM     45  C   UNL A   1      41.023  28.394  33.187  1.00  0.00     0.031 C 
ATOM     46  C   UNL A   1      40.306  28.814  28.476  1.00  0.00     0.029 A 
ATOM     47  N   UNL A   1      42.313  28.399  29.304  1.00  0.00    -0.354 N 
ATOM     48  C   UNL A   1      42.904  29.518  33.764  1.00  0.00     0.074 A 
ATOM     49  C   UNL A   1      41.794  28.730  34.222  1.00  0.00     0.031 C 
ATOM     50  C   UNL A   1      40.956  28.043  27.570  1.00  0.00     0.029 A 
ATOM     51  C   UNL A   1      42.286  27.747  28.075  1.00  0.00     0.049 A 
ATOM     52  H   UNL A   1      43.127  28.463  29.854  1.00  0.00     0.167 HD
ATOM     53  C   UNL A   1      44.210  29.510  34.142  1.00  0.00     0.037 A 
ATOM     54  C   UNL A   1      43.291  26.996  27.553  1.00  0.00     0.037 A 
ATOM     55  C   UNL A   1      44.984  30.395  33.308  1.00  0.00     0.049 A 
ATOM     56  C   UNL A   1      44.537  27.418  28.243  1.00  0.00     0.074 A 
ATOM     57  C   UNL A   1      45.045  31.758  33.102  1.00  0.00     0.029 A 
ATOM     58  N   UNL A   1      45.591  29.802  32.228  1.00  0.00    -0.354 N 
ATOM     59  N   UNL A   1      45.063  28.605  28.111  1.00  0.00    -0.248 NA
ATOM     60  C   UNL A   1      44.973  26.675  29.417  1.00  0.00     0.031 C 
ATOM     61  C   UNL A   1      45.395  31.923  31.730  1.00  0.00     0.029 A 
ATOM     62  C   UNL A   1      45.585  30.661  31.163  1.00  0.00     0.049 A 
ATOM     63  H   UNL A   1      45.973  28.895  32.222  1.00  0.00     0.167 HD
ATOM     64  C   UNL A   1      45.559  28.919  29.367  1.00  0.00     0.074 A 
ATOM     65  C   UNL A   1      45.594  27.649  30.086  1.00  0.00     0.031 C 
ATOM     66  C   UNL A   1      45.611  30.218  29.783  1.00  0.00     0.037 A 
BRANCH  53  67
ATOM     67  C   UNL A   1      44.856  28.375  34.913  1.00  0.00     0.058 A 
ATOM     68  C   UNL A   1      44.806  27.075  34.369  1.00  0.00     0.135 A 
ATOM     69  C   UNL A   1      45.255  28.447  36.268  1.00  0.00     0.135 A 
ATOM     70  F   UNL A   1      44.441  26.883  33.091  1.00  0.00    -0.206 F 
ATOM     71  C   UNL A   1      45.048  25.933  35.135  1.00  0.00     0.059 A 
ATOM     72  C   UNL A   1      45.553  27.327  37.032  1.00  0.00     0.059 A 
ATOM     73  F   UNL A   1      45.280  29.588  36.964  1.00  0.00    -0.206 F 
ATOM     74  C   UNL A   1      45.406  26.073  36.472  1.00  0.00     0.060 A 
BRANCH  74  75
ATOM     75  S   UNL A   1      45.615  24.613  37.501  1.00  0.00     0.124 S 
ATOM     76  O   UNL A   1      46.887  24.898  38.151  1.00  0.00    -0.237 OA
ATOM     77  O   UNL A   1      44.428  24.671  38.347  1.00  0.00    -0.237 OA
ATOM     78  O   UNL A   1      45.633  23.522  36.530  1.00  0.00    -0.744 OA
ENDBRANCH  74  75
ENDBRANCH  53  67
BRANCH  54  79
ATOM     79  C   UNL A   1      43.214  25.743  26.759  1.00  0.00     0.058 A 
ATOM     80  C   UNL A   1      43.871  25.620  25.519  1.00  0.00     0.135 A 
ATOM     81  C   UNL A   1      42.757  24.544  27.341  1.00  0.00     0.135 A 
ATOM     82  F   UNL A   1      44.355  26.709  24.903  1.00  0.00    -0.206 F 
ATOM     83  C   UNL A   1      44.113  24.377  24.920  1.00  0.00     0.059 A 
ATOM     84  C   UNL A   1      42.981  23.295  26.761  1.00  0.00     0.059 A 
ATOM     85  F   UNL A   1      42.163  24.546  28.545  1.00  0.00    -0.206 F 
ATOM     86  C   UNL A   1      43.684  23.217  25.563  1.00  0.00     0.060 A 
BRANCH  86  87
ATOM     87  S   UNL A   1      44.156  21.600  24.899  1.00  0.00     0.124 S 
ATOM     88  O   UNL A   1      43.012  20.777  25.272  1.00  0.00    -0.237 OA
ATOM     89  O   UNL A   1      44.307  21.882  23.475  1.00  0.00    -0.237 OA
ATOM     90  O   UNL A   1      45.400  21.300  25.604  1.00  0.00    -0.744 OA
ENDBRANCH  86  87
ENDBRANCH  54  79
BRANCH  66  91
ATOM     91  C   UNL A   1      45.521  31.285  28.725  1.00  0.00     0.058 A 
ATOM     92  C   UNL A   1      46.588  31.701  27.908  1.00  0.00     0.135 A 
ATOM     93  C   UNL A   1      44.253  31.817  28.447  1.00  0.00     0.135 A 
ATOM     94  F   UNL A   1      47.814  31.176  28.057  1.00  0.00    -0.206 F 
ATOM     95  C   UNL A   1      46.404  32.625  26.878  1.00  0.00     0.059 A 
ATOM     96  C   UNL A   1      44.041  32.716  27.408  1.00  0.00     0.059 A 
ATOM     97  F   UNL A   1      43.188  31.417  29.160  1.00  0.00    -0.206 F 
ATOM     98  C   UNL A   1      45.124  33.125  26.633  1.00  0.00     0.060 A 
BRANCH  98  99
ATOM     99  S   UNL A   1      44.867  34.255  25.248  1.00  0.00     0.124 S 
ATOM    100  O   UNL A   1      43.701  35.014  25.686  1.00  0.00    -0.237 OA
ATOM    101  O   UNL A   1      46.126  34.994  25.206  1.00  0.00    -0.237 OA
ATOM    102  O   UNL A   1      44.642  33.360  24.115  1.00  0.00    -0.744 OA
ENDBRANCH  98  99
ENDBRANCH  66  91
ENDBRANCH  40  41
ENDBRANCH  33  35
ENDBRANCH  32  33
ENDBRANCH  31  32
ENDBRANCH  30  31
ENDBRANCH  29  30
ENDBRANCH   1  29
TORSDOF 21
ENDMDL
MODEL 3
REMARK VINA RESULT:     -10.3      4.863     10.139
REMARK SMILES Cc1cc2n(n1)[C@H](C(F)(F)F)CCN2C(=O)c1cnn([C@@H](C)C(=O)OCCOCCOC(=O)c2ccc(-c3c4nc(c(-c5c(F)cc(S(=O)(=O)[O-])cc5F)c5ccc([nH]5)c(-c5c(F)cc(S(=O)(=O)[O-])cc5F)c5nc(c(-c6c(F)cc(S(=O)(=O)[O-])cc6F)c6ccc3[nH]6)C=C5)C=C4)cc2)c1
REMARK SMILES IDX 27 1 26 2 25 3 23 4 24 5 21 6 22 7 20 8 17 9 18 10 100 11
REMARK SMILES IDX 19 12 15 13 16 14 14 15 1 16 2 17 3 18 6 19 4 20 5 21 7 22
REMARK SMILES IDX 13 23 12 24 8 25 9 26 10 27 11 28 28 29 29 30 30 31 31 32
REMARK SMILES IDX 32 33 33 34 34 35 35 36 99 37 36 38 98 39 37 40 38 41 39 42
REMARK SMILES IDX 92 43 40 44 97 45 91 46 93 47 41 48 96 49 90 50 89 51 42 53
REMARK SMILES IDX 76 54 55 55 75 56 56 57 59 58 74 59 94 60 57 61 58 62 73 64
REMARK SMILES IDX 95 65 60 66 43 67 44 68 53 69 45 70 46 71 52 72 54 73 47 74
REMARK SMILES IDX 48 75 49 76 50 77 51 78 77 79 78 80 87 81 79 82 80 83 86 84
REMARK SMILES IDX 88 85 81 86 82 87 83 88 84 89 85 90 61 91 62 92 71 93 63 94
REMARK SMILES IDX 64 95 70 96 72 97 65 98 66 99 67 100 68 101 69 102
REMARK H PARENT 93 52 59 63
REMARK Flexibility Score: inf
ROOT
ATOM      1  C   UNL A   1      43.756  23.331  24.673  1.00  0.00     0.202 C 
ENDROOT
BRANCH   1   2
ATOM      2  C   UNL A   1      44.883  23.488  25.692  1.00  0.00     0.261 C 
BRANCH   2   3
ATOM      3  O   UNL A   1      45.435  24.818  25.706  1.00  0.00    -0.462 OA
BRANCH   3   4
ATOM      4  C   UNL A   1      46.510  25.008  24.903  1.00  0.00     0.330 C 
ATOM      5  O   UNL A   1      46.976  24.144  24.161  1.00  0.00    -0.250 OA
BRANCH   4   6
ATOM      6  C   UNL A   1      47.146  26.375  24.974  1.00  0.00     0.213 C 
ATOM      7  C   UNL A   1      46.053  27.434  24.894  1.00  0.00     0.046 C 
BRANCH   6   8
ATOM      8  N   UNL A   1      48.262  26.648  24.065  1.00  0.00    -0.258 N 
ATOM      9  C   UNL A   1      50.287  27.269  23.374  1.00  0.00     0.078 A 
ATOM     10  C   UNL A   1      49.288  27.472  22.403  1.00  0.00     0.149 A 
ATOM     11  C   UNL A   1      49.592  26.679  24.419  1.00  0.00     0.123 A 
ATOM     12  N   UNL A   1      48.061  27.179  22.842  1.00  0.00    -0.180 NA
BRANCH   9  13
ATOM     13  C   UNL A   1      51.724  27.477  23.327  1.00  0.00     0.262 C 
ATOM     14  O   UNL A   1      52.498  26.597  22.997  1.00  0.00    -0.269 OA
BRANCH  13  15
ATOM     15  N   UNL A   1      52.192  28.767  23.846  1.00  0.00    -0.293 N 
ATOM     16  C   UNL A   1      53.161  28.166  28.762  1.00  0.00     0.069 C 
ATOM     17  C   UNL A   1      52.962  28.672  27.381  1.00  0.00     0.062 A 
ATOM     18  C   UNL A   1      52.646  27.941  26.205  1.00  0.00     0.072 A 
ATOM     19  N   UNL A   1      53.055  29.979  27.126  1.00  0.00    -0.176 NA
ATOM     20  C   UNL A   1      52.531  28.882  25.206  1.00  0.00     0.134 A 
ATOM     21  N   UNL A   1      52.825  30.073  25.816  1.00  0.00    -0.237 N 
ATOM     22  C   UNL A   1      52.905  31.351  25.151  1.00  0.00     0.216 C 
ATOM     23  C   UNL A   1      52.073  30.029  23.074  1.00  0.00     0.130 C 
ATOM     24  C   UNL A   1      52.936  31.169  23.627  1.00  0.00     0.059 C 
BRANCH  22  25
ATOM     25  C   UNL A   1      51.775  32.258  25.589  1.00  0.00     0.410 C 
ATOM     26  F   UNL A   1      52.198  33.062  26.599  1.00  0.00    -0.169 F 
ATOM     27  F   UNL A   1      51.397  33.081  24.581  1.00  0.00    -0.169 F 
ATOM     28  F   UNL A   1      50.683  31.615  26.037  1.00  0.00    -0.169 F 
ENDBRANCH  22  25
ENDBRANCH  13  15
ENDBRANCH   9  13
ENDBRANCH   6   8
ENDBRANCH   4   6
ENDBRANCH   3   4
ENDBRANCH   2   3
ENDBRANCH   1   2
BRANCH   1  29
ATOM     29  O   UNL A   1      42.924  22.177  24.776  1.00  0.00    -0.374 OA
BRANCH  29  30
ATOM     30  C   UNL A   1      43.038  21.307  25.896  1.00  0.00     0.202 C 
BRANCH  30  31
ATOM     31  C   UNL A   1      41.771  20.891  26.627  1.00  0.00     0.261 C 
BRANCH  31  32
ATOM     32  O   UNL A   1      41.363  21.869  27.571  1.00  0.00    -0.460 OA
BRANCH  32  33
ATOM     33  C   UNL A   1      40.378  22.694  27.134  1.00  0.00     0.338 C 
ATOM     34  O   UNL A   1      39.280  22.375  26.727  1.00  0.00    -0.246 OA
BRANCH  33  35
ATOM     35  C   UNL A   1      40.917  24.059  27.089  1.00  0.00     0.060 A 
ATOM     36  C   UNL A   1      41.994  24.316  27.934  1.00  0.00     0.016 A 
ATOM     37  C   UNL A   1      40.139  25.086  26.539  1.00  0.00     0.016 A 
ATOM     38  C   UNL A   1      42.093  25.577  28.472  1.00  0.00     0.010 A 
ATOM     39  C   UNL A   1      40.211  26.332  27.102  1.00  0.00     0.010 A 
ATOM     40  C   UNL A   1      41.119  26.525  28.137  1.00  0.00    -0.014 A 
BRANCH  40  41
ATOM     41  C   UNL A   1      41.140  27.795  28.820  1.00  0.00     0.031 A 
ATOM     42  C   UNL A   1      42.251  28.639  28.342  1.00  0.00     0.074 A 
ATOM     43  C   UNL A   1      40.195  28.160  29.707  1.00  0.00     0.049 A 
ATOM     44  N   UNL A   1      43.383  28.839  28.928  1.00  0.00    -0.248 NA
ATOM     45  C   UNL A   1      42.211  29.087  26.941  1.00  0.00     0.031 C 
ATOM     46  C   UNL A   1      38.939  27.480  30.039  1.00  0.00     0.029 A 
ATOM     47  N   UNL A   1      40.138  29.287  30.463  1.00  0.00    -0.354 N 
ATOM     48  C   UNL A   1      44.089  29.670  28.066  1.00  0.00     0.074 A 
ATOM     49  C   UNL A   1      43.450  29.553  26.785  1.00  0.00     0.031 C 
ATOM     50  C   UNL A   1      38.155  28.314  30.766  1.00  0.00     0.029 A 
ATOM     51  C   UNL A   1      38.908  29.518  31.070  1.00  0.00     0.049 A 
ATOM     52  H   UNL A   1      40.907  29.892  30.573  1.00  0.00     0.167 HD
ATOM     53  C   UNL A   1      44.914  30.633  28.559  1.00  0.00     0.037 A 
ATOM     54  C   UNL A   1      38.553  30.646  31.739  1.00  0.00     0.037 A 
ATOM     55  C   UNL A   1      45.206  30.386  29.949  1.00  0.00     0.049 A 
ATOM     56  C   UNL A   1      39.816  31.317  32.141  1.00  0.00     0.074 A 
ATOM     57  C   UNL A   1      45.893  29.423  30.659  1.00  0.00     0.029 A 
ATOM     58  N   UNL A   1      44.389  31.034  30.843  1.00  0.00    -0.354 N 
ATOM     59  N   UNL A   1      40.654  30.809  33.002  1.00  0.00    -0.248 NA
ATOM     60  C   UNL A   1      40.369  32.345  31.272  1.00  0.00     0.031 C 
ATOM     61  C   UNL A   1      45.210  29.307  31.905  1.00  0.00     0.029 A 
ATOM     62  C   UNL A   1      44.167  30.234  31.932  1.00  0.00     0.049 A 
ATOM     63  H   UNL A   1      44.019  31.938  30.720  1.00  0.00     0.167 HD
ATOM     64  C   UNL A   1      41.910  31.142  32.520  1.00  0.00     0.074 A 
ATOM     65  C   UNL A   1      41.670  32.193  31.537  1.00  0.00     0.031 C 
ATOM     66  C   UNL A   1      42.980  30.327  32.758  1.00  0.00     0.037 A 
BRANCH  53  67
ATOM     67  C   UNL A   1      45.055  32.013  27.948  1.00  0.00     0.058 A 
ATOM     68  C   UNL A   1      46.297  32.380  27.388  1.00  0.00     0.135 A 
ATOM     69  C   UNL A   1      44.144  33.077  28.144  1.00  0.00     0.135 A 
ATOM     70  F   UNL A   1      47.241  31.454  27.157  1.00  0.00    -0.206 F 
ATOM     71  C   UNL A   1      46.636  33.708  27.126  1.00  0.00     0.059 A 
ATOM     72  C   UNL A   1      44.442  34.398  27.837  1.00  0.00     0.059 A 
ATOM     73  F   UNL A   1      42.955  32.923  28.735  1.00  0.00    -0.206 F 
ATOM     74  C   UNL A   1      45.703  34.711  27.370  1.00  0.00     0.060 A 
BRANCH  74  75
ATOM     75  S   UNL A   1      46.161  36.435  27.141  1.00  0.00     0.124 S 
ATOM     76  O   UNL A   1      46.822  36.729  28.406  1.00  0.00    -0.237 OA
ATOM     77  O   UNL A   1      47.020  36.361  25.964  1.00  0.00    -0.237 OA
ATOM     78  O   UNL A   1      44.876  37.095  26.931  1.00  0.00    -0.744 OA
ENDBRANCH  74  75
ENDBRANCH  53  67
BRANCH  54  79
ATOM     79  C   UNL A   1      37.242  31.346  31.774  1.00  0.00     0.058 A 
ATOM     80  C   UNL A   1      36.650  31.732  32.992  1.00  0.00     0.135 A 
ATOM     81  C   UNL A   1      36.699  31.923  30.610  1.00  0.00     0.135 A 
ATOM     82  F   UNL A   1      37.118  31.245  34.152  1.00  0.00    -0.206 F 
ATOM     83  C   UNL A   1      35.620  32.679  33.058  1.00  0.00     0.059 A 
ATOM     84  C   UNL A   1      35.669  32.865  30.649  1.00  0.00     0.059 A 
ATOM     85  F   UNL A   1      37.224  31.662  29.402  1.00  0.00    -0.206 F 
ATOM     86  C   UNL A   1      35.153  33.258  31.879  1.00  0.00     0.060 A 
BRANCH  86  87
ATOM     87  S   UNL A   1      33.959  34.617  31.962  1.00  0.00     0.124 S 
ATOM     88  O   UNL A   1      34.791  35.717  32.435  1.00  0.00    -0.237 OA
ATOM     89  O   UNL A   1      33.497  34.709  30.582  1.00  0.00    -0.237 OA
ATOM     90  O   UNL A   1      32.965  34.128  32.915  1.00  0.00    -0.744 OA
ENDBRANCH  86  87
ENDBRANCH  54  79
BRANCH  66  91
ATOM     91  C   UNL A   1      42.847  29.323  33.872  1.00  0.00     0.058 A 
ATOM     92  C   UNL A   1      43.035  29.607  35.237  1.00  0.00     0.135 A 
ATOM     93  C   UNL A   1      42.382  28.042  33.539  1.00  0.00     0.135 A 
ATOM     94  F   UNL A   1      43.398  30.833  35.642  1.00  0.00    -0.206 F 
ATOM     95  C   UNL A   1      42.795  28.647  36.223  1.00  0.00     0.059 A 
ATOM     96  C   UNL A   1      42.108  27.082  34.506  1.00  0.00     0.059 A 
ATOM     97  F   UNL A   1      42.135  27.732  32.256  1.00  0.00    -0.206 F 
ATOM     98  C   UNL A   1      42.328  27.388  35.847  1.00  0.00     0.060 A 
BRANCH  98  99
ATOM     99  S   UNL A   1      41.935  26.174  37.125  1.00  0.00     0.124 S 
ATOM    100  O   UNL A   1      43.050  26.334  38.052  1.00  0.00    -0.237 OA
ATOM    101  O   UNL A   1      40.637  26.634  37.609  1.00  0.00    -0.237 OA
ATOM    102  O   UNL A   1      41.905  24.908  36.396  1.00  0.00    -0.744 OA
ENDBRANCH  98  99
ENDBRANCH  66  91
ENDBRANCH  40  41
ENDBRANCH  33  35
ENDBRANCH  32  33
ENDBRANCH  31  32
ENDBRANCH  30  31
ENDBRANCH  29  30
ENDBRANCH   1  29
TORSDOF 21
ENDMDL
