MODEL 1
REMARK VINA RESULT:     -11.1      0.000      0.000
REMARK SMILES C/C(C(=O)OCCOCCOC(=O)c1ccc(-c2c3nc(c(-c4c(F)cc(S(=O)(=O)[O-])cc4F)c4ccc([nH]4)c(-c4c(F)cc(S(=O)(=O)[O-])cc4F)c4nc(c(-c5c(F)cc(S(=O)(=O)[O-])cc5F)c5ccc2[nH]5)C=C4)C=C3)cc1)=C(\C)c1ccc(C)c(F)c1
REMARK SMILES IDX 9 1 8 2 7 3 6 4 5 5 3 6 4 7 2 8 1 9 80 10 81 11 82 12 83 13
REMARK SMILES IDX 89 14 84 15 87 16 85 17 88 18 86 19 10 20 11 21 12 22 13 23
REMARK SMILES IDX 14 24 15 25 79 26 16 27 78 28 17 29 18 30 19 31 72 32 20 33
REMARK SMILES IDX 77 34 71 35 73 36 21 37 76 38 70 39 69 40 22 42 56 43 35 44
REMARK SMILES IDX 55 45 36 46 39 47 54 48 74 49 37 50 38 51 53 53 75 54 40 55
REMARK SMILES IDX 23 56 24 57 33 58 25 59 26 60 32 61 34 62 27 63 28 64 29 65
REMARK SMILES IDX 30 66 31 67 57 68 58 69 67 70 59 71 60 72 66 73 68 74 61 75
REMARK SMILES IDX 62 76 63 77 64 78 65 79 41 80 42 81 51 82 43 83 44 84 50 85
REMARK SMILES IDX 52 86 45 87 46 88 47 89 48 90 49 91
REMARK H PARENT 73 41 39 52
REMARK Flexibility Score: inf
ROOT
ATOM      1  C   UNL A   1      39.464  22.079  26.095  1.00  0.00     0.202 C 
ENDROOT
BRANCH   1   2
ATOM      2  O   UNL A   1      38.051  22.210  26.004  1.00  0.00    -0.374 OA
BRANCH   2   3
ATOM      3  C   UNL A   1      37.338  21.212  25.268  1.00  0.00     0.202 C 
BRANCH   3   4
ATOM      4  C   UNL A   1      36.109  21.670  24.481  1.00  0.00     0.261 C 
BRANCH   4   5
ATOM      5  O   UNL A   1      35.703  22.981  24.917  1.00  0.00    -0.460 OA
BRANCH   5   6
ATOM      6  C   UNL A   1      34.878  23.657  24.079  1.00  0.00     0.334 C 
ATOM      7  O   UNL A   1      35.049  23.828  22.883  1.00  0.00    -0.247 OA
BRANCH   6   8
ATOM      8  C   UNL A   1      33.696  24.171  24.838  1.00  0.00     0.038 C 
ATOM      9  C   UNL A   1      33.923  25.443  25.607  1.00  0.00     0.052 C 
ATOM     10  C   UNL A   1      32.506  23.520  24.797  1.00  0.00    -0.034 C 
ATOM     11  C   UNL A   1      31.221  24.062  25.366  1.00  0.00     0.045 C 
BRANCH  10  12
ATOM     12  C   UNL A   1      32.358  22.163  24.227  1.00  0.00    -0.019 A 
ATOM     13  C   UNL A   1      32.100  21.948  22.870  1.00  0.00     0.009 A 
ATOM     14  C   UNL A   1      32.501  21.056  25.069  1.00  0.00     0.048 A 
ATOM     15  C   UNL A   1      32.064  20.646  22.353  1.00  0.00     0.007 A 
ATOM     16  C   UNL A   1      32.492  19.768  24.545  1.00  0.00     0.126 A 
ATOM     17  C   UNL A   1      32.308  19.544  23.181  1.00  0.00    -0.015 A 
ATOM     18  F   UNL A   1      32.693  18.734  25.375  1.00  0.00    -0.207 F 
ATOM     19  C   UNL A   1      32.343  18.152  22.628  1.00  0.00     0.047 C 
ENDBRANCH  10  12
ENDBRANCH   6   8
ENDBRANCH   5   6
ENDBRANCH   4   5
ENDBRANCH   3   4
ENDBRANCH   2   3
ENDBRANCH   1   2
BRANCH   1  20
ATOM     20  C   UNL A   1      40.282  23.269  26.619  1.00  0.00     0.261 C 
BRANCH  20  21
ATOM     21  O   UNL A   1      39.664  24.538  26.413  1.00  0.00    -0.460 OA
BRANCH  21  22
ATOM     22  C   UNL A   1      40.559  25.547  26.298  1.00  0.00     0.338 C 
ATOM     23  O   UNL A   1      41.118  25.932  25.279  1.00  0.00    -0.246 OA
BRANCH  22  24
ATOM     24  C   UNL A   1      40.659  26.256  27.581  1.00  0.00     0.060 A 
ATOM     25  C   UNL A   1      39.667  25.997  28.531  1.00  0.00     0.016 A 
ATOM     26  C   UNL A   1      41.669  27.189  27.827  1.00  0.00     0.016 A 
ATOM     27  C   UNL A   1      39.640  26.725  29.713  1.00  0.00     0.010 A 
ATOM     28  C   UNL A   1      41.638  27.923  29.015  1.00  0.00     0.010 A 
ATOM     29  C   UNL A   1      40.594  27.727  29.936  1.00  0.00    -0.014 A 
BRANCH  29  30
ATOM     30  C   UNL A   1      40.366  28.680  31.046  1.00  0.00     0.031 A 
ATOM     31  C   UNL A   1      41.239  28.585  32.267  1.00  0.00     0.074 A 
ATOM     32  C   UNL A   1      39.460  29.666  30.921  1.00  0.00     0.049 A 
ATOM     33  N   UNL A   1      41.272  29.354  33.325  1.00  0.00    -0.248 NA
ATOM     34  C   UNL A   1      42.206  27.476  32.302  1.00  0.00     0.031 C 
ATOM     35  C   UNL A   1      38.585  29.865  29.766  1.00  0.00     0.029 A 
ATOM     36  N   UNL A   1      39.138  30.691  31.770  1.00  0.00    -0.354 N 
ATOM     37  C   UNL A   1      42.260  28.823  34.146  1.00  0.00     0.074 A 
ATOM     38  C   UNL A   1      42.772  27.642  33.487  1.00  0.00     0.031 C 
ATOM     39  C   UNL A   1      37.828  30.955  29.976  1.00  0.00     0.029 A 
ATOM     40  C   UNL A   1      38.150  31.514  31.288  1.00  0.00     0.049 A 
ATOM     41  H   UNL A   1      39.572  30.825  32.643  1.00  0.00     0.167 HD
ATOM     42  C   UNL A   1      42.710  29.289  35.335  1.00  0.00     0.037 A 
ATOM     43  C   UNL A   1      37.570  32.594  31.847  1.00  0.00     0.037 A 
ATOM     44  C   UNL A   1      42.192  30.468  35.980  1.00  0.00     0.049 A 
ATOM     45  C   UNL A   1      38.060  33.070  33.190  1.00  0.00     0.074 A 
ATOM     46  C   UNL A   1      42.579  31.034  37.181  1.00  0.00     0.029 A 
ATOM     47  N   UNL A   1      41.170  31.260  35.475  1.00  0.00    -0.354 N 
ATOM     48  N   UNL A   1      39.008  32.571  33.949  1.00  0.00    -0.248 NA
ATOM     49  C   UNL A   1      37.415  34.266  33.745  1.00  0.00     0.031 C 
ATOM     50  C   UNL A   1      41.755  32.137  37.429  1.00  0.00     0.029 A 
ATOM     51  C   UNL A   1      40.900  32.299  36.351  1.00  0.00     0.049 A 
ATOM     52  H   UNL A   1      40.705  31.107  34.620  1.00  0.00     0.167 HD
ATOM     53  C   UNL A   1      39.097  33.412  35.054  1.00  0.00     0.074 A 
ATOM     54  C   UNL A   1      38.114  34.459  34.854  1.00  0.00     0.031 C 
ATOM     55  C   UNL A   1      39.917  33.333  36.133  1.00  0.00     0.037 A 
BRANCH  42  56
ATOM     56  C   UNL A   1      43.797  28.507  36.024  1.00  0.00     0.058 A 
ATOM     57  C   UNL A   1      45.155  28.841  35.889  1.00  0.00     0.135 A 
ATOM     58  C   UNL A   1      43.472  27.419  36.849  1.00  0.00     0.135 A 
ATOM     59  F   UNL A   1      45.525  29.859  35.095  1.00  0.00    -0.206 F 
ATOM     60  C   UNL A   1      46.151  28.110  36.527  1.00  0.00     0.059 A 
ATOM     61  C   UNL A   1      44.451  26.691  37.521  1.00  0.00     0.059 A 
ATOM     62  F   UNL A   1      42.191  27.050  37.010  1.00  0.00    -0.206 F 
ATOM     63  C   UNL A   1      45.789  27.036  37.342  1.00  0.00     0.060 A 
BRANCH  63  64
ATOM     64  S   UNL A   1      47.094  26.102  38.169  1.00  0.00     0.124 S 
ATOM     65  O   UNL A   1      46.524  25.920  39.501  1.00  0.00    -0.237 OA
ATOM     66  O   UNL A   1      47.184  24.899  37.348  1.00  0.00    -0.237 OA
ATOM     67  O   UNL A   1      48.248  26.993  38.099  1.00  0.00    -0.744 OA
ENDBRANCH  63  64
ENDBRANCH  42  56
BRANCH  43  68
ATOM     68  C   UNL A   1      36.471  33.302  31.136  1.00  0.00     0.058 A 
ATOM     69  C   UNL A   1      35.143  33.220  31.577  1.00  0.00     0.135 A 
ATOM     70  C   UNL A   1      36.734  34.076  29.995  1.00  0.00     0.135 A 
ATOM     71  F   UNL A   1      34.839  32.487  32.659  1.00  0.00    -0.206 F 
ATOM     72  C   UNL A   1      34.110  33.864  30.903  1.00  0.00     0.059 A 
ATOM     73  C   UNL A   1      35.722  34.753  29.320  1.00  0.00     0.059 A 
ATOM     74  F   UNL A   1      37.989  34.198  29.538  1.00  0.00    -0.206 F 
ATOM     75  C   UNL A   1      34.410  34.632  29.776  1.00  0.00     0.060 A 
BRANCH  75  76
ATOM     76  S   UNL A   1      33.070  35.500  28.933  1.00  0.00     0.124 S 
ATOM     77  O   UNL A   1      32.467  34.425  28.155  1.00  0.00    -0.237 OA
ATOM     78  O   UNL A   1      32.278  36.000  30.054  1.00  0.00    -0.237 OA
ATOM     79  O   UNL A   1      33.766  36.524  28.162  1.00  0.00    -0.744 OA
ENDBRANCH  75  76
ENDBRANCH  43  68
BRANCH  55  80
ATOM     80  C   UNL A   1      39.821  34.437  37.151  1.00  0.00     0.058 A 
ATOM     81  C   UNL A   1      39.013  34.330  38.295  1.00  0.00     0.135 A 
ATOM     82  C   UNL A   1      40.560  35.620  36.983  1.00  0.00     0.135 A 
ATOM     83  F   UNL A   1      38.285  33.221  38.507  1.00  0.00    -0.206 F 
ATOM     84  C   UNL A   1      38.900  35.375  39.206  1.00  0.00     0.059 A 
ATOM     85  C   UNL A   1      40.490  36.664  37.899  1.00  0.00     0.059 A 
ATOM     86  F   UNL A   1      41.364  35.770  35.918  1.00  0.00    -0.206 F 
ATOM     87  C   UNL A   1      39.637  36.541  38.995  1.00  0.00     0.060 A 
BRANCH  87  88
ATOM     88  S   UNL A   1      39.469  37.898  40.173  1.00  0.00     0.124 S 
ATOM     89  O   UNL A   1      38.298  38.595  39.652  1.00  0.00    -0.237 OA
ATOM     90  O   UNL A   1      39.278  37.194  41.437  1.00  0.00    -0.237 OA
ATOM     91  O   UNL A   1      40.734  38.616  40.048  1.00  0.00    -0.744 OA
ENDBRANCH  87  88
ENDBRANCH  55  80
ENDBRANCH  29  30
ENDBRANCH  22  24
ENDBRANCH  21  22
ENDBRANCH  20  21
ENDBRANCH   1  20
TORSDOF 18
ENDMDL
MODEL 2
REMARK VINA RESULT:     -10.7      6.527      8.720
REMARK SMILES C/C(C(=O)OCCOCCOC(=O)c1ccc(-c2c3nc(c(-c4c(F)cc(S(=O)(=O)[O-])cc4F)c4ccc([nH]4)c(-c4c(F)cc(S(=O)(=O)[O-])cc4F)c4nc(c(-c5c(F)cc(S(=O)(=O)[O-])cc5F)c5ccc2[nH]5)C=C4)C=C3)cc1)=C(\C)c1ccc(C)c(F)c1
REMARK SMILES IDX 9 1 8 2 7 3 6 4 5 5 3 6 4 7 2 8 1 9 80 10 81 11 82 12 83 13
REMARK SMILES IDX 89 14 84 15 87 16 85 17 88 18 86 19 10 20 11 21 12 22 13 23
REMARK SMILES IDX 14 24 15 25 79 26 16 27 78 28 17 29 18 30 19 31 72 32 20 33
REMARK SMILES IDX 77 34 71 35 73 36 21 37 76 38 70 39 69 40 22 42 56 43 35 44
REMARK SMILES IDX 55 45 36 46 39 47 54 48 74 49 37 50 38 51 53 53 75 54 40 55
REMARK SMILES IDX 23 56 24 57 33 58 25 59 26 60 32 61 34 62 27 63 28 64 29 65
REMARK SMILES IDX 30 66 31 67 57 68 58 69 67 70 59 71 60 72 66 73 68 74 61 75
REMARK SMILES IDX 62 76 63 77 64 78 65 79 41 80 42 81 51 82 43 83 44 84 50 85
REMARK SMILES IDX 52 86 45 87 46 88 47 89 48 90 49 91
REMARK H PARENT 73 41 39 52
REMARK Flexibility Score: inf
ROOT
ATOM      1  C   UNL A   1      38.174  21.326  25.422  1.00  0.00     0.202 C 
ENDROOT
BRANCH   1   2
ATOM      2  O   UNL A   1      37.200  22.343  25.629  1.00  0.00    -0.374 OA
BRANCH   2   3
ATOM      3  C   UNL A   1      37.016  23.306  24.588  1.00  0.00     0.202 C 
BRANCH   3   4
ATOM      4  C   UNL A   1      36.317  22.831  23.313  1.00  0.00     0.261 C 
BRANCH   4   5
ATOM      5  O   UNL A   1      35.214  23.702  22.999  1.00  0.00    -0.460 OA
BRANCH   5   6
ATOM      6  C   UNL A   1      33.975  23.192  23.208  1.00  0.00     0.334 C 
ATOM      7  O   UNL A   1      33.275  22.639  22.375  1.00  0.00    -0.247 OA
BRANCH   6   8
ATOM      8  C   UNL A   1      33.578  23.397  24.634  1.00  0.00     0.038 C 
ATOM      9  C   UNL A   1      33.640  24.816  25.128  1.00  0.00     0.052 C 
ATOM     10  C   UNL A   1      33.171  22.353  25.400  1.00  0.00    -0.034 C 
ATOM     11  C   UNL A   1      32.572  22.490  26.775  1.00  0.00     0.045 C 
BRANCH  10  12
ATOM     12  C   UNL A   1      33.326  20.944  24.976  1.00  0.00    -0.019 A 
ATOM     13  C   UNL A   1      32.276  20.215  24.411  1.00  0.00     0.009 A 
ATOM     14  C   UNL A   1      34.572  20.326  25.127  1.00  0.00     0.048 A 
ATOM     15  C   UNL A   1      32.493  18.915  23.933  1.00  0.00     0.007 A 
ATOM     16  C   UNL A   1      34.786  19.046  24.626  1.00  0.00     0.126 A 
ATOM     17  C   UNL A   1      33.766  18.336  23.994  1.00  0.00    -0.015 A 
ATOM     18  F   UNL A   1      36.010  18.510  24.735  1.00  0.00    -0.207 F 
ATOM     19  C   UNL A   1      34.027  16.976  23.424  1.00  0.00     0.047 C 
ENDBRANCH  10  12
ENDBRANCH   6   8
ENDBRANCH   5   6
ENDBRANCH   4   5
ENDBRANCH   3   4
ENDBRANCH   2   3
ENDBRANCH   1   2
BRANCH   1  20
ATOM     20  C   UNL A   1      39.533  21.454  26.127  1.00  0.00     0.261 C 
BRANCH  20  21
ATOM     21  O   UNL A   1      40.020  20.232  26.682  1.00  0.00    -0.460 OA
BRANCH  21  22
ATOM     22  C   UNL A   1      41.291  19.954  26.308  1.00  0.00     0.338 C 
ATOM     23  O   UNL A   1      41.697  18.942  25.751  1.00  0.00    -0.246 OA
BRANCH  22  24
ATOM     24  C   UNL A   1      42.130  21.140  26.524  1.00  0.00     0.060 A 
ATOM     25  C   UNL A   1      42.382  21.510  27.848  1.00  0.00     0.016 A 
ATOM     26  C   UNL A   1      42.616  21.898  25.456  1.00  0.00     0.016 A 
ATOM     27  C   UNL A   1      43.066  22.689  28.113  1.00  0.00     0.010 A 
ATOM     28  C   UNL A   1      43.301  23.086  25.725  1.00  0.00     0.010 A 
ATOM     29  C   UNL A   1      43.483  23.507  27.055  1.00  0.00    -0.014 A 
BRANCH  29  30
ATOM     30  C   UNL A   1      43.932  24.883  27.364  1.00  0.00     0.031 A 
ATOM     31  C   UNL A   1      45.379  25.233  27.152  1.00  0.00     0.074 A 
ATOM     32  C   UNL A   1      43.043  25.822  27.737  1.00  0.00     0.049 A 
ATOM     33  N   UNL A   1      45.982  26.386  27.284  1.00  0.00    -0.248 NA
ATOM     34  C   UNL A   1      46.268  24.136  26.734  1.00  0.00     0.031 C 
ATOM     35  C   UNL A   1      41.613  25.594  27.941  1.00  0.00     0.029 A 
ATOM     36  N   UNL A   1      43.214  27.156  27.996  1.00  0.00    -0.354 N 
ATOM     37  C   UNL A   1      47.315  26.154  26.965  1.00  0.00     0.074 A 
ATOM     38  C   UNL A   1      47.443  24.742  26.677  1.00  0.00     0.031 C 
ATOM     39  C   UNL A   1      41.033  26.756  28.287  1.00  0.00     0.029 A 
ATOM     40  C   UNL A   1      42.054  27.800  28.350  1.00  0.00     0.049 A 
ATOM     41  H   UNL A   1      44.085  27.610  27.934  1.00  0.00     0.167 HD
ATOM     42  C   UNL A   1      48.335  27.041  26.902  1.00  0.00     0.037 A 
ATOM     43  C   UNL A   1      41.845  29.087  28.691  1.00  0.00     0.037 A 
ATOM     44  C   UNL A   1      48.193  28.445  27.191  1.00  0.00     0.049 A 
ATOM     45  C   UNL A   1      43.005  30.048  28.654  1.00  0.00     0.074 A 
ATOM     46  C   UNL A   1      49.158  29.435  27.152  1.00  0.00     0.029 A 
ATOM     47  N   UNL A   1      47.007  29.056  27.576  1.00  0.00    -0.354 N 
ATOM     48  N   UNL A   1      44.258  29.820  28.332  1.00  0.00    -0.248 NA
ATOM     49  C   UNL A   1      42.720  31.443  29.008  1.00  0.00     0.031 C 
ATOM     50  C   UNL A   1      48.569  30.635  27.566  1.00  0.00     0.029 A 
ATOM     51  C   UNL A   1      47.222  30.407  27.797  1.00  0.00     0.049 A 
ATOM     52  H   UNL A   1      46.142  28.598  27.677  1.00  0.00     0.167 HD
ATOM     53  C   UNL A   1      44.902  31.050  28.410  1.00  0.00     0.074 A 
ATOM     54  C   UNL A   1      43.895  32.019  28.797  1.00  0.00     0.031 C 
ATOM     55  C   UNL A   1      46.205  31.356  28.180  1.00  0.00     0.037 A 
BRANCH  42  56
ATOM     56  C   UNL A   1      49.696  26.514  26.534  1.00  0.00     0.058 A 
ATOM     57  C   UNL A   1      50.600  26.045  27.502  1.00  0.00     0.135 A 
ATOM     58  C   UNL A   1      50.094  26.457  25.189  1.00  0.00     0.135 A 
ATOM     59  F   UNL A   1      50.282  26.096  28.805  1.00  0.00    -0.206 F 
ATOM     60  C   UNL A   1      51.858  25.564  27.152  1.00  0.00     0.059 A 
ATOM     61  C   UNL A   1      51.336  25.952  24.813  1.00  0.00     0.059 A 
ATOM     62  F   UNL A   1      49.275  26.897  24.221  1.00  0.00    -0.206 F 
ATOM     63  C   UNL A   1      52.216  25.519  25.803  1.00  0.00     0.060 A 
BRANCH  63  64
ATOM     64  S   UNL A   1      53.848  24.885  25.364  1.00  0.00     0.124 S 
ATOM     65  O   UNL A   1      53.541  23.500  25.020  1.00  0.00    -0.237 OA
ATOM     66  O   UNL A   1      54.228  25.746  24.250  1.00  0.00    -0.237 OA
ATOM     67  O   UNL A   1      54.625  25.068  26.587  1.00  0.00    -0.744 OA
ENDBRANCH  63  64
ENDBRANCH  42  56
BRANCH  43  68
ATOM     68  C   UNL A   1      40.484  29.540  29.087  1.00  0.00     0.058 A 
ATOM     69  C   UNL A   1      39.465  29.706  28.138  1.00  0.00     0.135 A 
ATOM     70  C   UNL A   1      40.179  29.818  30.428  1.00  0.00     0.135 A 
ATOM     71  F   UNL A   1      39.707  29.461  26.842  1.00  0.00    -0.206 F 
ATOM     72  C   UNL A   1      38.196  30.150  28.502  1.00  0.00     0.059 A 
ATOM     73  C   UNL A   1      38.911  30.235  30.820  1.00  0.00     0.059 A 
ATOM     74  F   UNL A   1      41.115  29.663  31.378  1.00  0.00    -0.206 F 
ATOM     75  C   UNL A   1      37.928  30.409  29.847  1.00  0.00     0.060 A 
BRANCH  75  76
ATOM     76  S   UNL A   1      36.268  30.941  30.315  1.00  0.00     0.124 S 
ATOM     77  O   UNL A   1      36.508  32.316  30.738  1.00  0.00    -0.237 OA
ATOM     78  O   UNL A   1      35.531  30.777  29.065  1.00  0.00    -0.237 OA
ATOM     79  O   UNL A   1      35.903  30.009  31.377  1.00  0.00    -0.744 OA
ENDBRANCH  75  76
ENDBRANCH  43  68
BRANCH  55  80
ATOM     80  C   UNL A   1      46.600  32.805  28.289  1.00  0.00     0.058 A 
ATOM     81  C   UNL A   1      46.472  33.696  27.212  1.00  0.00     0.135 A 
ATOM     82  C   UNL A   1      47.106  33.310  29.498  1.00  0.00     0.135 A 
ATOM     83  F   UNL A   1      45.994  33.267  26.032  1.00  0.00    -0.206 F 
ATOM     84  C   UNL A   1      46.881  35.022  27.313  1.00  0.00     0.059 A 
ATOM     85  C   UNL A   1      47.487  34.641  29.633  1.00  0.00     0.059 A 
ATOM     86  F   UNL A   1      47.231  32.509  30.568  1.00  0.00    -0.206 F 
ATOM     87  C   UNL A   1      47.394  35.483  28.526  1.00  0.00     0.060 A 
BRANCH  87  88
ATOM     88  S   UNL A   1      47.938  37.200  28.641  1.00  0.00     0.124 S 
ATOM     89  O   UNL A   1      48.727  37.339  27.422  1.00  0.00    -0.237 OA
ATOM     90  O   UNL A   1      46.674  37.928  28.665  1.00  0.00    -0.237 OA
ATOM     91  O   UNL A   1      48.698  37.233  29.887  1.00  0.00    -0.744 OA
ENDBRANCH  87  88
ENDBRANCH  55  80
ENDBRANCH  29  30
ENDBRANCH  22  24
ENDBRANCH  21  22
ENDBRANCH  20  21
ENDBRANCH   1  20
TORSDOF 18
ENDMDL
MODEL 3
REMARK VINA RESULT:     -10.6      7.139     12.559
REMARK SMILES C/C(C(=O)OCCOCCOC(=O)c1ccc(-c2c3nc(c(-c4c(F)cc(S(=O)(=O)[O-])cc4F)c4ccc([nH]4)c(-c4c(F)cc(S(=O)(=O)[O-])cc4F)c4nc(c(-c5c(F)cc(S(=O)(=O)[O-])cc5F)c5ccc2[nH]5)C=C4)C=C3)cc1)=C(\C)c1ccc(C)c(F)c1
REMARK SMILES IDX 9 1 8 2 7 3 6 4 5 5 3 6 4 7 2 8 1 9 80 10 81 11 82 12 83 13
REMARK SMILES IDX 89 14 84 15 87 16 85 17 88 18 86 19 10 20 11 21 12 22 13 23
REMARK SMILES IDX 14 24 15 25 79 26 16 27 78 28 17 29 18 30 19 31 72 32 20 33
REMARK SMILES IDX 77 34 71 35 73 36 21 37 76 38 70 39 69 40 22 42 56 43 35 44
REMARK SMILES IDX 55 45 36 46 39 47 54 48 74 49 37 50 38 51 53 53 75 54 40 55
REMARK SMILES IDX 23 56 24 57 33 58 25 59 26 60 32 61 34 62 27 63 28 64 29 65
REMARK SMILES IDX 30 66 31 67 57 68 58 69 67 70 59 71 60 72 66 73 68 74 61 75
REMARK SMILES IDX 62 76 63 77 64 78 65 79 41 80 42 81 51 82 43 83 44 84 50 85
REMARK SMILES IDX 52 86 45 87 46 88 47 89 48 90 49 91
REMARK H PARENT 73 41 39 52
REMARK Flexibility Score: inf
ROOT
ATOM      1  C   UNL A   1      34.384  31.267  27.995  1.00  0.00     0.202 C 
ENDROOT
BRANCH   1   2
ATOM      2  O   UNL A   1      35.010  30.108  27.461  1.00  0.00    -0.374 OA
BRANCH   2   3
ATOM      3  C   UNL A   1      34.291  29.360  26.476  1.00  0.00     0.202 C 
BRANCH   3   4
ATOM      4  C   UNL A   1      33.087  28.548  26.960  1.00  0.00     0.261 C 
BRANCH   4   5
ATOM      5  O   UNL A   1      32.668  27.627  25.935  1.00  0.00    -0.460 OA
BRANCH   5   6
ATOM      6  C   UNL A   1      31.657  26.787  26.269  1.00  0.00     0.334 C 
ATOM      7  O   UNL A   1      30.793  26.997  27.105  1.00  0.00    -0.247 OA
BRANCH   6   8
ATOM      8  C   UNL A   1      31.743  25.541  25.447  1.00  0.00     0.038 C 
ATOM      9  C   UNL A   1      32.755  24.529  25.908  1.00  0.00     0.052 C 
ATOM     10  C   UNL A   1      30.931  25.357  24.375  1.00  0.00    -0.034 C 
ATOM     11  C   UNL A   1      30.812  24.064  23.612  1.00  0.00     0.045 C 
BRANCH  10  12
ATOM     12  C   UNL A   1      30.106  26.443  23.804  1.00  0.00    -0.019 A 
ATOM     13  C   UNL A   1      28.724  26.513  24.002  1.00  0.00     0.009 A 
ATOM     14  C   UNL A   1      30.731  27.446  23.056  1.00  0.00     0.048 A 
ATOM     15  C   UNL A   1      27.994  27.611  23.526  1.00  0.00     0.007 A 
ATOM     16  C   UNL A   1      30.006  28.546  22.611  1.00  0.00     0.126 A 
ATOM     17  C   UNL A   1      28.640  28.663  22.866  1.00  0.00    -0.015 A 
ATOM     18  F   UNL A   1      30.652  29.517  21.950  1.00  0.00    -0.207 F 
ATOM     19  C   UNL A   1      27.883  29.875  22.415  1.00  0.00     0.047 C 
ENDBRANCH  10  12
ENDBRANCH   6   8
ENDBRANCH   5   6
ENDBRANCH   4   5
ENDBRANCH   3   4
ENDBRANCH   2   3
ENDBRANCH   1   2
BRANCH   1  20
ATOM     20  C   UNL A   1      34.999  31.930  29.238  1.00  0.00     0.261 C 
BRANCH  20  21
ATOM     21  O   UNL A   1      35.899  31.091  29.962  1.00  0.00    -0.460 OA
BRANCH  21  22
ATOM     22  C   UNL A   1      37.059  31.714  30.278  1.00  0.00     0.338 C 
ATOM     23  O   UNL A   1      37.199  32.734  30.938  1.00  0.00    -0.246 OA
BRANCH  22  24
ATOM     24  C   UNL A   1      38.189  30.883  29.842  1.00  0.00     0.060 A 
ATOM     25  C   UNL A   1      39.282  30.786  30.709  1.00  0.00     0.016 A 
ATOM     26  C   UNL A   1      38.201  30.256  28.594  1.00  0.00     0.016 A 
ATOM     27  C   UNL A   1      40.426  30.116  30.300  1.00  0.00     0.010 A 
ATOM     28  C   UNL A   1      39.355  29.585  28.182  1.00  0.00     0.010 A 
ATOM     29  C   UNL A   1      40.487  29.558  29.017  1.00  0.00    -0.014 A 
BRANCH  29  30
ATOM     30  C   UNL A   1      41.805  29.123  28.501  1.00  0.00     0.031 A 
ATOM     31  C   UNL A   1      42.922  30.128  28.441  1.00  0.00     0.074 A 
ATOM     32  C   UNL A   1      42.019  27.834  28.182  1.00  0.00     0.049 A 
ATOM     33  N   UNL A   1      44.172  29.958  28.097  1.00  0.00    -0.248 NA
ATOM     34  C   UNL A   1      42.586  31.510  28.819  1.00  0.00     0.031 C 
ATOM     35  C   UNL A   1      41.012  26.774  28.235  1.00  0.00     0.029 A 
ATOM     36  N   UNL A   1      43.158  27.198  27.765  1.00  0.00    -0.354 N 
ATOM     37  C   UNL A   1      44.770  31.208  28.219  1.00  0.00     0.074 A 
ATOM     38  C   UNL A   1      43.737  32.135  28.625  1.00  0.00     0.031 C 
ATOM     39  C   UNL A   1      41.583  25.613  27.871  1.00  0.00     0.029 A 
ATOM     40  C   UNL A   1      42.986  25.854  27.539  1.00  0.00     0.049 A 
ATOM     41  H   UNL A   1      44.018  27.659  27.640  1.00  0.00     0.167 HD
ATOM     42  C   UNL A   1      46.066  31.546  28.026  1.00  0.00     0.037 A 
ATOM     43  C   UNL A   1      43.864  24.927  27.107  1.00  0.00     0.037 A 
ATOM     44  C   UNL A   1      47.086  30.612  27.623  1.00  0.00     0.049 A 
ATOM     45  C   UNL A   1      45.293  25.337  26.860  1.00  0.00     0.074 A 
ATOM     46  C   UNL A   1      48.431  30.845  27.406  1.00  0.00     0.029 A 
ATOM     47  N   UNL A   1      46.867  29.263  27.374  1.00  0.00    -0.354 N 
ATOM     48  N   UNL A   1      45.851  26.518  26.997  1.00  0.00    -0.248 NA
ATOM     49  C   UNL A   1      46.216  24.285  26.417  1.00  0.00     0.031 C 
ATOM     50  C   UNL A   1      49.017  29.650  26.973  1.00  0.00     0.029 A 
ATOM     51  C   UNL A   1      48.051  28.657  26.986  1.00  0.00     0.049 A 
ATOM     52  H   UNL A   1      46.000  28.806  27.461  1.00  0.00     0.167 HD
ATOM     53  C   UNL A   1      47.196  26.343  26.692  1.00  0.00     0.074 A 
ATOM     54  C   UNL A   1      47.368  24.938  26.376  1.00  0.00     0.031 C 
ATOM     55  C   UNL A   1      48.201  27.256  26.677  1.00  0.00     0.037 A 
BRANCH  42  56
ATOM     56  C   UNL A   1      46.447  32.990  28.222  1.00  0.00     0.058 A 
ATOM     57  C   UNL A   1      46.364  33.930  27.181  1.00  0.00     0.135 A 
ATOM     58  C   UNL A   1      46.881  33.444  29.478  1.00  0.00     0.135 A 
ATOM     59  F   UNL A   1      45.976  33.547  25.954  1.00  0.00    -0.206 F 
ATOM     60  C   UNL A   1      46.722  35.260  27.371  1.00  0.00     0.059 A 
ATOM     61  C   UNL A   1      47.216  34.778  29.699  1.00  0.00     0.059 A 
ATOM     62  F   UNL A   1      46.986  32.590  30.508  1.00  0.00    -0.206 F 
ATOM     63  C   UNL A   1      47.146  35.676  28.635  1.00  0.00     0.060 A 
BRANCH  63  64
ATOM     64  S   UNL A   1      47.599  37.407  28.868  1.00  0.00     0.124 S 
ATOM     65  O   UNL A   1      46.669  37.815  29.917  1.00  0.00    -0.237 OA
ATOM     66  O   UNL A   1      49.000  37.312  29.264  1.00  0.00    -0.237 OA
ATOM     67  O   UNL A   1      47.362  38.001  27.555  1.00  0.00    -0.744 OA
ENDBRANCH  63  64
ENDBRANCH  42  56
BRANCH  43  68
ATOM     68  C   UNL A   1      43.419  23.524  26.892  1.00  0.00     0.058 A 
ATOM     69  C   UNL A   1      43.173  23.024  25.605  1.00  0.00     0.135 A 
ATOM     70  C   UNL A   1      43.230  22.653  27.977  1.00  0.00     0.135 A 
ATOM     71  F   UNL A   1      43.332  23.818  24.535  1.00  0.00    -0.206 F 
ATOM     72  C   UNL A   1      42.737  21.718  25.401  1.00  0.00     0.059 A 
ATOM     73  C   UNL A   1      42.824  21.335  27.797  1.00  0.00     0.059 A 
ATOM     74  F   UNL A   1      43.464  23.077  29.229  1.00  0.00    -0.206 F 
ATOM     75  C   UNL A   1      42.569  20.879  26.504  1.00  0.00     0.060 A 
BRANCH  75  76
ATOM     76  S   UNL A   1      42.046  19.174  26.227  1.00  0.00     0.124 S 
ATOM     77  O   UNL A   1      42.961  18.754  25.172  1.00  0.00    -0.237 OA
ATOM     78  O   UNL A   1      42.263  18.571  27.539  1.00  0.00    -0.237 OA
ATOM     79  O   UNL A   1      40.648  19.311  25.832  1.00  0.00    -0.744 OA
ENDBRANCH  75  76
ENDBRANCH  43  68
BRANCH  55  80
ATOM     80  C   UNL A   1      49.583  26.750  26.360  1.00  0.00     0.058 A 
ATOM     81  C   UNL A   1      50.126  26.822  25.067  1.00  0.00     0.135 A 
ATOM     82  C   UNL A   1      50.382  26.193  27.373  1.00  0.00     0.135 A 
ATOM     83  F   UNL A   1      49.407  27.345  24.060  1.00  0.00    -0.206 F 
ATOM     84  C   UNL A   1      51.388  26.312  24.778  1.00  0.00     0.059 A 
ATOM     85  C   UNL A   1      51.660  25.709  27.115  1.00  0.00     0.059 A 
ATOM     86  F   UNL A   1      49.922  26.117  28.632  1.00  0.00    -0.206 F 
ATOM     87  C   UNL A   1      52.144  25.751  25.808  1.00  0.00     0.060 A 
BRANCH  87  88
ATOM     88  S   UNL A   1      53.772  25.076  25.420  1.00  0.00     0.124 S 
ATOM     89  O   UNL A   1      53.512  23.641  25.464  1.00  0.00    -0.237 OA
ATOM     90  O   UNL A   1      54.034  25.633  24.096  1.00  0.00    -0.237 OA
ATOM     91  O   UNL A   1      54.619  25.593  26.490  1.00  0.00    -0.744 OA
ENDBRANCH  87  88
ENDBRANCH  55  80
ENDBRANCH  29  30
ENDBRANCH  22  24
ENDBRANCH  21  22
ENDBRANCH  20  21
ENDBRANCH   1  20
TORSDOF 18
ENDMDL
