MODEL 1
REMARK VINA RESULT:     -12.1      0.000      0.000
REMARK SMILES COc1ccc2[nH]cc([C@H](C(=O)OCCOCCOC(=O)c3ccc(-c4c5nc(c(-c6c(F)cc(S(=O)(=O)[O-])cc6F)c6ccc([nH]6)c(-c6c(F)cc(S(=O)(=O)[O-])cc6F)c6nc(c(-c7c(F)cc(S(=O)(=O)[O-])cc7F)c7ccc4[nH]7)C=C6)C=C5)cc3)[NH+]3CC[NH+](Cc4cccc5ccccc45)CC3)c2c1
REMARK SMILES IDX 16 1 15 2 14 3 13 4 11 5 12 6 10 7 9 8 3 9 4 10 106 11 5 12
REMARK SMILES IDX 105 13 6 14 7 15 8 16 2 18 1 19 88 20 89 21 104 22 90 24
REMARK SMILES IDX 103 25 91 26 92 28 93 29 94 30 102 31 95 32 97 33 101 34
REMARK SMILES IDX 96 35 98 36 100 37 99 38 17 39 18 40 19 41 20 42 21 43 22 44
REMARK SMILES IDX 23 45 87 46 24 47 86 48 25 49 26 50 27 51 80 52 28 53 85 54
REMARK SMILES IDX 79 55 81 56 29 57 84 58 78 59 77 60 30 62 64 63 43 64 63 65
REMARK SMILES IDX 44 66 47 67 62 68 82 69 45 70 46 71 61 73 83 74 48 75 31 76
REMARK SMILES IDX 32 77 41 78 33 79 34 80 40 81 42 82 35 83 36 84 37 85 38 86
REMARK SMILES IDX 39 87 65 88 66 89 75 90 67 91 68 92 74 93 76 94 69 95 70 96
REMARK SMILES IDX 71 97 72 98 73 99 49 100 50 101 59 102 51 103 52 104 58 105
REMARK SMILES IDX 60 106 53 107 54 108 55 109 56 110 57 111
REMARK H PARENT 7 17 88 23 91 27 81 61 47 72
REMARK Flexibility Score: inf
ROOT
ATOM      1  O   UNL A   1      33.487  30.019  26.831  1.00  0.00    -0.374 OA
ENDROOT
BRANCH   1   2
ATOM      2  C   UNL A   1      32.401  29.206  27.247  1.00  0.00     0.202 C 
BRANCH   2   3
ATOM      3  C   UNL A   1      32.489  27.685  27.382  1.00  0.00     0.261 C 
BRANCH   3   4
ATOM      4  O   UNL A   1      31.254  26.968  27.216  1.00  0.00    -0.459 OA
BRANCH   4   5
ATOM      5  C   UNL A   1      31.390  25.907  26.368  1.00  0.00     0.370 C 
ATOM      6  O   UNL A   1      32.488  25.427  26.113  1.00  0.00    -0.245 OA
BRANCH   5   7
ATOM      7  C   UNL A   1      30.067  25.447  25.750  1.00  0.00     0.328 C 
BRANCH   7   8
ATOM      8  C   UNL A   1      29.526  26.458  24.736  1.00  0.00     0.046 A 
ATOM      9  C   UNL A   1      32.000  28.866  23.041  1.00  0.00     0.119 A 
ATOM     10  C   UNL A   1      31.102  29.426  22.150  1.00  0.00     0.048 A 
ATOM     11  C   UNL A   1      31.602  27.870  23.927  1.00  0.00     0.057 A 
ATOM     12  C   UNL A   1      29.763  29.019  22.153  1.00  0.00     0.030 A 
ATOM     13  C   UNL A   1      30.256  27.449  23.980  1.00  0.00     0.013 A 
ATOM     14  C   UNL A   1      29.369  28.039  23.079  1.00  0.00     0.046 A 
ATOM     15  N   UNL A   1      28.141  27.457  23.283  1.00  0.00    -0.361 N 
ATOM     16  C   UNL A   1      28.216  26.522  24.279  1.00  0.00     0.094 A 
ATOM     17  H   UNL A   1      27.323  27.681  22.783  1.00  0.00     0.166 HD
BRANCH   9  18
ATOM     18  O   UNL A   1      33.323  29.214  23.021  1.00  0.00    -0.497 OA
ATOM     19  C   UNL A   1      34.055  28.322  22.177  1.00  0.00     0.278 C 
ENDBRANCH   9  18
ENDBRANCH   7   8
BRANCH   7  20
ATOM     20  N   UNL A   1      30.183  24.139  25.056  1.00  0.00    -0.310 N 
ATOM     21  C   UNL A   1      30.935  24.143  23.797  1.00  0.00     0.325 C 
ATOM     22  C   UNL A   1      30.471  22.957  25.863  1.00  0.00     0.325 C 
ATOM     23  H   UNL A   1      29.201  24.025  24.805  1.00  0.00     0.349 HD
ATOM     24  C   UNL A   1      32.401  23.640  23.801  1.00  0.00     0.324 C 
ATOM     25  C   UNL A   1      31.931  22.423  25.874  1.00  0.00     0.324 C 
ATOM     26  N   UNL A   1      32.722  22.493  24.647  1.00  0.00    -0.322 N 
ATOM     27  H   UNL A   1      33.655  22.686  25.009  1.00  0.00     0.348 HD
BRANCH  26  28
ATOM     28  C   UNL A   1      32.998  21.242  23.939  1.00  0.00     0.300 C 
BRANCH  28  29
ATOM     29  C   UNL A   1      34.092  20.412  24.581  1.00  0.00     0.014 A 
ATOM     30  C   UNL A   1      33.928  19.015  24.550  1.00  0.00     0.010 A 
ATOM     31  C   UNL A   1      35.348  20.976  24.929  1.00  0.00    -0.010 A 
ATOM     32  C   UNL A   1      35.027  18.180  24.667  1.00  0.00     0.001 A 
ATOM     33  C   UNL A   1      36.472  20.125  24.914  1.00  0.00    -0.018 A 
ATOM     34  C   UNL A   1      35.554  22.347  25.214  1.00  0.00     0.009 A 
ATOM     35  C   UNL A   1      36.297  18.737  24.782  1.00  0.00     0.009 A 
ATOM     36  C   UNL A   1      37.759  20.685  24.985  1.00  0.00     0.009 A 
ATOM     37  C   UNL A   1      36.837  22.883  25.333  1.00  0.00     0.001 A 
ATOM     38  C   UNL A   1      37.940  22.056  25.172  1.00  0.00     0.001 A 
ENDBRANCH  28  29
ENDBRANCH  26  28
ENDBRANCH   7  20
ENDBRANCH   5   7
ENDBRANCH   4   5
ENDBRANCH   3   4
ENDBRANCH   2   3
ENDBRANCH   1   2
BRANCH   1  39
ATOM     39  C   UNL A   1      33.862  31.138  27.613  1.00  0.00     0.202 C 
BRANCH  39  40
ATOM     40  C   UNL A   1      35.116  31.137  28.497  1.00  0.00     0.261 C 
BRANCH  40  41
ATOM     41  O   UNL A   1      35.834  29.908  28.486  1.00  0.00    -0.460 OA
BRANCH  41  42
ATOM     42  C   UNL A   1      36.469  29.651  29.654  1.00  0.00     0.338 C 
ATOM     43  O   UNL A   1      35.966  29.345  30.724  1.00  0.00    -0.246 OA
BRANCH  42  44
ATOM     44  C   UNL A   1      37.906  29.543  29.369  1.00  0.00     0.060 A 
ATOM     45  C   UNL A   1      38.282  29.489  28.018  1.00  0.00     0.016 A 
ATOM     46  C   UNL A   1      38.855  29.562  30.390  1.00  0.00     0.016 A 
ATOM     47  C   UNL A   1      39.622  29.446  27.681  1.00  0.00     0.010 A 
ATOM     48  C   UNL A   1      40.201  29.458  30.053  1.00  0.00     0.010 A 
ATOM     49  C   UNL A   1      40.576  29.366  28.700  1.00  0.00    -0.014 A 
BRANCH  49  50
ATOM     50  C   UNL A   1      41.922  28.900  28.334  1.00  0.00     0.031 A 
ATOM     51  C   UNL A   1      43.019  29.923  28.327  1.00  0.00     0.074 A 
ATOM     52  C   UNL A   1      42.154  27.599  28.100  1.00  0.00     0.049 A 
ATOM     53  N   UNL A   1      44.283  29.779  28.040  1.00  0.00    -0.248 NA
ATOM     54  C   UNL A   1      42.637  31.298  28.702  1.00  0.00     0.031 C 
ATOM     55  C   UNL A   1      41.149  26.537  28.156  1.00  0.00     0.029 A 
ATOM     56  N   UNL A   1      43.314  26.954  27.770  1.00  0.00    -0.354 N 
ATOM     57  C   UNL A   1      44.844  31.041  28.191  1.00  0.00     0.074 A 
ATOM     58  C   UNL A   1      43.783  31.946  28.569  1.00  0.00     0.031 C 
ATOM     59  C   UNL A   1      41.739  25.367  27.854  1.00  0.00     0.029 A 
ATOM     60  C   UNL A   1      43.148  25.609  27.551  1.00  0.00     0.049 A 
ATOM     61  H   UNL A   1      44.183  27.410  27.696  1.00  0.00     0.167 HD
ATOM     62  C   UNL A   1      46.136  31.403  28.032  1.00  0.00     0.037 A 
ATOM     63  C   UNL A   1      44.039  24.693  27.126  1.00  0.00     0.037 A 
ATOM     64  C   UNL A   1      47.167  30.479  27.649  1.00  0.00     0.049 A 
ATOM     65  C   UNL A   1      45.457  25.138  26.879  1.00  0.00     0.074 A 
ATOM     66  C   UNL A   1      48.512  30.723  27.452  1.00  0.00     0.029 A 
ATOM     67  N   UNL A   1      46.959  29.130  27.394  1.00  0.00    -0.354 N 
ATOM     68  N   UNL A   1      45.986  26.331  27.028  1.00  0.00    -0.248 NA
ATOM     69  C   UNL A   1      46.401  24.116  26.411  1.00  0.00     0.031 C 
ATOM     70  C   UNL A   1      49.106  29.534  27.020  1.00  0.00     0.029 A 
ATOM     71  C   UNL A   1      48.146  28.532  27.014  1.00  0.00     0.049 A 
ATOM     72  H   UNL A   1      46.093  28.667  27.473  1.00  0.00     0.167 HD
ATOM     73  C   UNL A   1      47.330  26.198  26.699  1.00  0.00     0.074 A 
ATOM     74  C   UNL A   1      47.533  24.804  26.357  1.00  0.00     0.031 C 
ATOM     75  C   UNL A   1      48.311  27.137  26.684  1.00  0.00     0.037 A 
BRANCH  62  76
ATOM     76  C   UNL A   1      46.483  32.853  28.226  1.00  0.00     0.058 A 
ATOM     77  C   UNL A   1      46.927  33.357  29.460  1.00  0.00     0.135 A 
ATOM     78  C   UNL A   1      46.378  33.753  27.153  1.00  0.00     0.135 A 
ATOM     79  F   UNL A   1      47.016  32.549  30.529  1.00  0.00    -0.206 F 
ATOM     80  C   UNL A   1      47.237  34.703  29.627  1.00  0.00     0.059 A 
ATOM     81  C   UNL A   1      46.712  35.096  27.289  1.00  0.00     0.059 A 
ATOM     82  F   UNL A   1      45.943  33.329  25.956  1.00  0.00    -0.206 F 
ATOM     83  C   UNL A   1      47.131  35.564  28.533  1.00  0.00     0.060 A 
BRANCH  83  84
ATOM     84  S   UNL A   1      47.557  37.304  28.760  1.00  0.00     0.124 S 
ATOM     85  O   UNL A   1      46.945  37.588  30.054  1.00  0.00    -0.237 OA
ATOM     86  O   UNL A   1      49.016  37.270  28.742  1.00  0.00    -0.237 OA
ATOM     87  O   UNL A   1      46.933  37.959  27.614  1.00  0.00    -0.744 OA
ENDBRANCH  83  84
ENDBRANCH  62  76
BRANCH  63  88
ATOM     88  C   UNL A   1      43.609  23.289  26.895  1.00  0.00     0.058 A 
ATOM     89  C   UNL A   1      43.327  22.426  27.963  1.00  0.00     0.135 A 
ATOM     90  C   UNL A   1      43.459  22.784  25.592  1.00  0.00     0.135 A 
ATOM     91  F   UNL A   1      43.460  22.857  29.227  1.00  0.00    -0.206 F 
ATOM     92  C   UNL A   1      42.924  21.110  27.751  1.00  0.00     0.059 A 
ATOM     93  C   UNL A   1      43.032  21.483  25.354  1.00  0.00     0.059 A 
ATOM     94  F   UNL A   1      43.705  23.572  24.533  1.00  0.00    -0.206 F 
ATOM     95  C   UNL A   1      42.776  20.650  26.441  1.00  0.00     0.060 A 
BRANCH  95  96
ATOM     96  S   UNL A   1      42.205  18.956  26.177  1.00  0.00     0.124 S 
ATOM     97  O   UNL A   1      42.396  18.373  27.500  1.00  0.00    -0.237 OA
ATOM     98  O   UNL A   1      40.822  19.163  25.762  1.00  0.00    -0.237 OA
ATOM     99  O   UNL A   1      43.098  18.460  25.134  1.00  0.00    -0.744 OA
ENDBRANCH  95  96
ENDBRANCH  63  88
BRANCH  75 100
ATOM    100  C   UNL A   1      49.696  26.678  26.321  1.00  0.00     0.058 A 
ATOM    101  C   UNL A   1      50.214  26.839  25.028  1.00  0.00     0.135 A 
ATOM    102  C   UNL A   1      50.535  26.128  27.304  1.00  0.00     0.135 A 
ATOM    103  F   UNL A   1      49.450  27.356  24.051  1.00  0.00    -0.206 F 
ATOM    104  C   UNL A   1      51.509  26.446  24.712  1.00  0.00     0.059 A 
ATOM    105  C   UNL A   1      51.845  25.759  27.020  1.00  0.00     0.059 A 
ATOM    106  F   UNL A   1      50.093  25.967  28.560  1.00  0.00    -0.206 F 
ATOM    107  C   UNL A   1      52.318  25.911  25.717  1.00  0.00     0.060 A 
BRANCH 107 108
ATOM    108  S   UNL A   1      54.009  25.435  25.301  1.00  0.00     0.124 S 
ATOM    109  O   UNL A   1      54.049  25.719  23.871  1.00  0.00    -0.237 OA
ATOM    110  O   UNL A   1      54.799  26.324  26.147  1.00  0.00    -0.237 OA
ATOM    111  O   UNL A   1      54.064  24.022  25.662  1.00  0.00    -0.744 OA
ENDBRANCH 107 108
ENDBRANCH  75 100
ENDBRANCH  49  50
ENDBRANCH  42  44
ENDBRANCH  41  42
ENDBRANCH  40  41
ENDBRANCH  39  40
ENDBRANCH   1  39
TORSDOF 22
ENDMDL
MODEL 2
REMARK VINA RESULT:     -11.7      6.226     11.445
REMARK SMILES COc1ccc2[nH]cc([C@H](C(=O)OCCOCCOC(=O)c3ccc(-c4c5nc(c(-c6c(F)cc(S(=O)(=O)[O-])cc6F)c6ccc([nH]6)c(-c6c(F)cc(S(=O)(=O)[O-])cc6F)c6nc(c(-c7c(F)cc(S(=O)(=O)[O-])cc7F)c7ccc4[nH]7)C=C6)C=C5)cc3)[NH+]3CC[NH+](Cc4cccc5ccccc45)CC3)c2c1
REMARK SMILES IDX 16 1 15 2 14 3 13 4 11 5 12 6 10 7 9 8 3 9 4 10 106 11 5 12
REMARK SMILES IDX 105 13 6 14 7 15 8 16 2 18 1 19 88 20 89 21 104 22 90 24
REMARK SMILES IDX 103 25 91 26 92 28 93 29 94 30 102 31 95 32 97 33 101 34
REMARK SMILES IDX 96 35 98 36 100 37 99 38 17 39 18 40 19 41 20 42 21 43 22 44
REMARK SMILES IDX 23 45 87 46 24 47 86 48 25 49 26 50 27 51 80 52 28 53 85 54
REMARK SMILES IDX 79 55 81 56 29 57 84 58 78 59 77 60 30 62 64 63 43 64 63 65
REMARK SMILES IDX 44 66 47 67 62 68 82 69 45 70 46 71 61 73 83 74 48 75 31 76
REMARK SMILES IDX 32 77 41 78 33 79 34 80 40 81 42 82 35 83 36 84 37 85 38 86
REMARK SMILES IDX 39 87 65 88 66 89 75 90 67 91 68 92 74 93 76 94 69 95 70 96
REMARK SMILES IDX 71 97 72 98 73 99 49 100 50 101 59 102 51 103 52 104 58 105
REMARK SMILES IDX 60 106 53 107 54 108 55 109 56 110 57 111
REMARK H PARENT 7 17 88 23 91 27 81 61 47 72
REMARK Flexibility Score: inf
ROOT
ATOM      1  O   UNL A   1      33.053  29.603  27.352  1.00  0.00    -0.374 OA
ENDROOT
BRANCH   1   2
ATOM      2  C   UNL A   1      33.784  28.468  26.913  1.00  0.00     0.202 C 
BRANCH   2   3
ATOM      3  C   UNL A   1      33.126  27.159  26.474  1.00  0.00     0.261 C 
BRANCH   3   4
ATOM      4  O   UNL A   1      33.913  26.319  25.613  1.00  0.00    -0.459 OA
BRANCH   4   5
ATOM      5  C   UNL A   1      33.410  25.052  25.537  1.00  0.00     0.370 C 
ATOM      6  O   UNL A   1      32.952  24.484  26.522  1.00  0.00    -0.245 OA
BRANCH   5   7
ATOM      7  C   UNL A   1      33.539  24.427  24.146  1.00  0.00     0.328 C 
BRANCH   7   8
ATOM      8  C   UNL A   1      33.342  22.910  24.178  1.00  0.00     0.046 A 
ATOM      9  C   UNL A   1      36.420  20.666  24.708  1.00  0.00     0.119 A 
ATOM     10  C   UNL A   1      35.736  19.469  24.816  1.00  0.00     0.048 A 
ATOM     11  C   UNL A   1      35.739  21.864  24.514  1.00  0.00     0.057 A 
ATOM     12  C   UNL A   1      34.342  19.443  24.696  1.00  0.00     0.030 A 
ATOM     13  C   UNL A   1      34.337  21.879  24.364  1.00  0.00     0.013 A 
ATOM     14  C   UNL A   1      33.673  20.656  24.464  1.00  0.00     0.046 A 
ATOM     15  N   UNL A   1      32.330  20.915  24.325  1.00  0.00    -0.361 N 
ATOM     16  C   UNL A   1      32.119  22.254  24.138  1.00  0.00     0.094 A 
ATOM     17  H   UNL A   1      31.621  20.232  24.355  1.00  0.00     0.166 HD
BRANCH   9  18
ATOM     18  O   UNL A   1      37.778  20.719  24.871  1.00  0.00    -0.497 OA
ATOM     19  C   UNL A   1      38.115  21.671  25.881  1.00  0.00     0.278 C 
ENDBRANCH   9  18
ENDBRANCH   7   8
BRANCH   7  20
ATOM     20  N   UNL A   1      32.560  24.983  23.176  1.00  0.00    -0.310 N 
ATOM     21  C   UNL A   1      31.225  25.278  23.707  1.00  0.00     0.325 C 
ATOM     22  C   UNL A   1      33.020  26.012  22.249  1.00  0.00     0.325 C 
ATOM     23  H   UNL A   1      32.461  24.156  22.587  1.00  0.00     0.349 HD
ATOM     24  C   UNL A   1      30.867  26.744  24.056  1.00  0.00     0.324 C 
ATOM     25  C   UNL A   1      32.664  27.490  22.568  1.00  0.00     0.324 C 
ATOM     26  N   UNL A   1      31.367  27.793  23.172  1.00  0.00    -0.322 N 
ATOM     27  H   UNL A   1      31.600  28.570  23.789  1.00  0.00     0.348 HD
BRANCH  26  28
ATOM     28  C   UNL A   1      30.362  28.450  22.335  1.00  0.00     0.300 C 
BRANCH  28  29
ATOM     29  C   UNL A   1      29.727  29.661  22.991  1.00  0.00     0.014 A 
ATOM     30  C   UNL A   1      30.168  29.982  24.287  1.00  0.00     0.010 A 
ATOM     31  C   UNL A   1      28.956  30.592  22.247  1.00  0.00    -0.010 A 
ATOM     32  C   UNL A   1      30.025  31.270  24.775  1.00  0.00     0.001 A 
ATOM     33  C   UNL A   1      28.934  31.928  22.699  1.00  0.00    -0.018 A 
ATOM     34  C   UNL A   1      28.274  30.284  21.046  1.00  0.00     0.009 A 
ATOM     35  C   UNL A   1      29.469  32.250  23.958  1.00  0.00     0.009 A 
ATOM     36  C   UNL A   1      28.415  32.928  21.859  1.00  0.00     0.009 A 
ATOM     37  C   UNL A   1      27.718  31.283  20.245  1.00  0.00     0.001 A 
ATOM     38  C   UNL A   1      27.831  32.611  20.633  1.00  0.00     0.001 A 
ENDBRANCH  28  29
ENDBRANCH  26  28
ENDBRANCH   7  20
ENDBRANCH   5   7
ENDBRANCH   4   5
ENDBRANCH   3   4
ENDBRANCH   2   3
ENDBRANCH   1   2
BRANCH   1  39
ATOM     39  C   UNL A   1      33.707  30.852  27.469  1.00  0.00     0.202 C 
BRANCH  39  40
ATOM     40  C   UNL A   1      32.952  32.185  27.380  1.00  0.00     0.261 C 
BRANCH  40  41
ATOM     41  O   UNL A   1      33.791  33.333  27.432  1.00  0.00    -0.460 OA
BRANCH  41  42
ATOM     42  C   UNL A   1      33.568  34.108  28.521  1.00  0.00     0.338 C 
ATOM     43  O   UNL A   1      32.590  34.803  28.752  1.00  0.00    -0.246 OA
BRANCH  42  44
ATOM     44  C   UNL A   1      34.590  33.780  29.522  1.00  0.00     0.060 A 
ATOM     45  C   UNL A   1      35.913  34.133  29.218  1.00  0.00     0.016 A 
ATOM     46  C   UNL A   1      34.252  33.206  30.748  1.00  0.00     0.016 A 
ATOM     47  C   UNL A   1      36.914  33.904  30.143  1.00  0.00     0.010 A 
ATOM     48  C   UNL A   1      35.268  32.920  31.654  1.00  0.00     0.010 A 
ATOM     49  C   UNL A   1      36.599  33.240  31.333  1.00  0.00    -0.014 A 
BRANCH  49  50
ATOM     50  C   UNL A   1      37.709  32.638  32.087  1.00  0.00     0.031 A 
ATOM     51  C   UNL A   1      38.411  31.474  31.453  1.00  0.00     0.074 A 
ATOM     52  C   UNL A   1      38.114  33.171  33.250  1.00  0.00     0.049 A 
ATOM     53  N   UNL A   1      39.408  30.764  31.902  1.00  0.00    -0.248 NA
ATOM     54  C   UNL A   1      37.922  31.056  30.125  1.00  0.00     0.031 C 
ATOM     55  C   UNL A   1      37.523  34.345  33.893  1.00  0.00     0.029 A 
ATOM     56  N   UNL A   1      39.122  32.791  34.092  1.00  0.00    -0.354 N 
ATOM     57  C   UNL A   1      39.661  29.815  30.919  1.00  0.00     0.074 A 
ATOM     58  C   UNL A   1      38.698  30.018  29.862  1.00  0.00     0.031 C 
ATOM     59  C   UNL A   1      38.176  34.581  35.045  1.00  0.00     0.029 A 
ATOM     60  C   UNL A   1      39.200  33.556  35.230  1.00  0.00     0.049 A 
ATOM     61  H   UNL A   1      39.731  32.043  33.902  1.00  0.00     0.167 HD
ATOM     62  C   UNL A   1      40.620  28.864  30.906  1.00  0.00     0.037 A 
ATOM     63  C   UNL A   1      39.998  33.414  36.306  1.00  0.00     0.037 A 
ATOM     64  C   UNL A   1      41.559  28.683  31.978  1.00  0.00     0.049 A 
ATOM     65  C   UNL A   1      41.007  32.294  36.303  1.00  0.00     0.074 A 
ATOM     66  C   UNL A   1      42.575  27.754  32.086  1.00  0.00     0.029 A 
ATOM     67  N   UNL A   1      41.586  29.448  33.138  1.00  0.00    -0.354 N 
ATOM     68  N   UNL A   1      41.247  31.402  35.369  1.00  0.00    -0.248 NA
ATOM     69  C   UNL A   1      41.857  32.163  37.492  1.00  0.00     0.031 C 
ATOM     70  C   UNL A   1      43.178  27.918  33.336  1.00  0.00     0.029 A 
ATOM     71  C   UNL A   1      42.584  28.995  33.980  1.00  0.00     0.049 A 
ATOM     72  H   UNL A   1      40.983  30.203  33.330  1.00  0.00     0.167 HD
ATOM     73  C   UNL A   1      42.294  30.620  35.847  1.00  0.00     0.074 A 
ATOM     74  C   UNL A   1      42.647  31.157  37.146  1.00  0.00     0.031 C 
ATOM     75  C   UNL A   1      42.911  29.559  35.267  1.00  0.00     0.037 A 
BRANCH  62  76
ATOM     76  C   UNL A   1      40.662  27.931  29.728  1.00  0.00     0.058 A 
ATOM     77  C   UNL A   1      39.746  26.877  29.575  1.00  0.00     0.135 A 
ATOM     78  C   UNL A   1      41.631  28.102  28.726  1.00  0.00     0.135 A 
ATOM     79  F   UNL A   1      38.817  26.646  30.518  1.00  0.00    -0.206 F 
ATOM     80  C   UNL A   1      39.802  26.016  28.484  1.00  0.00     0.059 A 
ATOM     81  C   UNL A   1      41.687  27.273  27.611  1.00  0.00     0.059 A 
ATOM     82  F   UNL A   1      42.542  29.083  28.829  1.00  0.00    -0.206 F 
ATOM     83  C   UNL A   1      40.773  26.226  27.504  1.00  0.00     0.060 A 
BRANCH  83  84
ATOM     84  S   UNL A   1      40.820  25.113  26.083  1.00  0.00     0.124 S 
ATOM     85  O   UNL A   1      41.378  25.980  25.051  1.00  0.00    -0.237 OA
ATOM     86  O   UNL A   1      41.696  24.045  26.556  1.00  0.00    -0.237 OA
ATOM     87  O   UNL A   1      39.422  24.737  25.898  1.00  0.00    -0.744 OA
ENDBRANCH  83  84
ENDBRANCH  62  76
BRANCH  63  88
ATOM     88  C   UNL A   1      39.858  34.335  37.463  1.00  0.00     0.058 A 
ATOM     89  C   UNL A   1      39.185  33.945  38.630  1.00  0.00     0.135 A 
ATOM     90  C   UNL A   1      40.409  35.626  37.431  1.00  0.00     0.135 A 
ATOM     91  F   UNL A   1      38.634  32.724  38.710  1.00  0.00    -0.206 F 
ATOM     92  C   UNL A   1      39.051  34.804  39.717  1.00  0.00     0.059 A 
ATOM     93  C   UNL A   1      40.313  36.494  38.514  1.00  0.00     0.059 A 
ATOM     94  F   UNL A   1      41.074  36.046  36.343  1.00  0.00    -0.206 F 
ATOM     95  C   UNL A   1      39.623  36.076  39.649  1.00  0.00     0.060 A 
BRANCH  95  96
ATOM     96  S   UNL A   1      39.485  37.165  41.084  1.00  0.00     0.124 S 
ATOM     97  O   UNL A   1      40.880  37.292  41.491  1.00  0.00    -0.237 OA
ATOM     98  O   UNL A   1      38.876  38.356  40.504  1.00  0.00    -0.237 OA
ATOM     99  O   UNL A   1      38.628  36.413  41.996  1.00  0.00    -0.744 OA
ENDBRANCH  95  96
ENDBRANCH  63  88
BRANCH  75 100
ATOM    100  C   UNL A   1      44.054  28.935  36.018  1.00  0.00     0.058 A 
ATOM    101  C   UNL A   1      45.349  29.470  35.972  1.00  0.00     0.135 A 
ATOM    102  C   UNL A   1      43.830  27.821  36.845  1.00  0.00     0.135 A 
ATOM    103  F   UNL A   1      45.617  30.531  35.193  1.00  0.00    -0.206 F 
ATOM    104  C   UNL A   1      46.392  28.908  36.699  1.00  0.00     0.059 A 
ATOM    105  C   UNL A   1      44.849  27.264  37.607  1.00  0.00     0.059 A 
ATOM    106  F   UNL A   1      42.605  27.280  36.935  1.00  0.00    -0.206 F 
ATOM    107  C   UNL A   1      46.130  27.807  37.518  1.00  0.00     0.060 A 
BRANCH 107 108
ATOM    108  S   UNL A   1      47.485  27.108  38.482  1.00  0.00     0.124 S 
ATOM    109  O   UNL A   1      48.648  27.659  37.795  1.00  0.00    -0.237 OA
ATOM    110  O   UNL A   1      47.225  27.640  39.816  1.00  0.00    -0.237 OA
ATOM    111  O   UNL A   1      47.297  25.667  38.340  1.00  0.00    -0.744 OA
ENDBRANCH 107 108
ENDBRANCH  75 100
ENDBRANCH  49  50
ENDBRANCH  42  44
ENDBRANCH  41  42
ENDBRANCH  40  41
ENDBRANCH  39  40
ENDBRANCH   1  39
TORSDOF 22
ENDMDL
MODEL 3
REMARK VINA RESULT:     -11.6      6.153      8.205
REMARK SMILES COc1ccc2[nH]cc([C@H](C(=O)OCCOCCOC(=O)c3ccc(-c4c5nc(c(-c6c(F)cc(S(=O)(=O)[O-])cc6F)c6ccc([nH]6)c(-c6c(F)cc(S(=O)(=O)[O-])cc6F)c6nc(c(-c7c(F)cc(S(=O)(=O)[O-])cc7F)c7ccc4[nH]7)C=C6)C=C5)cc3)[NH+]3CC[NH+](Cc4cccc5ccccc45)CC3)c2c1
REMARK SMILES IDX 16 1 15 2 14 3 13 4 11 5 12 6 10 7 9 8 3 9 4 10 106 11 5 12
REMARK SMILES IDX 105 13 6 14 7 15 8 16 2 18 1 19 88 20 89 21 104 22 90 24
REMARK SMILES IDX 103 25 91 26 92 28 93 29 94 30 102 31 95 32 97 33 101 34
REMARK SMILES IDX 96 35 98 36 100 37 99 38 17 39 18 40 19 41 20 42 21 43 22 44
REMARK SMILES IDX 23 45 87 46 24 47 86 48 25 49 26 50 27 51 80 52 28 53 85 54
REMARK SMILES IDX 79 55 81 56 29 57 84 58 78 59 77 60 30 62 64 63 43 64 63 65
REMARK SMILES IDX 44 66 47 67 62 68 82 69 45 70 46 71 61 73 83 74 48 75 31 76
REMARK SMILES IDX 32 77 41 78 33 79 34 80 40 81 42 82 35 83 36 84 37 85 38 86
REMARK SMILES IDX 39 87 65 88 66 89 75 90 67 91 68 92 74 93 76 94 69 95 70 96
REMARK SMILES IDX 71 97 72 98 73 99 49 100 50 101 59 102 51 103 52 104 58 105
REMARK SMILES IDX 60 106 53 107 54 108 55 109 56 110 57 111
REMARK H PARENT 7 17 88 23 91 27 81 61 47 72
REMARK Flexibility Score: inf
ROOT
ATOM      1  O   UNL A   1      32.126  30.761  26.983  1.00  0.00    -0.374 OA
ENDROOT
BRANCH   1   2
ATOM      2  C   UNL A   1      32.641  29.485  26.635  1.00  0.00     0.202 C 
BRANCH   2   3
ATOM      3  C   UNL A   1      31.868  28.180  26.834  1.00  0.00     0.261 C 
BRANCH   3   4
ATOM      4  O   UNL A   1      32.198  27.111  25.931  1.00  0.00    -0.459 OA
BRANCH   4   5
ATOM      5  C   UNL A   1      31.238  26.140  25.917  1.00  0.00     0.370 C 
ATOM      6  O   UNL A   1      30.795  25.662  26.955  1.00  0.00    -0.245 OA
BRANCH   5   7
ATOM      7  C   UNL A   1      30.845  25.693  24.507  1.00  0.00     0.328 C 
BRANCH   7   8
ATOM      8  C   UNL A   1      31.105  26.783  23.466  1.00  0.00     0.046 A 
ATOM      9  C   UNL A   1      28.420  29.483  22.920  1.00  0.00     0.119 A 
ATOM     10  C   UNL A   1      29.155  30.274  22.055  1.00  0.00     0.048 A 
ATOM     11  C   UNL A   1      28.962  28.322  23.461  1.00  0.00     0.057 A 
ATOM     12  C   UNL A   1      30.449  29.895  21.683  1.00  0.00     0.030 A 
ATOM     13  C   UNL A   1      30.254  27.890  23.093  1.00  0.00     0.013 A 
ATOM     14  C   UNL A   1      30.968  28.700  22.209  1.00  0.00     0.046 A 
ATOM     15  N   UNL A   1      32.196  28.111  22.026  1.00  0.00    -0.361 N 
ATOM     16  C   UNL A   1      32.286  26.958  22.757  1.00  0.00     0.094 A 
ATOM     17  H   UNL A   1      32.909  28.468  21.449  1.00  0.00     0.166 HD
BRANCH   9  18
ATOM     18  O   UNL A   1      27.172  29.861  23.334  1.00  0.00    -0.497 OA
ATOM     19  C   UNL A   1      27.195  31.214  23.794  1.00  0.00     0.278 C 
ENDBRANCH   9  18
ENDBRANCH   7   8
BRANCH   7  20
ATOM     20  N   UNL A   1      31.575  24.475  24.068  1.00  0.00    -0.310 N 
ATOM     21  C   UNL A   1      32.966  24.362  24.517  1.00  0.00     0.325 C 
ATOM     22  C   UNL A   1      30.874  23.196  24.127  1.00  0.00     0.325 C 
ATOM     23  H   UNL A   1      31.609  24.684  23.070  1.00  0.00     0.349 HD
ATOM     24  C   UNL A   1      33.290  23.443  25.722  1.00  0.00     0.324 C 
ATOM     25  C   UNL A   1      31.190  22.249  25.318  1.00  0.00     0.324 C 
ATOM     26  N   UNL A   1      32.558  22.184  25.830  1.00  0.00    -0.322 N 
ATOM     27  H   UNL A   1      32.402  22.055  26.829  1.00  0.00     0.348 HD
BRANCH  26  28
ATOM     28  C   UNL A   1      33.334  20.974  25.555  1.00  0.00     0.300 C 
BRANCH  28  29
ATOM     29  C   UNL A   1      32.701  20.075  24.511  1.00  0.00     0.014 A 
ATOM     30  C   UNL A   1      32.344  20.677  23.291  1.00  0.00     0.010 A 
ATOM     31  C   UNL A   1      32.735  18.661  24.627  1.00  0.00    -0.010 A 
ATOM     32  C   UNL A   1      32.209  19.909  22.145  1.00  0.00     0.001 A 
ATOM     33  C   UNL A   1      32.726  17.908  23.434  1.00  0.00    -0.018 A 
ATOM     34  C   UNL A   1      32.851  17.964  25.853  1.00  0.00     0.009 A 
ATOM     35  C   UNL A   1      32.464  18.542  22.208  1.00  0.00     0.009 A 
ATOM     36  C   UNL A   1      33.027  16.536  23.486  1.00  0.00     0.009 A 
ATOM     37  C   UNL A   1      33.100  16.591  25.892  1.00  0.00     0.001 A 
ATOM     38  C   UNL A   1      33.232  15.887  24.704  1.00  0.00     0.001 A 
ENDBRANCH  28  29
ENDBRANCH  26  28
ENDBRANCH   7  20
ENDBRANCH   5   7
ENDBRANCH   4   5
ENDBRANCH   3   4
ENDBRANCH   2   3
ENDBRANCH   1   2
BRANCH   1  39
ATOM     39  C   UNL A   1      33.018  31.801  27.337  1.00  0.00     0.202 C 
BRANCH  39  40
ATOM     40  C   UNL A   1      32.555  33.252  27.522  1.00  0.00     0.261 C 
BRANCH  40  41
ATOM     41  O   UNL A   1      33.617  34.181  27.705  1.00  0.00    -0.460 OA
BRANCH  41  42
ATOM     42  C   UNL A   1      33.537  34.857  28.877  1.00  0.00     0.338 C 
ATOM     43  O   UNL A   1      32.641  35.599  29.250  1.00  0.00    -0.246 OA
BRANCH  42  44
ATOM     44  C   UNL A   1      34.597  34.351  29.759  1.00  0.00     0.060 A 
ATOM     45  C   UNL A   1      35.921  34.588  29.360  1.00  0.00     0.016 A 
ATOM     46  C   UNL A   1      34.301  33.726  30.970  1.00  0.00     0.016 A 
ATOM     47  C   UNL A   1      36.965  34.188  30.174  1.00  0.00     0.010 A 
ATOM     48  C   UNL A   1      35.351  33.270  31.760  1.00  0.00     0.010 A 
ATOM     49  C   UNL A   1      36.678  33.474  31.342  1.00  0.00    -0.014 A 
BRANCH  49  50
ATOM     50  C   UNL A   1      37.774  32.706  31.952  1.00  0.00     0.031 A 
ATOM     51  C   UNL A   1      38.268  33.170  33.290  1.00  0.00     0.074 A 
ATOM     52  C   UNL A   1      38.243  31.596  31.362  1.00  0.00     0.049 A 
ATOM     53  N   UNL A   1      39.217  32.680  34.038  1.00  0.00    -0.248 NA
ATOM     54  C   UNL A   1      37.592  34.348  33.867  1.00  0.00     0.031 C 
ATOM     55  C   UNL A   1      37.763  31.047  30.093  1.00  0.00     0.029 A 
ATOM     56  N   UNL A   1      39.226  30.733  31.758  1.00  0.00    -0.354 N 
ATOM     57  C   UNL A   1      39.258  33.490  35.166  1.00  0.00     0.074 A 
ATOM     58  C   UNL A   1      38.260  34.521  34.996  1.00  0.00     0.031 C 
ATOM     59  C   UNL A   1      38.469  29.939  29.808  1.00  0.00     0.029 A 
ATOM     60  C   UNL A   1      39.467  29.728  30.854  1.00  0.00     0.049 A 
ATOM     61  H   UNL A   1      39.713  30.823  32.608  1.00  0.00     0.167 HD
ATOM     62  C   UNL A   1      40.059  33.374  36.247  1.00  0.00     0.037 A 
ATOM     63  C   UNL A   1      40.412  28.769  30.870  1.00  0.00     0.037 A 
ATOM     64  C   UNL A   1      41.047  32.340  36.382  1.00  0.00     0.049 A 
ATOM     65  C   UNL A   1      41.347  28.708  32.050  1.00  0.00     0.074 A 
ATOM     66  C   UNL A   1      41.923  32.116  37.427  1.00  0.00     0.029 A 
ATOM     67  N   UNL A   1      41.297  31.360  35.429  1.00  0.00    -0.354 N 
ATOM     68  N   UNL A   1      41.380  29.472  33.118  1.00  0.00    -0.248 NA
ATOM     69  C   UNL A   1      42.369  27.654  32.034  1.00  0.00     0.031 C 
ATOM     70  C   UNL A   1      42.741  31.038  37.079  1.00  0.00     0.029 A 
ATOM     71  C   UNL A   1      42.331  30.546  35.848  1.00  0.00     0.049 A 
ATOM     72  H   UNL A   1      40.807  31.261  34.580  1.00  0.00     0.167 HD
ATOM     73  C   UNL A   1      42.406  28.976  33.914  1.00  0.00     0.074 A 
ATOM     74  C   UNL A   1      42.959  27.836  33.208  1.00  0.00     0.031 C 
ATOM     75  C   UNL A   1      42.852  29.415  35.118  1.00  0.00     0.037 A 
BRANCH  62  76
ATOM     76  C   UNL A   1      39.926  34.409  37.329  1.00  0.00     0.058 A 
ATOM     77  C   UNL A   1      39.117  34.209  38.460  1.00  0.00     0.135 A 
ATOM     78  C   UNL A   1      40.630  35.620  37.237  1.00  0.00     0.135 A 
ATOM     79  F   UNL A   1      38.396  33.083  38.586  1.00  0.00    -0.206 F 
ATOM     80  C   UNL A   1      38.997  35.179  39.450  1.00  0.00     0.059 A 
ATOM     81  C   UNL A   1      40.549  36.592  38.229  1.00  0.00     0.059 A 
ATOM     82  F   UNL A   1      41.405  35.872  36.170  1.00  0.00    -0.206 F 
ATOM     83  C   UNL A   1      39.722  36.366  39.327  1.00  0.00     0.060 A 
BRANCH  83  84
ATOM     84  S   UNL A   1      39.572  37.607  40.630  1.00  0.00     0.124 S 
ATOM     85  O   UNL A   1      38.816  38.654  39.950  1.00  0.00    -0.237 OA
ATOM     86  O   UNL A   1      38.851  36.878  41.670  1.00  0.00    -0.237 OA
ATOM     87  O   UNL A   1      40.958  37.939  40.946  1.00  0.00    -0.744 OA
ENDBRANCH  83  84
ENDBRANCH  62  76
BRANCH  63  88
ATOM     88  C   UNL A   1      40.526  27.817  29.734  1.00  0.00     0.058 A 
ATOM     89  C   UNL A   1      41.518  27.964  28.754  1.00  0.00     0.135 A 
ATOM     90  C   UNL A   1      39.648  26.727  29.613  1.00  0.00     0.135 A 
ATOM     91  F   UNL A   1      42.379  28.992  28.820  1.00  0.00    -0.206 F 
ATOM     92  C   UNL A   1      41.629  27.075  27.689  1.00  0.00     0.059 A 
ATOM     93  C   UNL A   1      39.755  25.809  28.574  1.00  0.00     0.059 A 
ATOM     94  F   UNL A   1      38.687  26.533  30.531  1.00  0.00    -0.206 F 
ATOM     95  C   UNL A   1      40.744  25.998  27.611  1.00  0.00     0.060 A 
BRANCH  95  96
ATOM     96  S   UNL A   1      40.928  24.823  26.251  1.00  0.00     0.124 S 
ATOM     97  O   UNL A   1      41.895  23.882  26.804  1.00  0.00    -0.237 OA
ATOM     98  O   UNL A   1      39.565  24.324  26.095  1.00  0.00    -0.237 OA
ATOM     99  O   UNL A   1      41.412  25.653  25.153  1.00  0.00    -0.744 OA
ENDBRANCH  95  96
ENDBRANCH  63  88
BRANCH  75 100
ATOM    100  C   UNL A   1      43.966  28.638  35.764  1.00  0.00     0.058 A 
ATOM    101  C   UNL A   1      43.714  27.574  36.642  1.00  0.00     0.135 A 
ATOM    102  C   UNL A   1      45.304  28.926  35.444  1.00  0.00     0.135 A 
ATOM    103  F   UNL A   1      42.453  27.262  36.984  1.00  0.00    -0.206 F 
ATOM    104  C   UNL A   1      44.750  26.838  37.204  1.00  0.00     0.059 A 
ATOM    105  C   UNL A   1      46.354  28.181  35.967  1.00  0.00     0.059 A 
ATOM    106  F   UNL A   1      45.597  29.924  34.596  1.00  0.00    -0.206 F 
ATOM    107  C   UNL A   1      46.067  27.147  36.856  1.00  0.00     0.060 A 
BRANCH 107 108
ATOM    108  S   UNL A   1      47.401  26.161  37.567  1.00  0.00     0.124 S 
ATOM    109  O   UNL A   1      47.696  25.238  36.477  1.00  0.00    -0.237 OA
ATOM    110  O   UNL A   1      48.421  27.168  37.840  1.00  0.00    -0.237 OA
ATOM    111  O   UNL A   1      46.788  25.561  38.749  1.00  0.00    -0.744 OA
ENDBRANCH 107 108
ENDBRANCH  75 100
ENDBRANCH  49  50
ENDBRANCH  42  44
ENDBRANCH  41  42
ENDBRANCH  40  41
ENDBRANCH  39  40
ENDBRANCH   1  39
TORSDOF 22
ENDMDL
