MODEL 1
REMARK VINA RESULT:     -12.3      0.000      0.000
REMARK SMILES Cc1ccccc1/C=C1\SC(=O)N(CC(=O)Nc2ccccc2C(=O)OCCOCCOC(=O)c2ccc(-c3c4nc(c(-c5c(F)cc(S(=O)(=O)[O-])cc5F)c5ccc([nH]5)c(-c5c(F)cc(S(=O)(=O)[O-])cc5F)c5nc(c(-c6c(F)cc(S(=O)(=O)[O-])cc6F)c6ccc3[nH]6)C=C5)C=C4)cc2)C1=O
REMARK SMILES IDX 28 1 27 2 26 3 24 4 25 5 23 6 18 7 19 8 20 9 22 10 21 11
REMARK SMILES IDX 17 12 15 13 16 14 14 16 13 17 8 18 9 19 10 20 101 21 11 22
REMARK SMILES IDX 102 23 12 24 7 25 1 26 2 27 3 28 4 29 6 30 5 31 29 32 30 33
REMARK SMILES IDX 31 34 32 35 33 36 34 37 35 38 36 39 100 40 37 41 99 42 38 43
REMARK SMILES IDX 39 44 40 45 93 46 41 47 98 48 92 49 94 50 42 51 97 52 91 53
REMARK SMILES IDX 90 54 43 56 77 57 56 58 76 59 57 60 60 61 75 62 95 63 58 64
REMARK SMILES IDX 59 65 74 67 96 68 61 69 44 70 45 71 54 72 46 73 47 74 53 75
REMARK SMILES IDX 55 76 48 77 49 78 50 79 51 80 52 81 78 82 79 83 88 84 80 85
REMARK SMILES IDX 81 86 87 87 89 88 82 89 83 90 84 91 85 92 86 93 62 94 63 95
REMARK SMILES IDX 72 96 64 97 65 98 71 99 73 100 66 101 67 102 68 103 69 104
REMARK SMILES IDX 70 105
REMARK H PARENT 17 15 94 55 60 66
REMARK Flexibility Score: inf
ROOT
ATOM      1  C   UNL A   1      33.538  32.276  27.779  1.00  0.00     0.202 C 
ENDROOT
BRANCH   1   2
ATOM      2  C   UNL A   1      33.380  30.779  27.139  1.00  0.00     0.261 C 
BRANCH   2   3
ATOM      3  O   UNL A   1      31.950  30.001  25.914  1.00  0.00    -0.460 OA
BRANCH   3   4
ATOM      4  C   UNL A   1      31.343  29.628  24.648  1.00  0.00     0.340 C 
ATOM      5  O   UNL A   1      30.240  30.041  24.326  1.00  0.00    -0.246 OA
BRANCH   4   6
ATOM      6  C   UNL A   1      32.024  28.864  23.602  1.00  0.00     0.083 A 
ATOM      7  C   UNL A   1      31.483  27.643  23.153  1.00  0.00     0.055 A 
ATOM      8  C   UNL A   1      32.277  26.784  22.391  1.00  0.00     0.027 A 
ATOM      9  C   UNL A   1      33.570  27.162  22.035  1.00  0.00     0.002 A 
ATOM     10  C   UNL A   1      33.350  29.196  23.324  1.00  0.00     0.018 A 
ATOM     11  C   UNL A   1      34.108  28.360  22.509  1.00  0.00     0.001 A 
BRANCH   7  12
ATOM     12  N   UNL A   1      30.194  27.185  23.458  1.00  0.00    -0.324 N 
ATOM     13  C   UNL A   1      29.788  26.414  24.510  1.00  0.00     0.244 C 
ATOM     14  O   UNL A   1      28.576  26.181  24.618  1.00  0.00    -0.273 OA
ATOM     15  H   UNL A   1      29.486  27.455  22.829  1.00  0.00     0.170 HD
BRANCH  13  16
ATOM     16  C   UNL A   1      30.735  26.139  25.684  1.00  0.00     0.230 C 
BRANCH  16  17
ATOM     17  N   UNL A   1      31.572  24.951  25.660  1.00  0.00    -0.259 N 
ATOM     18  C   UNL A   1      35.652  23.267  25.439  1.00  0.00     0.029 C 
ATOM     19  C   UNL A   1      34.305  23.451  25.637  1.00  0.00     0.083 C 
ATOM     20  S   UNL A   1      32.830  21.916  26.363  1.00  0.00    -0.022 SA
ATOM     21  C   UNL A   1      33.330  25.170  25.348  1.00  0.00     0.268 C 
ATOM     22  C   UNL A   1      31.020  23.357  26.195  1.00  0.00     0.294 C 
ATOM     23  O   UNL A   1      33.763  26.317  25.397  1.00  0.00    -0.268 OA
ATOM     24  O   UNL A   1      29.890  22.982  26.487  1.00  0.00    -0.261 OA
BRANCH  18  25
ATOM     25  C   UNL A   1      36.998  22.543  25.474  1.00  0.00    -0.021 A 
ATOM     26  C   UNL A   1      38.253  24.196  26.938  1.00  0.00     0.045 C 
ATOM     27  C   UNL A   1      38.180  22.965  26.092  1.00  0.00    -0.044 A 
ATOM     28  C   UNL A   1      39.351  22.137  26.098  1.00  0.00     0.004 A 
ATOM     29  C   UNL A   1      39.349  20.833  25.610  1.00  0.00     0.000 A 
ATOM     30  C   UNL A   1      37.023  21.152  25.133  1.00  0.00     0.008 A 
ATOM     31  C   UNL A   1      38.153  20.315  25.177  1.00  0.00     0.001 A 
ENDBRANCH  18  25
ENDBRANCH  16  17
ENDBRANCH  13  16
ENDBRANCH   7  12
ENDBRANCH   4   6
ENDBRANCH   3   4
ENDBRANCH   2   3
ENDBRANCH   1   2
BRANCH   1  32
ATOM     32  O   UNL A   1      33.712  32.240  29.189  1.00  0.00    -0.374 OA
BRANCH  32  33
ATOM     33  C   UNL A   1      34.819  33.002  29.660  1.00  0.00     0.202 C 
BRANCH  33  34
ATOM     34  C   UNL A   1      35.810  32.093  30.391  1.00  0.00     0.261 C 
BRANCH  34  35
ATOM     35  O   UNL A   1      35.987  30.897  29.598  1.00  0.00    -0.460 OA
BRANCH  35  36
ATOM     36  C   UNL A   1      36.849  30.992  28.544  1.00  0.00     0.338 C 
ATOM     37  O   UNL A   1      36.795  31.849  27.679  1.00  0.00    -0.246 OA
BRANCH  36  38
ATOM     38  C   UNL A   1      37.747  29.791  28.505  1.00  0.00     0.060 A 
ATOM     39  C   UNL A   1      37.884  28.916  29.592  1.00  0.00     0.016 A 
ATOM     40  C   UNL A   1      38.655  29.670  27.470  1.00  0.00     0.016 A 
ATOM     41  C   UNL A   1      39.020  28.061  29.707  1.00  0.00     0.010 A 
ATOM     42  C   UNL A   1      39.824  28.935  27.672  1.00  0.00     0.010 A 
ATOM     43  C   UNL A   1      40.119  28.223  28.854  1.00  0.00    -0.014 A 
BRANCH  43  44
ATOM     44  C   UNL A   1      41.580  27.765  29.084  1.00  0.00     0.031 A 
ATOM     45  C   UNL A   1      41.793  26.379  28.611  1.00  0.00     0.074 A 
ATOM     46  C   UNL A   1      42.754  28.305  29.603  1.00  0.00     0.049 A 
ATOM     47  N   UNL A   1      42.227  25.408  29.353  1.00  0.00    -0.248 NA
ATOM     48  C   UNL A   1      41.432  25.982  27.253  1.00  0.00     0.031 C 
ATOM     49  C   UNL A   1      44.106  27.756  29.406  1.00  0.00     0.029 A 
ATOM     50  N   UNL A   1      43.105  29.490  30.321  1.00  0.00    -0.354 N 
ATOM     51  C   UNL A   1      42.474  24.386  28.464  1.00  0.00     0.074 A 
ATOM     52  C   UNL A   1      41.668  24.678  27.303  1.00  0.00     0.031 C 
ATOM     53  C   UNL A   1      45.014  28.422  30.147  1.00  0.00     0.029 A 
ATOM     54  C   UNL A   1      44.348  29.422  30.983  1.00  0.00     0.049 A 
ATOM     55  H   UNL A   1      42.527  30.288  30.351  1.00  0.00     0.167 HD
ATOM     56  C   UNL A   1      43.623  23.649  28.499  1.00  0.00     0.037 A 
ATOM     57  C   UNL A   1      44.742  29.867  32.234  1.00  0.00     0.037 A 
ATOM     58  C   UNL A   1      44.610  24.205  29.435  1.00  0.00     0.049 A 
ATOM     59  C   UNL A   1      45.222  28.641  32.995  1.00  0.00     0.074 A 
ATOM     60  C   UNL A   1      45.828  24.837  29.213  1.00  0.00     0.029 A 
ATOM     61  N   UNL A   1      44.324  24.411  30.782  1.00  0.00    -0.354 N 
ATOM     62  N   UNL A   1      45.204  27.470  32.434  1.00  0.00    -0.248 NA
ATOM     63  C   UNL A   1      45.657  28.539  34.388  1.00  0.00     0.031 C 
ATOM     64  C   UNL A   1      46.320  25.323  30.442  1.00  0.00     0.029 A 
ATOM     65  C   UNL A   1      45.386  25.034  31.419  1.00  0.00     0.049 A 
ATOM     66  H   UNL A   1      43.482  24.149  31.223  1.00  0.00     0.167 HD
ATOM     67  C   UNL A   1      45.509  26.486  33.307  1.00  0.00     0.074 A 
ATOM     68  C   UNL A   1      45.802  27.203  34.532  1.00  0.00     0.031 C 
ATOM     69  C   UNL A   1      45.436  25.197  32.871  1.00  0.00     0.037 A 
BRANCH  56  70
ATOM     70  C   UNL A   1      43.985  22.716  27.345  1.00  0.00     0.058 A 
ATOM     71  C   UNL A   1      43.211  21.585  27.027  1.00  0.00     0.135 A 
ATOM     72  C   UNL A   1      45.113  22.894  26.510  1.00  0.00     0.135 A 
ATOM     73  F   UNL A   1      42.006  21.379  27.571  1.00  0.00    -0.206 F 
ATOM     74  C   UNL A   1      43.608  20.629  26.092  1.00  0.00     0.059 A 
ATOM     75  C   UNL A   1      45.578  21.918  25.626  1.00  0.00     0.059 A 
ATOM     76  F   UNL A   1      45.780  24.060  26.481  1.00  0.00    -0.206 F 
ATOM     77  C   UNL A   1      44.813  20.783  25.422  1.00  0.00     0.060 A 
BRANCH  77  78
ATOM     78  S   UNL A   1      45.290  19.553  24.199  1.00  0.00     0.124 S 
ATOM     79  O   UNL A   1      46.715  19.818  24.030  1.00  0.00    -0.237 OA
ATOM     80  O   UNL A   1      44.951  18.309  24.882  1.00  0.00    -0.237 OA
ATOM     81  O   UNL A   1      44.458  19.880  23.044  1.00  0.00    -0.744 OA
ENDBRANCH  77  78
ENDBRANCH  56  70
BRANCH  57  82
ATOM     82  C   UNL A   1      44.231  31.124  32.920  1.00  0.00     0.058 A 
ATOM     83  C   UNL A   1      44.726  32.397  32.585  1.00  0.00     0.135 A 
ATOM     84  C   UNL A   1      43.203  31.162  33.868  1.00  0.00     0.135 A 
ATOM     85  F   UNL A   1      45.858  32.507  31.869  1.00  0.00    -0.206 F 
ATOM     86  C   UNL A   1      44.069  33.596  32.940  1.00  0.00     0.059 A 
ATOM     87  C   UNL A   1      42.432  32.317  34.111  1.00  0.00     0.059 A 
ATOM     88  F   UNL A   1      42.911  30.064  34.575  1.00  0.00    -0.206 F 
ATOM     89  C   UNL A   1      42.819  33.522  33.547  1.00  0.00     0.060 A 
BRANCH  89  90
ATOM     90  S   UNL A   1      41.606  34.885  33.392  1.00  0.00     0.124 S 
ATOM     91  O   UNL A   1      40.729  34.674  34.538  1.00  0.00    -0.237 OA
ATOM     92  O   UNL A   1      42.426  36.093  33.462  1.00  0.00    -0.237 OA
ATOM     93  O   UNL A   1      40.998  34.637  32.087  1.00  0.00    -0.744 OA
ENDBRANCH  89  90
ENDBRANCH  57  82
BRANCH  69  94
ATOM     94  C   UNL A   1      45.545  23.964  33.710  1.00  0.00     0.058 A 
ATOM     95  C   UNL A   1      44.466  23.125  34.018  1.00  0.00     0.135 A 
ATOM     96  C   UNL A   1      46.822  23.522  34.134  1.00  0.00     0.135 A 
ATOM     97  F   UNL A   1      43.227  23.393  33.584  1.00  0.00    -0.206 F 
ATOM     98  C   UNL A   1      44.637  21.959  34.761  1.00  0.00     0.059 A 
ATOM     99  C   UNL A   1      47.021  22.337  34.820  1.00  0.00     0.059 A 
ATOM    100  F   UNL A   1      47.936  24.231  33.896  1.00  0.00    -0.206 F 
ATOM    101  C   UNL A   1      45.915  21.580  35.164  1.00  0.00     0.060 A 
BRANCH 101 102
ATOM    102  S   UNL A   1      46.147  20.089  36.138  1.00  0.00     0.124 S 
ATOM    103  O   UNL A   1      45.666  20.525  37.445  1.00  0.00    -0.237 OA
ATOM    104  O   UNL A   1      45.305  19.119  35.445  1.00  0.00    -0.237 OA
ATOM    105  O   UNL A   1      47.582  19.844  36.043  1.00  0.00    -0.744 OA
ENDBRANCH 101 102
ENDBRANCH  69  94
ENDBRANCH  43  44
ENDBRANCH  36  38
ENDBRANCH  35  36
ENDBRANCH  34  35
ENDBRANCH  33  34
ENDBRANCH  32  33
ENDBRANCH   1  32
TORSDOF 21
ENDMDL
MODEL 2
REMARK VINA RESULT:     -11.8      2.942      3.886
REMARK SMILES Cc1ccccc1/C=C1\SC(=O)N(CC(=O)Nc2ccccc2C(=O)OCCOCCOC(=O)c2ccc(-c3c4nc(c(-c5c(F)cc(S(=O)(=O)[O-])cc5F)c5ccc([nH]5)c(-c5c(F)cc(S(=O)(=O)[O-])cc5F)c5nc(c(-c6c(F)cc(S(=O)(=O)[O-])cc6F)c6ccc3[nH]6)C=C5)C=C4)cc2)C1=O
REMARK SMILES IDX 28 1 27 2 26 3 24 4 25 5 23 6 18 7 19 8 20 9 22 10 21 11
REMARK SMILES IDX 17 12 15 13 16 14 14 16 13 17 8 18 9 19 10 20 101 21 11 22
REMARK SMILES IDX 102 23 12 24 7 25 1 26 2 27 3 28 4 29 6 30 5 31 29 32 30 33
REMARK SMILES IDX 31 34 32 35 33 36 34 37 35 38 36 39 100 40 37 41 99 42 38 43
REMARK SMILES IDX 39 44 40 45 93 46 41 47 98 48 92 49 94 50 42 51 97 52 91 53
REMARK SMILES IDX 90 54 43 56 77 57 56 58 76 59 57 60 60 61 75 62 95 63 58 64
REMARK SMILES IDX 59 65 74 67 96 68 61 69 44 70 45 71 54 72 46 73 47 74 53 75
REMARK SMILES IDX 55 76 48 77 49 78 50 79 51 80 52 81 78 82 79 83 88 84 80 85
REMARK SMILES IDX 81 86 87 87 89 88 82 89 83 90 84 91 85 92 86 93 62 94 63 95
REMARK SMILES IDX 72 96 64 97 65 98 71 99 73 100 66 101 67 102 68 103 69 104
REMARK SMILES IDX 70 105
REMARK H PARENT 17 15 94 55 60 66
REMARK Flexibility Score: inf
ROOT
ATOM      1  C   UNL A   1      32.716  33.401  27.396  1.00  0.00     0.202 C 
ENDROOT
BRANCH   1   2
ATOM      2  C   UNL A   1      32.211  31.848  27.272  1.00  0.00     0.261 C 
BRANCH   2   3
ATOM      3  O   UNL A   1      32.875  30.326  26.092  1.00  0.00    -0.460 OA
BRANCH   3   4
ATOM      4  C   UNL A   1      32.782  29.299  25.069  1.00  0.00     0.340 C 
ATOM      5  O   UNL A   1      33.648  28.448  24.943  1.00  0.00    -0.246 OA
BRANCH   4   6
ATOM      6  C   UNL A   1      31.615  29.097  24.209  1.00  0.00     0.083 A 
ATOM      7  C   UNL A   1      31.746  28.398  22.993  1.00  0.00     0.055 A 
ATOM      8  C   UNL A   1      30.720  28.472  22.049  1.00  0.00     0.027 A 
ATOM      9  C   UNL A   1      29.558  29.185  22.338  1.00  0.00     0.002 A 
ATOM     10  C   UNL A   1      30.492  29.887  24.454  1.00  0.00     0.018 A 
ATOM     11  C   UNL A   1      29.449  29.899  23.532  1.00  0.00     0.001 A 
BRANCH   7  12
ATOM     12  N   UNL A   1      32.874  27.654  22.622  1.00  0.00    -0.324 N 
ATOM     13  C   UNL A   1      33.013  26.297  22.541  1.00  0.00     0.244 C 
ATOM     14  O   UNL A   1      34.092  25.854  22.124  1.00  0.00    -0.273 OA
ATOM     15  H   UNL A   1      33.673  28.178  22.389  1.00  0.00     0.170 HD
BRANCH  13  16
ATOM     16  C   UNL A   1      31.786  25.382  22.633  1.00  0.00     0.230 C 
BRANCH  16  17
ATOM     17  N   UNL A   1      31.832  24.215  23.498  1.00  0.00    -0.259 N 
ATOM     18  C   UNL A   1      33.007  19.985  23.997  1.00  0.00     0.029 C 
ATOM     19  C   UNL A   1      32.633  21.288  24.213  1.00  0.00     0.083 C 
ATOM     20  S   UNL A   1      32.219  22.257  26.200  1.00  0.00    -0.022 SA
ATOM     21  C   UNL A   1      32.392  22.662  22.784  1.00  0.00     0.268 C 
ATOM     22  C   UNL A   1      31.645  24.296  25.256  1.00  0.00     0.294 C 
ATOM     23  O   UNL A   1      32.915  22.719  21.675  1.00  0.00    -0.268 OA
ATOM     24  O   UNL A   1      31.305  25.240  25.961  1.00  0.00    -0.261 OA
BRANCH  18  25
ATOM     25  C   UNL A   1      33.445  18.563  24.353  1.00  0.00    -0.021 A 
ATOM     26  C   UNL A   1      35.929  19.016  24.632  1.00  0.00     0.045 C 
ATOM     27  C   UNL A   1      34.745  18.104  24.589  1.00  0.00    -0.044 A 
ATOM     28  C   UNL A   1      34.991  16.747  24.986  1.00  0.00     0.004 A 
ATOM     29  C   UNL A   1      33.965  15.854  25.279  1.00  0.00     0.000 A 
ATOM     30  C   UNL A   1      32.445  17.648  24.815  1.00  0.00     0.008 A 
ATOM     31  C   UNL A   1      32.677  16.329  25.251  1.00  0.00     0.001 A 
ENDBRANCH  18  25
ENDBRANCH  16  17
ENDBRANCH  13  16
ENDBRANCH   7  12
ENDBRANCH   4   6
ENDBRANCH   3   4
ENDBRANCH   2   3
ENDBRANCH   1   2
BRANCH   1  32
ATOM     32  O   UNL A   1      33.670  33.572  28.434  1.00  0.00    -0.374 OA
BRANCH  32  33
ATOM     33  C   UNL A   1      35.024  33.477  28.003  1.00  0.00     0.202 C 
BRANCH  33  34
ATOM     34  C   UNL A   1      35.873  32.803  29.083  1.00  0.00     0.261 C 
BRANCH  34  35
ATOM     35  O   UNL A   1      36.468  31.618  28.507  1.00  0.00    -0.460 OA
BRANCH  35  36
ATOM     36  C   UNL A   1      36.522  30.516  29.312  1.00  0.00     0.338 C 
ATOM     37  O   UNL A   1      35.961  30.416  30.389  1.00  0.00    -0.246 OA
BRANCH  36  38
ATOM     38  C   UNL A   1      37.513  29.530  28.767  1.00  0.00     0.060 A 
ATOM     39  C   UNL A   1      38.169  28.594  29.580  1.00  0.00     0.016 A 
ATOM     40  C   UNL A   1      37.984  29.698  27.479  1.00  0.00     0.016 A 
ATOM     41  C   UNL A   1      39.382  27.976  29.155  1.00  0.00     0.010 A 
ATOM     42  C   UNL A   1      39.242  29.195  27.143  1.00  0.00     0.010 A 
ATOM     43  C   UNL A   1      40.054  28.440  28.016  1.00  0.00    -0.014 A 
BRANCH  43  44
ATOM     44  C   UNL A   1      41.548  28.263  27.652  1.00  0.00     0.031 A 
ATOM     45  C   UNL A   1      41.904  26.834  27.510  1.00  0.00     0.074 A 
ATOM     46  C   UNL A   1      42.648  29.081  27.408  1.00  0.00     0.049 A 
ATOM     47  N   UNL A   1      42.835  26.238  28.189  1.00  0.00    -0.248 NA
ATOM     48  C   UNL A   1      41.144  25.951  26.629  1.00  0.00     0.031 C 
ATOM     49  C   UNL A   1      43.899  28.658  26.756  1.00  0.00     0.029 A 
ATOM     50  N   UNL A   1      42.938  30.474  27.547  1.00  0.00    -0.354 N 
ATOM     51  C   UNL A   1      42.959  25.006  27.585  1.00  0.00     0.074 A 
ATOM     52  C   UNL A   1      41.709  24.782  26.900  1.00  0.00     0.031 C 
ATOM     53  C   UNL A   1      44.821  29.640  26.790  1.00  0.00     0.029 A 
ATOM     54  C   UNL A   1      44.314  30.784  27.549  1.00  0.00     0.049 A 
ATOM     55  H   UNL A   1      42.236  31.160  27.634  1.00  0.00     0.167 HD
ATOM     56  C   UNL A   1      44.174  24.465  27.273  1.00  0.00     0.037 A 
ATOM     57  C   UNL A   1      45.047  31.678  28.312  1.00  0.00     0.037 A 
ATOM     58  C   UNL A   1      45.272  25.422  27.464  1.00  0.00     0.049 A 
ATOM     59  C   UNL A   1      46.092  30.857  29.051  1.00  0.00     0.074 A 
ATOM     60  C   UNL A   1      46.089  26.073  26.548  1.00  0.00     0.029 A 
ATOM     61  N   UNL A   1      45.509  26.048  28.686  1.00  0.00    -0.354 N 
ATOM     62  N   UNL A   1      46.154  29.570  28.886  1.00  0.00    -0.248 NA
ATOM     63  C   UNL A   1      47.060  31.296  30.056  1.00  0.00     0.031 C 
ATOM     64  C   UNL A   1      46.889  27.010  27.236  1.00  0.00     0.029 A 
ATOM     65  C   UNL A   1      46.536  26.971  28.571  1.00  0.00     0.049 A 
ATOM     66  H   UNL A   1      45.015  25.860  29.517  1.00  0.00     0.167 HD
ATOM     67  C   UNL A   1      47.027  28.993  29.739  1.00  0.00     0.074 A 
ATOM     68  C   UNL A   1      47.591  30.119  30.456  1.00  0.00     0.031 C 
ATOM     69  C   UNL A   1      47.121  27.633  29.737  1.00  0.00     0.037 A 
BRANCH  56  70
ATOM     70  C   UNL A   1      44.270  23.238  26.368  1.00  0.00     0.058 A 
ATOM     71  C   UNL A   1      43.747  21.988  26.747  1.00  0.00     0.135 A 
ATOM     72  C   UNL A   1      44.885  23.242  25.095  1.00  0.00     0.135 A 
ATOM     73  F   UNL A   1      42.955  21.848  27.816  1.00  0.00    -0.206 F 
ATOM     74  C   UNL A   1      43.968  20.819  26.018  1.00  0.00     0.059 A 
ATOM     75  C   UNL A   1      45.190  22.081  24.383  1.00  0.00     0.059 A 
ATOM     76  F   UNL A   1      45.164  24.394  24.461  1.00  0.00    -0.206 F 
ATOM     77  C   UNL A   1      44.722  20.866  24.855  1.00  0.00     0.060 A 
BRANCH  77  78
ATOM     78  S   UNL A   1      44.968  19.352  23.916  1.00  0.00     0.124 S 
ATOM     79  O   UNL A   1      46.422  19.225  23.903  1.00  0.00    -0.237 OA
ATOM     80  O   UNL A   1      44.252  18.378  24.733  1.00  0.00    -0.237 OA
ATOM     81  O   UNL A   1      44.361  19.650  22.622  1.00  0.00    -0.744 OA
ENDBRANCH  77  78
ENDBRANCH  56  70
BRANCH  57  82
ATOM     82  C   UNL A   1      44.549  33.027  28.805  1.00  0.00     0.058 A 
ATOM     83  C   UNL A   1      43.842  33.152  30.015  1.00  0.00     0.135 A 
ATOM     84  C   UNL A   1      44.792  34.253  28.177  1.00  0.00     0.135 A 
ATOM     85  F   UNL A   1      43.339  32.058  30.611  1.00  0.00    -0.206 F 
ATOM     86  C   UNL A   1      43.653  34.388  30.672  1.00  0.00     0.059 A 
ATOM     87  C   UNL A   1      44.765  35.482  28.868  1.00  0.00     0.059 A 
ATOM     88  F   UNL A   1      45.079  34.284  26.871  1.00  0.00    -0.206 F 
ATOM     89  C   UNL A   1      44.288  35.520  30.169  1.00  0.00     0.060 A 
BRANCH  89  90
ATOM     90  S   UNL A   1      44.717  36.930  31.254  1.00  0.00     0.124 S 
ATOM     91  O   UNL A   1      43.820  36.752  32.391  1.00  0.00    -0.237 OA
ATOM     92  O   UNL A   1      46.133  36.725  31.552  1.00  0.00    -0.237 OA
ATOM     93  O   UNL A   1      44.434  38.090  30.413  1.00  0.00    -0.744 OA
ENDBRANCH  89  90
ENDBRANCH  57  82
BRANCH  69  94
ATOM     94  C   UNL A   1      47.873  26.790  30.716  1.00  0.00     0.058 A 
ATOM     95  C   UNL A   1      47.489  26.602  32.049  1.00  0.00     0.135 A 
ATOM     96  C   UNL A   1      48.978  26.023  30.269  1.00  0.00     0.135 A 
ATOM     97  F   UNL A   1      46.401  27.200  32.554  1.00  0.00    -0.206 F 
ATOM     98  C   UNL A   1      48.200  25.761  32.903  1.00  0.00     0.059 A 
ATOM     99  C   UNL A   1      49.660  25.137  31.084  1.00  0.00     0.059 A 
ATOM    100  F   UNL A   1      49.440  26.106  29.013  1.00  0.00    -0.206 F 
ATOM    101  C   UNL A   1      49.287  25.041  32.413  1.00  0.00     0.060 A 
BRANCH 101 102
ATOM    102  S   UNL A   1      50.223  23.968  33.507  1.00  0.00     0.124 S 
ATOM    103  O   UNL A   1      50.973  23.165  32.545  1.00  0.00    -0.237 OA
ATOM    104  O   UNL A   1      51.010  24.916  34.290  1.00  0.00    -0.237 OA
ATOM    105  O   UNL A   1      49.188  23.259  34.251  1.00  0.00    -0.744 OA
ENDBRANCH 101 102
ENDBRANCH  69  94
ENDBRANCH  43  44
ENDBRANCH  36  38
ENDBRANCH  35  36
ENDBRANCH  34  35
ENDBRANCH  33  34
ENDBRANCH  32  33
ENDBRANCH   1  32
TORSDOF 21
ENDMDL
MODEL 3
REMARK VINA RESULT:     -11.7      4.497      5.848
REMARK SMILES Cc1ccccc1/C=C1\SC(=O)N(CC(=O)Nc2ccccc2C(=O)OCCOCCOC(=O)c2ccc(-c3c4nc(c(-c5c(F)cc(S(=O)(=O)[O-])cc5F)c5ccc([nH]5)c(-c5c(F)cc(S(=O)(=O)[O-])cc5F)c5nc(c(-c6c(F)cc(S(=O)(=O)[O-])cc6F)c6ccc3[nH]6)C=C5)C=C4)cc2)C1=O
REMARK SMILES IDX 28 1 27 2 26 3 24 4 25 5 23 6 18 7 19 8 20 9 22 10 21 11
REMARK SMILES IDX 17 12 15 13 16 14 14 16 13 17 8 18 9 19 10 20 101 21 11 22
REMARK SMILES IDX 102 23 12 24 7 25 1 26 2 27 3 28 4 29 6 30 5 31 29 32 30 33
REMARK SMILES IDX 31 34 32 35 33 36 34 37 35 38 36 39 100 40 37 41 99 42 38 43
REMARK SMILES IDX 39 44 40 45 93 46 41 47 98 48 92 49 94 50 42 51 97 52 91 53
REMARK SMILES IDX 90 54 43 56 77 57 56 58 76 59 57 60 60 61 75 62 95 63 58 64
REMARK SMILES IDX 59 65 74 67 96 68 61 69 44 70 45 71 54 72 46 73 47 74 53 75
REMARK SMILES IDX 55 76 48 77 49 78 50 79 51 80 52 81 78 82 79 83 88 84 80 85
REMARK SMILES IDX 81 86 87 87 89 88 82 89 83 90 84 91 85 92 86 93 62 94 63 95
REMARK SMILES IDX 72 96 64 97 65 98 71 99 73 100 66 101 67 102 68 103 69 104
REMARK SMILES IDX 70 105
REMARK H PARENT 17 15 94 55 60 66
REMARK Flexibility Score: inf
ROOT
ATOM      1  C   UNL A   1      35.517  31.099  28.502  1.00  0.00     0.202 C 
ENDROOT
BRANCH   1   2
ATOM      2  C   UNL A   1      35.211  29.810  27.542  1.00  0.00     0.261 C 
BRANCH   2   3
ATOM      3  O   UNL A   1      33.632  28.522  27.510  1.00  0.00    -0.460 OA
BRANCH   3   4
ATOM      4  C   UNL A   1      32.240  28.129  27.383  1.00  0.00     0.340 C 
ATOM      5  O   UNL A   1      31.571  27.833  28.360  1.00  0.00    -0.246 OA
BRANCH   4   6
ATOM      6  C   UNL A   1      31.480  28.183  26.132  1.00  0.00     0.083 A 
ATOM      7  C   UNL A   1      30.922  27.007  25.594  1.00  0.00     0.055 A 
ATOM      8  C   UNL A   1      30.470  27.009  24.273  1.00  0.00     0.027 A 
ATOM      9  C   UNL A   1      30.522  28.182  23.520  1.00  0.00     0.002 A 
ATOM     10  C   UNL A   1      31.617  29.327  25.346  1.00  0.00     0.018 A 
ATOM     11  C   UNL A   1      31.103  29.334  24.053  1.00  0.00     0.001 A 
BRANCH   7  12
ATOM     12  N   UNL A   1      30.825  25.788  26.277  1.00  0.00    -0.324 N 
ATOM     13  C   UNL A   1      31.243  24.549  25.879  1.00  0.00     0.244 C 
ATOM     14  O   UNL A   1      31.112  23.614  26.679  1.00  0.00    -0.273 OA
ATOM     15  H   UNL A   1      30.398  25.829  27.163  1.00  0.00     0.170 HD
BRANCH  13  16
ATOM     16  C   UNL A   1      32.138  24.391  24.644  1.00  0.00     0.230 C 
BRANCH  16  17
ATOM     17  N   UNL A   1      33.393  23.669  24.763  1.00  0.00    -0.259 N 
ATOM     18  C   UNL A   1      37.608  23.710  26.092  1.00  0.00     0.029 C 
ATOM     19  C   UNL A   1      36.352  23.330  25.686  1.00  0.00     0.083 C 
ATOM     20  S   UNL A   1      35.633  21.229  25.326  1.00  0.00    -0.022 SA
ATOM     21  C   UNL A   1      34.833  24.579  25.341  1.00  0.00     0.268 C 
ATOM     22  C   UNL A   1      33.522  21.908  24.648  1.00  0.00     0.294 C 
ATOM     23  O   UNL A   1      34.630  25.693  25.815  1.00  0.00    -0.268 OA
ATOM     24  O   UNL A   1      32.677  21.086  24.308  1.00  0.00    -0.261 OA
BRANCH  18  25
ATOM     25  C   UNL A   1      39.043  23.538  26.589  1.00  0.00    -0.021 A 
ATOM     26  C   UNL A   1      39.370  25.868  27.546  1.00  0.00     0.045 C 
ATOM     27  C   UNL A   1      39.860  24.500  27.192  1.00  0.00    -0.044 A 
ATOM     28  C   UNL A   1      41.170  24.166  27.672  1.00  0.00     0.004 A 
ATOM     29  C   UNL A   1      41.654  22.861  27.685  1.00  0.00     0.000 A 
ATOM     30  C   UNL A   1      39.537  22.205  26.772  1.00  0.00     0.008 A 
ATOM     31  C   UNL A   1      40.801  21.861  27.285  1.00  0.00     0.001 A 
ENDBRANCH  18  25
ENDBRANCH  16  17
ENDBRANCH  13  16
ENDBRANCH   7  12
ENDBRANCH   4   6
ENDBRANCH   3   4
ENDBRANCH   2   3
ENDBRANCH   1   2
BRANCH   1  32
ATOM     32  O   UNL A   1      36.685  30.915  29.290  1.00  0.00    -0.374 OA
BRANCH  32  33
ATOM     33  C   UNL A   1      37.267  29.620  29.177  1.00  0.00     0.202 C 
BRANCH  33  34
ATOM     34  C   UNL A   1      37.300  28.937  30.545  1.00  0.00     0.261 C 
BRANCH  34  35
ATOM     35  O   UNL A   1      37.428  29.964  31.554  1.00  0.00    -0.460 OA
BRANCH  35  36
ATOM     36  C   UNL A   1      38.407  29.777  32.487  1.00  0.00     0.338 C 
ATOM     37  O   UNL A   1      38.213  29.401  33.630  1.00  0.00    -0.246 OA
BRANCH  36  38
ATOM     38  C   UNL A   1      39.721  30.275  31.961  1.00  0.00     0.060 A 
ATOM     39  C   UNL A   1      39.822  31.395  31.124  1.00  0.00     0.016 A 
ATOM     40  C   UNL A   1      40.841  29.476  32.095  1.00  0.00     0.016 A 
ATOM     41  C   UNL A   1      40.973  31.598  30.306  1.00  0.00     0.010 A 
ATOM     42  C   UNL A   1      41.889  29.614  31.185  1.00  0.00     0.010 A 
ATOM     43  C   UNL A   1      41.929  30.584  30.161  1.00  0.00    -0.014 A 
BRANCH  43  44
ATOM     44  C   UNL A   1      42.953  30.396  29.016  1.00  0.00     0.031 A 
ATOM     45  C   UNL A   1      43.319  28.972  28.848  1.00  0.00     0.074 A 
ATOM     46  C   UNL A   1      43.615  31.198  28.090  1.00  0.00     0.049 A 
ATOM     47  N   UNL A   1      44.531  28.513  28.915  1.00  0.00    -0.248 NA
ATOM     48  C   UNL A   1      42.296  27.945  28.676  1.00  0.00     0.031 C 
ATOM     49  C   UNL A   1      44.304  30.716  26.881  1.00  0.00     0.029 A 
ATOM     50  N   UNL A   1      43.775  32.603  27.884  1.00  0.00    -0.354 N 
ATOM     51  C   UNL A   1      44.422  27.208  28.488  1.00  0.00     0.074 A 
ATOM     52  C   UNL A   1      43.039  26.847  28.689  1.00  0.00     0.031 C 
ATOM     53  C   UNL A   1      44.963  31.718  26.266  1.00  0.00     0.029 A 
ATOM     54  C   UNL A   1      44.859  32.949  27.050  1.00  0.00     0.049 A 
ATOM     55  H   UNL A   1      43.179  33.275  28.290  1.00  0.00     0.167 HD
ATOM     56  C   UNL A   1      45.289  26.660  27.586  1.00  0.00     0.037 A 
ATOM     57  C   UNL A   1      45.792  33.968  27.141  1.00  0.00     0.037 A 
ATOM     58  C   UNL A   1      46.184  27.665  26.997  1.00  0.00     0.049 A 
ATOM     59  C   UNL A   1      47.156  33.299  27.215  1.00  0.00     0.074 A 
ATOM     60  C   UNL A   1      46.250  28.192  25.713  1.00  0.00     0.029 A 
ATOM     61  N   UNL A   1      47.007  28.476  27.776  1.00  0.00    -0.354 N 
ATOM     62  N   UNL A   1      47.254  32.003  27.184  1.00  0.00    -0.248 NA
ATOM     63  C   UNL A   1      48.469  33.912  27.413  1.00  0.00     0.031 C 
ATOM     64  C   UNL A   1      47.190  29.244  25.701  1.00  0.00     0.029 A 
ATOM     65  C   UNL A   1      47.673  29.399  26.986  1.00  0.00     0.049 A 
ATOM     66  H   UNL A   1      47.103  28.402  28.754  1.00  0.00     0.167 HD
ATOM     67  C   UNL A   1      48.516  31.587  27.423  1.00  0.00     0.074 A 
ATOM     68  C   UNL A   1      49.260  32.825  27.551  1.00  0.00     0.031 C 
ATOM     69  C   UNL A   1      48.743  30.246  27.512  1.00  0.00     0.037 A 
BRANCH  56  70
ATOM     70  C   UNL A   1      44.985  25.313  26.933  1.00  0.00     0.058 A 
ATOM     71  C   UNL A   1      45.466  24.101  27.461  1.00  0.00     0.135 A 
ATOM     72  C   UNL A   1      44.212  25.162  25.758  1.00  0.00     0.135 A 
ATOM     73  F   UNL A   1      46.033  24.033  28.670  1.00  0.00    -0.206 F 
ATOM     74  C   UNL A   1      45.345  22.881  26.796  1.00  0.00     0.059 A 
ATOM     75  C   UNL A   1      44.141  23.973  25.030  1.00  0.00     0.059 A 
ATOM     76  F   UNL A   1      43.440  26.162  25.300  1.00  0.00    -0.206 F 
ATOM     77  C   UNL A   1      44.714  22.830  25.562  1.00  0.00     0.060 A 
BRANCH  77  78
ATOM     78  S   UNL A   1      44.544  21.240  24.738  1.00  0.00     0.124 S 
ATOM     79  O   UNL A   1      45.742  20.531  25.175  1.00  0.00    -0.237 OA
ATOM     80  O   UNL A   1      43.283  20.755  25.287  1.00  0.00    -0.237 OA
ATOM     81  O   UNL A   1      44.515  21.592  23.321  1.00  0.00    -0.744 OA
ENDBRANCH  77  78
ENDBRANCH  56  70
BRANCH  57  82
ATOM     82  C   UNL A   1      45.521  35.362  27.685  1.00  0.00     0.058 A 
ATOM     83  C   UNL A   1      45.764  36.512  26.912  1.00  0.00     0.135 A 
ATOM     84  C   UNL A   1      44.953  35.643  28.932  1.00  0.00     0.135 A 
ATOM     85  F   UNL A   1      46.509  36.424  25.798  1.00  0.00    -0.206 F 
ATOM     86  C   UNL A   1      45.231  37.781  27.232  1.00  0.00     0.059 A 
ATOM     87  C   UNL A   1      44.274  36.848  29.207  1.00  0.00     0.059 A 
ATOM     88  F   UNL A   1      45.033  34.740  29.916  1.00  0.00    -0.206 F 
ATOM     89  C   UNL A   1      44.331  37.884  28.288  1.00  0.00     0.060 A 
BRANCH  89  90
ATOM     90  S   UNL A   1      43.076  39.216  28.341  1.00  0.00     0.124 S 
ATOM     91  O   UNL A   1      43.000  39.537  29.761  1.00  0.00    -0.237 OA
ATOM     92  O   UNL A   1      43.648  40.269  27.503  1.00  0.00    -0.237 OA
ATOM     93  O   UNL A   1      41.890  38.572  27.783  1.00  0.00    -0.744 OA
ENDBRANCH  89  90
ENDBRANCH  57  82
BRANCH  69  94
ATOM     94  C   UNL A   1      50.008  29.582  27.952  1.00  0.00     0.058 A 
ATOM     95  C   UNL A   1      50.824  28.812  27.114  1.00  0.00     0.135 A 
ATOM     96  C   UNL A   1      50.504  29.826  29.257  1.00  0.00     0.135 A 
ATOM     97  F   UNL A   1      50.503  28.599  25.830  1.00  0.00    -0.206 F 
ATOM     98  C   UNL A   1      52.021  28.261  27.565  1.00  0.00     0.059 A 
ATOM     99  C   UNL A   1      51.719  29.338  29.704  1.00  0.00     0.059 A 
ATOM    100  F   UNL A   1      49.822  30.553  30.153  1.00  0.00    -0.206 F 
ATOM    101  C   UNL A   1      52.454  28.522  28.863  1.00  0.00     0.060 A 
BRANCH 101 102
ATOM    102  S   UNL A   1      53.986  27.803  29.463  1.00  0.00     0.124 S 
ATOM    103  O   UNL A   1      53.977  28.236  30.858  1.00  0.00    -0.237 OA
ATOM    104  O   UNL A   1      53.778  26.375  29.243  1.00  0.00    -0.237 OA
ATOM    105  O   UNL A   1      55.002  28.419  28.617  1.00  0.00    -0.744 OA
ENDBRANCH 101 102
ENDBRANCH  69  94
ENDBRANCH  43  44
ENDBRANCH  36  38
ENDBRANCH  35  36
ENDBRANCH  34  35
ENDBRANCH  33  34
ENDBRANCH  32  33
ENDBRANCH   1  32
TORSDOF 21
ENDMDL
