MODEL 1
REMARK VINA RESULT:     -11.0      0.000      0.000
REMARK SMILES Cc1c[nH]c(C[N@H+]2C[C@@H]3CN(S(C)(=O)=O)C[C@]3(C(=O)OCCOCCOC(=O)c3ccc(-c4c5nc(c(-c6c(F)cc(S(=O)(=O)[O-])cc6F)c6ccc([nH]6)c(-c6c(F)cc(S(=O)(=O)[O-])cc6F)c6nc(c(-c7c(F)cc(S(=O)(=O)[O-])cc7F)c7ccc4[nH]7)C=C6)C=C5)cc3)C2)n1
REMARK SMILES IDX 24 1 23 2 22 3 21 4 20 5 18 6 19 7 17 8 7 9 8 10 95 11 9 13
REMARK SMILES IDX 10 14 16 15 11 16 6 17 5 18 1 19 2 20 3 21 96 22 4 23 12 25
REMARK SMILES IDX 13 26 14 27 15 28 25 29 26 30 27 31 28 32 29 33 30 34 94 35
REMARK SMILES IDX 31 36 93 37 32 38 33 39 34 40 87 41 35 42 92 43 86 44 88 45
REMARK SMILES IDX 36 46 91 47 85 48 84 49 37 51 71 52 50 53 70 54 51 55 54 56
REMARK SMILES IDX 69 57 89 58 52 59 53 60 68 62 90 63 55 64 38 65 39 66 48 67
REMARK SMILES IDX 40 68 41 69 47 70 49 71 42 72 43 73 44 74 45 75 46 76 72 77
REMARK SMILES IDX 73 78 82 79 74 80 75 81 81 82 83 83 76 84 77 85 78 86 79 87
REMARK SMILES IDX 80 88 56 89 57 90 66 91 58 92 59 93 65 94 67 95 60 96 61 97
REMARK SMILES IDX 62 98 63 99 64 100
REMARK H PARENT 7 12 4 24 88 50 54 61
REMARK Flexibility Score: inf
ROOT
ATOM      1  C   UNL A   1      38.890  22.594  26.491  1.00  0.00     0.202 C 
ENDROOT
BRANCH   1   2
ATOM      2  O   UNL A   1      38.535  21.731  25.412  1.00  0.00    -0.374 OA
BRANCH   2   3
ATOM      3  C   UNL A   1      37.360  22.087  24.683  1.00  0.00     0.202 C 
BRANCH   3   4
ATOM      4  C   UNL A   1      36.521  23.175  25.352  1.00  0.00     0.261 C 
BRANCH   4   5
ATOM      5  O   UNL A   1      35.991  24.105  24.392  1.00  0.00    -0.463 OA
BRANCH   5   6
ATOM      6  C   UNL A   1      34.826  23.891  23.694  1.00  0.00     0.319 C 
ATOM      7  O   UNL A   1      34.718  23.202  22.698  1.00  0.00    -0.251 OA
BRANCH   6   8
ATOM      8  C   UNL A   1      33.761  24.776  24.344  1.00  0.00     0.140 C 
ATOM      9  N   UNL A   1      31.900  23.737  25.598  1.00  0.00    -0.327 N 
ATOM     10  C   UNL A   1      32.285  24.954  26.281  1.00  0.00     0.268 C 
ATOM     11  C   UNL A   1      32.562  23.801  24.282  1.00  0.00     0.283 C 
ATOM     12  H   UNL A   1      30.890  23.681  25.469  1.00  0.00     0.348 HD
ATOM     13  C   UNL A   1      33.692  25.320  25.786  1.00  0.00     0.084 C 
ATOM     14  C   UNL A   1      33.720  26.857  25.766  1.00  0.00     0.113 C 
ATOM     15  C   UNL A   1      33.877  26.079  23.517  1.00  0.00     0.127 C 
ATOM     16  N   UNL A   1      33.503  27.186  24.373  1.00  0.00    -0.200 NA
BRANCH   9  17
ATOM     17  C   UNL A   1      32.103  22.499  26.382  1.00  0.00     0.338 C 
BRANCH  17  18
ATOM     18  C   UNL A   1      32.614  21.281  25.655  1.00  0.00     0.161 A 
ATOM     19  C   UNL A   1      32.447  18.521  23.406  1.00  0.00     0.068 C 
ATOM     20  C   UNL A   1      32.861  19.565  24.370  1.00  0.00     0.056 A 
ATOM     21  C   UNL A   1      34.115  19.845  24.862  1.00  0.00     0.107 A 
ATOM     22  N   UNL A   1      31.941  20.448  24.887  1.00  0.00    -0.233 NA
ATOM     23  N   UNL A   1      33.943  20.920  25.689  1.00  0.00    -0.344 N 
ATOM     24  H   UNL A   1      34.648  21.359  26.219  1.00  0.00     0.167 HD
ENDBRANCH  17  18
ENDBRANCH   9  17
BRANCH  16  25
ATOM     25  S   UNL A   1      32.647  28.476  23.782  1.00  0.00     0.211 S 
ATOM     26  C   UNL A   1      32.403  29.434  25.266  1.00  0.00     0.176 C 
ATOM     27  O   UNL A   1      33.508  29.226  22.886  1.00  0.00    -0.213 OA
ATOM     28  O   UNL A   1      31.360  27.982  23.362  1.00  0.00    -0.213 OA
ENDBRANCH  16  25
ENDBRANCH   6   8
ENDBRANCH   5   6
ENDBRANCH   4   5
ENDBRANCH   3   4
ENDBRANCH   2   3
ENDBRANCH   1   2
BRANCH   1  29
ATOM     29  C   UNL A   1      40.094  23.500  26.250  1.00  0.00     0.261 C 
BRANCH  29  30
ATOM     30  O   UNL A   1      39.696  24.880  26.208  1.00  0.00    -0.460 OA
BRANCH  30  31
ATOM     31  C   UNL A   1      40.744  25.735  26.185  1.00  0.00     0.338 C 
ATOM     32  O   UNL A   1      41.386  26.076  25.204  1.00  0.00    -0.246 OA
BRANCH  31  33
ATOM     33  C   UNL A   1      40.943  26.362  27.504  1.00  0.00     0.060 A 
ATOM     34  C   UNL A   1      40.005  26.038  28.490  1.00  0.00     0.016 A 
ATOM     35  C   UNL A   1      41.931  27.318  27.748  1.00  0.00     0.016 A 
ATOM     36  C   UNL A   1      39.975  26.750  29.680  1.00  0.00     0.010 A 
ATOM     37  C   UNL A   1      41.903  28.034  28.951  1.00  0.00     0.010 A 
ATOM     38  C   UNL A   1      40.884  27.797  29.890  1.00  0.00    -0.014 A 
BRANCH  38  39
ATOM     39  C   UNL A   1      40.619  28.733  31.009  1.00  0.00     0.031 A 
ATOM     40  C   UNL A   1      41.491  28.670  32.238  1.00  0.00     0.074 A 
ATOM     41  C   UNL A   1      39.695  29.702  30.879  1.00  0.00     0.049 A 
ATOM     42  N   UNL A   1      41.498  29.447  33.289  1.00  0.00    -0.248 NA
ATOM     43  C   UNL A   1      42.490  27.590  32.285  1.00  0.00     0.031 C 
ATOM     44  C   UNL A   1      38.826  29.883  29.717  1.00  0.00     0.029 A 
ATOM     45  N   UNL A   1      39.349  30.724  31.724  1.00  0.00    -0.354 N 
ATOM     46  C   UNL A   1      42.495  28.951  34.123  1.00  0.00     0.074 A 
ATOM     47  C   UNL A   1      43.045  27.783  33.473  1.00  0.00     0.031 C 
ATOM     48  C   UNL A   1      38.050  30.961  29.919  1.00  0.00     0.029 A 
ATOM     49  C   UNL A   1      38.347  31.526  31.234  1.00  0.00     0.049 A 
ATOM     50  H   UNL A   1      39.778  30.870  32.598  1.00  0.00     0.167 HD
ATOM     51  C   UNL A   1      42.922  29.434  35.314  1.00  0.00     0.037 A 
ATOM     52  C   UNL A   1      37.733  32.589  31.789  1.00  0.00     0.037 A 
ATOM     53  C   UNL A   1      42.366  30.601  35.952  1.00  0.00     0.049 A 
ATOM     54  C   UNL A   1      38.189  33.075  33.139  1.00  0.00     0.074 A 
ATOM     55  C   UNL A   1      42.733  31.180  37.154  1.00  0.00     0.029 A 
ATOM     56  N   UNL A   1      41.322  31.361  35.445  1.00  0.00    -0.354 N 
ATOM     57  N   UNL A   1      39.145  32.609  33.907  1.00  0.00    -0.248 NA
ATOM     58  C   UNL A   1      37.490  34.243  33.693  1.00  0.00     0.031 C 
ATOM     59  C   UNL A   1      41.872  32.254  37.403  1.00  0.00     0.029 A 
ATOM     60  C   UNL A   1      41.015  32.390  36.322  1.00  0.00     0.049 A 
ATOM     61  H   UNL A   1      40.866  31.195  34.590  1.00  0.00     0.167 HD
ATOM     62  C   UNL A   1      39.187  33.446  35.018  1.00  0.00     0.074 A 
ATOM     63  C   UNL A   1      38.167  34.455  34.812  1.00  0.00     0.031 C 
ATOM     64  C   UNL A   1      39.999  33.390  36.104  1.00  0.00     0.037 A 
BRANCH  51  65
ATOM     65  C   UNL A   1      44.021  28.687  36.022  1.00  0.00     0.058 A 
ATOM     66  C   UNL A   1      43.758  27.586  36.855  1.00  0.00     0.135 A 
ATOM     67  C   UNL A   1      45.364  29.053  35.835  1.00  0.00     0.135 A 
ATOM     68  F   UNL A   1      42.493  27.200  37.087  1.00  0.00    -0.206 F 
ATOM     69  C   UNL A   1      44.783  26.893  37.494  1.00  0.00     0.059 A 
ATOM     70  C   UNL A   1      46.407  28.356  36.439  1.00  0.00     0.059 A 
ATOM     71  F   UNL A   1      45.676  30.098  35.051  1.00  0.00    -0.206 F 
ATOM     72  C   UNL A   1      46.105  27.285  37.277  1.00  0.00     0.060 A 
BRANCH  72  73
ATOM     73  S   UNL A   1      47.423  26.369  38.103  1.00  0.00     0.124 S 
ATOM     74  O   UNL A   1      46.920  26.301  39.471  1.00  0.00    -0.237 OA
ATOM     75  O   UNL A   1      47.434  25.109  37.368  1.00  0.00    -0.237 OA
ATOM     76  O   UNL A   1      48.599  27.214  37.910  1.00  0.00    -0.744 OA
ENDBRANCH  72  73
ENDBRANCH  51  65
BRANCH  52  77
ATOM     77  C   UNL A   1      36.621  33.262  31.066  1.00  0.00     0.058 A 
ATOM     78  C   UNL A   1      35.286  33.111  31.471  1.00  0.00     0.135 A 
ATOM     79  C   UNL A   1      36.875  34.079  29.953  1.00  0.00     0.135 A 
ATOM     80  F   UNL A   1      34.989  32.334  32.525  1.00  0.00    -0.206 F 
ATOM     81  C   UNL A   1      34.242  33.729  30.789  1.00  0.00     0.059 A 
ATOM     82  C   UNL A   1      35.852  34.731  29.274  1.00  0.00     0.059 A 
ATOM     83  F   UNL A   1      38.135  34.269  29.531  1.00  0.00    -0.206 F 
ATOM     84  C   UNL A   1      34.537  34.541  29.693  1.00  0.00     0.060 A 
BRANCH  84  85
ATOM     85  S   UNL A   1      33.181  35.379  28.846  1.00  0.00     0.124 S 
ATOM     86  O   UNL A   1      33.896  36.368  28.049  1.00  0.00    -0.237 OA
ATOM     87  O   UNL A   1      32.562  34.285  28.104  1.00  0.00    -0.237 OA
ATOM     88  O   UNL A   1      32.379  35.914  29.943  1.00  0.00    -0.744 OA
ENDBRANCH  84  85
ENDBRANCH  52  77
BRANCH  64  89
ATOM     89  C   UNL A   1      39.853  34.483  37.132  1.00  0.00     0.058 A 
ATOM     90  C   UNL A   1      39.005  34.356  38.244  1.00  0.00     0.135 A 
ATOM     91  C   UNL A   1      40.593  35.671  37.009  1.00  0.00     0.135 A 
ATOM     92  F   UNL A   1      38.273  33.243  38.413  1.00  0.00    -0.206 F 
ATOM     93  C   UNL A   1      38.859  35.385  39.169  1.00  0.00     0.059 A 
ATOM     94  C   UNL A   1      40.491  36.699  37.941  1.00  0.00     0.059 A 
ATOM     95  F   UNL A   1      41.433  35.842  35.976  1.00  0.00    -0.206 F 
ATOM     96  C   UNL A   1      39.604  36.555  39.006  1.00  0.00     0.060 A 
BRANCH  96  97
ATOM     97  S   UNL A   1      39.401  37.886  40.209  1.00  0.00     0.124 S 
ATOM     98  O   UNL A   1      39.186  37.137  41.443  1.00  0.00    -0.237 OA
ATOM     99  O   UNL A   1      40.674  38.593  40.110  1.00  0.00    -0.237 OA
ATOM    100  O   UNL A   1      38.243  38.621  39.712  1.00  0.00    -0.744 OA
ENDBRANCH  96  97
ENDBRANCH  64  89
ENDBRANCH  38  39
ENDBRANCH  31  33
ENDBRANCH  30  31
ENDBRANCH  29  30
ENDBRANCH   1  29
TORSDOF 20
ENDMDL
MODEL 2
REMARK VINA RESULT:     -10.9      2.375      8.726
REMARK SMILES Cc1c[nH]c(C[N@H+]2C[C@@H]3CN(S(C)(=O)=O)C[C@]3(C(=O)OCCOCCOC(=O)c3ccc(-c4c5nc(c(-c6c(F)cc(S(=O)(=O)[O-])cc6F)c6ccc([nH]6)c(-c6c(F)cc(S(=O)(=O)[O-])cc6F)c6nc(c(-c7c(F)cc(S(=O)(=O)[O-])cc7F)c7ccc4[nH]7)C=C6)C=C5)cc3)C2)n1
REMARK SMILES IDX 24 1 23 2 22 3 21 4 20 5 18 6 19 7 17 8 7 9 8 10 95 11 9 13
REMARK SMILES IDX 10 14 16 15 11 16 6 17 5 18 1 19 2 20 3 21 96 22 4 23 12 25
REMARK SMILES IDX 13 26 14 27 15 28 25 29 26 30 27 31 28 32 29 33 30 34 94 35
REMARK SMILES IDX 31 36 93 37 32 38 33 39 34 40 87 41 35 42 92 43 86 44 88 45
REMARK SMILES IDX 36 46 91 47 85 48 84 49 37 51 71 52 50 53 70 54 51 55 54 56
REMARK SMILES IDX 69 57 89 58 52 59 53 60 68 62 90 63 55 64 38 65 39 66 48 67
REMARK SMILES IDX 40 68 41 69 47 70 49 71 42 72 43 73 44 74 45 75 46 76 72 77
REMARK SMILES IDX 73 78 82 79 74 80 75 81 81 82 83 83 76 84 77 85 78 86 79 87
REMARK SMILES IDX 80 88 56 89 57 90 66 91 58 92 59 93 65 94 67 95 60 96 61 97
REMARK SMILES IDX 62 98 63 99 64 100
REMARK H PARENT 7 12 4 24 88 50 54 61
REMARK Flexibility Score: inf
ROOT
ATOM      1  C   UNL A   1      34.438  31.455  27.808  1.00  0.00     0.202 C 
ENDROOT
BRANCH   1   2
ATOM      2  O   UNL A   1      34.289  30.205  27.138  1.00  0.00    -0.374 OA
BRANCH   2   3
ATOM      3  C   UNL A   1      32.953  29.822  26.812  1.00  0.00     0.202 C 
BRANCH   3   4
ATOM      4  C   UNL A   1      32.574  28.421  27.293  1.00  0.00     0.261 C 
BRANCH   4   5
ATOM      5  O   UNL A   1      32.655  27.454  26.232  1.00  0.00    -0.463 OA
BRANCH   5   6
ATOM      6  C   UNL A   1      31.901  26.304  26.196  1.00  0.00     0.319 C 
ATOM      7  O   UNL A   1      30.848  26.134  26.781  1.00  0.00    -0.251 OA
BRANCH   6   8
ATOM      8  C   UNL A   1      32.706  25.282  25.392  1.00  0.00     0.140 C 
ATOM      9  N   UNL A   1      32.730  25.407  22.923  1.00  0.00    -0.327 N 
ATOM     10  C   UNL A   1      34.047  25.004  23.370  1.00  0.00     0.268 C 
ATOM     11  C   UNL A   1      31.855  25.262  24.101  1.00  0.00     0.283 C 
ATOM     12  H   UNL A   1      32.389  24.809  22.170  1.00  0.00     0.348 HD
ATOM     13  C   UNL A   1      34.149  25.380  24.856  1.00  0.00     0.084 C 
ATOM     14  C   UNL A   1      35.016  24.278  25.486  1.00  0.00     0.113 C 
ATOM     15  C   UNL A   1      32.816  24.104  26.389  1.00  0.00     0.127 C 
ATOM     16  N   UNL A   1      34.052  23.400  26.114  1.00  0.00    -0.200 NA
BRANCH   9  17
ATOM     17  C   UNL A   1      32.688  26.710  22.222  1.00  0.00     0.338 C 
BRANCH  17  18
ATOM     18  C   UNL A   1      31.629  27.698  22.637  1.00  0.00     0.161 A 
ATOM     19  C   UNL A   1      28.349  29.082  22.802  1.00  0.00     0.068 C 
ATOM     20  C   UNL A   1      29.786  28.771  22.969  1.00  0.00     0.056 A 
ATOM     21  C   UNL A   1      30.703  29.333  23.826  1.00  0.00     0.107 A 
ATOM     22  N   UNL A   1      30.380  27.777  22.226  1.00  0.00    -0.233 NA
ATOM     23  N   UNL A   1      31.870  28.661  23.593  1.00  0.00    -0.344 N 
ATOM     24  H   UNL A   1      32.734  28.835  24.032  1.00  0.00     0.167 HD
ENDBRANCH  17  18
ENDBRANCH   9  17
BRANCH  16  25
ATOM     25  S   UNL A   1      34.144  21.749  26.230  1.00  0.00     0.211 S 
ATOM     26  C   UNL A   1      35.810  21.459  25.666  1.00  0.00     0.176 C 
ATOM     27  O   UNL A   1      34.061  21.382  27.632  1.00  0.00    -0.213 OA
ATOM     28  O   UNL A   1      33.245  21.199  25.246  1.00  0.00    -0.213 OA
ENDBRANCH  16  25
ENDBRANCH   6   8
ENDBRANCH   5   6
ENDBRANCH   4   5
ENDBRANCH   3   4
ENDBRANCH   2   3
ENDBRANCH   1   2
BRANCH   1  29
ATOM     29  C   UNL A   1      33.260  32.418  27.687  1.00  0.00     0.261 C 
BRANCH  29  30
ATOM     30  O   UNL A   1      33.719  33.772  27.539  1.00  0.00    -0.460 OA
BRANCH  30  31
ATOM     31  C   UNL A   1      33.525  34.523  28.647  1.00  0.00     0.338 C 
ATOM     32  O   UNL A   1      32.543  35.199  28.907  1.00  0.00    -0.246 OA
BRANCH  31  33
ATOM     33  C   UNL A   1      34.608  34.311  29.625  1.00  0.00     0.060 A 
ATOM     34  C   UNL A   1      35.907  34.558  29.171  1.00  0.00     0.016 A 
ATOM     35  C   UNL A   1      34.386  33.781  30.898  1.00  0.00     0.016 A 
ATOM     36  C   UNL A   1      36.995  34.168  29.939  1.00  0.00     0.010 A 
ATOM     37  C   UNL A   1      35.484  33.390  31.674  1.00  0.00     0.010 A 
ATOM     38  C   UNL A   1      36.789  33.522  31.166  1.00  0.00    -0.014 A 
BRANCH  38  39
ATOM     39  C   UNL A   1      37.944  32.837  31.794  1.00  0.00     0.031 A 
ATOM     40  C   UNL A   1      38.416  33.294  33.152  1.00  0.00     0.074 A 
ATOM     41  C   UNL A   1      38.484  31.749  31.217  1.00  0.00     0.049 A 
ATOM     42  N   UNL A   1      39.341  32.785  33.922  1.00  0.00    -0.248 NA
ATOM     43  C   UNL A   1      37.754  34.481  33.717  1.00  0.00     0.031 C 
ATOM     44  C   UNL A   1      38.077  31.194  29.926  1.00  0.00     0.029 A 
ATOM     45  N   UNL A   1      39.476  30.909  31.650  1.00  0.00    -0.354 N 
ATOM     46  C   UNL A   1      39.375  33.586  35.058  1.00  0.00     0.074 A 
ATOM     47  C   UNL A   1      38.405  34.639  34.861  1.00  0.00     0.031 C 
ATOM     48  C   UNL A   1      38.810  30.096  29.676  1.00  0.00     0.029 A 
ATOM     49  C   UNL A   1      39.754  29.889  30.772  1.00  0.00     0.049 A 
ATOM     50  H   UNL A   1      39.944  31.024  32.509  1.00  0.00     0.167 HD
ATOM     51  C   UNL A   1      40.136  33.448  36.171  1.00  0.00     0.037 A 
ATOM     52  C   UNL A   1      40.674  28.907  30.842  1.00  0.00     0.037 A 
ATOM     53  C   UNL A   1      41.100  32.392  36.358  1.00  0.00     0.049 A 
ATOM     54  C   UNL A   1      41.546  28.806  32.065  1.00  0.00     0.074 A 
ATOM     55  C   UNL A   1      41.914  32.155  37.451  1.00  0.00     0.029 A 
ATOM     56  N   UNL A   1      41.384  31.403  35.426  1.00  0.00    -0.354 N 
ATOM     57  N   UNL A   1      41.554  29.559  33.140  1.00  0.00    -0.248 NA
ATOM     58  C   UNL A   1      42.526  27.712  32.091  1.00  0.00     0.031 C 
ATOM     59  C   UNL A   1      42.733  31.060  37.157  1.00  0.00     0.029 A 
ATOM     60  C   UNL A   1      42.380  30.569  35.910  1.00  0.00     0.049 A 
ATOM     61  H   UNL A   1      40.945  31.308  34.552  1.00  0.00     0.167 HD
ATOM     62  C   UNL A   1      42.513  29.009  33.985  1.00  0.00     0.074 A 
ATOM     63  C   UNL A   1      43.053  27.852  33.299  1.00  0.00     0.031 C 
ATOM     64  C   UNL A   1      42.906  29.418  35.218  1.00  0.00     0.037 A 
BRANCH  51  65
ATOM     65  C   UNL A   1      39.982  34.477  37.259  1.00  0.00     0.058 A 
ATOM     66  C   UNL A   1      39.093  34.299  38.334  1.00  0.00     0.135 A 
ATOM     67  C   UNL A   1      40.763  35.644  37.249  1.00  0.00     0.135 A 
ATOM     68  F   UNL A   1      38.308  33.212  38.389  1.00  0.00    -0.206 F 
ATOM     69  C   UNL A   1      38.969  35.251  39.342  1.00  0.00     0.059 A 
ATOM     70  C   UNL A   1      40.678  36.595  38.262  1.00  0.00     0.059 A 
ATOM     71  F   UNL A   1      41.628  35.869  36.246  1.00  0.00    -0.206 F 
ATOM     72  C   UNL A   1      39.769  36.395  39.298  1.00  0.00     0.060 A 
BRANCH  72  73
ATOM     73  S   UNL A   1      39.604  37.614  40.621  1.00  0.00     0.124 S 
ATOM     74  O   UNL A   1      38.862  36.859  41.625  1.00  0.00    -0.237 OA
ATOM     75  O   UNL A   1      40.995  37.907  40.948  1.00  0.00    -0.237 OA
ATOM     76  O   UNL A   1      38.869  38.706  39.988  1.00  0.00    -0.744 OA
ENDBRANCH  72  73
ENDBRANCH  51  65
BRANCH  52  77
ATOM     77  C   UNL A   1      40.816  27.944  29.717  1.00  0.00     0.058 A 
ATOM     78  C   UNL A   1      41.847  28.067  28.773  1.00  0.00     0.135 A 
ATOM     79  C   UNL A   1      39.919  26.874  29.567  1.00  0.00     0.135 A 
ATOM     80  F   UNL A   1      42.725  29.077  28.867  1.00  0.00    -0.206 F 
ATOM     81  C   UNL A   1      41.974  27.175  27.712  1.00  0.00     0.059 A 
ATOM     82  C   UNL A   1      40.043  25.953  28.533  1.00  0.00     0.059 A 
ATOM     83  F   UNL A   1      38.922  26.703  30.449  1.00  0.00    -0.206 F 
ATOM     84  C   UNL A   1      41.068  26.118  27.604  1.00  0.00     0.060 A 
BRANCH  84  85
ATOM     85  S   UNL A   1      41.272  24.938  26.253  1.00  0.00     0.124 S 
ATOM     86  O   UNL A   1      41.593  25.819  25.137  1.00  0.00    -0.237 OA
ATOM     87  O   UNL A   1      42.365  24.101  26.741  1.00  0.00    -0.237 OA
ATOM     88  O   UNL A   1      39.972  24.279  26.184  1.00  0.00    -0.744 OA
ENDBRANCH  84  85
ENDBRANCH  52  77
BRANCH  64  89
ATOM     89  C   UNL A   1      43.936  28.578  35.929  1.00  0.00     0.058 A 
ATOM     90  C   UNL A   1      43.589  27.430  36.661  1.00  0.00     0.135 A 
ATOM     91  C   UNL A   1      45.297  28.918  35.858  1.00  0.00     0.135 A 
ATOM     92  F   UNL A   1      42.304  27.057  36.764  1.00  0.00    -0.206 F 
ATOM     93  C   UNL A   1      44.547  26.680  37.336  1.00  0.00     0.059 A 
ATOM     94  C   UNL A   1      46.276  28.163  36.494  1.00  0.00     0.059 A 
ATOM     95  F   UNL A   1      45.690  29.995  35.159  1.00  0.00    -0.206 F 
ATOM     96  C   UNL A   1      45.889  27.058  37.249  1.00  0.00     0.060 A 
BRANCH  96  97
ATOM     97  S   UNL A   1      47.122  26.081  38.135  1.00  0.00     0.124 S 
ATOM     98  O   UNL A   1      47.574  25.164  37.095  1.00  0.00    -0.237 OA
ATOM     99  O   UNL A   1      48.086  27.096  38.548  1.00  0.00    -0.237 OA
ATOM    100  O   UNL A   1      46.360  25.473  39.220  1.00  0.00    -0.744 OA
ENDBRANCH  96  97
ENDBRANCH  64  89
ENDBRANCH  38  39
ENDBRANCH  31  33
ENDBRANCH  30  31
ENDBRANCH  29  30
ENDBRANCH   1  29
TORSDOF 20
ENDMDL
MODEL 3
REMARK VINA RESULT:     -10.9      6.517     12.110
REMARK SMILES Cc1c[nH]c(C[N@H+]2C[C@@H]3CN(S(C)(=O)=O)C[C@]3(C(=O)OCCOCCOC(=O)c3ccc(-c4c5nc(c(-c6c(F)cc(S(=O)(=O)[O-])cc6F)c6ccc([nH]6)c(-c6c(F)cc(S(=O)(=O)[O-])cc6F)c6nc(c(-c7c(F)cc(S(=O)(=O)[O-])cc7F)c7ccc4[nH]7)C=C6)C=C5)cc3)C2)n1
REMARK SMILES IDX 24 1 23 2 22 3 21 4 20 5 18 6 19 7 17 8 7 9 8 10 95 11 9 13
REMARK SMILES IDX 10 14 16 15 11 16 6 17 5 18 1 19 2 20 3 21 96 22 4 23 12 25
REMARK SMILES IDX 13 26 14 27 15 28 25 29 26 30 27 31 28 32 29 33 30 34 94 35
REMARK SMILES IDX 31 36 93 37 32 38 33 39 34 40 87 41 35 42 92 43 86 44 88 45
REMARK SMILES IDX 36 46 91 47 85 48 84 49 37 51 71 52 50 53 70 54 51 55 54 56
REMARK SMILES IDX 69 57 89 58 52 59 53 60 68 62 90 63 55 64 38 65 39 66 48 67
REMARK SMILES IDX 40 68 41 69 47 70 49 71 42 72 43 73 44 74 45 75 46 76 72 77
REMARK SMILES IDX 73 78 82 79 74 80 75 81 81 82 83 83 76 84 77 85 78 86 79 87
REMARK SMILES IDX 80 88 56 89 57 90 66 91 58 92 59 93 65 94 67 95 60 96 61 97
REMARK SMILES IDX 62 98 63 99 64 100
REMARK H PARENT 7 12 4 24 88 50 54 61
REMARK Flexibility Score: inf
ROOT
ATOM      1  C   UNL A   1      34.543  32.125  27.862  1.00  0.00     0.202 C 
ENDROOT
BRANCH   1   2
ATOM      2  O   UNL A   1      33.877  30.881  28.073  1.00  0.00    -0.374 OA
BRANCH   2   3
ATOM      3  C   UNL A   1      33.764  30.029  26.934  1.00  0.00     0.202 C 
BRANCH   3   4
ATOM      4  C   UNL A   1      33.228  28.633  27.253  1.00  0.00     0.261 C 
BRANCH   4   5
ATOM      5  O   UNL A   1      32.687  27.990  26.087  1.00  0.00    -0.463 OA
BRANCH   5   6
ATOM      6  C   UNL A   1      31.905  26.860  26.140  1.00  0.00     0.319 C 
ATOM      7  O   UNL A   1      30.952  26.697  26.878  1.00  0.00    -0.251 OA
BRANCH   6   8
ATOM      8  C   UNL A   1      32.545  25.843  25.193  1.00  0.00     0.140 C 
ATOM      9  N   UNL A   1      32.283  26.108  22.749  1.00  0.00    -0.327 N 
ATOM     10  C   UNL A   1      33.617  25.610  23.011  1.00  0.00     0.268 C 
ATOM     11  C   UNL A   1      31.548  25.944  24.016  1.00  0.00     0.283 C 
ATOM     12  H   UNL A   1      31.819  25.574  22.014  1.00  0.00     0.348 HD
ATOM     13  C   UNL A   1      33.918  25.895  24.491  1.00  0.00     0.084 C 
ATOM     14  C   UNL A   1      34.786  24.713  24.954  1.00  0.00     0.113 C 
ATOM     15  C   UNL A   1      32.702  24.606  26.109  1.00  0.00     0.127 C 
ATOM     16  N   UNL A   1      33.852  23.853  25.651  1.00  0.00    -0.200 NA
BRANCH   9  17
ATOM     17  C   UNL A   1      32.237  27.449  22.125  1.00  0.00     0.338 C 
BRANCH  17  18
ATOM     18  C   UNL A   1      31.153  28.396  22.572  1.00  0.00     0.161 A 
ATOM     19  C   UNL A   1      27.842  29.705  22.757  1.00  0.00     0.068 C 
ATOM     20  C   UNL A   1      29.283  29.414  22.928  1.00  0.00     0.056 A 
ATOM     21  C   UNL A   1      30.178  29.954  23.823  1.00  0.00     0.107 A 
ATOM     22  N   UNL A   1      29.908  28.469  22.147  1.00  0.00    -0.233 NA
ATOM     23  N   UNL A   1      31.361  29.317  23.575  1.00  0.00    -0.344 N 
ATOM     24  H   UNL A   1      32.216  29.488  24.034  1.00  0.00     0.167 HD
ENDBRANCH  17  18
ENDBRANCH   9  17
BRANCH  16  25
ATOM     25  S   UNL A   1      33.857  22.196  25.671  1.00  0.00     0.211 S 
ATOM     26  C   UNL A   1      33.353  21.832  24.000  1.00  0.00     0.176 C 
ATOM     27  O   UNL A   1      35.225  21.744  25.848  1.00  0.00    -0.213 OA
ATOM     28  O   UNL A   1      32.798  21.774  26.552  1.00  0.00    -0.213 OA
ENDBRANCH  16  25
ENDBRANCH   6   8
ENDBRANCH   5   6
ENDBRANCH   4   5
ENDBRANCH   3   4
ENDBRANCH   2   3
ENDBRANCH   1   2
BRANCH   1  29
ATOM     29  C   UNL A   1      35.375  32.641  29.033  1.00  0.00     0.261 C 
BRANCH  29  30
ATOM     30  O   UNL A   1      35.896  31.551  29.810  1.00  0.00    -0.460 OA
BRANCH  30  31
ATOM     31  C   UNL A   1      37.098  31.822  30.369  1.00  0.00     0.338 C 
ATOM     32  O   UNL A   1      37.325  32.632  31.253  1.00  0.00    -0.246 OA
BRANCH  31  33
ATOM     33  C   UNL A   1      38.128  30.885  29.885  1.00  0.00     0.060 A 
ATOM     34  C   UNL A   1      39.158  30.583  30.782  1.00  0.00     0.016 A 
ATOM     35  C   UNL A   1      38.162  30.407  28.574  1.00  0.00     0.016 A 
ATOM     36  C   UNL A   1      40.283  29.901  30.341  1.00  0.00     0.010 A 
ATOM     37  C   UNL A   1      39.297  29.716  28.130  1.00  0.00     0.010 A 
ATOM     38  C   UNL A   1      40.387  29.521  28.996  1.00  0.00    -0.014 A 
BRANCH  38  39
ATOM     39  C   UNL A   1      41.716  29.095  28.495  1.00  0.00     0.031 A 
ATOM     40  C   UNL A   1      42.846  30.093  28.478  1.00  0.00     0.074 A 
ATOM     41  C   UNL A   1      41.939  27.809  28.174  1.00  0.00     0.049 A 
ATOM     42  N   UNL A   1      44.104  29.915  28.170  1.00  0.00    -0.248 NA
ATOM     43  C   UNL A   1      42.514  31.474  28.865  1.00  0.00     0.031 C 
ATOM     44  C   UNL A   1      40.930  26.750  28.195  1.00  0.00     0.029 A 
ATOM     45  N   UNL A   1      43.090  27.172  27.787  1.00  0.00    -0.354 N 
ATOM     46  C   UNL A   1      44.713  31.156  28.321  1.00  0.00     0.074 A 
ATOM     47  C   UNL A   1      43.679  32.088  28.711  1.00  0.00     0.031 C 
ATOM     48  C   UNL A   1      41.510  25.590  27.844  1.00  0.00     0.029 A 
ATOM     49  C   UNL A   1      42.921  25.830  27.547  1.00  0.00     0.049 A 
ATOM     50  H   UNL A   1      43.955  27.633  27.691  1.00  0.00     0.167 HD
ATOM     51  C   UNL A   1      46.017  31.485  28.164  1.00  0.00     0.037 A 
ATOM     52  C   UNL A   1      43.803  24.904  27.124  1.00  0.00     0.037 A 
ATOM     53  C   UNL A   1      47.041  30.547  27.775  1.00  0.00     0.049 A 
ATOM     54  C   UNL A   1      45.237  25.306  26.903  1.00  0.00     0.074 A 
ATOM     55  C   UNL A   1      48.394  30.775  27.597  1.00  0.00     0.029 A 
ATOM     56  N   UNL A   1      46.822  29.205  27.497  1.00  0.00    -0.354 N 
ATOM     57  N   UNL A   1      45.803  26.478  27.069  1.00  0.00    -0.248 NA
ATOM     58  C   UNL A   1      46.158  24.254  26.450  1.00  0.00     0.031 C 
ATOM     59  C   UNL A   1      48.983  29.587  27.154  1.00  0.00     0.029 A 
ATOM     60  C   UNL A   1      48.012  28.598  27.125  1.00  0.00     0.049 A 
ATOM     61  H   UNL A   1      45.952  28.750  27.556  1.00  0.00     0.167 HD
ATOM     62  C   UNL A   1      47.152  26.297  26.775  1.00  0.00     0.074 A 
ATOM     63  C   UNL A   1      47.316  24.898  26.435  1.00  0.00     0.031 C 
ATOM     64  C   UNL A   1      48.162  27.203  26.792  1.00  0.00     0.037 A 
BRANCH  51  65
ATOM     65  C   UNL A   1      46.410  32.924  28.379  1.00  0.00     0.058 A 
ATOM     66  C   UNL A   1      46.371  33.871  27.341  1.00  0.00     0.135 A 
ATOM     67  C   UNL A   1      46.796  33.372  29.653  1.00  0.00     0.135 A 
ATOM     68  F   UNL A   1      46.027  33.498  26.098  1.00  0.00    -0.206 F 
ATOM     69  C   UNL A   1      46.723  35.201  27.554  1.00  0.00     0.059 A 
ATOM     70  C   UNL A   1      47.122  34.703  29.896  1.00  0.00     0.059 A 
ATOM     71  F   UNL A   1      46.854  32.511  30.682  1.00  0.00    -0.206 F 
ATOM     72  C   UNL A   1      47.095  35.607  28.837  1.00  0.00     0.060 A 
BRANCH  72  73
ATOM     73  S   UNL A   1      47.537  37.339  29.099  1.00  0.00     0.124 S 
ATOM     74  O   UNL A   1      48.792  37.436  28.361  1.00  0.00    -0.237 OA
ATOM     75  O   UNL A   1      46.401  38.042  28.513  1.00  0.00    -0.237 OA
ATOM     76  O   UNL A   1      47.654  37.444  30.551  1.00  0.00    -0.744 OA
ENDBRANCH  72  73
ENDBRANCH  51  65
BRANCH  52  77
ATOM     77  C   UNL A   1      43.352  23.507  26.882  1.00  0.00     0.058 A 
ATOM     78  C   UNL A   1      43.192  23.003  25.582  1.00  0.00     0.135 A 
ATOM     79  C   UNL A   1      43.075  22.644  27.954  1.00  0.00     0.135 A 
ATOM     80  F   UNL A   1      43.436  23.791  24.523  1.00  0.00    -0.206 F 
ATOM     81  C   UNL A   1      42.757  21.702  25.353  1.00  0.00     0.059 A 
ATOM     82  C   UNL A   1      42.668  21.330  27.751  1.00  0.00     0.059 A 
ATOM     83  F   UNL A   1      43.223  23.070  29.218  1.00  0.00    -0.206 F 
ATOM     84  C   UNL A   1      42.502  20.871  26.446  1.00  0.00     0.060 A 
BRANCH  84  85
ATOM     85  S   UNL A   1      41.987  19.168  26.137  1.00  0.00     0.124 S 
ATOM     86  O   UNL A   1      42.860  18.792  25.032  1.00  0.00    -0.237 OA
ATOM     87  O   UNL A   1      42.267  18.528  27.419  1.00  0.00    -0.237 OA
ATOM     88  O   UNL A   1      40.571  19.300  25.807  1.00  0.00    -0.744 OA
ENDBRANCH  84  85
ENDBRANCH  52  77
BRANCH  64  89
ATOM     89  C   UNL A   1      49.548  26.697  26.484  1.00  0.00     0.058 A 
ATOM     90  C   UNL A   1      50.059  26.665  25.176  1.00  0.00     0.135 A 
ATOM     91  C   UNL A   1      50.386  26.256  27.522  1.00  0.00     0.135 A 
ATOM     92  F   UNL A   1      49.303  27.073  24.145  1.00  0.00    -0.206 F 
ATOM     93  C   UNL A   1      51.330  26.168  24.903  1.00  0.00     0.059 A 
ATOM     94  C   UNL A   1      51.674  25.790  27.277  1.00  0.00     0.059 A 
ATOM     95  F   UNL A   1      49.958  26.281  28.794  1.00  0.00    -0.206 F 
ATOM     96  C   UNL A   1      52.128  25.729  25.962  1.00  0.00     0.060 A 
BRANCH  96  97
ATOM     97  S   UNL A   1      53.772  25.080  25.595  1.00  0.00     0.124 S 
ATOM     98  O   UNL A   1      54.213  25.977  24.532  1.00  0.00    -0.237 OA
ATOM     99  O   UNL A   1      54.459  25.228  26.874  1.00  0.00    -0.237 OA
ATOM    100  O   UNL A   1      53.513  23.704  25.186  1.00  0.00    -0.744 OA
ENDBRANCH  96  97
ENDBRANCH  64  89
ENDBRANCH  38  39
ENDBRANCH  31  33
ENDBRANCH  30  31
ENDBRANCH  29  30
ENDBRANCH   1  29
TORSDOF 20
ENDMDL
