MODEL 1
REMARK VINA RESULT:     -10.6      0.000      0.000
REMARK SMILES Cc1ncccc1C(=O)N1CC[C@H](C(=O)OCCOCCOC(=O)c2ccc(-c3c4nc(c(-c5c(F)cc(S(=O)(=O)[O-])cc5F)c5ccc([nH]5)c(-c5c(F)cc(S(=O)(=O)[O-])cc5F)c5nc(c(-c6c(F)cc(S(=O)(=O)[O-])cc6F)c6ccc3[nH]6)C=C5)C=C4)cc2)C1
REMARK SMILES IDX 20 1 19 2 18 3 17 4 16 5 14 6 15 7 13 8 10 9 11 10 91 11
REMARK SMILES IDX 12 12 8 13 9 14 7 15 1 16 2 17 3 18 4 19 6 20 5 21 21 22
REMARK SMILES IDX 22 23 23 24 24 25 25 26 26 27 90 28 27 29 89 30 28 31 29 32
REMARK SMILES IDX 30 33 83 34 31 35 88 36 82 37 84 38 32 39 87 40 81 41 80 42
REMARK SMILES IDX 33 44 67 45 46 46 66 47 47 48 50 49 65 50 85 51 48 52 49 53
REMARK SMILES IDX 64 55 86 56 51 57 34 58 35 59 44 60 36 61 37 62 43 63 45 64
REMARK SMILES IDX 38 65 39 66 40 67 41 68 42 69 68 70 69 71 78 72 70 73 71 74
REMARK SMILES IDX 77 75 79 76 72 77 73 78 74 79 75 80 76 81 52 82 53 83 62 84
REMARK SMILES IDX 54 85 55 86 61 87 63 88 56 89 57 90 58 91 59 92 60 93
REMARK H PARENT 84 43 50 54
REMARK Flexibility Score: inf
ROOT
ATOM      1  C   UNL A   1      33.520  29.897  26.970  1.00  0.00     0.202 C 
ENDROOT
BRANCH   1   2
ATOM      2  O   UNL A   1      32.265  30.564  26.852  1.00  0.00    -0.374 OA
BRANCH   2   3
ATOM      3  C   UNL A   1      31.511  30.332  25.662  1.00  0.00     0.202 C 
BRANCH   3   4
ATOM      4  C   UNL A   1      32.127  29.377  24.633  1.00  0.00     0.261 C 
BRANCH   4   5
ATOM      5  O   UNL A   1      31.142  28.521  24.027  1.00  0.00    -0.463 OA
BRANCH   5   6
ATOM      6  C   UNL A   1      31.472  27.205  23.932  1.00  0.00     0.310 C 
ATOM      7  O   UNL A   1      30.770  26.336  23.430  1.00  0.00    -0.252 OA
BRANCH   6   8
ATOM      8  C   UNL A   1      32.814  26.892  24.555  1.00  0.00     0.120 C 
ATOM      9  N   UNL A   1      34.107  24.935  24.282  1.00  0.00    -0.338 N 
ATOM     10  C   UNL A   1      34.059  25.184  25.706  1.00  0.00     0.121 C 
ATOM     11  C   UNL A   1      33.650  26.106  23.555  1.00  0.00     0.135 C 
ATOM     12  C   UNL A   1      32.811  26.045  25.842  1.00  0.00     0.039 C 
BRANCH   9  13
ATOM     13  C   UNL A   1      34.584  23.858  23.567  1.00  0.00     0.255 C 
ATOM     14  O   UNL A   1      34.414  23.809  22.346  1.00  0.00    -0.269 OA
BRANCH  13  15
ATOM     15  C   UNL A   1      35.265  22.702  24.207  1.00  0.00     0.061 A 
ATOM     16  C   UNL A   1      33.197  21.204  24.515  1.00  0.00     0.067 C 
ATOM     17  C   UNL A   1      34.663  21.498  24.592  1.00  0.00     0.050 A 
ATOM     18  N   UNL A   1      35.393  20.429  25.027  1.00  0.00    -0.261 NA
ATOM     19  C   UNL A   1      36.739  20.502  24.964  1.00  0.00     0.111 A 
ATOM     20  C   UNL A   1      36.671  22.741  24.187  1.00  0.00     0.017 A 
ATOM     21  C   UNL A   1      37.419  21.627  24.550  1.00  0.00     0.021 A 
ENDBRANCH  13  15
ENDBRANCH   9  13
ENDBRANCH   6   8
ENDBRANCH   5   6
ENDBRANCH   4   5
ENDBRANCH   3   4
ENDBRANCH   2   3
ENDBRANCH   1   2
BRANCH   1  22
ATOM     22  C   UNL A   1      34.616  30.605  27.777  1.00  0.00     0.261 C 
BRANCH  22  23
ATOM     23  O   UNL A   1      35.554  29.691  28.372  1.00  0.00    -0.460 OA
BRANCH  23  24
ATOM     24  C   UNL A   1      36.255  30.203  29.414  1.00  0.00     0.338 C 
ATOM     25  O   UNL A   1      35.799  30.656  30.456  1.00  0.00    -0.246 OA
BRANCH  24  26
ATOM     26  C   UNL A   1      37.699  29.990  29.213  1.00  0.00     0.060 A 
ATOM     27  C   UNL A   1      38.153  29.839  27.896  1.00  0.00     0.016 A 
ATOM     28  C   UNL A   1      38.586  29.872  30.285  1.00  0.00     0.016 A 
ATOM     29  C   UNL A   1      39.491  29.539  27.647  1.00  0.00     0.010 A 
ATOM     30  C   UNL A   1      39.928  29.562  30.033  1.00  0.00     0.010 A 
ATOM     31  C   UNL A   1      40.383  29.371  28.715  1.00  0.00    -0.014 A 
BRANCH  31  32
ATOM     32  C   UNL A   1      41.771  28.917  28.454  1.00  0.00     0.031 A 
ATOM     33  C   UNL A   1      42.896  29.914  28.481  1.00  0.00     0.074 A 
ATOM     34  C   UNL A   1      42.024  27.619  28.204  1.00  0.00     0.049 A 
ATOM     35  N   UNL A   1      44.168  29.734  28.234  1.00  0.00    -0.248 NA
ATOM     36  C   UNL A   1      42.541  31.298  28.834  1.00  0.00     0.031 C 
ATOM     37  C   UNL A   1      41.021  26.556  28.181  1.00  0.00     0.029 A 
ATOM     38  N   UNL A   1      43.201  26.979  27.907  1.00  0.00    -0.354 N 
ATOM     39  C   UNL A   1      44.767  30.977  28.394  1.00  0.00     0.074 A 
ATOM     40  C   UNL A   1      43.713  31.910  28.739  1.00  0.00     0.031 C 
ATOM     41  C   UNL A   1      41.622  25.396  27.866  1.00  0.00     0.029 A 
ATOM     42  C   UNL A   1      43.044  25.642  27.633  1.00  0.00     0.049 A 
ATOM     43  H   UNL A   1      44.073  27.434  27.891  1.00  0.00     0.167 HD
ATOM     44  C   UNL A   1      46.074  31.309  28.269  1.00  0.00     0.037 A 
ATOM     45  C   UNL A   1      43.938  24.726  27.212  1.00  0.00     0.037 A 
ATOM     46  C   UNL A   1      47.116  30.377  27.923  1.00  0.00     0.049 A 
ATOM     47  C   UNL A   1      45.374  25.133  27.009  1.00  0.00     0.074 A 
ATOM     48  C   UNL A   1      48.475  30.609  27.810  1.00  0.00     0.029 A 
ATOM     49  N   UNL A   1      46.914  29.038  27.620  1.00  0.00    -0.354 N 
ATOM     50  N   UNL A   1      45.933  26.305  27.200  1.00  0.00    -0.248 NA
ATOM     51  C   UNL A   1      46.300  24.096  26.531  1.00  0.00     0.031 C 
ATOM     52  C   UNL A   1      49.089  29.424  27.387  1.00  0.00     0.029 A 
ATOM     53  C   UNL A   1      48.119  28.441  27.285  1.00  0.00     0.049 A 
ATOM     54  H   UNL A   1      46.043  28.579  27.641  1.00  0.00     0.167 HD
ATOM     55  C   UNL A   1      47.277  26.143  26.880  1.00  0.00     0.074 A 
ATOM     56  C   UNL A   1      47.451  24.756  26.498  1.00  0.00     0.031 C 
ATOM     57  C   UNL A   1      48.276  27.059  26.898  1.00  0.00     0.037 A 
BRANCH  44  58
ATOM     58  C   UNL A   1      46.452  32.750  28.479  1.00  0.00     0.058 A 
ATOM     59  C   UNL A   1      46.840  33.236  29.738  1.00  0.00     0.135 A 
ATOM     60  C   UNL A   1      46.463  33.646  27.398  1.00  0.00     0.135 A 
ATOM     61  F   UNL A   1      46.831  32.426  30.808  1.00  0.00    -0.206 F 
ATOM     62  C   UNL A   1      47.203  34.567  29.922  1.00  0.00     0.059 A 
ATOM     63  C   UNL A   1      46.847  34.975  27.555  1.00  0.00     0.059 A 
ATOM     64  F   UNL A   1      46.101  33.232  26.174  1.00  0.00    -0.206 F 
ATOM     65  C   UNL A   1      47.202  35.429  28.824  1.00  0.00     0.060 A 
BRANCH  65  66
ATOM     66  S   UNL A   1      47.678  37.152  29.078  1.00  0.00     0.124 S 
ATOM     67  O   UNL A   1      49.059  37.145  28.607  1.00  0.00    -0.237 OA
ATOM     68  O   UNL A   1      46.725  37.868  28.236  1.00  0.00    -0.237 OA
ATOM     69  O   UNL A   1      47.507  37.344  30.515  1.00  0.00    -0.744 OA
ENDBRANCH  65  66
ENDBRANCH  44  58
BRANCH  45  70
ATOM     70  C   UNL A   1      43.493  23.336  26.925  1.00  0.00     0.058 A 
ATOM     71  C   UNL A   1      43.327  22.884  25.609  1.00  0.00     0.135 A 
ATOM     72  C   UNL A   1      43.238  22.429  27.966  1.00  0.00     0.135 A 
ATOM     73  F   UNL A   1      43.546  23.717  24.581  1.00  0.00    -0.206 F 
ATOM     74  C   UNL A   1      42.917  21.583  25.333  1.00  0.00     0.059 A 
ATOM     75  C   UNL A   1      42.852  21.117  27.716  1.00  0.00     0.059 A 
ATOM     76  F   UNL A   1      43.390  22.812  29.244  1.00  0.00    -0.206 F 
ATOM     77  C   UNL A   1      42.685  20.706  26.394  1.00  0.00     0.060 A 
BRANCH  77  78
ATOM     78  S   UNL A   1      42.208  19.004  26.024  1.00  0.00     0.124 S 
ATOM     79  O   UNL A   1      42.564  18.324  27.263  1.00  0.00    -0.237 OA
ATOM     80  O   UNL A   1      40.780  19.137  25.756  1.00  0.00    -0.237 OA
ATOM     81  O   UNL A   1      43.028  18.671  24.863  1.00  0.00    -0.744 OA
ENDBRANCH  77  78
ENDBRANCH  45  70
BRANCH  57  82
ATOM     82  C   UNL A   1      49.652  26.596  26.504  1.00  0.00     0.058 A 
ATOM     83  C   UNL A   1      50.474  25.894  27.399  1.00  0.00     0.135 A 
ATOM     84  C   UNL A   1      50.131  26.806  25.200  1.00  0.00     0.135 A 
ATOM     85  F   UNL A   1      50.067  25.672  28.658  1.00  0.00    -0.206 F 
ATOM     86  C   UNL A   1      51.731  25.431  27.020  1.00  0.00     0.059 A 
ATOM     87  C   UNL A   1      51.375  26.331  24.793  1.00  0.00     0.059 A 
ATOM     88  F   UNL A   1      49.381  27.465  24.302  1.00  0.00    -0.206 F 
ATOM     89  C   UNL A   1      52.171  25.652  25.714  1.00  0.00     0.060 A 
BRANCH  89  90
ATOM     90  S   UNL A   1      53.786  25.010  25.225  1.00  0.00     0.124 S 
ATOM     91  O   UNL A   1      54.630  25.468  26.324  1.00  0.00    -0.237 OA
ATOM     92  O   UNL A   1      53.548  23.571  25.166  1.00  0.00    -0.237 OA
ATOM     93  O   UNL A   1      54.031  25.652  23.936  1.00  0.00    -0.744 OA
ENDBRANCH  89  90
ENDBRANCH  57  82
ENDBRANCH  31  32
ENDBRANCH  24  26
ENDBRANCH  23  24
ENDBRANCH  22  23
ENDBRANCH   1  22
TORSDOF 19
ENDMDL
MODEL 2
REMARK VINA RESULT:     -10.5      1.209      2.165
REMARK SMILES Cc1ncccc1C(=O)N1CC[C@H](C(=O)OCCOCCOC(=O)c2ccc(-c3c4nc(c(-c5c(F)cc(S(=O)(=O)[O-])cc5F)c5ccc([nH]5)c(-c5c(F)cc(S(=O)(=O)[O-])cc5F)c5nc(c(-c6c(F)cc(S(=O)(=O)[O-])cc6F)c6ccc3[nH]6)C=C5)C=C4)cc2)C1
REMARK SMILES IDX 20 1 19 2 18 3 17 4 16 5 14 6 15 7 13 8 10 9 11 10 91 11
REMARK SMILES IDX 12 12 8 13 9 14 7 15 1 16 2 17 3 18 4 19 6 20 5 21 21 22
REMARK SMILES IDX 22 23 23 24 24 25 25 26 26 27 90 28 27 29 89 30 28 31 29 32
REMARK SMILES IDX 30 33 83 34 31 35 88 36 82 37 84 38 32 39 87 40 81 41 80 42
REMARK SMILES IDX 33 44 67 45 46 46 66 47 47 48 50 49 65 50 85 51 48 52 49 53
REMARK SMILES IDX 64 55 86 56 51 57 34 58 35 59 44 60 36 61 37 62 43 63 45 64
REMARK SMILES IDX 38 65 39 66 40 67 41 68 42 69 68 70 69 71 78 72 70 73 71 74
REMARK SMILES IDX 77 75 79 76 72 77 73 78 74 79 75 80 76 81 52 82 53 83 62 84
REMARK SMILES IDX 54 85 55 86 61 87 63 88 56 89 57 90 58 91 59 92 60 93
REMARK H PARENT 84 43 50 54
REMARK Flexibility Score: inf
ROOT
ATOM      1  C   UNL A   1      34.633  30.885  27.990  1.00  0.00     0.202 C 
ENDROOT
BRANCH   1   2
ATOM      2  O   UNL A   1      33.384  30.843  27.303  1.00  0.00    -0.374 OA
BRANCH   2   3
ATOM      3  C   UNL A   1      32.967  29.580  26.783  1.00  0.00     0.202 C 
BRANCH   3   4
ATOM      4  C   UNL A   1      32.176  29.604  25.470  1.00  0.00     0.261 C 
BRANCH   4   5
ATOM      5  O   UNL A   1      31.755  28.289  25.065  1.00  0.00    -0.463 OA
BRANCH   5   6
ATOM      6  C   UNL A   1      30.628  28.230  24.307  1.00  0.00     0.310 C 
ATOM      7  O   UNL A   1      30.077  29.192  23.784  1.00  0.00    -0.252 OA
BRANCH   6   8
ATOM      8  C   UNL A   1      30.074  26.828  24.189  1.00  0.00     0.120 C 
ATOM      9  N   UNL A   1      30.939  24.853  25.153  1.00  0.00    -0.338 N 
ATOM     10  C   UNL A   1      30.684  24.539  23.764  1.00  0.00     0.121 C 
ATOM     11  C   UNL A   1      30.288  26.101  25.510  1.00  0.00     0.135 C 
ATOM     12  C   UNL A   1      30.695  25.915  23.114  1.00  0.00     0.039 C 
BRANCH   9  13
ATOM     13  C   UNL A   1      31.580  24.137  26.140  1.00  0.00     0.255 C 
ATOM     14  O   UNL A   1      31.055  24.017  27.250  1.00  0.00    -0.269 OA
BRANCH  13  15
ATOM     15  C   UNL A   1      32.924  23.530  25.953  1.00  0.00     0.061 A 
ATOM     16  C   UNL A   1      32.153  21.170  25.282  1.00  0.00     0.067 C 
ATOM     17  C   UNL A   1      33.189  22.223  25.528  1.00  0.00     0.050 A 
ATOM     18  N   UNL A   1      34.452  21.798  25.231  1.00  0.00    -0.261 NA
ATOM     19  C   UNL A   1      35.451  22.705  25.231  1.00  0.00     0.111 A 
ATOM     20  C   UNL A   1      34.003  24.433  25.968  1.00  0.00     0.017 A 
ATOM     21  C   UNL A   1      35.276  24.026  25.586  1.00  0.00     0.021 A 
ENDBRANCH  13  15
ENDBRANCH   9  13
ENDBRANCH   6   8
ENDBRANCH   5   6
ENDBRANCH   4   5
ENDBRANCH   3   4
ENDBRANCH   2   3
ENDBRANCH   1   2
BRANCH   1  22
ATOM     22  C   UNL A   1      34.876  32.076  28.927  1.00  0.00     0.261 C 
BRANCH  22  23
ATOM     23  O   UNL A   1      36.239  32.167  29.376  1.00  0.00    -0.460 OA
BRANCH  23  24
ATOM     24  C   UNL A   1      36.601  31.218  30.275  1.00  0.00     0.338 C 
ATOM     25  O   UNL A   1      35.953  30.834  31.240  1.00  0.00    -0.246 OA
BRANCH  24  26
ATOM     26  C   UNL A   1      37.843  30.553  29.845  1.00  0.00     0.060 A 
ATOM     27  C   UNL A   1      38.810  30.293  30.825  1.00  0.00     0.016 A 
ATOM     28  C   UNL A   1      38.094  30.250  28.505  1.00  0.00     0.016 A 
ATOM     29  C   UNL A   1      40.044  29.754  30.465  1.00  0.00     0.010 A 
ATOM     30  C   UNL A   1      39.338  29.718  28.145  1.00  0.00     0.010 A 
ATOM     31  C   UNL A   1      40.328  29.489  29.119  1.00  0.00    -0.014 A 
BRANCH  31  32
ATOM     32  C   UNL A   1      41.688  29.047  28.723  1.00  0.00     0.031 A 
ATOM     33  C   UNL A   1      42.805  30.049  28.656  1.00  0.00     0.074 A 
ATOM     34  C   UNL A   1      41.922  27.753  28.434  1.00  0.00     0.049 A 
ATOM     35  N   UNL A   1      44.049  29.880  28.289  1.00  0.00    -0.248 NA
ATOM     36  C   UNL A   1      42.479  31.427  29.058  1.00  0.00     0.031 C 
ATOM     37  C   UNL A   1      40.926  26.684  28.493  1.00  0.00     0.029 A 
ATOM     38  N   UNL A   1      43.068  27.123  28.021  1.00  0.00    -0.354 N 
ATOM     39  C   UNL A   1      44.655  31.125  28.407  1.00  0.00     0.074 A 
ATOM     40  C   UNL A   1      43.634  32.047  28.860  1.00  0.00     0.031 C 
ATOM     41  C   UNL A   1      41.500  25.532  28.108  1.00  0.00     0.029 A 
ATOM     42  C   UNL A   1      42.893  25.788  27.746  1.00  0.00     0.049 A 
ATOM     43  H   UNL A   1      43.934  27.584  27.929  1.00  0.00     0.167 HD
ATOM     44  C   UNL A   1      45.943  31.465  28.164  1.00  0.00     0.037 A 
ATOM     45  C   UNL A   1      43.748  24.882  27.232  1.00  0.00     0.037 A 
ATOM     46  C   UNL A   1      46.952  30.543  27.711  1.00  0.00     0.049 A 
ATOM     47  C   UNL A   1      45.157  25.300  26.901  1.00  0.00     0.074 A 
ATOM     48  C   UNL A   1      48.294  30.785  27.473  1.00  0.00     0.029 A 
ATOM     49  N   UNL A   1      46.729  29.207  27.412  1.00  0.00    -0.354 N 
ATOM     50  N   UNL A   1      45.726  26.473  27.053  1.00  0.00    -0.248 NA
ATOM     51  C   UNL A   1      46.039  24.274  26.325  1.00  0.00     0.031 C 
ATOM     52  C   UNL A   1      48.871  29.609  26.981  1.00  0.00     0.029 A 
ATOM     53  C   UNL A   1      47.899  28.621  26.958  1.00  0.00     0.049 A 
ATOM     54  H   UNL A   1      45.866  28.743  27.508  1.00  0.00     0.167 HD
ATOM     55  C   UNL A   1      47.035  26.323  26.606  1.00  0.00     0.074 A 
ATOM     56  C   UNL A   1      47.178  24.941  26.193  1.00  0.00     0.031 C 
ATOM     57  C   UNL A   1      48.026  27.245  26.541  1.00  0.00     0.037 A 
BRANCH  44  58
ATOM     58  C   UNL A   1      46.332  32.906  28.356  1.00  0.00     0.058 A 
ATOM     59  C   UNL A   1      46.232  33.843  27.315  1.00  0.00     0.135 A 
ATOM     60  C   UNL A   1      46.771  33.362  29.609  1.00  0.00     0.135 A 
ATOM     61  F   UNL A   1      45.832  33.457  26.093  1.00  0.00    -0.206 F 
ATOM     62  C   UNL A   1      46.579  35.177  27.504  1.00  0.00     0.059 A 
ATOM     63  C   UNL A   1      47.100  34.697  29.827  1.00  0.00     0.059 A 
ATOM     64  F   UNL A   1      46.884  32.507  30.637  1.00  0.00    -0.206 F 
ATOM     65  C   UNL A   1      47.013  35.595  28.764  1.00  0.00     0.060 A 
BRANCH  65  66
ATOM     66  S   UNL A   1      47.457  37.329  28.994  1.00  0.00     0.124 S 
ATOM     67  O   UNL A   1      46.682  37.971  27.936  1.00  0.00    -0.237 OA
ATOM     68  O   UNL A   1      47.004  37.590  30.357  1.00  0.00    -0.237 OA
ATOM     69  O   UNL A   1      48.904  37.339  28.805  1.00  0.00    -0.744 OA
ENDBRANCH  65  66
ENDBRANCH  44  58
BRANCH  45  70
ATOM     70  C   UNL A   1      43.285  23.494  26.971  1.00  0.00     0.058 A 
ATOM     71  C   UNL A   1      43.020  23.049  25.669  1.00  0.00     0.135 A 
ATOM     72  C   UNL A   1      43.111  22.580  28.024  1.00  0.00     0.135 A 
ATOM     73  F   UNL A   1      43.158  23.889  24.632  1.00  0.00    -0.206 F 
ATOM     74  C   UNL A   1      42.592  21.750  25.418  1.00  0.00     0.059 A 
ATOM     75  C   UNL A   1      42.709  21.269  27.795  1.00  0.00     0.059 A 
ATOM     76  F   UNL A   1      43.359  22.955  29.288  1.00  0.00    -0.206 F 
ATOM     77  C   UNL A   1      42.443  20.866  26.488  1.00  0.00     0.060 A 
BRANCH  77  78
ATOM     78  S   UNL A   1      41.942  19.165  26.144  1.00  0.00     0.124 S 
ATOM     79  O   UNL A   1      42.784  18.836  25.000  1.00  0.00    -0.237 OA
ATOM     80  O   UNL A   1      42.272  18.489  27.395  1.00  0.00    -0.237 OA
ATOM     81  O   UNL A   1      40.514  19.286  25.864  1.00  0.00    -0.744 OA
ENDBRANCH  77  78
ENDBRANCH  45  70
BRANCH  57  82
ATOM     82  C   UNL A   1      49.361  26.794  26.014  1.00  0.00     0.058 A 
ATOM     83  C   UNL A   1      49.728  26.999  24.675  1.00  0.00     0.135 A 
ATOM     84  C   UNL A   1      50.305  26.202  26.869  1.00  0.00     0.135 A 
ATOM     85  F   UNL A   1      48.861  27.555  23.814  1.00  0.00    -0.206 F 
ATOM     86  C   UNL A   1      50.979  26.618  24.197  1.00  0.00     0.059 A 
ATOM     87  C   UNL A   1      51.570  25.835  26.419  1.00  0.00     0.059 A 
ATOM     88  F   UNL A   1      50.008  25.990  28.162  1.00  0.00    -0.206 F 
ATOM     89  C   UNL A   1      51.894  26.039  25.079  1.00  0.00     0.060 A 
BRANCH  89  90
ATOM     90  S   UNL A   1      53.527  25.586  24.456  1.00  0.00     0.124 S 
ATOM     91  O   UNL A   1      53.436  26.003  23.060  1.00  0.00    -0.237 OA
ATOM     92  O   UNL A   1      54.416  26.381  25.297  1.00  0.00    -0.237 OA
ATOM     93  O   UNL A   1      53.588  24.145  24.678  1.00  0.00    -0.744 OA
ENDBRANCH  89  90
ENDBRANCH  57  82
ENDBRANCH  31  32
ENDBRANCH  24  26
ENDBRANCH  23  24
ENDBRANCH  22  23
ENDBRANCH   1  22
TORSDOF 19
ENDMDL
MODEL 3
REMARK VINA RESULT:     -10.5      5.095      9.518
REMARK SMILES Cc1ncccc1C(=O)N1CC[C@H](C(=O)OCCOCCOC(=O)c2ccc(-c3c4nc(c(-c5c(F)cc(S(=O)(=O)[O-])cc5F)c5ccc([nH]5)c(-c5c(F)cc(S(=O)(=O)[O-])cc5F)c5nc(c(-c6c(F)cc(S(=O)(=O)[O-])cc6F)c6ccc3[nH]6)C=C5)C=C4)cc2)C1
REMARK SMILES IDX 20 1 19 2 18 3 17 4 16 5 14 6 15 7 13 8 10 9 11 10 91 11
REMARK SMILES IDX 12 12 8 13 9 14 7 15 1 16 2 17 3 18 4 19 6 20 5 21 21 22
REMARK SMILES IDX 22 23 23 24 24 25 25 26 26 27 90 28 27 29 89 30 28 31 29 32
REMARK SMILES IDX 30 33 83 34 31 35 88 36 82 37 84 38 32 39 87 40 81 41 80 42
REMARK SMILES IDX 33 44 67 45 46 46 66 47 47 48 50 49 65 50 85 51 48 52 49 53
REMARK SMILES IDX 64 55 86 56 51 57 34 58 35 59 44 60 36 61 37 62 43 63 45 64
REMARK SMILES IDX 38 65 39 66 40 67 41 68 42 69 68 70 69 71 78 72 70 73 71 74
REMARK SMILES IDX 77 75 79 76 72 77 73 78 74 79 75 80 76 81 52 82 53 83 62 84
REMARK SMILES IDX 54 85 55 86 61 87 63 88 56 89 57 90 58 91 59 92 60 93
REMARK H PARENT 84 43 50 54
REMARK Flexibility Score: inf
ROOT
ATOM      1  C   UNL A   1      32.017  28.095  27.652  1.00  0.00     0.202 C 
ENDROOT
BRANCH   1   2
ATOM      2  O   UNL A   1      31.102  27.211  27.009  1.00  0.00    -0.374 OA
BRANCH   2   3
ATOM      3  C   UNL A   1      31.541  26.578  25.806  1.00  0.00     0.202 C 
BRANCH   3   4
ATOM      4  C   UNL A   1      30.691  25.411  25.293  1.00  0.00     0.261 C 
BRANCH   4   5
ATOM      5  O   UNL A   1      31.417  24.169  25.291  1.00  0.00    -0.463 OA
BRANCH   5   6
ATOM      6  C   UNL A   1      31.346  23.433  26.432  1.00  0.00     0.310 C 
ATOM      7  O   UNL A   1      30.539  23.610  27.337  1.00  0.00    -0.252 OA
BRANCH   6   8
ATOM      8  C   UNL A   1      32.409  22.360  26.504  1.00  0.00     0.120 C 
ATOM      9  N   UNL A   1      34.533  22.366  25.471  1.00  0.00    -0.338 N 
ATOM     10  C   UNL A   1      33.951  21.076  25.176  1.00  0.00     0.121 C 
ATOM     11  C   UNL A   1      33.779  23.024  26.523  1.00  0.00     0.135 C 
ATOM     12  C   UNL A   1      32.463  21.345  25.347  1.00  0.00     0.039 C 
BRANCH   9  13
ATOM     13  C   UNL A   1      35.678  22.972  25.001  1.00  0.00     0.255 C 
ATOM     14  O   UNL A   1      35.631  23.661  23.979  1.00  0.00    -0.269 OA
BRANCH  13  15
ATOM     15  C   UNL A   1      37.006  22.798  25.645  1.00  0.00     0.061 A 
ATOM     16  C   UNL A   1      37.482  20.407  24.825  1.00  0.00     0.067 C 
ATOM     17  C   UNL A   1      37.837  21.676  25.536  1.00  0.00     0.050 A 
ATOM     18  N   UNL A   1      39.110  21.665  26.030  1.00  0.00    -0.261 NA
ATOM     19  C   UNL A   1      39.615  22.813  26.528  1.00  0.00     0.111 A 
ATOM     20  C   UNL A   1      37.568  23.963  26.199  1.00  0.00     0.017 A 
ATOM     21  C   UNL A   1      38.890  23.980  26.629  1.00  0.00     0.021 A 
ENDBRANCH  13  15
ENDBRANCH   9  13
ENDBRANCH   6   8
ENDBRANCH   5   6
ENDBRANCH   4   5
ENDBRANCH   3   4
ENDBRANCH   2   3
ENDBRANCH   1   2
BRANCH   1  22
ATOM     22  C   UNL A   1      32.336  29.414  26.935  1.00  0.00     0.261 C 
BRANCH  22  23
ATOM     23  O   UNL A   1      33.744  29.600  26.704  1.00  0.00    -0.460 OA
BRANCH  23  24
ATOM     24  C   UNL A   1      34.305  30.603  27.425  1.00  0.00     0.338 C 
ATOM     25  O   UNL A   1      33.790  31.674  27.718  1.00  0.00    -0.246 OA
BRANCH  24  26
ATOM     26  C   UNL A   1      35.600  30.172  27.980  1.00  0.00     0.060 A 
ATOM     27  C   UNL A   1      35.600  29.620  29.267  1.00  0.00     0.016 A 
ATOM     28  C   UNL A   1      36.800  30.363  27.291  1.00  0.00     0.016 A 
ATOM     29  C   UNL A   1      36.804  29.283  29.884  1.00  0.00     0.010 A 
ATOM     30  C   UNL A   1      38.008  30.033  27.916  1.00  0.00     0.010 A 
ATOM     31  C   UNL A   1      38.019  29.513  29.224  1.00  0.00    -0.014 A 
BRANCH  31  32
ATOM     32  C   UNL A   1      39.301  29.282  29.934  1.00  0.00     0.031 A 
ATOM     33  C   UNL A   1      40.226  28.195  29.464  1.00  0.00     0.074 A 
ATOM     34  C   UNL A   1      39.638  30.048  30.988  1.00  0.00     0.049 A 
ATOM     35  N   UNL A   1      41.365  27.801  29.971  1.00  0.00    -0.248 NA
ATOM     36  C   UNL A   1      39.814  27.454  28.261  1.00  0.00     0.031 C 
ATOM     37  C   UNL A   1      38.837  31.151  31.517  1.00  0.00     0.029 A 
ATOM     38  N   UNL A   1      40.736  30.004  31.810  1.00  0.00    -0.354 N 
ATOM     39  C   UNL A   1      41.806  26.764  29.158  1.00  0.00     0.074 A 
ATOM     40  C   UNL A   1      40.798  26.575  28.134  1.00  0.00     0.031 C 
ATOM     41  C   UNL A   1      39.461  31.668  32.590  1.00  0.00     0.029 A 
ATOM     42  C   UNL A   1      40.687  30.911  32.841  1.00  0.00     0.049 A 
ATOM     43  H   UNL A   1      41.487  29.381  31.674  1.00  0.00     0.167 HD
ATOM     44  C   UNL A   1      42.946  26.039  29.254  1.00  0.00     0.037 A 
ATOM     45  C   UNL A   1      41.519  31.093  33.885  1.00  0.00     0.037 A 
ATOM     46  C   UNL A   1      43.943  26.230  30.276  1.00  0.00     0.049 A 
ATOM     47  C   UNL A   1      42.745  30.227  34.013  1.00  0.00     0.074 A 
ATOM     48  C   UNL A   1      45.149  25.572  30.435  1.00  0.00     0.029 A 
ATOM     49  N   UNL A   1      43.842  27.137  31.323  1.00  0.00    -0.354 N 
ATOM     50  N   UNL A   1      43.168  29.274  33.216  1.00  0.00    -0.248 NA
ATOM     51  C   UNL A   1      43.605  30.457  35.183  1.00  0.00     0.031 C 
ATOM     52  C   UNL A   1      45.755  26.043  31.606  1.00  0.00     0.029 A 
ATOM     53  C   UNL A   1      44.948  27.029  32.150  1.00  0.00     0.049 A 
ATOM     54  H   UNL A   1      43.096  27.764  31.457  1.00  0.00     0.167 HD
ATOM     55  C   UNL A   1      44.349  28.802  33.778  1.00  0.00     0.074 A 
ATOM     56  C   UNL A   1      44.582  29.584  34.976  1.00  0.00     0.031 C 
ATOM     57  C   UNL A   1      45.164  27.809  33.345  1.00  0.00     0.037 A 
BRANCH  44  58
ATOM     58  C   UNL A   1      43.168  24.949  28.242  1.00  0.00     0.058 A 
ATOM     59  C   UNL A   1      43.680  25.221  26.963  1.00  0.00     0.135 A 
ATOM     60  C   UNL A   1      42.901  23.610  28.571  1.00  0.00     0.135 A 
ATOM     61  F   UNL A   1      43.937  26.485  26.592  1.00  0.00    -0.206 F 
ATOM     62  C   UNL A   1      43.896  24.204  26.037  1.00  0.00     0.059 A 
ATOM     63  C   UNL A   1      43.134  22.575  27.669  1.00  0.00     0.059 A 
ATOM     64  F   UNL A   1      42.411  23.296  29.780  1.00  0.00    -0.206 F 
ATOM     65  C   UNL A   1      43.620  22.885  26.399  1.00  0.00     0.060 A 
BRANCH  65  66
ATOM     66  S   UNL A   1      43.908  21.578  25.188  1.00  0.00     0.124 S 
ATOM     67  O   UNL A   1      43.803  22.316  23.933  1.00  0.00    -0.237 OA
ATOM     68  O   UNL A   1      45.247  21.115  25.539  1.00  0.00    -0.237 OA
ATOM     69  O   UNL A   1      42.832  20.628  25.448  1.00  0.00    -0.744 OA
ENDBRANCH  65  66
ENDBRANCH  44  58
BRANCH  45  70
ATOM     70  C   UNL A   1      41.203  32.121  34.912  1.00  0.00     0.058 A 
ATOM     71  C   UNL A   1      41.754  33.408  34.845  1.00  0.00     0.135 A 
ATOM     72  C   UNL A   1      40.329  31.837  35.974  1.00  0.00     0.135 A 
ATOM     73  F   UNL A   1      42.604  33.723  33.856  1.00  0.00    -0.206 F 
ATOM     74  C   UNL A   1      41.457  34.376  35.799  1.00  0.00     0.059 A 
ATOM     75  C   UNL A   1      39.997  32.795  36.925  1.00  0.00     0.059 A 
ATOM     76  F   UNL A   1      39.769  30.621  36.078  1.00  0.00    -0.206 F 
ATOM     77  C   UNL A   1      40.574  34.061  36.833  1.00  0.00     0.060 A 
BRANCH  77  78
ATOM     78  S   UNL A   1      40.152  35.343  38.033  1.00  0.00     0.124 S 
ATOM     79  O   UNL A   1      41.421  35.524  38.728  1.00  0.00    -0.237 OA
ATOM     80  O   UNL A   1      39.733  36.444  37.171  1.00  0.00    -0.237 OA
ATOM     81  O   UNL A   1      39.085  34.729  38.818  1.00  0.00    -0.744 OA
ENDBRANCH  77  78
ENDBRANCH  45  70
BRANCH  57  82
ATOM     82  C   UNL A   1      46.393  27.514  34.161  1.00  0.00     0.058 A 
ATOM     83  C   UNL A   1      46.428  26.450  35.075  1.00  0.00     0.135 A 
ATOM     84  C   UNL A   1      47.566  28.267  33.985  1.00  0.00     0.135 A 
ATOM     85  F   UNL A   1      45.333  25.704  35.286  1.00  0.00    -0.206 F 
ATOM     86  C   UNL A   1      47.579  26.152  35.800  1.00  0.00     0.059 A 
ATOM     87  C   UNL A   1      48.735  27.972  34.682  1.00  0.00     0.059 A 
ATOM     88  F   UNL A   1      47.589  29.291  33.117  1.00  0.00    -0.206 F 
ATOM     89  C   UNL A   1      48.728  26.918  35.594  1.00  0.00     0.060 A 
BRANCH  89  90
ATOM     90  S   UNL A   1      50.225  26.496  36.511  1.00  0.00     0.124 S 
ATOM     91  O   UNL A   1      49.773  25.357  37.304  1.00  0.00    -0.237 OA
ATOM     92  O   UNL A   1      51.172  26.188  35.443  1.00  0.00    -0.237 OA
ATOM     93  O   UNL A   1      50.516  27.711  37.265  1.00  0.00    -0.744 OA
ENDBRANCH  89  90
ENDBRANCH  57  82
ENDBRANCH  31  32
ENDBRANCH  24  26
ENDBRANCH  23  24
ENDBRANCH  22  23
ENDBRANCH   1  22
TORSDOF 19
ENDMDL
