MODEL 1
REMARK VINA RESULT:     -11.3      0.000      0.000
REMARK SMILES Cc1ccc(-c2nc(NC(=O)[C@H]3[C@@H](C(=O)OCCOCCOC(=O)c4ccc(-c5c6nc(c(-c7c(F)cc(S(=O)(=O)[O-])cc7F)c7ccc([nH]7)c(-c7c(F)cc(S(=O)(=O)[O-])cc7F)c7nc(c(-c8c(F)cc(S(=O)(=O)[O-])cc8F)c8ccc5[nH]8)C=C7)C=C6)cc4)[C@@H]4CC[C@H]3O4)sc2C)cc1
REMARK SMILES IDX 19 1 18 2 17 3 16 4 14 5 15 6 13 7 12 8 94 9 91 10 93 11
REMARK SMILES IDX 95 12 92 13 10 14 9 15 11 17 8 18 6 19 7 20 97 21 96 22
REMARK SMILES IDX 98 23 5 24 1 25 2 26 3 27 100 28 4 29 99 30 20 31 21 32
REMARK SMILES IDX 22 33 23 34 24 35 25 36 26 37 90 38 27 39 89 40 28 41 29 42
REMARK SMILES IDX 30 43 83 44 31 45 88 46 82 47 84 48 32 49 87 50 81 51 80 52
REMARK SMILES IDX 33 54 67 55 46 56 66 57 47 58 50 59 65 60 85 61 48 62 49 63
REMARK SMILES IDX 64 65 86 66 51 67 34 68 35 69 44 70 36 71 37 72 43 73 45 74
REMARK SMILES IDX 38 75 39 76 40 77 41 78 42 79 68 80 69 81 78 82 70 83 71 84
REMARK SMILES IDX 77 85 79 86 72 87 73 88 74 89 75 90 76 91 52 92 53 93 62 94
REMARK SMILES IDX 54 95 55 96 61 97 63 98 56 99 57 100 58 101 59 102 60 103
REMARK H PARENT 9 16 84 53 50 64
REMARK Flexibility Score: inf
ROOT
ATOM      1  O   UNL A   1      43.326  23.320  29.394  1.00  0.00    -0.374 OA
ENDROOT
BRANCH   1   2
ATOM      2  C   UNL A   1      44.483  23.549  30.209  1.00  0.00     0.202 C 
BRANCH   2   3
ATOM      3  C   UNL A   1      44.122  23.813  31.699  1.00  0.00     0.261 C 
BRANCH   3   4
ATOM      4  O   UNL A   1      44.950  23.607  32.938  1.00  0.00    -0.463 OA
BRANCH   4   5
ATOM      5  C   UNL A   1      45.807  24.038  33.878  1.00  0.00     0.312 C 
ATOM      6  O   UNL A   1      45.648  25.102  34.482  1.00  0.00    -0.252 OA
BRANCH   5   7
ATOM      7  C   UNL A   1      47.010  23.265  34.216  1.00  0.00     0.143 C 
ATOM      8  C   UNL A   1      46.693  21.996  34.901  1.00  0.00     0.124 C 
ATOM      9  C   UNL A   1      48.084  21.651  35.436  1.00  0.00     0.132 C 
ATOM     10  C   UNL A   1      48.103  23.813  35.190  1.00  0.00     0.133 C 
ATOM     11  C   UNL A   1      49.302  21.923  34.507  1.00  0.00     0.035 C 
ATOM     12  O   UNL A   1      48.173  22.827  36.285  1.00  0.00    -0.373 OA
ATOM     13  C   UNL A   1      49.480  23.451  34.657  1.00  0.00     0.036 C 
BRANCH   8  14
ATOM     14  C   UNL A   1      45.773  22.066  36.158  1.00  0.00     0.232 C 
ATOM     15  N   UNL A   1      45.838  21.481  37.388  1.00  0.00    -0.302 N 
ATOM     16  H   UNL A   1      45.251  22.012  37.974  1.00  0.00     0.172 HD
ATOM     17  O   UNL A   1      44.910  22.968  36.071  1.00  0.00    -0.274 OA
BRANCH  15  18
ATOM     18  C   UNL A   1      46.360  20.476  38.175  1.00  0.00     0.190 A 
ATOM     19  C   UNL A   1      46.386  18.413  39.082  1.00  0.00     0.086 A 
ATOM     20  N   UNL A   1      45.754  19.305  38.217  1.00  0.00    -0.220 NA
ATOM     21  C   UNL A   1      47.657  18.820  39.428  1.00  0.00     0.031 A 
ATOM     22  S   UNL A   1      47.923  20.450  38.843  1.00  0.00    -0.101 S 
ATOM     23  C   UNL A   1      48.670  18.109  40.247  1.00  0.00     0.059 C 
BRANCH  19  24
ATOM     24  C   UNL A   1      45.607  17.325  39.736  1.00  0.00     0.001 A 
ATOM     25  C   UNL A   1      42.089  14.364  41.794  1.00  0.00     0.044 C 
ATOM     26  C   UNL A   1      42.678  15.588  41.109  1.00  0.00    -0.051 A 
ATOM     27  C   UNL A   1      43.157  15.355  39.389  1.00  0.00     0.004 A 
ATOM     28  C   UNL A   1      43.606  16.726  42.162  1.00  0.00     0.004 A 
ATOM     29  C   UNL A   1      44.582  16.267  38.694  1.00  0.00     0.010 A 
ATOM     30  C   UNL A   1      45.168  17.466  41.507  1.00  0.00     0.010 A 
ENDBRANCH  19  24
ENDBRANCH  15  18
ENDBRANCH   8  14
ENDBRANCH   5   7
ENDBRANCH   4   5
ENDBRANCH   3   4
ENDBRANCH   2   3
ENDBRANCH   1   2
BRANCH   1  31
ATOM     31  C   UNL A   1      43.490  22.872  28.045  1.00  0.00     0.202 C 
BRANCH  31  32
ATOM     32  C   UNL A   1      42.501  21.848  27.481  1.00  0.00     0.261 C 
BRANCH  32  33
ATOM     33  O   UNL A   1      41.118  22.052  27.863  1.00  0.00    -0.460 OA
BRANCH  33  34
ATOM     34  C   UNL A   1      40.223  22.485  26.914  1.00  0.00     0.338 C 
ATOM     35  O   UNL A   1      39.560  21.720  26.236  1.00  0.00    -0.246 OA
BRANCH  34  36
ATOM     36  C   UNL A   1      39.979  23.954  27.030  1.00  0.00     0.060 A 
ATOM     37  C   UNL A   1      40.689  24.974  26.379  1.00  0.00     0.016 A 
ATOM     38  C   UNL A   1      39.053  24.321  27.966  1.00  0.00     0.016 A 
ATOM     39  C   UNL A   1      40.511  26.343  26.761  1.00  0.00     0.010 A 
ATOM     40  C   UNL A   1      39.220  25.545  28.555  1.00  0.00     0.010 A 
ATOM     41  C   UNL A   1      39.783  26.662  27.926  1.00  0.00    -0.014 A 
BRANCH  41  42
ATOM     42  C   UNL A   1      39.649  28.144  28.762  1.00  0.00     0.031 A 
ATOM     43  C   UNL A   1      38.099  29.647  28.714  1.00  0.00     0.074 A 
ATOM     44  C   UNL A   1      40.814  27.893  29.637  1.00  0.00     0.049 A 
ATOM     45  N   UNL A   1      38.206  31.028  28.815  1.00  0.00    -0.248 NA
ATOM     46  C   UNL A   1      36.425  29.664  28.637  1.00  0.00     0.031 C 
ATOM     47  C   UNL A   1      41.056  28.265  31.078  1.00  0.00     0.029 A 
ATOM     48  N   UNL A   1      42.143  27.531  29.295  1.00  0.00    -0.354 N 
ATOM     49  C   UNL A   1      37.168  31.645  29.421  1.00  0.00     0.074 A 
ATOM     50  C   UNL A   1      36.032  30.826  29.158  1.00  0.00     0.031 C 
ATOM     51  C   UNL A   1      42.330  28.471  31.354  1.00  0.00     0.029 A 
ATOM     52  C   UNL A   1      43.050  28.093  30.193  1.00  0.00     0.049 A 
ATOM     53  H   UNL A   1      42.391  26.963  28.530  1.00  0.00     0.167 HD
ATOM     54  C   UNL A   1      37.379  32.743  30.204  1.00  0.00     0.037 A 
ATOM     55  C   UNL A   1      44.300  28.549  30.036  1.00  0.00     0.037 A 
ATOM     56  C   UNL A   1      38.752  32.848  30.776  1.00  0.00     0.049 A 
ATOM     57  C   UNL A   1      44.266  30.037  30.267  1.00  0.00     0.074 A 
ATOM     58  C   UNL A   1      39.231  32.635  32.065  1.00  0.00     0.029 A 
ATOM     59  N   UNL A   1      39.908  32.987  29.989  1.00  0.00    -0.354 N 
ATOM     60  N   UNL A   1      43.139  30.726  30.199  1.00  0.00    -0.248 NA
ATOM     61  C   UNL A   1      45.404  30.866  30.634  1.00  0.00     0.031 C 
ATOM     62  C   UNL A   1      40.655  32.568  32.032  1.00  0.00     0.029 A 
ATOM     63  C   UNL A   1      41.088  32.805  30.735  1.00  0.00     0.049 A 
ATOM     64  H   UNL A   1      39.895  33.189  29.025  1.00  0.00     0.167 HD
ATOM     65  C   UNL A   1      43.393  32.049  30.419  1.00  0.00     0.074 A 
ATOM     66  C   UNL A   1      44.823  32.078  30.707  1.00  0.00     0.031 C 
ATOM     67  C   UNL A   1      42.456  33.031  30.211  1.00  0.00     0.037 A 
BRANCH  54  68
ATOM     68  C   UNL A   1      36.178  33.550  30.634  1.00  0.00     0.058 A 
ATOM     69  C   UNL A   1      35.370  34.286  29.754  1.00  0.00     0.135 A 
ATOM     70  C   UNL A   1      35.743  33.541  31.983  1.00  0.00     0.135 A 
ATOM     71  F   UNL A   1      35.608  34.306  28.436  1.00  0.00    -0.206 F 
ATOM     72  C   UNL A   1      34.267  35.027  30.198  1.00  0.00     0.059 A 
ATOM     73  C   UNL A   1      34.708  34.333  32.460  1.00  0.00     0.059 A 
ATOM     74  F   UNL A   1      36.302  32.727  32.893  1.00  0.00    -0.206 F 
ATOM     75  C   UNL A   1      33.962  35.066  31.556  1.00  0.00     0.060 A 
BRANCH  75  76
ATOM     76  S   UNL A   1      32.576  36.052  32.145  1.00  0.00     0.124 S 
ATOM     77  O   UNL A   1      31.597  35.032  32.506  1.00  0.00    -0.237 OA
ATOM     78  O   UNL A   1      33.181  36.780  33.254  1.00  0.00    -0.237 OA
ATOM     79  O   UNL A   1      32.221  36.860  30.981  1.00  0.00    -0.744 OA
ENDBRANCH  75  76
ENDBRANCH  54  68
BRANCH  55  80
ATOM     80  C   UNL A   1      45.224  27.503  29.560  1.00  0.00     0.058 A 
ATOM     81  C   UNL A   1      45.744  27.687  28.251  1.00  0.00     0.135 A 
ATOM     82  C   UNL A   1      46.078  26.910  30.499  1.00  0.00     0.135 A 
ATOM     83  F   UNL A   1      44.988  28.273  27.305  1.00  0.00    -0.206 F 
ATOM     84  C   UNL A   1      47.096  27.497  27.958  1.00  0.00     0.059 A 
ATOM     85  C   UNL A   1      47.439  26.747  30.237  1.00  0.00     0.059 A 
ATOM     86  F   UNL A   1      45.652  26.736  31.759  1.00  0.00    -0.206 F 
ATOM     87  C   UNL A   1      47.950  27.110  28.987  1.00  0.00     0.060 A 
BRANCH  87  88
ATOM     88  S   UNL A   1      49.734  27.428  28.820  1.00  0.00     0.124 S 
ATOM     89  O   UNL A   1      49.749  28.710  28.130  1.00  0.00    -0.237 OA
ATOM     90  O   UNL A   1      50.191  27.447  30.210  1.00  0.00    -0.237 OA
ATOM     91  O   UNL A   1      50.185  26.273  28.054  1.00  0.00    -0.744 OA
ENDBRANCH  87  88
ENDBRANCH  55  80
BRANCH  67  92
ATOM     92  C   UNL A   1      42.860  34.370  29.627  1.00  0.00     0.058 A 
ATOM     93  C   UNL A   1      42.946  35.557  30.390  1.00  0.00     0.135 A 
ATOM     94  C   UNL A   1      43.332  34.479  28.302  1.00  0.00     0.135 A 
ATOM     95  F   UNL A   1      42.677  35.584  31.703  1.00  0.00    -0.206 F 
ATOM     96  C   UNL A   1      43.357  36.771  29.851  1.00  0.00     0.059 A 
ATOM     97  C   UNL A   1      43.820  35.667  27.765  1.00  0.00     0.059 A 
ATOM     98  F   UNL A   1      43.360  33.428  27.471  1.00  0.00    -0.206 F 
ATOM     99  C   UNL A   1      43.789  36.818  28.535  1.00  0.00     0.060 A 
BRANCH  99 100
ATOM    100  S   UNL A   1      44.334  38.389  27.855  1.00  0.00     0.124 S 
ATOM    101  O   UNL A   1      44.138  39.278  28.995  1.00  0.00    -0.237 OA
ATOM    102  O   UNL A   1      45.723  38.115  27.499  1.00  0.00    -0.237 OA
ATOM    103  O   UNL A   1      43.435  38.597  26.725  1.00  0.00    -0.744 OA
ENDBRANCH  99 100
ENDBRANCH  67  92
ENDBRANCH  41  42
ENDBRANCH  34  36
ENDBRANCH  33  34
ENDBRANCH  32  33
ENDBRANCH  31  32
ENDBRANCH   1  31
TORSDOF 20
ENDMDL
MODEL 2
REMARK VINA RESULT:     -10.9      4.998     12.569
REMARK SMILES Cc1ccc(-c2nc(NC(=O)[C@H]3[C@@H](C(=O)OCCOCCOC(=O)c4ccc(-c5c6nc(c(-c7c(F)cc(S(=O)(=O)[O-])cc7F)c7ccc([nH]7)c(-c7c(F)cc(S(=O)(=O)[O-])cc7F)c7nc(c(-c8c(F)cc(S(=O)(=O)[O-])cc8F)c8ccc5[nH]8)C=C7)C=C6)cc4)[C@@H]4CC[C@H]3O4)sc2C)cc1
REMARK SMILES IDX 19 1 18 2 17 3 16 4 14 5 15 6 13 7 12 8 94 9 91 10 93 11
REMARK SMILES IDX 95 12 92 13 10 14 9 15 11 17 8 18 6 19 7 20 97 21 96 22
REMARK SMILES IDX 98 23 5 24 1 25 2 26 3 27 100 28 4 29 99 30 20 31 21 32
REMARK SMILES IDX 22 33 23 34 24 35 25 36 26 37 90 38 27 39 89 40 28 41 29 42
REMARK SMILES IDX 30 43 83 44 31 45 88 46 82 47 84 48 32 49 87 50 81 51 80 52
REMARK SMILES IDX 33 54 67 55 46 56 66 57 47 58 50 59 65 60 85 61 48 62 49 63
REMARK SMILES IDX 64 65 86 66 51 67 34 68 35 69 44 70 36 71 37 72 43 73 45 74
REMARK SMILES IDX 38 75 39 76 40 77 41 78 42 79 68 80 69 81 78 82 70 83 71 84
REMARK SMILES IDX 77 85 79 86 72 87 73 88 74 89 75 90 76 91 52 92 53 93 62 94
REMARK SMILES IDX 54 95 55 96 61 97 63 98 56 99 57 100 58 101 59 102 60 103
REMARK H PARENT 9 16 84 53 50 64
REMARK Flexibility Score: inf
ROOT
ATOM      1  O   UNL A   1      33.253  34.390  32.338  1.00  0.00    -0.374 OA
ENDROOT
BRANCH   1   2
ATOM      2  C   UNL A   1      34.306  34.284  33.305  1.00  0.00     0.202 C 
BRANCH   2   3
ATOM      3  C   UNL A   1      35.478  35.267  33.023  1.00  0.00     0.261 C 
BRANCH   3   4
ATOM      4  O   UNL A   1      36.963  35.044  33.120  1.00  0.00    -0.463 OA
BRANCH   4   5
ATOM      5  C   UNL A   1      38.048  34.252  33.097  1.00  0.00     0.312 C 
ATOM      6  O   UNL A   1      39.031  34.496  32.392  1.00  0.00    -0.252 OA
BRANCH   5   7
ATOM      7  C   UNL A   1      38.104  33.023  33.900  1.00  0.00     0.143 C 
ATOM      8  C   UNL A   1      37.863  33.272  35.334  1.00  0.00     0.124 C 
ATOM      9  C   UNL A   1      38.357  31.941  35.902  1.00  0.00     0.132 C 
ATOM     10  C   UNL A   1      39.403  32.160  34.007  1.00  0.00     0.133 C 
ATOM     11  C   UNL A   1      38.004  30.646  35.115  1.00  0.00     0.035 C 
ATOM     12  O   UNL A   1      39.724  32.124  35.446  1.00  0.00    -0.373 OA
ATOM     13  C   UNL A   1      39.033  30.686  33.963  1.00  0.00     0.036 C 
BRANCH   8  14
ATOM     14  C   UNL A   1      38.729  34.366  36.031  1.00  0.00     0.232 C 
ATOM     15  N   UNL A   1      39.404  34.398  37.215  1.00  0.00    -0.302 N 
ATOM     16  H   UNL A   1      40.055  35.133  37.138  1.00  0.00     0.172 HD
ATOM     17  O   UNL A   1      38.990  35.326  35.273  1.00  0.00    -0.274 OA
BRANCH  15  18
ATOM     18  C   UNL A   1      39.581  33.858  38.472  1.00  0.00     0.190 A 
ATOM     19  C   UNL A   1      38.990  32.588  40.238  1.00  0.00     0.086 A 
ATOM     20  N   UNL A   1      38.683  33.015  38.947  1.00  0.00    -0.220 NA
ATOM     21  C   UNL A   1      40.295  32.860  40.591  1.00  0.00     0.031 A 
ATOM     22  S   UNL A   1      41.027  33.875  39.365  1.00  0.00    -0.101 S 
ATOM     23  C   UNL A   1      41.019  32.487  41.832  1.00  0.00     0.059 C 
BRANCH  19  24
ATOM     24  C   UNL A   1      37.903  32.161  41.163  1.00  0.00     0.001 A 
ATOM     25  C   UNL A   1      34.981  31.027  45.107  1.00  0.00     0.044 C 
ATOM     26  C   UNL A   1      36.210  31.519  44.357  1.00  0.00    -0.051 A 
ATOM     27  C   UNL A   1      36.025  33.106  43.527  1.00  0.00     0.004 A 
ATOM     28  C   UNL A   1      37.279  30.245  43.650  1.00  0.00     0.004 A 
ATOM     29  C   UNL A   1      36.917  33.442  41.965  1.00  0.00     0.010 A 
ATOM     30  C   UNL A   1      37.993  30.520  41.968  1.00  0.00     0.010 A 
ENDBRANCH  19  24
ENDBRANCH  15  18
ENDBRANCH   8  14
ENDBRANCH   5   7
ENDBRANCH   4   5
ENDBRANCH   3   4
ENDBRANCH   2   3
ENDBRANCH   1   2
BRANCH   1  31
ATOM     31  C   UNL A   1      33.214  35.516  31.457  1.00  0.00     0.202 C 
BRANCH  31  32
ATOM     32  C   UNL A   1      33.453  35.291  29.961  1.00  0.00     0.261 C 
BRANCH  32  33
ATOM     33  O   UNL A   1      34.734  34.704  29.622  1.00  0.00    -0.460 OA
BRANCH  33  34
ATOM     34  C   UNL A   1      34.911  33.352  29.793  1.00  0.00     0.338 C 
ATOM     35  O   UNL A   1      34.015  32.543  29.620  1.00  0.00    -0.246 OA
BRANCH  34  36
ATOM     36  C   UNL A   1      36.357  33.007  29.929  1.00  0.00     0.060 A 
ATOM     37  C   UNL A   1      37.422  33.570  29.209  1.00  0.00     0.016 A 
ATOM     38  C   UNL A   1      36.632  31.947  30.746  1.00  0.00     0.016 A 
ATOM     39  C   UNL A   1      38.728  32.983  29.262  1.00  0.00     0.010 A 
ATOM     40  C   UNL A   1      37.746  31.208  30.449  1.00  0.00     0.010 A 
ATOM     41  C   UNL A   1      38.911  31.723  29.868  1.00  0.00    -0.014 A 
BRANCH  41  42
ATOM     42  C   UNL A   1      40.259  30.677  29.832  1.00  0.00     0.031 A 
ATOM     43  C   UNL A   1      40.448  28.656  29.091  1.00  0.00     0.074 A 
ATOM     44  C   UNL A   1      41.224  31.709  30.264  1.00  0.00     0.049 A 
ATOM     45  N   UNL A   1      41.217  27.607  29.577  1.00  0.00    -0.248 NA
ATOM     46  C   UNL A   1      39.873  27.785  27.780  1.00  0.00     0.031 C 
ATOM     47  C   UNL A   1      42.664  31.930  29.875  1.00  0.00     0.029 A 
ATOM     48  N   UNL A   1      41.182  32.574  31.389  1.00  0.00    -0.354 N 
ATOM     49  C   UNL A   1      41.686  26.753  28.641  1.00  0.00     0.074 A 
ATOM     50  C   UNL A   1      40.730  26.783  27.584  1.00  0.00     0.031 C 
ATOM     51  C   UNL A   1      43.384  32.475  30.837  1.00  0.00     0.029 A 
ATOM     52  C   UNL A   1      42.470  32.819  31.865  1.00  0.00     0.049 A 
ATOM     53  H   UNL A   1      40.360  32.949  31.779  1.00  0.00     0.167 HD
ATOM     54  C   UNL A   1      42.915  26.178  28.786  1.00  0.00     0.037 A 
ATOM     55  C   UNL A   1      42.944  33.026  33.102  1.00  0.00     0.037 A 
ATOM     56  C   UNL A   1      43.863  26.939  29.651  1.00  0.00     0.049 A 
ATOM     57  C   UNL A   1      43.825  31.854  33.445  1.00  0.00     0.074 A 
ATOM     58  C   UNL A   1      44.974  27.715  29.338  1.00  0.00     0.029 A 
ATOM     59  N   UNL A   1      43.637  27.181  31.016  1.00  0.00    -0.354 N 
ATOM     60  N   UNL A   1      43.745  30.707  32.791  1.00  0.00    -0.248 NA
ATOM     61  C   UNL A   1      44.872  31.846  34.457  1.00  0.00     0.031 C 
ATOM     62  C   UNL A   1      45.358  28.471  30.484  1.00  0.00     0.029 A 
ATOM     63  C   UNL A   1      44.533  28.129  31.546  1.00  0.00     0.049 A 
ATOM     64  H   UNL A   1      42.932  26.739  31.543  1.00  0.00     0.167 HD
ATOM     65  C   UNL A   1      44.630  29.812  33.319  1.00  0.00     0.074 A 
ATOM     66  C   UNL A   1      45.324  30.583  34.345  1.00  0.00     0.031 C 
ATOM     67  C   UNL A   1      44.631  28.481  32.983  1.00  0.00     0.037 A 
BRANCH  54  68
ATOM     68  C   UNL A   1      43.279  25.037  27.867  1.00  0.00     0.058 A 
ATOM     69  C   UNL A   1      44.002  25.189  26.673  1.00  0.00     0.135 A 
ATOM     70  C   UNL A   1      42.969  23.698  28.214  1.00  0.00     0.135 A 
ATOM     71  F   UNL A   1      44.443  26.388  26.271  1.00  0.00    -0.206 F 
ATOM     72  C   UNL A   1      44.314  24.102  25.847  1.00  0.00     0.059 A 
ATOM     73  C   UNL A   1      43.190  22.617  27.373  1.00  0.00     0.059 A 
ATOM     74  F   UNL A   1      42.457  23.389  29.416  1.00  0.00    -0.206 F 
ATOM     75  C   UNL A   1      43.879  22.825  26.192  1.00  0.00     0.060 A 
BRANCH  75  76
ATOM     76  S   UNL A   1      44.232  21.427  25.116  1.00  0.00     0.124 S 
ATOM     77  O   UNL A   1      43.147  20.504  25.434  1.00  0.00    -0.237 OA
ATOM     78  O   UNL A   1      44.178  22.047  23.797  1.00  0.00    -0.237 OA
ATOM     79  O   UNL A   1      45.557  20.992  25.552  1.00  0.00    -0.744 OA
ENDBRANCH  75  76
ENDBRANCH  54  68
BRANCH  55  80
ATOM     80  C   UNL A   1      42.343  34.211  33.742  1.00  0.00     0.058 A 
ATOM     81  C   UNL A   1      42.353  34.218  35.162  1.00  0.00     0.135 A 
ATOM     82  C   UNL A   1      42.505  35.448  33.105  1.00  0.00     0.135 A 
ATOM     83  F   UNL A   1      42.228  33.063  35.840  1.00  0.00    -0.206 F 
ATOM     84  C   UNL A   1      42.721  35.348  35.895  1.00  0.00     0.059 A 
ATOM     85  C   UNL A   1      42.909  36.580  33.816  1.00  0.00     0.059 A 
ATOM     86  F   UNL A   1      42.531  35.501  31.765  1.00  0.00    -0.206 F 
ATOM     87  C   UNL A   1      43.083  36.500  35.201  1.00  0.00     0.060 A 
BRANCH  87  88
ATOM     88  S   UNL A   1      44.112  37.747  36.035  1.00  0.00     0.124 S 
ATOM     89  O   UNL A   1      43.571  37.729  37.387  1.00  0.00    -0.237 OA
ATOM     90  O   UNL A   1      45.463  37.209  35.881  1.00  0.00    -0.237 OA
ATOM     91  O   UNL A   1      43.848  38.945  35.247  1.00  0.00    -0.744 OA
ENDBRANCH  87  88
ENDBRANCH  55  80
BRANCH  67  92
ATOM     92  C   UNL A   1      44.906  27.421  34.031  1.00  0.00     0.058 A 
ATOM     93  C   UNL A   1      43.891  26.809  34.802  1.00  0.00     0.135 A 
ATOM     94  C   UNL A   1      46.192  26.863  34.190  1.00  0.00     0.135 A 
ATOM     95  F   UNL A   1      42.597  27.123  34.658  1.00  0.00    -0.206 F 
ATOM     96  C   UNL A   1      44.152  25.808  35.733  1.00  0.00     0.059 A 
ATOM     97  C   UNL A   1      46.460  25.809  35.058  1.00  0.00     0.059 A 
ATOM     98  F   UNL A   1      47.246  27.304  33.489  1.00  0.00    -0.206 F 
ATOM     99  C   UNL A   1      45.442  25.317  35.857  1.00  0.00     0.060 A 
BRANCH  99 100
ATOM    100  S   UNL A   1      45.763  24.012  37.049  1.00  0.00     0.124 S 
ATOM    101  O   UNL A   1      44.892  24.410  38.150  1.00  0.00    -0.237 OA
ATOM    102  O   UNL A   1      45.356  22.812  36.323  1.00  0.00    -0.237 OA
ATOM    103  O   UNL A   1      47.195  24.129  37.299  1.00  0.00    -0.744 OA
ENDBRANCH  99 100
ENDBRANCH  67  92
ENDBRANCH  41  42
ENDBRANCH  34  36
ENDBRANCH  33  34
ENDBRANCH  32  33
ENDBRANCH  31  32
ENDBRANCH   1  31
TORSDOF 20
ENDMDL
MODEL 3
REMARK VINA RESULT:     -10.8      2.722      4.999
REMARK SMILES Cc1ccc(-c2nc(NC(=O)[C@H]3[C@@H](C(=O)OCCOCCOC(=O)c4ccc(-c5c6nc(c(-c7c(F)cc(S(=O)(=O)[O-])cc7F)c7ccc([nH]7)c(-c7c(F)cc(S(=O)(=O)[O-])cc7F)c7nc(c(-c8c(F)cc(S(=O)(=O)[O-])cc8F)c8ccc5[nH]8)C=C7)C=C6)cc4)[C@@H]4CC[C@H]3O4)sc2C)cc1
REMARK SMILES IDX 19 1 18 2 17 3 16 4 14 5 15 6 13 7 12 8 94 9 91 10 93 11
REMARK SMILES IDX 95 12 92 13 10 14 9 15 11 17 8 18 6 19 7 20 97 21 96 22
REMARK SMILES IDX 98 23 5 24 1 25 2 26 3 27 100 28 4 29 99 30 20 31 21 32
REMARK SMILES IDX 22 33 23 34 24 35 25 36 26 37 90 38 27 39 89 40 28 41 29 42
REMARK SMILES IDX 30 43 83 44 31 45 88 46 82 47 84 48 32 49 87 50 81 51 80 52
REMARK SMILES IDX 33 54 67 55 46 56 66 57 47 58 50 59 65 60 85 61 48 62 49 63
REMARK SMILES IDX 64 65 86 66 51 67 34 68 35 69 44 70 36 71 37 72 43 73 45 74
REMARK SMILES IDX 38 75 39 76 40 77 41 78 42 79 68 80 69 81 78 82 70 83 71 84
REMARK SMILES IDX 77 85 79 86 72 87 73 88 74 89 75 90 76 91 52 92 53 93 62 94
REMARK SMILES IDX 54 95 55 96 61 97 63 98 56 99 57 100 58 101 59 102 60 103
REMARK H PARENT 9 16 84 53 50 64
REMARK Flexibility Score: inf
ROOT
ATOM      1  O   UNL A   1      43.317  23.503  29.064  1.00  0.00    -0.374 OA
ENDROOT
BRANCH   1   2
ATOM      2  C   UNL A   1      44.454  23.836  29.872  1.00  0.00     0.202 C 
BRANCH   2   3
ATOM      3  C   UNL A   1      44.147  24.960  30.902  1.00  0.00     0.261 C 
BRANCH   3   4
ATOM      4  O   UNL A   1      44.502  25.047  32.362  1.00  0.00    -0.463 OA
BRANCH   4   5
ATOM      5  C   UNL A   1      45.389  25.027  33.371  1.00  0.00     0.312 C 
ATOM      6  O   UNL A   1      46.046  26.019  33.695  1.00  0.00    -0.252 OA
BRANCH   5   7
ATOM      7  C   UNL A   1      45.642  23.795  34.129  1.00  0.00     0.143 C 
ATOM      8  C   UNL A   1      44.401  23.062  34.450  1.00  0.00     0.124 C 
ATOM      9  C   UNL A   1      44.946  22.109  35.516  1.00  0.00     0.132 C 
ATOM     10  C   UNL A   1      46.299  23.813  35.548  1.00  0.00     0.133 C 
ATOM     11  C   UNL A   1      46.353  21.489  35.277  1.00  0.00     0.035 C 
ATOM     12  O   UNL A   1      45.314  23.170  36.437  1.00  0.00    -0.373 OA
ATOM     13  C   UNL A   1      47.285  22.660  35.661  1.00  0.00     0.036 C 
BRANCH   8  14
ATOM     14  C   UNL A   1      43.256  23.855  35.151  1.00  0.00     0.232 C 
ATOM     15  N   UNL A   1      43.224  25.048  35.809  1.00  0.00    -0.302 N 
ATOM     16  H   UNL A   1      42.279  25.324  35.827  1.00  0.00     0.172 HD
ATOM     17  O   UNL A   1      42.125  23.381  34.904  1.00  0.00    -0.274 OA
BRANCH  15  18
ATOM     18  C   UNL A   1      43.927  26.040  36.461  1.00  0.00     0.190 A 
ATOM     19  C   UNL A   1      44.758  28.122  36.693  1.00  0.00     0.086 A 
ATOM     20  N   UNL A   1      43.985  27.248  35.931  1.00  0.00    -0.220 NA
ATOM     21  C   UNL A   1      45.000  27.647  37.965  1.00  0.00     0.031 A 
ATOM     22  S   UNL A   1      44.447  25.989  38.078  1.00  0.00    -0.101 S 
ATOM     23  C   UNL A   1      45.698  28.317  39.090  1.00  0.00     0.059 C 
BRANCH  19  24
ATOM     24  C   UNL A   1      45.444  29.274  36.043  1.00  0.00     0.001 A 
ATOM     25  C   UNL A   1      47.601  32.556  32.889  1.00  0.00     0.044 C 
ATOM     26  C   UNL A   1      46.883  31.291  33.334  1.00  0.00    -0.051 A 
ATOM     27  C   UNL A   1      45.165  31.511  33.824  1.00  0.00     0.004 A 
ATOM     28  C   UNL A   1      47.902  30.033  34.138  1.00  0.00     0.004 A 
ATOM     29  C   UNL A   1      44.436  30.463  35.135  1.00  0.00     0.010 A 
ATOM     30  C   UNL A   1      47.215  29.140  35.603  1.00  0.00     0.010 A 
ENDBRANCH  19  24
ENDBRANCH  15  18
ENDBRANCH   8  14
ENDBRANCH   5   7
ENDBRANCH   4   5
ENDBRANCH   3   4
ENDBRANCH   2   3
ENDBRANCH   1   2
BRANCH   1  31
ATOM     31  C   UNL A   1      43.505  22.783  27.843  1.00  0.00     0.202 C 
BRANCH  31  32
ATOM     32  C   UNL A   1      42.385  21.865  27.346  1.00  0.00     0.261 C 
BRANCH  32  33
ATOM     33  O   UNL A   1      41.047  22.253  27.745  1.00  0.00    -0.460 OA
BRANCH  33  34
ATOM     34  C   UNL A   1      40.173  22.708  26.786  1.00  0.00     0.338 C 
ATOM     35  O   UNL A   1      39.493  21.959  26.107  1.00  0.00    -0.246 OA
BRANCH  34  36
ATOM     36  C   UNL A   1      39.972  24.184  26.891  1.00  0.00     0.060 A 
ATOM     37  C   UNL A   1      40.735  25.179  26.260  1.00  0.00     0.016 A 
ATOM     38  C   UNL A   1      39.031  24.583  27.798  1.00  0.00     0.016 A 
ATOM     39  C   UNL A   1      40.589  26.554  26.634  1.00  0.00     0.010 A 
ATOM     40  C   UNL A   1      39.218  25.803  28.389  1.00  0.00     0.010 A 
ATOM     41  C   UNL A   1      39.836  26.899  27.775  1.00  0.00    -0.014 A 
BRANCH  41  42
ATOM     42  C   UNL A   1      39.724  28.387  28.603  1.00  0.00     0.031 A 
ATOM     43  C   UNL A   1      38.140  29.856  28.642  1.00  0.00     0.074 A 
ATOM     44  C   UNL A   1      40.948  28.172  29.402  1.00  0.00     0.049 A 
ATOM     45  N   UNL A   1      38.222  31.240  28.723  1.00  0.00    -0.248 NA
ATOM     46  C   UNL A   1      36.464  29.835  28.675  1.00  0.00     0.031 C 
ATOM     47  C   UNL A   1      41.276  28.566  30.820  1.00  0.00     0.029 A 
ATOM     48  N   UNL A   1      42.260  27.835  28.977  1.00  0.00    -0.354 N 
ATOM     49  C   UNL A   1      37.212  31.840  29.390  1.00  0.00     0.074 A 
ATOM     50  C   UNL A   1      36.080  30.994  29.210  1.00  0.00     0.031 C 
ATOM     51  C   UNL A   1      42.560  28.802  31.010  1.00  0.00     0.029 A 
ATOM     52  C   UNL A   1      43.211  28.427  29.808  1.00  0.00     0.049 A 
ATOM     53  H   UNL A   1      42.470  27.264  28.203  1.00  0.00     0.167 HD
ATOM     54  C   UNL A   1      37.449  32.951  30.146  1.00  0.00     0.037 A 
ATOM     55  C   UNL A   1      44.438  28.909  29.565  1.00  0.00     0.037 A 
ATOM     56  C   UNL A   1      38.854  33.093  30.625  1.00  0.00     0.049 A 
ATOM     57  C   UNL A   1      44.384  30.398  29.783  1.00  0.00     0.074 A 
ATOM     58  C   UNL A   1      39.421  32.905  31.882  1.00  0.00     0.029 A 
ATOM     59  N   UNL A   1      39.953  33.248  29.763  1.00  0.00    -0.354 N 
ATOM     60  N   UNL A   1      43.240  31.061  29.782  1.00  0.00    -0.248 NA
ATOM     61  C   UNL A   1      45.526  31.256  30.066  1.00  0.00     0.031 C 
ATOM     62  C   UNL A   1      40.841  32.869  31.757  1.00  0.00     0.029 A 
ATOM     63  C   UNL A   1      41.183  33.101  30.432  1.00  0.00     0.049 A 
ATOM     64  H   UNL A   1      39.872  33.439  28.800  1.00  0.00     0.167 HD
ATOM     65  C   UNL A   1      43.478  32.392  29.972  1.00  0.00     0.074 A 
ATOM     66  C   UNL A   1      44.924  32.456  30.165  1.00  0.00     0.031 C 
ATOM     67  C   UNL A   1      42.508  33.351  29.817  1.00  0.00     0.037 A 
BRANCH  54  68
ATOM     68  C   UNL A   1      36.261  33.737  30.646  1.00  0.00     0.058 A 
ATOM     69  C   UNL A   1      35.280  34.296  29.812  1.00  0.00     0.135 A 
ATOM     70  C   UNL A   1      36.023  33.888  32.035  1.00  0.00     0.135 A 
ATOM     71  F   UNL A   1      35.328  34.148  28.481  1.00  0.00    -0.206 F 
ATOM     72  C   UNL A   1      34.196  35.023  30.319  1.00  0.00     0.059 A 
ATOM     73  C   UNL A   1      35.008  34.675  32.559  1.00  0.00     0.059 A 
ATOM     74  F   UNL A   1      36.768  33.241  32.947  1.00  0.00    -0.206 F 
ATOM     75  C   UNL A   1      34.085  35.230  31.691  1.00  0.00     0.060 A 
BRANCH  75  76
ATOM     76  S   UNL A   1      32.722  36.203  32.352  1.00  0.00     0.124 S 
ATOM     77  O   UNL A   1      33.299  36.763  33.570  1.00  0.00    -0.237 OA
ATOM     78  O   UNL A   1      32.478  37.146  31.267  1.00  0.00    -0.237 OA
ATOM     79  O   UNL A   1      31.674  35.209  32.569  1.00  0.00    -0.744 OA
ENDBRANCH  75  76
ENDBRANCH  54  68
BRANCH  55  80
ATOM     80  C   UNL A   1      45.352  27.877  29.039  1.00  0.00     0.058 A 
ATOM     81  C   UNL A   1      45.441  27.795  27.624  1.00  0.00     0.135 A 
ATOM     82  C   UNL A   1      46.523  27.616  29.761  1.00  0.00     0.135 A 
ATOM     83  F   UNL A   1      44.361  28.058  26.867  1.00  0.00    -0.206 F 
ATOM     84  C   UNL A   1      46.666  27.678  26.965  1.00  0.00     0.059 A 
ATOM     85  C   UNL A   1      47.762  27.533  29.122  1.00  0.00     0.059 A 
ATOM     86  F   UNL A   1      46.507  27.706  31.099  1.00  0.00    -0.206 F 
ATOM     87  C   UNL A   1      47.830  27.637  27.729  1.00  0.00     0.060 A 
BRANCH  87  88
ATOM     88  S   UNL A   1      49.413  28.084  26.953  1.00  0.00     0.124 S 
ATOM     89  O   UNL A   1      50.339  27.976  28.071  1.00  0.00    -0.237 OA
ATOM     90  O   UNL A   1      49.558  27.072  25.905  1.00  0.00    -0.237 OA
ATOM     91  O   UNL A   1      49.147  29.428  26.457  1.00  0.00    -0.744 OA
ENDBRANCH  87  88
ENDBRANCH  55  80
BRANCH  67  92
ATOM     92  C   UNL A   1      42.842  34.692  29.194  1.00  0.00     0.058 A 
ATOM     93  C   UNL A   1      42.950  35.889  29.938  1.00  0.00     0.135 A 
ATOM     94  C   UNL A   1      43.225  34.796  27.840  1.00  0.00     0.135 A 
ATOM     95  F   UNL A   1      42.765  35.925  31.265  1.00  0.00    -0.206 F 
ATOM     96  C   UNL A   1      43.297  37.106  29.361  1.00  0.00     0.059 A 
ATOM     97  C   UNL A   1      43.651  35.988  27.261  1.00  0.00     0.059 A 
ATOM     98  F   UNL A   1      43.224  33.736  27.020  1.00  0.00    -0.206 F 
ATOM     99  C   UNL A   1      43.642  37.147  28.020  1.00  0.00     0.060 A 
BRANCH  99 100
ATOM    100  S   UNL A   1      44.106  38.722  27.290  1.00  0.00     0.124 S 
ATOM    101  O   UNL A   1      44.270  39.551  28.479  1.00  0.00    -0.237 OA
ATOM    102  O   UNL A   1      45.336  38.389  26.576  1.00  0.00    -0.237 OA
ATOM    103  O   UNL A   1      42.966  39.048  26.440  1.00  0.00    -0.744 OA
ENDBRANCH  99 100
ENDBRANCH  67  92
ENDBRANCH  41  42
ENDBRANCH  34  36
ENDBRANCH  33  34
ENDBRANCH  32  33
ENDBRANCH  31  32
ENDBRANCH   1  31
TORSDOF 20
ENDMDL
