MODEL 1
REMARK VINA RESULT:     -12.4      0.000      0.000
REMARK SMILES Cc1cccc(C(=O)Nc2cc(C(=O)OCCOCCOC(=O)c3ccc(-c4c5nc(c(-c6c(F)cc(S(=O)(=O)[O-])cc6F)c6ccc([nH]6)c(-c6c(F)cc(S(=O)(=O)[O-])cc6F)c6nc(c(-c7c(F)cc(S(=O)(=O)[O-])cc7F)c7ccc4[nH]7)C=C6)C=C5)cc3)ccc2N2CC[NH+](CC(=O)NC(C)(C)C)CC2)c1
REMARK SMILES IDX 17 1 16 2 15 3 13 4 14 5 12 6 10 7 11 8 92 9 91 10 90 11
REMARK SMILES IDX 9 12 7 13 8 14 6 16 1 17 2 18 3 19 107 20 4 21 5 22 93 23
REMARK SMILES IDX 94 24 106 25 95 26 105 27 96 28 97 30 98 31 99 32 100 33
REMARK SMILES IDX 101 35 102 36 103 37 104 38 18 39 19 40 20 41 21 42 22 43
REMARK SMILES IDX 23 44 24 45 25 46 89 47 26 48 88 49 27 50 28 51 29 52 82 53
REMARK SMILES IDX 30 54 87 55 81 56 83 57 31 58 86 59 80 60 79 61 32 63 66 64
REMARK SMILES IDX 45 65 65 66 46 67 49 68 64 69 84 70 47 71 48 72 63 74 85 75
REMARK SMILES IDX 50 76 33 77 34 78 43 79 35 80 36 81 42 82 44 83 37 84 38 85
REMARK SMILES IDX 39 86 40 87 41 88 67 89 68 90 77 91 69 92 70 93 76 94 78 95
REMARK SMILES IDX 71 96 72 97 73 98 74 99 75 100 51 101 52 102 61 103 53 104
REMARK SMILES IDX 54 105 60 106 62 107 55 108 56 109 57 110 58 111 59 112
REMARK H PARENT 9 15 96 29 100 34 83 62 49 73
REMARK Flexibility Score: inf
ROOT
ATOM      1  C   UNL A   1      33.978  33.411  29.084  1.00  0.00     0.202 C 
ENDROOT
BRANCH   1   2
ATOM      2  C   UNL A   1      33.727  33.068  27.635  1.00  0.00     0.261 C 
BRANCH   2   3
ATOM      3  O   UNL A   1      33.195  31.752  27.520  1.00  0.00    -0.460 OA
BRANCH   3   4
ATOM      4  C   UNL A   1      32.060  31.493  26.835  1.00  0.00     0.338 C 
ATOM      5  O   UNL A   1      31.211  32.234  26.387  1.00  0.00    -0.246 OA
BRANCH   4   6
ATOM      6  C   UNL A   1      32.137  30.039  26.592  1.00  0.00     0.062 A 
ATOM      7  C   UNL A   1      32.033  28.245  25.010  1.00  0.00     0.065 A 
ATOM      8  C   UNL A   1      31.990  29.587  25.284  1.00  0.00     0.044 A 
ATOM      9  C   UNL A   1      32.129  27.283  26.054  1.00  0.00     0.061 A 
ATOM     10  C   UNL A   1      32.264  27.757  27.370  1.00  0.00     0.029 A 
ATOM     11  C   UNL A   1      32.299  29.133  27.638  1.00  0.00     0.018 A 
BRANCH   7  12
ATOM     12  N   UNL A   1      32.122  27.882  23.652  1.00  0.00    -0.320 N 
ATOM     13  C   UNL A   1      31.083  27.780  22.726  1.00  0.00     0.255 C 
ATOM     14  O   UNL A   1      31.368  27.437  21.574  1.00  0.00    -0.269 OA
ATOM     15  H   UNL A   1      33.024  27.674  23.317  1.00  0.00     0.170 HD
BRANCH  13  16
ATOM     16  C   UNL A   1      29.666  28.238  23.000  1.00  0.00     0.040 A 
ATOM     17  C   UNL A   1      27.543  31.390  23.168  1.00  0.00     0.044 C 
ATOM     18  C   UNL A   1      27.886  29.928  23.091  1.00  0.00    -0.050 A 
ATOM     19  C   UNL A   1      26.970  28.950  23.483  1.00  0.00     0.003 A 
ATOM     20  C   UNL A   1      29.197  29.544  22.783  1.00  0.00     0.017 A 
ATOM     21  C   UNL A   1      27.392  27.630  23.641  1.00  0.00     0.001 A 
ATOM     22  C   UNL A   1      28.730  27.280  23.414  1.00  0.00     0.014 A 
ENDBRANCH  13  16
ENDBRANCH   7  12
BRANCH   9  23
ATOM     23  N   UNL A   1      32.311  25.946  25.732  1.00  0.00    -0.359 N 
ATOM     24  C   UNL A   1      31.576  24.804  26.293  1.00  0.00     0.178 C 
ATOM     25  C   UNL A   1      33.717  25.619  25.557  1.00  0.00     0.178 C 
ATOM     26  C   UNL A   1      31.883  23.513  25.446  1.00  0.00     0.284 C 
ATOM     27  C   UNL A   1      33.819  24.558  24.467  1.00  0.00     0.284 C 
ATOM     28  N   UNL A   1      33.258  23.285  24.915  1.00  0.00    -0.324 N 
ATOM     29  H   UNL A   1      33.127  22.646  24.130  1.00  0.00     0.348 HD
BRANCH  28  30
ATOM     30  C   UNL A   1      34.203  22.509  25.747  1.00  0.00     0.363 C 
BRANCH  30  31
ATOM     31  C   UNL A   1      33.615  21.470  26.704  1.00  0.00     0.275 C 
ATOM     32  O   UNL A   1      33.521  21.751  27.907  1.00  0.00    -0.268 OA
ATOM     33  N   UNL A   1      33.174  20.229  26.346  1.00  0.00    -0.347 N 
ATOM     34  H   UNL A   1      32.729  19.804  27.114  1.00  0.00     0.164 HD
BRANCH  33  35
ATOM     35  C   UNL A   1      33.144  19.299  25.172  1.00  0.00     0.032 C 
ATOM     36  C   UNL A   1      32.410  19.911  23.967  1.00  0.00     0.034 C 
ATOM     37  C   UNL A   1      34.608  19.141  24.703  1.00  0.00     0.034 C 
ATOM     38  C   UNL A   1      32.592  17.903  25.458  1.00  0.00     0.034 C 
ENDBRANCH  33  35
ENDBRANCH  30  31
ENDBRANCH  28  30
ENDBRANCH   9  23
ENDBRANCH   4   6
ENDBRANCH   3   4
ENDBRANCH   2   3
ENDBRANCH   1   2
BRANCH   1  39
ATOM     39  O   UNL A   1      35.281  32.908  29.356  1.00  0.00    -0.374 OA
BRANCH  39  40
ATOM     40  C   UNL A   1      35.395  31.856  30.281  1.00  0.00     0.202 C 
BRANCH  40  41
ATOM     41  C   UNL A   1      36.855  31.469  30.487  1.00  0.00     0.261 C 
BRANCH  41  42
ATOM     42  O   UNL A   1      37.001  30.050  30.255  1.00  0.00    -0.460 OA
BRANCH  42  43
ATOM     43  C   UNL A   1      37.409  29.333  31.343  1.00  0.00     0.338 C 
ATOM     44  O   UNL A   1      36.834  29.340  32.418  1.00  0.00    -0.246 OA
BRANCH  43  45
ATOM     45  C   UNL A   1      38.695  28.626  31.056  1.00  0.00     0.060 A 
ATOM     46  C   UNL A   1      39.767  28.701  31.966  1.00  0.00     0.016 A 
ATOM     47  C   UNL A   1      38.917  28.097  29.787  1.00  0.00     0.016 A 
ATOM     48  C   UNL A   1      41.078  28.359  31.566  1.00  0.00     0.010 A 
ATOM     49  C   UNL A   1      40.214  27.825  29.379  1.00  0.00     0.010 A 
ATOM     50  C   UNL A   1      41.319  27.980  30.243  1.00  0.00    -0.014 A 
BRANCH  50  51
ATOM     51  C   UNL A   1      42.631  27.981  29.550  1.00  0.00     0.031 A 
ATOM     52  C   UNL A   1      43.226  26.685  29.101  1.00  0.00     0.074 A 
ATOM     53  C   UNL A   1      42.941  29.068  28.806  1.00  0.00     0.049 A 
ATOM     54  N   UNL A   1      44.074  26.545  28.136  1.00  0.00    -0.248 NA
ATOM     55  C   UNL A   1      42.938  25.426  29.776  1.00  0.00     0.031 C 
ATOM     56  C   UNL A   1      43.302  29.019  27.389  1.00  0.00     0.029 A 
ATOM     57  N   UNL A   1      42.912  30.428  29.089  1.00  0.00    -0.354 N 
ATOM     58  C   UNL A   1      44.236  25.206  27.880  1.00  0.00     0.074 A 
ATOM     59  C   UNL A   1      43.594  24.557  28.999  1.00  0.00     0.031 C 
ATOM     60  C   UNL A   1      43.577  30.254  26.979  1.00  0.00     0.029 A 
ATOM     61  C   UNL A   1      43.616  31.125  28.110  1.00  0.00     0.049 A 
ATOM     62  H   UNL A   1      42.463  30.837  29.865  1.00  0.00     0.167 HD
ATOM     63  C   UNL A   1      44.853  24.807  26.727  1.00  0.00     0.037 A 
ATOM     64  C   UNL A   1      44.613  32.025  28.298  1.00  0.00     0.037 A 
ATOM     65  C   UNL A   1      45.587  25.919  26.063  1.00  0.00     0.049 A 
ATOM     66  C   UNL A   1      45.963  31.389  27.976  1.00  0.00     0.074 A 
ATOM     67  C   UNL A   1      45.802  26.378  24.774  1.00  0.00     0.029 A 
ATOM     68  N   UNL A   1      46.269  26.839  26.871  1.00  0.00    -0.354 N 
ATOM     69  N   UNL A   1      46.150  30.326  27.222  1.00  0.00    -0.248 NA
ATOM     70  C   UNL A   1      47.210  31.847  28.577  1.00  0.00     0.031 C 
ATOM     71  C   UNL A   1      46.678  27.517  24.829  1.00  0.00     0.029 A 
ATOM     72  C   UNL A   1      46.962  27.793  26.153  1.00  0.00     0.049 A 
ATOM     73  H   UNL A   1      46.256  26.807  27.855  1.00  0.00     0.167 HD
ATOM     74  C   UNL A   1      47.436  29.863  27.370  1.00  0.00     0.074 A 
ATOM     75  C   UNL A   1      48.062  30.874  28.212  1.00  0.00     0.031 C 
ATOM     76  C   UNL A   1      47.894  28.668  26.868  1.00  0.00     0.037 A 
BRANCH  63  77
ATOM     77  C   UNL A   1      44.790  23.365  26.187  1.00  0.00     0.058 A 
ATOM     78  C   UNL A   1      45.897  22.752  25.556  1.00  0.00     0.135 A 
ATOM     79  C   UNL A   1      43.628  22.550  26.194  1.00  0.00     0.135 A 
ATOM     80  F   UNL A   1      47.062  23.397  25.413  1.00  0.00    -0.206 F 
ATOM     81  C   UNL A   1      45.862  21.454  25.012  1.00  0.00     0.059 A 
ATOM     82  C   UNL A   1      43.591  21.228  25.729  1.00  0.00     0.059 A 
ATOM     83  F   UNL A   1      42.435  23.013  26.580  1.00  0.00    -0.206 F 
ATOM     84  C   UNL A   1      44.707  20.690  25.117  1.00  0.00     0.060 A 
BRANCH  84  85
ATOM     85  S   UNL A   1      44.653  19.030  24.410  1.00  0.00     0.124 S 
ATOM     86  O   UNL A   1      44.610  19.312  22.979  1.00  0.00    -0.237 OA
ATOM     87  O   UNL A   1      45.891  18.434  24.904  1.00  0.00    -0.237 OA
ATOM     88  O   UNL A   1      43.428  18.460  24.967  1.00  0.00    -0.744 OA
ENDBRANCH  84  85
ENDBRANCH  63  77
BRANCH  64  89
ATOM     89  C   UNL A   1      44.204  33.113  29.237  1.00  0.00     0.058 A 
ATOM     90  C   UNL A   1      43.252  34.000  28.679  1.00  0.00     0.135 A 
ATOM     91  C   UNL A   1      44.085  32.828  30.602  1.00  0.00     0.135 A 
ATOM     92  F   UNL A   1      43.371  34.385  27.396  1.00  0.00    -0.206 F 
ATOM     93  C   UNL A   1      42.064  34.302  29.339  1.00  0.00     0.059 A 
ATOM     94  C   UNL A   1      42.896  33.111  31.281  1.00  0.00     0.059 A 
ATOM     95  F   UNL A   1      44.974  32.018  31.195  1.00  0.00    -0.206 F 
ATOM     96  C   UNL A   1      41.858  33.765  30.607  1.00  0.00     0.060 A 
BRANCH  96  97
ATOM     97  S   UNL A   1      40.157  33.588  31.229  1.00  0.00     0.124 S 
ATOM     98  O   UNL A   1      39.369  33.882  30.040  1.00  0.00    -0.237 OA
ATOM     99  O   UNL A   1      40.112  32.206  31.697  1.00  0.00    -0.237 OA
ATOM    100  O   UNL A   1      40.120  34.589  32.291  1.00  0.00    -0.744 OA
ENDBRANCH  96  97
ENDBRANCH  64  89
BRANCH  76 101
ATOM    101  C   UNL A   1      49.305  28.140  27.100  1.00  0.00     0.058 A 
ATOM    102  C   UNL A   1      49.800  27.773  28.360  1.00  0.00     0.135 A 
ATOM    103  C   UNL A   1      50.242  28.057  26.039  1.00  0.00     0.135 A 
ATOM    104  F   UNL A   1      49.072  27.963  29.471  1.00  0.00    -0.206 F 
ATOM    105  C   UNL A   1      51.075  27.225  28.534  1.00  0.00     0.059 A 
ATOM    106  C   UNL A   1      51.539  27.574  26.199  1.00  0.00     0.059 A 
ATOM    107  F   UNL A   1      49.934  28.427  24.789  1.00  0.00    -0.206 F 
ATOM    108  C   UNL A   1      51.933  27.116  27.444  1.00  0.00     0.060 A 
BRANCH 108 109
ATOM    109  S   UNL A   1      53.570  26.401  27.677  1.00  0.00     0.124 S 
ATOM    110  O   UNL A   1      54.444  27.461  27.182  1.00  0.00    -0.237 OA
ATOM    111  O   UNL A   1      53.592  26.188  29.122  1.00  0.00    -0.237 OA
ATOM    112  O   UNL A   1      53.539  25.190  26.866  1.00  0.00    -0.744 OA
ENDBRANCH 108 109
ENDBRANCH  76 101
ENDBRANCH  50  51
ENDBRANCH  43  45
ENDBRANCH  42  43
ENDBRANCH  41  42
ENDBRANCH  40  41
ENDBRANCH  39  40
ENDBRANCH   1  39
TORSDOF 23
ENDMDL
MODEL 2
REMARK VINA RESULT:     -11.8      2.906      7.556
REMARK SMILES Cc1cccc(C(=O)Nc2cc(C(=O)OCCOCCOC(=O)c3ccc(-c4c5nc(c(-c6c(F)cc(S(=O)(=O)[O-])cc6F)c6ccc([nH]6)c(-c6c(F)cc(S(=O)(=O)[O-])cc6F)c6nc(c(-c7c(F)cc(S(=O)(=O)[O-])cc7F)c7ccc4[nH]7)C=C6)C=C5)cc3)ccc2N2CC[NH+](CC(=O)NC(C)(C)C)CC2)c1
REMARK SMILES IDX 17 1 16 2 15 3 13 4 14 5 12 6 10 7 11 8 92 9 91 10 90 11
REMARK SMILES IDX 9 12 7 13 8 14 6 16 1 17 2 18 3 19 107 20 4 21 5 22 93 23
REMARK SMILES IDX 94 24 106 25 95 26 105 27 96 28 97 30 98 31 99 32 100 33
REMARK SMILES IDX 101 35 102 36 103 37 104 38 18 39 19 40 20 41 21 42 22 43
REMARK SMILES IDX 23 44 24 45 25 46 89 47 26 48 88 49 27 50 28 51 29 52 82 53
REMARK SMILES IDX 30 54 87 55 81 56 83 57 31 58 86 59 80 60 79 61 32 63 66 64
REMARK SMILES IDX 45 65 65 66 46 67 49 68 64 69 84 70 47 71 48 72 63 74 85 75
REMARK SMILES IDX 50 76 33 77 34 78 43 79 35 80 36 81 42 82 44 83 37 84 38 85
REMARK SMILES IDX 39 86 40 87 41 88 67 89 68 90 77 91 69 92 70 93 76 94 78 95
REMARK SMILES IDX 71 96 72 97 73 98 74 99 75 100 51 101 52 102 61 103 53 104
REMARK SMILES IDX 54 105 60 106 62 107 55 108 56 109 57 110 58 111 59 112
REMARK H PARENT 9 15 96 29 100 34 83 62 49 73
REMARK Flexibility Score: inf
ROOT
ATOM      1  C   UNL A   1      35.250  31.689  27.747  1.00  0.00     0.202 C 
ENDROOT
BRANCH   1   2
ATOM      2  C   UNL A   1      33.789  32.058  27.657  1.00  0.00     0.261 C 
BRANCH   2   3
ATOM      3  O   UNL A   1      32.983  30.885  27.590  1.00  0.00    -0.460 OA
BRANCH   3   4
ATOM      4  C   UNL A   1      31.970  30.760  26.704  1.00  0.00     0.338 C 
ATOM      5  O   UNL A   1      31.325  31.594  26.107  1.00  0.00    -0.246 OA
BRANCH   4   6
ATOM      6  C   UNL A   1      31.897  29.303  26.479  1.00  0.00     0.062 A 
ATOM      7  C   UNL A   1      31.655  27.509  24.913  1.00  0.00     0.065 A 
ATOM      8  C   UNL A   1      31.748  28.851  25.171  1.00  0.00     0.044 A 
ATOM      9  C   UNL A   1      31.610  26.557  25.970  1.00  0.00     0.061 A 
ATOM     10  C   UNL A   1      31.749  27.032  27.285  1.00  0.00     0.029 A 
ATOM     11  C   UNL A   1      31.924  28.400  27.540  1.00  0.00     0.018 A 
BRANCH   7  12
ATOM     12  N   UNL A   1      31.752  27.119  23.563  1.00  0.00    -0.320 N 
ATOM     13  C   UNL A   1      30.855  27.393  22.529  1.00  0.00     0.255 C 
ATOM     14  O   UNL A   1      31.118  26.953  21.406  1.00  0.00    -0.269 OA
ATOM     15  H   UNL A   1      32.545  26.589  23.320  1.00  0.00     0.170 HD
BRANCH  13  16
ATOM     16  C   UNL A   1      29.684  28.345  22.664  1.00  0.00     0.040 A 
ATOM     17  C   UNL A   1      28.799  32.029  22.338  1.00  0.00     0.044 C 
ATOM     18  C   UNL A   1      28.608  30.542  22.451  1.00  0.00    -0.050 A 
ATOM     19  C   UNL A   1      27.403  30.001  22.899  1.00  0.00     0.003 A 
ATOM     20  C   UNL A   1      29.707  29.692  22.269  1.00  0.00     0.017 A 
ATOM     21  C   UNL A   1      27.332  28.648  23.233  1.00  0.00     0.001 A 
ATOM     22  C   UNL A   1      28.466  27.831  23.129  1.00  0.00     0.014 A 
ENDBRANCH  13  16
ENDBRANCH   7  12
BRANCH   9  23
ATOM     23  N   UNL A   1      31.656  25.204  25.668  1.00  0.00    -0.359 N 
ATOM     24  C   UNL A   1      30.702  24.176  26.108  1.00  0.00     0.178 C 
ATOM     25  C   UNL A   1      33.017  24.691  25.699  1.00  0.00     0.178 C 
ATOM     26  C   UNL A   1      30.954  22.845  25.305  1.00  0.00     0.284 C 
ATOM     27  C   UNL A   1      33.134  23.611  24.629  1.00  0.00     0.284 C 
ATOM     28  N   UNL A   1      32.349  22.430  24.980  1.00  0.00    -0.324 N 
ATOM     29  H   UNL A   1      32.251  21.804  24.180  1.00  0.00     0.348 HD
BRANCH  28  30
ATOM     30  C   UNL A   1      33.050  21.546  25.936  1.00  0.00     0.363 C 
BRANCH  30  31
ATOM     31  C   UNL A   1      34.337  20.869  25.460  1.00  0.00     0.275 C 
ATOM     32  O   UNL A   1      35.404  21.494  25.534  1.00  0.00    -0.268 OA
ATOM     33  N   UNL A   1      34.420  19.607  24.947  1.00  0.00    -0.347 N 
ATOM     34  H   UNL A   1      35.366  19.360  24.834  1.00  0.00     0.164 HD
BRANCH  33  35
ATOM     35  C   UNL A   1      33.549  18.474  24.497  1.00  0.00     0.032 C 
ATOM     36  C   UNL A   1      34.371  17.253  24.053  1.00  0.00     0.034 C 
ATOM     37  C   UNL A   1      32.774  17.997  25.745  1.00  0.00     0.034 C 
ATOM     38  C   UNL A   1      32.525  18.826  23.418  1.00  0.00     0.034 C 
ENDBRANCH  33  35
ENDBRANCH  30  31
ENDBRANCH  28  30
ENDBRANCH   9  23
ENDBRANCH   4   6
ENDBRANCH   3   4
ENDBRANCH   2   3
ENDBRANCH   1   2
BRANCH   1  39
ATOM     39  O   UNL A   1      35.674  32.186  29.010  1.00  0.00    -0.374 OA
BRANCH  39  40
ATOM     40  C   UNL A   1      36.356  31.302  29.865  1.00  0.00     0.202 C 
BRANCH  40  41
ATOM     41  C   UNL A   1      35.992  29.855  29.552  1.00  0.00     0.261 C 
BRANCH  41  42
ATOM     42  O   UNL A   1      37.016  29.286  28.707  1.00  0.00    -0.460 OA
BRANCH  42  43
ATOM     43  C   UNL A   1      38.112  28.820  29.373  1.00  0.00     0.338 C 
ATOM     44  O   UNL A   1      38.064  28.259  30.455  1.00  0.00    -0.246 OA
BRANCH  43  45
ATOM     45  C   UNL A   1      39.367  29.178  28.641  1.00  0.00     0.060 A 
ATOM     46  C   UNL A   1      39.518  28.843  27.282  1.00  0.00     0.016 A 
ATOM     47  C   UNL A   1      40.474  29.622  29.359  1.00  0.00     0.016 A 
ATOM     48  C   UNL A   1      40.795  28.841  26.678  1.00  0.00     0.010 A 
ATOM     49  C   UNL A   1      41.732  29.555  28.782  1.00  0.00     0.010 A 
ATOM     50  C   UNL A   1      41.923  29.135  27.448  1.00  0.00    -0.014 A 
BRANCH  50  51
ATOM     51  C   UNL A   1      43.330  28.798  27.116  1.00  0.00     0.031 A 
ATOM     52  C   UNL A   1      44.340  29.893  26.997  1.00  0.00     0.074 A 
ATOM     53  C   UNL A   1      43.797  27.600  27.537  1.00  0.00     0.049 A 
ATOM     54  N   UNL A   1      45.613  29.760  27.167  1.00  0.00    -0.248 NA
ATOM     55  C   UNL A   1      43.970  31.248  26.605  1.00  0.00     0.031 C 
ATOM     56  C   UNL A   1      44.988  27.428  28.371  1.00  0.00     0.029 A 
ATOM     57  N   UNL A   1      43.294  26.310  27.417  1.00  0.00    -0.354 N 
ATOM     58  C   UNL A   1      46.192  31.004  27.180  1.00  0.00     0.074 A 
ATOM     59  C   UNL A   1      45.142  31.882  26.717  1.00  0.00     0.031 C 
ATOM     60  C   UNL A   1      45.182  26.127  28.570  1.00  0.00     0.029 A 
ATOM     61  C   UNL A   1      44.288  25.388  27.737  1.00  0.00     0.049 A 
ATOM     62  H   UNL A   1      42.375  26.083  27.145  1.00  0.00     0.167 HD
ATOM     63  C   UNL A   1      47.476  31.150  27.629  1.00  0.00     0.037 A 
ATOM     64  C   UNL A   1      44.697  24.330  26.994  1.00  0.00     0.037 A 
ATOM     65  C   UNL A   1      48.197  29.849  27.714  1.00  0.00     0.049 A 
ATOM     66  C   UNL A   1      46.033  24.643  26.323  1.00  0.00     0.074 A 
ATOM     67  C   UNL A   1      49.085  29.226  28.574  1.00  0.00     0.029 A 
ATOM     68  N   UNL A   1      47.971  28.899  26.709  1.00  0.00    -0.354 N 
ATOM     69  N   UNL A   1      46.890  25.563  26.713  1.00  0.00    -0.248 NA
ATOM     70  C   UNL A   1      46.454  24.007  25.081  1.00  0.00     0.031 C 
ATOM     71  C   UNL A   1      49.439  27.945  28.024  1.00  0.00     0.029 A 
ATOM     72  C   UNL A   1      48.731  27.756  26.853  1.00  0.00     0.049 A 
ATOM     73  H   UNL A   1      47.333  29.034  25.972  1.00  0.00     0.167 HD
ATOM     74  C   UNL A   1      47.836  25.770  25.738  1.00  0.00     0.074 A 
ATOM     75  C   UNL A   1      47.528  24.746  24.748  1.00  0.00     0.031 C 
ATOM     76  C   UNL A   1      48.759  26.789  25.753  1.00  0.00     0.037 A 
BRANCH  63  77
ATOM     77  C   UNL A   1      48.095  32.511  27.999  1.00  0.00     0.058 A 
ATOM     78  C   UNL A   1      48.354  33.505  27.027  1.00  0.00     0.135 A 
ATOM     79  C   UNL A   1      48.533  32.873  29.299  1.00  0.00     0.135 A 
ATOM     80  F   UNL A   1      48.054  33.312  25.736  1.00  0.00    -0.206 F 
ATOM     81  C   UNL A   1      48.959  34.742  27.321  1.00  0.00     0.059 A 
ATOM     82  C   UNL A   1      49.066  34.126  29.630  1.00  0.00     0.059 A 
ATOM     83  F   UNL A   1      48.544  32.004  30.315  1.00  0.00    -0.206 F 
ATOM     84  C   UNL A   1      49.298  35.053  28.631  1.00  0.00     0.060 A 
BRANCH  84  85
ATOM     85  S   UNL A   1      50.086  36.632  29.011  1.00  0.00     0.124 S 
ATOM     86  O   UNL A   1      49.913  36.716  30.457  1.00  0.00    -0.237 OA
ATOM     87  O   UNL A   1      51.454  36.423  28.545  1.00  0.00    -0.237 OA
ATOM     88  O   UNL A   1      49.310  37.597  28.235  1.00  0.00    -0.744 OA
ENDBRANCH  84  85
ENDBRANCH  63  77
BRANCH  64  89
ATOM     89  C   UNL A   1      43.553  23.450  26.611  1.00  0.00     0.058 A 
ATOM     90  C   UNL A   1      43.543  23.117  25.235  1.00  0.00     0.135 A 
ATOM     91  C   UNL A   1      43.119  22.465  27.507  1.00  0.00     0.135 A 
ATOM     92  F   UNL A   1      43.859  24.050  24.321  1.00  0.00    -0.206 F 
ATOM     93  C   UNL A   1      43.451  21.795  24.806  1.00  0.00     0.059 A 
ATOM     94  C   UNL A   1      43.031  21.131  27.101  1.00  0.00     0.059 A 
ATOM     95  F   UNL A   1      43.077  22.731  28.821  1.00  0.00    -0.206 F 
ATOM     96  C   UNL A   1      43.293  20.799  25.767  1.00  0.00     0.060 A 
BRANCH  96  97
ATOM     97  S   UNL A   1      43.789  19.095  25.365  1.00  0.00     0.124 S 
ATOM     98  O   UNL A   1      43.516  19.030  23.937  1.00  0.00    -0.237 OA
ATOM     99  O   UNL A   1      45.198  19.055  25.747  1.00  0.00    -0.237 OA
ATOM    100  O   UNL A   1      42.906  18.314  26.227  1.00  0.00    -0.744 OA
ENDBRANCH  96  97
ENDBRANCH  64  89
BRANCH  76 101
ATOM    101  C   UNL A   1      49.755  27.042  24.629  1.00  0.00     0.058 A 
ATOM    102  C   UNL A   1      51.146  26.940  24.785  1.00  0.00     0.135 A 
ATOM    103  C   UNL A   1      49.326  27.475  23.348  1.00  0.00     0.135 A 
ATOM    104  F   UNL A   1      51.691  26.703  25.988  1.00  0.00    -0.206 F 
ATOM    105  C   UNL A   1      52.035  27.108  23.718  1.00  0.00     0.059 A 
ATOM    106  C   UNL A   1      50.197  27.710  22.287  1.00  0.00     0.059 A 
ATOM    107  F   UNL A   1      48.032  27.674  23.064  1.00  0.00    -0.206 F 
ATOM    108  C   UNL A   1      51.549  27.480  22.468  1.00  0.00     0.060 A 
BRANCH 108 109
ATOM    109  S   UNL A   1      52.701  27.685  21.099  1.00  0.00     0.124 S 
ATOM    110  O   UNL A   1      51.916  28.468  20.149  1.00  0.00    -0.237 OA
ATOM    111  O   UNL A   1      53.800  28.396  21.746  1.00  0.00    -0.237 OA
ATOM    112  O   UNL A   1      52.997  26.318  20.685  1.00  0.00    -0.744 OA
ENDBRANCH 108 109
ENDBRANCH  76 101
ENDBRANCH  50  51
ENDBRANCH  43  45
ENDBRANCH  42  43
ENDBRANCH  41  42
ENDBRANCH  40  41
ENDBRANCH  39  40
ENDBRANCH   1  39
TORSDOF 23
ENDMDL
MODEL 3
REMARK VINA RESULT:     -10.5      7.052     12.348
REMARK SMILES Cc1cccc(C(=O)Nc2cc(C(=O)OCCOCCOC(=O)c3ccc(-c4c5nc(c(-c6c(F)cc(S(=O)(=O)[O-])cc6F)c6ccc([nH]6)c(-c6c(F)cc(S(=O)(=O)[O-])cc6F)c6nc(c(-c7c(F)cc(S(=O)(=O)[O-])cc7F)c7ccc4[nH]7)C=C6)C=C5)cc3)ccc2N2CC[NH+](CC(=O)NC(C)(C)C)CC2)c1
REMARK SMILES IDX 17 1 16 2 15 3 13 4 14 5 12 6 10 7 11 8 92 9 91 10 90 11
REMARK SMILES IDX 9 12 7 13 8 14 6 16 1 17 2 18 3 19 107 20 4 21 5 22 93 23
REMARK SMILES IDX 94 24 106 25 95 26 105 27 96 28 97 30 98 31 99 32 100 33
REMARK SMILES IDX 101 35 102 36 103 37 104 38 18 39 19 40 20 41 21 42 22 43
REMARK SMILES IDX 23 44 24 45 25 46 89 47 26 48 88 49 27 50 28 51 29 52 82 53
REMARK SMILES IDX 30 54 87 55 81 56 83 57 31 58 86 59 80 60 79 61 32 63 66 64
REMARK SMILES IDX 45 65 65 66 46 67 49 68 64 69 84 70 47 71 48 72 63 74 85 75
REMARK SMILES IDX 50 76 33 77 34 78 43 79 35 80 36 81 42 82 44 83 37 84 38 85
REMARK SMILES IDX 39 86 40 87 41 88 67 89 68 90 77 91 69 92 70 93 76 94 78 95
REMARK SMILES IDX 71 96 72 97 73 98 74 99 75 100 51 101 52 102 61 103 53 104
REMARK SMILES IDX 54 105 60 106 62 107 55 108 56 109 57 110 58 111 59 112
REMARK H PARENT 9 15 96 29 100 34 83 62 49 73
REMARK Flexibility Score: inf
ROOT
ATOM      1  C   UNL A   1      35.406  32.002  28.048  1.00  0.00     0.202 C 
ENDROOT
BRANCH   1   2
ATOM      2  C   UNL A   1      33.976  32.294  27.664  1.00  0.00     0.261 C 
BRANCH   2   3
ATOM      3  O   UNL A   1      33.223  31.086  27.595  1.00  0.00    -0.460 OA
BRANCH   3   4
ATOM      4  C   UNL A   1      32.100  30.982  26.851  1.00  0.00     0.338 C 
ATOM      5  O   UNL A   1      31.377  31.830  26.373  1.00  0.00    -0.246 OA
BRANCH   4   6
ATOM      6  C   UNL A   1      32.000  29.532  26.592  1.00  0.00     0.062 A 
ATOM      7  C   UNL A   1      31.712  27.780  24.987  1.00  0.00     0.065 A 
ATOM      8  C   UNL A   1      31.830  29.114  25.276  1.00  0.00     0.044 A 
ATOM      9  C   UNL A   1      31.662  26.804  26.021  1.00  0.00     0.061 A 
ATOM     10  C   UNL A   1      31.822  27.245  27.346  1.00  0.00     0.029 A 
ATOM     11  C   UNL A   1      32.023  28.603  27.632  1.00  0.00     0.018 A 
BRANCH   7  12
ATOM     12  N   UNL A   1      31.788  27.421  23.627  1.00  0.00    -0.320 N 
ATOM     13  C   UNL A   1      30.845  27.660  22.627  1.00  0.00     0.255 C 
ATOM     14  O   UNL A   1      31.096  27.257  21.488  1.00  0.00    -0.269 OA
ATOM     15  H   UNL A   1      32.603  26.944  23.350  1.00  0.00     0.170 HD
BRANCH  13  16
ATOM     16  C   UNL A   1      29.624  28.537  22.817  1.00  0.00     0.040 A 
ATOM     17  C   UNL A   1      28.584  32.194  22.929  1.00  0.00     0.044 C 
ATOM     18  C   UNL A   1      28.459  30.699  22.833  1.00  0.00    -0.050 A 
ATOM     19  C   UNL A   1      27.258  30.055  23.133  1.00  0.00     0.003 A 
ATOM     20  C   UNL A   1      29.604  29.925  22.605  1.00  0.00     0.017 A 
ATOM     21  C   UNL A   1      27.233  28.668  23.281  1.00  0.00     0.001 A 
ATOM     22  C   UNL A   1      28.409  27.917  23.137  1.00  0.00     0.014 A 
ENDBRANCH  13  16
ENDBRANCH   7  12
BRANCH   9  23
ATOM     23  N   UNL A   1      31.682  25.458  25.687  1.00  0.00    -0.359 N 
ATOM     24  C   UNL A   1      30.733  24.430  26.137  1.00  0.00     0.178 C 
ATOM     25  C   UNL A   1      33.038  24.930  25.658  1.00  0.00     0.178 C 
ATOM     26  C   UNL A   1      30.942  23.116  25.295  1.00  0.00     0.284 C 
ATOM     27  C   UNL A   1      33.105  23.875  24.560  1.00  0.00     0.284 C 
ATOM     28  N   UNL A   1      32.320  22.694  24.912  1.00  0.00    -0.324 N 
ATOM     29  H   UNL A   1      32.186  22.088  24.101  1.00  0.00     0.348 HD
BRANCH  28  30
ATOM     30  C   UNL A   1      33.044  21.780  25.822  1.00  0.00     0.363 C 
BRANCH  30  31
ATOM     31  C   UNL A   1      33.878  20.666  25.188  1.00  0.00     0.275 C 
ATOM     32  O   UNL A   1      33.378  19.538  25.068  1.00  0.00    -0.268 OA
ATOM     33  N   UNL A   1      35.158  20.802  24.732  1.00  0.00    -0.347 N 
ATOM     34  H   UNL A   1      35.426  19.982  24.258  1.00  0.00     0.164 HD
BRANCH  33  35
ATOM     35  C   UNL A   1      36.288  21.784  24.713  1.00  0.00     0.032 C 
ATOM     36  C   UNL A   1      36.291  22.687  25.958  1.00  0.00     0.034 C 
ATOM     37  C   UNL A   1      37.588  20.956  24.823  1.00  0.00     0.034 C 
ATOM     38  C   UNL A   1      36.387  22.644  23.453  1.00  0.00     0.034 C 
ENDBRANCH  33  35
ENDBRANCH  30  31
ENDBRANCH  28  30
ENDBRANCH   9  23
ENDBRANCH   4   6
ENDBRANCH   3   4
ENDBRANCH   2   3
ENDBRANCH   1   2
BRANCH   1  39
ATOM     39  O   UNL A   1      35.314  31.254  29.254  1.00  0.00    -0.374 OA
BRANCH  39  40
ATOM     40  C   UNL A   1      36.248  30.223  29.456  1.00  0.00     0.202 C 
BRANCH  40  41
ATOM     41  C   UNL A   1      37.560  30.531  28.744  1.00  0.00     0.261 C 
BRANCH  41  42
ATOM     42  O   UNL A   1      38.482  31.117  29.690  1.00  0.00    -0.460 OA
BRANCH  42  43
ATOM     43  C   UNL A   1      38.998  30.242  30.601  1.00  0.00     0.338 C 
ATOM     44  O   UNL A   1      39.449  29.146  30.312  1.00  0.00    -0.246 OA
BRANCH  43  45
ATOM     45  C   UNL A   1      38.844  30.773  31.991  1.00  0.00     0.060 A 
ATOM     46  C   UNL A   1      38.069  31.924  32.231  1.00  0.00     0.016 A 
ATOM     47  C   UNL A   1      39.658  30.278  33.006  1.00  0.00     0.016 A 
ATOM     48  C   UNL A   1      38.198  32.641  33.441  1.00  0.00     0.010 A 
ATOM     49  C   UNL A   1      39.830  31.020  34.164  1.00  0.00     0.010 A 
ATOM     50  C   UNL A   1      39.134  32.226  34.392  1.00  0.00    -0.014 A 
BRANCH  50  51
ATOM     51  C   UNL A   1      39.690  33.044  35.498  1.00  0.00     0.031 A 
ATOM     52  C   UNL A   1      38.949  33.130  36.794  1.00  0.00     0.074 A 
ATOM     53  C   UNL A   1      41.036  33.154  35.574  1.00  0.00     0.049 A 
ATOM     54  N   UNL A   1      39.477  33.394  37.942  1.00  0.00    -0.248 NA
ATOM     55  C   UNL A   1      37.501  32.978  36.869  1.00  0.00     0.031 C 
ATOM     56  C   UNL A   1      41.825  32.801  36.755  1.00  0.00     0.029 A 
ATOM     57  N   UNL A   1      41.997  33.494  34.629  1.00  0.00    -0.354 N 
ATOM     58  C   UNL A   1      38.536  33.187  38.921  1.00  0.00     0.074 A 
ATOM     59  C   UNL A   1      37.300  33.038  38.189  1.00  0.00     0.031 C 
ATOM     60  C   UNL A   1      43.105  33.062  36.503  1.00  0.00     0.029 A 
ATOM     61  C   UNL A   1      43.204  33.770  35.267  1.00  0.00     0.049 A 
ATOM     62  H   UNL A   1      41.847  33.534  33.657  1.00  0.00     0.167 HD
ATOM     63  C   UNL A   1      38.925  33.119  40.230  1.00  0.00     0.037 A 
ATOM     64  C   UNL A   1      43.973  34.878  35.127  1.00  0.00     0.037 A 
ATOM     65  C   UNL A   1      40.304  33.639  40.439  1.00  0.00     0.049 A 
ATOM     66  C   UNL A   1      43.806  35.792  36.338  1.00  0.00     0.074 A 
ATOM     67  C   UNL A   1      41.422  33.305  41.187  1.00  0.00     0.029 A 
ATOM     68  N   UNL A   1      40.707  34.764  39.708  1.00  0.00    -0.354 N 
ATOM     69  N   UNL A   1      43.371  35.422  37.524  1.00  0.00    -0.248 NA
ATOM     70  C   UNL A   1      44.017  37.233  36.268  1.00  0.00     0.031 C 
ATOM     71  C   UNL A   1      42.445  34.287  40.952  1.00  0.00     0.029 A 
ATOM     72  C   UNL A   1      41.980  35.196  40.021  1.00  0.00     0.049 A 
ATOM     73  H   UNL A   1      40.136  35.204  39.037  1.00  0.00     0.167 HD
ATOM     74  C   UNL A   1      43.077  36.528  38.285  1.00  0.00     0.074 A 
ATOM     75  C   UNL A   1      43.529  37.637  37.454  1.00  0.00     0.031 C 
ATOM     76  C   UNL A   1      42.430  36.488  39.498  1.00  0.00     0.037 A 
BRANCH  63  77
ATOM     77  C   UNL A   1      38.026  32.566  41.353  1.00  0.00     0.058 A 
ATOM     78  C   UNL A   1      36.862  33.244  41.783  1.00  0.00     0.135 A 
ATOM     79  C   UNL A   1      38.302  31.397  42.107  1.00  0.00     0.135 A 
ATOM     80  F   UNL A   1      36.478  34.396  41.217  1.00  0.00    -0.206 F 
ATOM     81  C   UNL A   1      36.042  32.793  42.834  1.00  0.00     0.059 A 
ATOM     82  C   UNL A   1      37.461  30.886  43.105  1.00  0.00     0.059 A 
ATOM     83  F   UNL A   1      39.448  30.719  41.977  1.00  0.00    -0.206 F 
ATOM     84  C   UNL A   1      36.340  31.601  43.481  1.00  0.00     0.060 A 
BRANCH  84  85
ATOM     85  S   UNL A   1      35.299  31.024  44.839  1.00  0.00     0.124 S 
ATOM     86  O   UNL A   1      35.106  32.247  45.612  1.00  0.00    -0.237 OA
ATOM     87  O   UNL A   1      34.120  30.519  44.143  1.00  0.00    -0.237 OA
ATOM     88  O   UNL A   1      36.118  30.002  45.488  1.00  0.00    -0.744 OA
ENDBRANCH  84  85
ENDBRANCH  63  77
BRANCH  64  89
ATOM     89  C   UNL A   1      44.299  35.145  33.693  1.00  0.00     0.058 A 
ATOM     90  C   UNL A   1      45.015  34.089  33.079  1.00  0.00     0.135 A 
ATOM     91  C   UNL A   1      43.372  35.833  32.899  1.00  0.00     0.135 A 
ATOM     92  F   UNL A   1      45.983  33.455  33.762  1.00  0.00    -0.206 F 
ATOM     93  C   UNL A   1      44.592  33.525  31.878  1.00  0.00     0.059 A 
ATOM     94  C   UNL A   1      42.926  35.278  31.696  1.00  0.00     0.059 A 
ATOM     95  F   UNL A   1      42.685  36.862  33.416  1.00  0.00    -0.206 F 
ATOM     96  C   UNL A   1      43.479  34.074  31.246  1.00  0.00     0.060 A 
BRANCH  96  97
ATOM     97  S   UNL A   1      42.527  33.050  30.081  1.00  0.00     0.124 S 
ATOM     98  O   UNL A   1      41.266  33.774  30.003  1.00  0.00    -0.237 OA
ATOM     99  O   UNL A   1      43.347  33.065  28.873  1.00  0.00    -0.237 OA
ATOM    100  O   UNL A   1      42.490  31.764  30.773  1.00  0.00    -0.744 OA
ENDBRANCH  96  97
ENDBRANCH  64  89
BRANCH  76 101
ATOM    101  C   UNL A   1      42.054  37.731  40.295  1.00  0.00     0.058 A 
ATOM    102  C   UNL A   1      40.791  38.339  40.238  1.00  0.00     0.135 A 
ATOM    103  C   UNL A   1      43.006  38.402  41.104  1.00  0.00     0.135 A 
ATOM    104  F   UNL A   1      39.852  37.904  39.383  1.00  0.00    -0.206 F 
ATOM    105  C   UNL A   1      40.451  39.437  41.034  1.00  0.00     0.059 A 
ATOM    106  C   UNL A   1      42.709  39.535  41.858  1.00  0.00     0.059 A 
ATOM    107  F   UNL A   1      44.271  37.974  41.213  1.00  0.00    -0.206 F 
ATOM    108  C   UNL A   1      41.414  40.020  41.852  1.00  0.00     0.060 A 
BRANCH 108 109
ATOM    109  S   UNL A   1      40.962  41.430  42.880  1.00  0.00     0.124 S 
ATOM    110  O   UNL A   1      41.825  42.483  42.355  1.00  0.00    -0.237 OA
ATOM    111  O   UNL A   1      39.541  41.568  42.578  1.00  0.00    -0.237 OA
ATOM    112  O   UNL A   1      41.275  40.986  44.234  1.00  0.00    -0.744 OA
ENDBRANCH 108 109
ENDBRANCH  76 101
ENDBRANCH  50  51
ENDBRANCH  43  45
ENDBRANCH  42  43
ENDBRANCH  41  42
ENDBRANCH  40  41
ENDBRANCH  39  40
ENDBRANCH   1  39
TORSDOF 23
ENDMDL
