MODEL 1
REMARK VINA RESULT:     -10.0      0.000      0.000
REMARK SMILES CC[NH2+][C@]1(C(=O)OCCOCCOC(=O)c2ccc(-c3c4nc(c(-c5c(F)cc(S(=O)(=O)[O-])cc5F)c5ccc([nH]5)c(-c5c(F)cc(S(=O)(=O)[O-])cc5F)c5nc(c(-c6c(F)cc(S(=O)(=O)[O-])cc6F)c6ccc3[nH]6)C=C5)C=C4)cc2)CCC[C@H]1CCSc1ccc(Cl)cc1
REMARK SMILES IDX 9 1 8 2 7 3 5 4 6 5 4 6 82 7 85 8 83 9 84 10 3 11 2 14 1 15
REMARK SMILES IDX 86 16 87 17 88 18 89 19 90 20 95 21 91 22 94 23 92 24 93 25
REMARK SMILES IDX 10 26 11 27 12 28 13 29 14 30 15 31 16 32 17 33 81 34 18 35
REMARK SMILES IDX 80 36 19 37 20 38 21 39 74 40 22 41 79 42 73 43 75 44 23 45
REMARK SMILES IDX 78 46 72 47 71 48 24 50 58 51 37 52 57 53 38 54 41 55 56 56
REMARK SMILES IDX 76 57 39 58 40 59 55 61 77 62 42 63 25 64 26 65 35 66 27 67
REMARK SMILES IDX 28 68 34 69 36 70 29 71 30 72 31 73 32 74 33 75 59 76 60 77
REMARK SMILES IDX 69 78 61 79 62 80 68 81 70 82 63 83 64 84 65 85 66 86 67 87
REMARK SMILES IDX 43 88 44 89 53 90 45 91 46 92 52 93 54 94 47 95 48 96 49 97
REMARK SMILES IDX 50 98 51 99
REMARK H PARENT 3 12 3 13 75 49 41 60
REMARK Flexibility Score: inf
ROOT
ATOM      1  C   UNL A   1      35.218  21.640  26.383  1.00  0.00     0.202 C 
ENDROOT
BRANCH   1   2
ATOM      2  C   UNL A   1      34.997  23.101  25.991  1.00  0.00     0.261 C 
BRANCH   2   3
ATOM      3  O   UNL A   1      33.815  23.674  26.590  1.00  0.00    -0.459 OA
BRANCH   3   4
ATOM      4  C   UNL A   1      33.370  24.813  25.992  1.00  0.00     0.368 C 
ATOM      5  O   UNL A   1      34.031  25.846  25.934  1.00  0.00    -0.245 OA
BRANCH   4   6
ATOM      6  C   UNL A   1      31.909  24.701  25.466  1.00  0.00     0.197 C 
ATOM      7  C   UNL A   1      31.535  26.129  24.979  1.00  0.00     0.081 C 
ATOM      8  C   UNL A   1      31.594  23.870  24.177  1.00  0.00     0.063 C 
ATOM      9  C   UNL A   1      30.287  25.977  24.130  1.00  0.00     0.008 C 
ATOM     10  C   UNL A   1      30.309  24.540  23.623  1.00  0.00     0.011 C 
BRANCH   6  11
ATOM     11  N   UNL A   1      30.998  24.387  26.613  1.00  0.00    -0.332 N 
ATOM     12  H   UNL A   1      31.428  24.750  27.464  1.00  0.00     0.347 HD
ATOM     13  H   UNL A   1      30.103  24.820  26.391  1.00  0.00     0.347 HD
BRANCH  11  14
ATOM     14  C   UNL A   1      30.721  22.966  26.818  1.00  0.00     0.257 C 
ATOM     15  C   UNL A   1      29.290  22.769  27.294  1.00  0.00     0.071 C 
ENDBRANCH  11  14
ENDBRANCH   6  11
BRANCH   8  16
ATOM     16  C   UNL A   1      32.677  23.834  23.075  1.00  0.00     0.022 C 
BRANCH  16  17
ATOM     17  C   UNL A   1      33.196  22.433  22.715  1.00  0.00     0.075 C 
BRANCH  17  18
ATOM     18  S   UNL A   1      31.918  21.191  22.302  1.00  0.00    -0.126 SA
BRANCH  18  19
ATOM     19  C   UNL A   1      32.347  19.791  23.318  1.00  0.00     0.007 A 
ATOM     20  C   UNL A   1      32.535  18.565  22.668  1.00  0.00     0.016 A 
ATOM     21  C   UNL A   1      32.515  19.856  24.705  1.00  0.00     0.016 A 
ATOM     22  C   UNL A   1      32.802  17.405  23.399  1.00  0.00     0.021 A 
ATOM     23  C   UNL A   1      32.781  18.694  25.439  1.00  0.00     0.021 A 
ATOM     24  C   UNL A   1      32.900  17.471  24.785  1.00  0.00     0.041 A 
ATOM     25  Cl  UNL A   1      33.135  16.030  25.692  1.00  0.00    -0.084 Cl
ENDBRANCH  18  19
ENDBRANCH  17  18
ENDBRANCH  16  17
ENDBRANCH   8  16
ENDBRANCH   4   6
ENDBRANCH   3   4
ENDBRANCH   2   3
ENDBRANCH   1   2
BRANCH   1  26
ATOM     26  O   UNL A   1      35.928  20.854  25.425  1.00  0.00    -0.374 OA
BRANCH  26  27
ATOM     27  C   UNL A   1      36.970  21.523  24.716  1.00  0.00     0.202 C 
BRANCH  27  28
ATOM     28  C   UNL A   1      38.283  21.649  25.499  1.00  0.00     0.261 C 
BRANCH  28  29
ATOM     29  O   UNL A   1      38.422  22.977  26.048  1.00  0.00    -0.460 OA
BRANCH  29  30
ATOM     30  C   UNL A   1      39.657  23.274  26.512  1.00  0.00     0.338 C 
ATOM     31  O   UNL A   1      40.688  22.651  26.285  1.00  0.00    -0.246 OA
BRANCH  30  32
ATOM     32  C   UNL A   1      39.666  24.587  27.192  1.00  0.00     0.060 A 
ATOM     33  C   UNL A   1      40.451  25.586  26.606  1.00  0.00     0.016 A 
ATOM     34  C   UNL A   1      39.010  24.834  28.403  1.00  0.00     0.016 A 
ATOM     35  C   UNL A   1      40.670  26.789  27.272  1.00  0.00     0.010 A 
ATOM     36  C   UNL A   1      39.222  26.055  29.068  1.00  0.00     0.010 A 
ATOM     37  C   UNL A   1      40.105  27.013  28.536  1.00  0.00    -0.014 A 
BRANCH  37  38
ATOM     38  C   UNL A   1      40.616  28.166  29.331  1.00  0.00     0.031 A 
ATOM     39  C   UNL A   1      39.730  29.371  29.540  1.00  0.00     0.074 A 
ATOM     40  C   UNL A   1      41.793  28.094  29.985  1.00  0.00     0.049 A 
ATOM     41  N   UNL A   1      39.903  30.402  30.329  1.00  0.00    -0.248 NA
ATOM     42  C   UNL A   1      38.481  29.418  28.763  1.00  0.00     0.031 C 
ATOM     43  C   UNL A   1      42.742  26.985  29.896  1.00  0.00     0.029 A 
ATOM     44  N   UNL A   1      42.376  28.964  30.875  1.00  0.00    -0.354 N 
ATOM     45  C   UNL A   1      38.788  31.213  30.150  1.00  0.00     0.074 A 
ATOM     46  C   UNL A   1      37.967  30.579  29.142  1.00  0.00     0.031 C 
ATOM     47  C   UNL A   1      43.779  27.232  30.715  1.00  0.00     0.029 A 
ATOM     48  C   UNL A   1      43.577  28.520  31.378  1.00  0.00     0.049 A 
ATOM     49  H   UNL A   1      41.971  29.823  31.130  1.00  0.00     0.167 HD
ATOM     50  C   UNL A   1      38.459  32.366  30.779  1.00  0.00     0.037 A 
ATOM     51  C   UNL A   1      44.416  29.080  32.274  1.00  0.00     0.037 A 
ATOM     52  C   UNL A   1      39.260  33.000  31.794  1.00  0.00     0.049 A 
ATOM     53  C   UNL A   1      44.049  30.385  32.934  1.00  0.00     0.074 A 
ATOM     54  C   UNL A   1      38.987  34.156  32.507  1.00  0.00     0.029 A 
ATOM     55  N   UNL A   1      40.491  32.542  32.236  1.00  0.00    -0.354 N 
ATOM     56  N   UNL A   1      42.965  31.109  32.787  1.00  0.00    -0.248 NA
ATOM     57  C   UNL A   1      45.014  30.941  33.894  1.00  0.00     0.031 C 
ATOM     58  C   UNL A   1      40.074  34.421  33.346  1.00  0.00     0.029 A 
ATOM     59  C   UNL A   1      41.002  33.404  33.193  1.00  0.00     0.049 A 
ATOM     60  H   UNL A   1      40.936  31.724  31.918  1.00  0.00     0.167 HD
ATOM     61  C   UNL A   1      43.108  32.190  33.653  1.00  0.00     0.074 A 
ATOM     62  C   UNL A   1      44.376  32.018  34.330  1.00  0.00     0.031 C 
ATOM     63  C   UNL A   1      42.263  33.229  33.869  1.00  0.00     0.037 A 
BRANCH  50  64
ATOM     64  C   UNL A   1      37.172  33.033  30.379  1.00  0.00     0.058 A 
ATOM     65  C   UNL A   1      37.096  33.882  29.263  1.00  0.00     0.135 A 
ATOM     66  C   UNL A   1      35.991  32.790  31.100  1.00  0.00     0.135 A 
ATOM     67  F   UNL A   1      38.199  34.160  28.550  1.00  0.00    -0.206 F 
ATOM     68  C   UNL A   1      35.901  34.487  28.891  1.00  0.00     0.059 A 
ATOM     69  C   UNL A   1      34.779  33.365  30.730  1.00  0.00     0.059 A 
ATOM     70  F   UNL A   1      36.008  31.988  32.175  1.00  0.00    -0.206 F 
ATOM     71  C   UNL A   1      34.747  34.224  29.632  1.00  0.00     0.060 A 
BRANCH  71  72
ATOM     72  S   UNL A   1      33.202  35.014  29.135  1.00  0.00     0.124 S 
ATOM     73  O   UNL A   1      32.486  35.074  30.406  1.00  0.00    -0.237 OA
ATOM     74  O   UNL A   1      33.661  36.295  28.605  1.00  0.00    -0.237 OA
ATOM     75  O   UNL A   1      32.651  34.093  28.147  1.00  0.00    -0.744 OA
ENDBRANCH  71  72
ENDBRANCH  50  64
BRANCH  51  76
ATOM     76  C   UNL A   1      45.698  28.403  32.610  1.00  0.00     0.058 A 
ATOM     77  C   UNL A   1      46.866  28.639  31.870  1.00  0.00     0.135 A 
ATOM     78  C   UNL A   1      45.771  27.494  33.677  1.00  0.00     0.135 A 
ATOM     79  F   UNL A   1      46.842  29.489  30.833  1.00  0.00    -0.206 F 
ATOM     80  C   UNL A   1      48.059  27.988  32.167  1.00  0.00     0.059 A 
ATOM     81  C   UNL A   1      46.958  26.850  34.009  1.00  0.00     0.059 A 
ATOM     82  F   UNL A   1      44.683  27.240  34.419  1.00  0.00    -0.206 F 
ATOM     83  C   UNL A   1      48.095  27.097  33.241  1.00  0.00     0.060 A 
BRANCH  83  84
ATOM     84  S   UNL A   1      49.661  26.296  33.653  1.00  0.00     0.124 S 
ATOM     85  O   UNL A   1      50.604  27.061  32.848  1.00  0.00    -0.237 OA
ATOM     86  O   UNL A   1      49.738  26.499  35.097  1.00  0.00    -0.237 OA
ATOM     87  O   UNL A   1      49.447  24.913  33.235  1.00  0.00    -0.744 OA
ENDBRANCH  83  84
ENDBRANCH  51  76
BRANCH  63  88
ATOM     88  C   UNL A   1      42.661  34.253  34.898  1.00  0.00     0.058 A 
ATOM     89  C   UNL A   1      43.273  35.465  34.539  1.00  0.00     0.135 A 
ATOM     90  C   UNL A   1      42.388  34.038  36.259  1.00  0.00     0.135 A 
ATOM     91  F   UNL A   1      43.558  35.721  33.252  1.00  0.00    -0.206 F 
ATOM     92  C   UNL A   1      43.626  36.414  35.494  1.00  0.00     0.059 A 
ATOM     93  C   UNL A   1      42.708  34.985  37.229  1.00  0.00     0.059 A 
ATOM     94  F   UNL A   1      41.792  32.904  36.659  1.00  0.00    -0.206 F 
ATOM     95  C   UNL A   1      43.341  36.164  36.838  1.00  0.00     0.060 A 
BRANCH  95  96
ATOM     96  S   UNL A   1      43.786  37.411  38.067  1.00  0.00     0.124 S 
ATOM     97  O   UNL A   1      42.480  37.765  38.612  1.00  0.00    -0.237 OA
ATOM     98  O   UNL A   1      44.667  36.668  38.964  1.00  0.00    -0.237 OA
ATOM     99  O   UNL A   1      44.439  38.448  37.275  1.00  0.00    -0.744 OA
ENDBRANCH  95  96
ENDBRANCH  63  88
ENDBRANCH  37  38
ENDBRANCH  30  32
ENDBRANCH  29  30
ENDBRANCH  28  29
ENDBRANCH  27  28
ENDBRANCH  26  27
ENDBRANCH   1  26
TORSDOF 23
ENDMDL
MODEL 2
REMARK VINA RESULT:      -9.7      3.147      7.868
REMARK SMILES CC[NH2+][C@]1(C(=O)OCCOCCOC(=O)c2ccc(-c3c4nc(c(-c5c(F)cc(S(=O)(=O)[O-])cc5F)c5ccc([nH]5)c(-c5c(F)cc(S(=O)(=O)[O-])cc5F)c5nc(c(-c6c(F)cc(S(=O)(=O)[O-])cc6F)c6ccc3[nH]6)C=C5)C=C4)cc2)CCC[C@H]1CCSc1ccc(Cl)cc1
REMARK SMILES IDX 9 1 8 2 7 3 5 4 6 5 4 6 82 7 85 8 83 9 84 10 3 11 2 14 1 15
REMARK SMILES IDX 86 16 87 17 88 18 89 19 90 20 95 21 91 22 94 23 92 24 93 25
REMARK SMILES IDX 10 26 11 27 12 28 13 29 14 30 15 31 16 32 17 33 81 34 18 35
REMARK SMILES IDX 80 36 19 37 20 38 21 39 74 40 22 41 79 42 73 43 75 44 23 45
REMARK SMILES IDX 78 46 72 47 71 48 24 50 58 51 37 52 57 53 38 54 41 55 56 56
REMARK SMILES IDX 76 57 39 58 40 59 55 61 77 62 42 63 25 64 26 65 35 66 27 67
REMARK SMILES IDX 28 68 34 69 36 70 29 71 30 72 31 73 32 74 33 75 59 76 60 77
REMARK SMILES IDX 69 78 61 79 62 80 68 81 70 82 63 83 64 84 65 85 66 86 67 87
REMARK SMILES IDX 43 88 44 89 53 90 45 91 46 92 52 93 54 94 47 95 48 96 49 97
REMARK SMILES IDX 50 98 51 99
REMARK H PARENT 3 12 3 13 75 49 41 60
REMARK Flexibility Score: inf
ROOT
ATOM      1  C   UNL A   1      33.325  29.271  26.995  1.00  0.00     0.202 C 
ENDROOT
BRANCH   1   2
ATOM      2  C   UNL A   1      33.950  28.989  25.629  1.00  0.00     0.261 C 
BRANCH   2   3
ATOM      3  O   UNL A   1      32.988  29.012  24.552  1.00  0.00    -0.459 OA
BRANCH   3   4
ATOM      4  C   UNL A   1      33.436  28.486  23.380  1.00  0.00     0.368 C 
ATOM      5  O   UNL A   1      34.466  28.857  22.824  1.00  0.00    -0.245 OA
BRANCH   4   6
ATOM      6  C   UNL A   1      32.468  27.429  22.770  1.00  0.00     0.197 C 
ATOM      7  C   UNL A   1      33.310  26.657  21.717  1.00  0.00     0.081 C 
ATOM      8  C   UNL A   1      31.944  26.241  23.644  1.00  0.00     0.063 C 
ATOM      9  C   UNL A   1      32.529  25.399  21.385  1.00  0.00     0.008 C 
ATOM     10  C   UNL A   1      31.648  25.132  22.600  1.00  0.00     0.011 C 
BRANCH   6  11
ATOM     11  N   UNL A   1      31.383  28.136  22.017  1.00  0.00    -0.332 N 
ATOM     12  H   UNL A   1      31.823  28.705  21.291  1.00  0.00     0.347 HD
ATOM     13  H   UNL A   1      30.772  27.408  21.650  1.00  0.00     0.347 HD
BRANCH  11  14
ATOM     14  C   UNL A   1      30.532  29.011  22.822  1.00  0.00     0.257 C 
ATOM     15  C   UNL A   1      29.125  28.440  22.916  1.00  0.00     0.071 C 
ENDBRANCH  11  14
ENDBRANCH   6  11
BRANCH   8  16
ATOM     16  C   UNL A   1      32.892  25.689  24.732  1.00  0.00     0.022 C 
BRANCH  16  17
ATOM     17  C   UNL A   1      32.581  24.261  25.207  1.00  0.00     0.075 C 
BRANCH  17  18
ATOM     18  S   UNL A   1      34.011  23.125  25.303  1.00  0.00    -0.126 SA
BRANCH  18  19
ATOM     19  C   UNL A   1      33.415  21.632  24.533  1.00  0.00     0.007 A 
ATOM     20  C   UNL A   1      33.817  20.416  25.102  1.00  0.00     0.016 A 
ATOM     21  C   UNL A   1      32.572  21.612  23.417  1.00  0.00     0.016 A 
ATOM     22  C   UNL A   1      33.453  19.202  24.518  1.00  0.00     0.021 A 
ATOM     23  C   UNL A   1      32.208  20.395  22.829  1.00  0.00     0.021 A 
ATOM     24  C   UNL A   1      32.669  19.197  23.368  1.00  0.00     0.041 A 
ATOM     25  Cl  UNL A   1      32.299  17.708  22.594  1.00  0.00    -0.084 Cl
ENDBRANCH  18  19
ENDBRANCH  17  18
ENDBRANCH  16  17
ENDBRANCH   8  16
ENDBRANCH   4   6
ENDBRANCH   3   4
ENDBRANCH   2   3
ENDBRANCH   1   2
BRANCH   1  26
ATOM     26  O   UNL A   1      33.216  30.653  27.340  1.00  0.00    -0.374 OA
BRANCH  26  27
ATOM     27  C   UNL A   1      32.044  31.323  26.879  1.00  0.00     0.202 C 
BRANCH  27  28
ATOM     28  C   UNL A   1      32.022  32.828  27.175  1.00  0.00     0.261 C 
BRANCH  28  29
ATOM     29  O   UNL A   1      33.338  33.293  27.544  1.00  0.00    -0.460 OA
BRANCH  29  30
ATOM     30  C   UNL A   1      33.355  34.263  28.486  1.00  0.00     0.338 C 
ATOM     31  O   UNL A   1      32.480  35.098  28.684  1.00  0.00    -0.246 OA
BRANCH  30  32
ATOM     32  C   UNL A   1      34.497  34.086  29.409  1.00  0.00     0.060 A 
ATOM     33  C   UNL A   1      35.772  34.260  28.860  1.00  0.00     0.016 A 
ATOM     34  C   UNL A   1      34.357  33.683  30.741  1.00  0.00     0.016 A 
ATOM     35  C   UNL A   1      36.905  33.933  29.601  1.00  0.00     0.010 A 
ATOM     36  C   UNL A   1      35.504  33.365  31.490  1.00  0.00     0.010 A 
ATOM     37  C   UNL A   1      36.781  33.427  30.903  1.00  0.00    -0.014 A 
BRANCH  37  38
ATOM     38  C   UNL A   1      37.985  32.806  31.525  1.00  0.00     0.031 A 
ATOM     39  C   UNL A   1      38.445  33.283  32.883  1.00  0.00     0.074 A 
ATOM     40  C   UNL A   1      38.583  31.734  30.968  1.00  0.00     0.049 A 
ATOM     41  N   UNL A   1      39.353  32.775  33.677  1.00  0.00    -0.248 NA
ATOM     42  C   UNL A   1      37.789  34.487  33.419  1.00  0.00     0.031 C 
ATOM     43  C   UNL A   1      38.233  31.149  29.674  1.00  0.00     0.029 A 
ATOM     44  N   UNL A   1      39.594  30.930  31.437  1.00  0.00    -0.354 N 
ATOM     45  C   UNL A   1      39.374  33.589  34.805  1.00  0.00     0.074 A 
ATOM     46  C   UNL A   1      38.421  34.652  34.571  1.00  0.00     0.031 C 
ATOM     47  C   UNL A   1      39.004  30.068  29.461  1.00  0.00     0.029 A 
ATOM     48  C   UNL A   1      39.910  29.889  30.596  1.00  0.00     0.049 A 
ATOM     49  H   UNL A   1      40.050  31.085  32.296  1.00  0.00     0.167 HD
ATOM     50  C   UNL A   1      40.098  33.457  35.941  1.00  0.00     0.037 A 
ATOM     51  C   UNL A   1      40.817  28.899  30.724  1.00  0.00     0.037 A 
ATOM     52  C   UNL A   1      41.040  32.396  36.192  1.00  0.00     0.049 A 
ATOM     53  C   UNL A   1      41.641  28.793  31.982  1.00  0.00     0.074 A 
ATOM     54  C   UNL A   1      41.795  32.168  37.330  1.00  0.00     0.029 A 
ATOM     55  N   UNL A   1      41.362  31.392  35.293  1.00  0.00    -0.354 N 
ATOM     56  N   UNL A   1      41.609  29.544  33.057  1.00  0.00    -0.248 NA
ATOM     57  C   UNL A   1      42.616  27.694  32.049  1.00  0.00     0.031 C 
ATOM     58  C   UNL A   1      42.609  31.054  37.102  1.00  0.00     0.029 A 
ATOM     59  C   UNL A   1      42.324  30.557  35.841  1.00  0.00     0.049 A 
ATOM     60  H   UNL A   1      40.967  31.287  34.398  1.00  0.00     0.167 HD
ATOM     61  C   UNL A   1      42.538  28.992  33.935  1.00  0.00     0.074 A 
ATOM     62  C   UNL A   1      43.107  27.838  33.273  1.00  0.00     0.031 C 
ATOM     63  C   UNL A   1      42.886  29.406  35.180  1.00  0.00     0.037 A 
BRANCH  50  64
ATOM     64  C   UNL A   1      39.911  34.499  37.009  1.00  0.00     0.058 A 
ATOM     65  C   UNL A   1      40.639  35.700  37.005  1.00  0.00     0.135 A 
ATOM     66  C   UNL A   1      38.965  34.310  38.029  1.00  0.00     0.135 A 
ATOM     67  F   UNL A   1      41.567  35.923  36.061  1.00  0.00    -0.206 F 
ATOM     68  C   UNL A   1      40.454  36.665  37.988  1.00  0.00     0.059 A 
ATOM     69  C   UNL A   1      38.745  35.273  39.010  1.00  0.00     0.059 A 
ATOM     70  F   UNL A   1      38.243  33.179  38.081  1.00  0.00    -0.206 F 
ATOM     71  C   UNL A   1      39.505  36.442  38.988  1.00  0.00     0.060 A 
BRANCH  71  72
ATOM     72  S   UNL A   1      39.273  37.705  40.257  1.00  0.00     0.124 S 
ATOM     73  O   UNL A   1      40.525  38.449  40.157  1.00  0.00    -0.237 OA
ATOM     74  O   UNL A   1      38.081  38.404  39.789  1.00  0.00    -0.237 OA
ATOM     75  O   UNL A   1      39.101  36.930  41.481  1.00  0.00    -0.744 OA
ENDBRANCH  71  72
ENDBRANCH  50  64
BRANCH  51  76
ATOM     76  C   UNL A   1      40.995  27.912  29.624  1.00  0.00     0.058 A 
ATOM     77  C   UNL A   1      40.081  26.867  29.424  1.00  0.00     0.135 A 
ATOM     78  C   UNL A   1      42.096  27.993  28.758  1.00  0.00     0.135 A 
ATOM     79  F   UNL A   1      39.020  26.740  30.235  1.00  0.00    -0.206 F 
ATOM     80  C   UNL A   1      40.259  25.928  28.413  1.00  0.00     0.059 A 
ATOM     81  C   UNL A   1      42.282  27.081  27.724  1.00  0.00     0.059 A 
ATOM     82  F   UNL A   1      42.995  28.978  28.904  1.00  0.00    -0.206 F 
ATOM     83  C   UNL A   1      41.362  26.046  27.565  1.00  0.00     0.060 A 
BRANCH  83  84
ATOM     84  S   UNL A   1      41.558  24.855  26.222  1.00  0.00     0.124 S 
ATOM     85  O   UNL A   1      40.579  23.838  26.585  1.00  0.00    -0.237 OA
ATOM     86  O   UNL A   1      41.238  25.662  25.048  1.00  0.00    -0.237 OA
ATOM     87  O   UNL A   1      42.957  24.455  26.333  1.00  0.00    -0.744 OA
ENDBRANCH  83  84
ENDBRANCH  51  76
BRANCH  63  88
ATOM     88  C   UNL A   1      43.911  28.594  35.926  1.00  0.00     0.058 A 
ATOM     89  C   UNL A   1      43.547  27.506  36.736  1.00  0.00     0.135 A 
ATOM     90  C   UNL A   1      45.280  28.881  35.795  1.00  0.00     0.135 A 
ATOM     91  F   UNL A   1      42.252  27.189  36.897  1.00  0.00    -0.206 F 
ATOM     92  C   UNL A   1      44.501  26.750  37.412  1.00  0.00     0.059 A 
ATOM     93  C   UNL A   1      46.252  28.122  36.441  1.00  0.00     0.059 A 
ATOM     94  F   UNL A   1      45.687  29.901  35.023  1.00  0.00    -0.206 F 
ATOM     95  C   UNL A   1      45.852  27.068  37.260  1.00  0.00     0.060 A 
BRANCH  95  96
ATOM     96  S   UNL A   1      47.081  26.069  38.128  1.00  0.00     0.124 S 
ATOM     97  O   UNL A   1      47.034  26.644  39.468  1.00  0.00    -0.237 OA
ATOM     98  O   UNL A   1      46.539  24.719  37.998  1.00  0.00    -0.237 OA
ATOM     99  O   UNL A   1      48.309  26.318  37.380  1.00  0.00    -0.744 OA
ENDBRANCH  95  96
ENDBRANCH  63  88
ENDBRANCH  37  38
ENDBRANCH  30  32
ENDBRANCH  29  30
ENDBRANCH  28  29
ENDBRANCH  27  28
ENDBRANCH  26  27
ENDBRANCH   1  26
TORSDOF 23
ENDMDL
MODEL 3
REMARK VINA RESULT:      -9.4      4.970     10.030
REMARK SMILES CC[NH2+][C@]1(C(=O)OCCOCCOC(=O)c2ccc(-c3c4nc(c(-c5c(F)cc(S(=O)(=O)[O-])cc5F)c5ccc([nH]5)c(-c5c(F)cc(S(=O)(=O)[O-])cc5F)c5nc(c(-c6c(F)cc(S(=O)(=O)[O-])cc6F)c6ccc3[nH]6)C=C5)C=C4)cc2)CCC[C@H]1CCSc1ccc(Cl)cc1
REMARK SMILES IDX 9 1 8 2 7 3 5 4 6 5 4 6 82 7 85 8 83 9 84 10 3 11 2 14 1 15
REMARK SMILES IDX 86 16 87 17 88 18 89 19 90 20 95 21 91 22 94 23 92 24 93 25
REMARK SMILES IDX 10 26 11 27 12 28 13 29 14 30 15 31 16 32 17 33 81 34 18 35
REMARK SMILES IDX 80 36 19 37 20 38 21 39 74 40 22 41 79 42 73 43 75 44 23 45
REMARK SMILES IDX 78 46 72 47 71 48 24 50 58 51 37 52 57 53 38 54 41 55 56 56
REMARK SMILES IDX 76 57 39 58 40 59 55 61 77 62 42 63 25 64 26 65 35 66 27 67
REMARK SMILES IDX 28 68 34 69 36 70 29 71 30 72 31 73 32 74 33 75 59 76 60 77
REMARK SMILES IDX 69 78 61 79 62 80 68 81 70 82 63 83 64 84 65 85 66 86 67 87
REMARK SMILES IDX 43 88 44 89 53 90 45 91 46 92 52 93 54 94 47 95 48 96 49 97
REMARK SMILES IDX 50 98 51 99
REMARK H PARENT 3 12 3 13 75 49 41 60
REMARK Flexibility Score: inf
ROOT
ATOM      1  C   UNL A   1      34.498  30.183  28.257  1.00  0.00     0.202 C 
ENDROOT
BRANCH   1   2
ATOM      2  C   UNL A   1      34.942  29.206  27.169  1.00  0.00     0.261 C 
BRANCH   2   3
ATOM      3  O   UNL A   1      34.053  29.184  26.031  1.00  0.00    -0.459 OA
BRANCH   3   4
ATOM      4  C   UNL A   1      33.483  27.975  25.778  1.00  0.00     0.368 C 
ATOM      5  O   UNL A   1      34.060  26.906  25.960  1.00  0.00    -0.245 OA
BRANCH   4   6
ATOM      6  C   UNL A   1      32.060  28.083  25.155  1.00  0.00     0.197 C 
ATOM      7  C   UNL A   1      31.726  29.601  25.149  1.00  0.00     0.081 C 
ATOM      8  C   UNL A   1      31.830  27.735  23.646  1.00  0.00     0.063 C 
ATOM      9  C   UNL A   1      30.538  29.773  24.221  1.00  0.00     0.008 C 
ATOM     10  C   UNL A   1      30.588  28.585  23.267  1.00  0.00     0.011 C 
BRANCH   6  11
ATOM     11  N   UNL A   1      31.073  27.430  26.073  1.00  0.00    -0.332 N 
ATOM     12  H   UNL A   1      31.294  27.717  27.027  1.00  0.00     0.347 HD
ATOM     13  H   UNL A   1      30.152  27.731  25.758  1.00  0.00     0.347 HD
BRANCH  11  14
ATOM     14  C   UNL A   1      31.056  25.968  26.033  1.00  0.00     0.257 C 
ATOM     15  C   UNL A   1      29.727  25.469  25.488  1.00  0.00     0.071 C 
ENDBRANCH  11  14
ENDBRANCH   6  11
BRANCH   8  16
ATOM     16  C   UNL A   1      32.984  28.038  22.664  1.00  0.00     0.022 C 
BRANCH  16  17
ATOM     17  C   UNL A   1      33.487  26.832  21.855  1.00  0.00     0.075 C 
BRANCH  17  18
ATOM     18  S   UNL A   1      32.268  25.499  21.571  1.00  0.00    -0.126 SA
BRANCH  18  19
ATOM     19  C   UNL A   1      32.839  24.175  22.618  1.00  0.00     0.007 A 
ATOM     20  C   UNL A   1      34.180  24.212  23.021  1.00  0.00     0.016 A 
ATOM     21  C   UNL A   1      32.028  23.124  23.061  1.00  0.00     0.016 A 
ATOM     22  C   UNL A   1      34.724  23.177  23.782  1.00  0.00     0.021 A 
ATOM     23  C   UNL A   1      32.573  22.084  23.822  1.00  0.00     0.021 A 
ATOM     24  C   UNL A   1      33.924  22.103  24.160  1.00  0.00     0.041 A 
ATOM     25  Cl  UNL A   1      34.614  20.783  25.015  1.00  0.00    -0.084 Cl
ENDBRANCH  18  19
ENDBRANCH  17  18
ENDBRANCH  16  17
ENDBRANCH   8  16
ENDBRANCH   4   6
ENDBRANCH   3   4
ENDBRANCH   2   3
ENDBRANCH   1   2
BRANCH   1  26
ATOM     26  O   UNL A   1      34.575  31.564  27.902  1.00  0.00    -0.374 OA
BRANCH  26  27
ATOM     27  C   UNL A   1      35.361  32.389  28.760  1.00  0.00     0.202 C 
BRANCH  27  28
ATOM     28  C   UNL A   1      35.058  32.211  30.253  1.00  0.00     0.261 C 
BRANCH  28  29
ATOM     29  O   UNL A   1      36.281  32.111  31.013  1.00  0.00    -0.460 OA
BRANCH  29  30
ATOM     30  C   UNL A   1      36.734  30.850  31.198  1.00  0.00     0.338 C 
ATOM     31  O   UNL A   1      36.054  29.867  31.469  1.00  0.00    -0.246 OA
BRANCH  30  32
ATOM     32  C   UNL A   1      38.164  30.743  30.838  1.00  0.00     0.060 A 
ATOM     33  C   UNL A   1      38.528  31.238  29.582  1.00  0.00     0.016 A 
ATOM     34  C   UNL A   1      39.117  30.110  31.644  1.00  0.00     0.016 A 
ATOM     35  C   UNL A   1      39.808  31.012  29.082  1.00  0.00     0.010 A 
ATOM     36  C   UNL A   1      40.413  29.895  31.142  1.00  0.00     0.010 A 
ATOM     37  C   UNL A   1      40.746  30.288  29.833  1.00  0.00    -0.014 A 
BRANCH  37  38
ATOM     38  C   UNL A   1      41.974  29.811  29.136  1.00  0.00     0.031 A 
ATOM     39  C   UNL A   1      43.171  30.728  29.035  1.00  0.00     0.074 A 
ATOM     40  C   UNL A   1      42.089  28.533  28.724  1.00  0.00     0.049 A 
ATOM     41  N   UNL A   1      44.386  30.463  28.628  1.00  0.00    -0.248 NA
ATOM     42  C   UNL A   1      42.972  32.125  29.454  1.00  0.00     0.031 C 
ATOM     43  C   UNL A   1      41.027  27.529  28.778  1.00  0.00     0.029 A 
ATOM     44  N   UNL A   1      43.165  27.854  28.201  1.00  0.00    -0.354 N 
ATOM     45  C   UNL A   1      45.098  31.653  28.748  1.00  0.00     0.074 A 
ATOM     46  C   UNL A   1      44.165  32.652  29.220  1.00  0.00     0.031 C 
ATOM     47  C   UNL A   1      41.509  26.358  28.327  1.00  0.00     0.029 A 
ATOM     48  C   UNL A   1      42.910  26.528  27.940  1.00  0.00     0.049 A 
ATOM     49  H   UNL A   1      44.037  28.279  28.032  1.00  0.00     0.167 HD
ATOM     50  C   UNL A   1      46.410  31.893  28.512  1.00  0.00     0.037 A 
ATOM     51  C   UNL A   1      43.711  25.559  27.453  1.00  0.00     0.037 A 
ATOM     52  C   UNL A   1      47.351  30.904  28.055  1.00  0.00     0.049 A 
ATOM     53  C   UNL A   1      45.160  25.858  27.159  1.00  0.00     0.074 A 
ATOM     54  C   UNL A   1      48.708  31.053  27.818  1.00  0.00     0.029 A 
ATOM     55  N   UNL A   1      47.039  29.587  27.756  1.00  0.00    -0.354 N 
ATOM     56  N   UNL A   1      45.823  26.976  27.328  1.00  0.00    -0.248 NA
ATOM     57  C   UNL A   1      45.972  24.755  26.623  1.00  0.00     0.031 C 
ATOM     58  C   UNL A   1      49.206  29.840  27.333  1.00  0.00     0.029 A 
ATOM     59  C   UNL A   1      48.171  28.920  27.315  1.00  0.00     0.049 A 
ATOM     60  H   UNL A   1      46.145  29.184  27.846  1.00  0.00     0.167 HD
ATOM     61  C   UNL A   1      47.134  26.704  26.943  1.00  0.00     0.074 A 
ATOM     62  C   UNL A   1      47.173  25.313  26.545  1.00  0.00     0.031 C 
ATOM     63  C   UNL A   1      48.207  27.533  26.923  1.00  0.00     0.037 A 
BRANCH  50  64
ATOM     64  C   UNL A   1      46.910  33.293  28.733  1.00  0.00     0.058 A 
ATOM     65  C   UNL A   1      46.981  34.226  27.686  1.00  0.00     0.135 A 
ATOM     66  C   UNL A   1      47.289  33.718  30.017  1.00  0.00     0.135 A 
ATOM     67  F   UNL A   1      46.646  33.866  26.437  1.00  0.00    -0.206 F 
ATOM     68  C   UNL A   1      47.434  35.523  27.898  1.00  0.00     0.059 A 
ATOM     69  C   UNL A   1      47.722  35.019  30.257  1.00  0.00     0.059 A 
ATOM     70  F   UNL A   1      47.241  32.866  31.053  1.00  0.00    -0.206 F 
ATOM     71  C   UNL A   1      47.804  35.911  29.188  1.00  0.00     0.060 A 
BRANCH  71  72
ATOM     72  S   UNL A   1      48.388  37.598  29.449  1.00  0.00     0.124 S 
ATOM     73  O   UNL A   1      48.938  37.509  30.799  1.00  0.00    -0.237 OA
ATOM     74  O   UNL A   1      49.364  37.763  28.376  1.00  0.00    -0.237 OA
ATOM     75  O   UNL A   1      47.177  38.402  29.318  1.00  0.00    -0.744 OA
ENDBRANCH  71  72
ENDBRANCH  50  64
BRANCH  51  76
ATOM     76  C   UNL A   1      43.162  24.197  27.213  1.00  0.00     0.058 A 
ATOM     77  C   UNL A   1      42.888  23.736  25.916  1.00  0.00     0.135 A 
ATOM     78  C   UNL A   1      42.890  23.333  28.285  1.00  0.00     0.135 A 
ATOM     79  F   UNL A   1      43.119  24.531  24.860  1.00  0.00    -0.206 F 
ATOM     80  C   UNL A   1      42.351  22.473  25.691  1.00  0.00     0.059 A 
ATOM     81  C   UNL A   1      42.376  22.057  28.084  1.00  0.00     0.059 A 
ATOM     82  F   UNL A   1      43.141  23.724  29.544  1.00  0.00    -0.206 F 
ATOM     83  C   UNL A   1      42.101  21.639  26.782  1.00  0.00     0.060 A 
BRANCH  83  84
ATOM     84  S   UNL A   1      41.453  19.981  26.479  1.00  0.00     0.124 S 
ATOM     85  O   UNL A   1      42.133  19.621  25.240  1.00  0.00    -0.237 OA
ATOM     86  O   UNL A   1      41.879  19.261  27.676  1.00  0.00    -0.237 OA
ATOM     87  O   UNL A   1      40.014  20.200  26.370  1.00  0.00    -0.744 OA
ENDBRANCH  83  84
ENDBRANCH  51  76
BRANCH  63  88
ATOM     88  C   UNL A   1      49.527  26.958  26.484  1.00  0.00     0.058 A 
ATOM     89  C   UNL A   1      50.353  26.242  27.364  1.00  0.00     0.135 A 
ATOM     90  C   UNL A   1      49.953  27.089  25.151  1.00  0.00     0.135 A 
ATOM     91  F   UNL A   1      49.995  26.087  28.649  1.00  0.00    -0.206 F 
ATOM     92  C   UNL A   1      51.566  25.700  26.948  1.00  0.00     0.059 A 
ATOM     93  C   UNL A   1      51.150  26.534  24.706  1.00  0.00     0.059 A 
ATOM     94  F   UNL A   1      49.198  27.753  24.261  1.00  0.00    -0.206 F 
ATOM     95  C   UNL A   1      51.958  25.853  25.617  1.00  0.00     0.060 A 
BRANCH  95  96
ATOM     96  S   UNL A   1      53.525  25.131  25.084  1.00  0.00     0.124 S 
ATOM     97  O   UNL A   1      54.470  25.785  25.983  1.00  0.00    -0.237 OA
ATOM     98  O   UNL A   1      53.310  23.706  25.317  1.00  0.00    -0.237 OA
ATOM     99  O   UNL A   1      53.619  25.522  23.681  1.00  0.00    -0.744 OA
ENDBRANCH  95  96
ENDBRANCH  63  88
ENDBRANCH  37  38
ENDBRANCH  30  32
ENDBRANCH  29  30
ENDBRANCH  28  29
ENDBRANCH  27  28
ENDBRANCH  26  27
ENDBRANCH   1  26
TORSDOF 23
ENDMDL
