MODEL 1
REMARK VINA RESULT:     -11.3      0.000      0.000
REMARK SMILES Nc1oc2ccc(F)cc2c(=O)c1[C@@H]1[NH2+][C@H](C(=O)OCCOCCOC(=O)c2ccc(-c3c4nc(c(-c5c(F)cc(S(=O)(=O)[O-])cc5F)c5ccc([nH]5)c(-c5c(F)cc(S(=O)(=O)[O-])cc5F)c5nc(c(-c6c(F)cc(S(=O)(=O)[O-])cc6F)c6ccc3[nH]6)C=C5)C=C4)cc2)CS1
REMARK SMILES IDX 23 1 22 2 21 3 20 4 19 5 17 6 18 7 16 8 14 9 15 10 95 11
REMARK SMILES IDX 94 14 13 15 2 16 3 17 4 18 11 19 5 20 10 21 12 22 6 23 9 24
REMARK SMILES IDX 7 25 8 26 1 27 24 30 25 31 26 32 27 33 28 34 29 35 93 36
REMARK SMILES IDX 30 37 92 38 31 39 32 40 33 41 86 42 34 43 91 44 85 45 87 46
REMARK SMILES IDX 35 47 90 48 84 49 83 50 36 52 70 53 49 54 69 55 50 56 53 57
REMARK SMILES IDX 68 58 88 59 51 60 52 61 67 63 89 64 54 65 37 66 38 67 47 68
REMARK SMILES IDX 39 69 40 70 46 71 48 72 41 73 42 74 43 75 44 76 45 77 71 78
REMARK SMILES IDX 72 79 81 80 73 81 74 82 80 83 82 84 75 85 76 86 77 87 78 88
REMARK SMILES IDX 79 89 55 90 56 91 65 92 57 93 58 94 64 95 66 96 59 97 60 98
REMARK SMILES IDX 61 99 62 100 63 101
REMARK H PARENT 15 12 15 13 1 28 1 29 87 51 53 62
REMARK Flexibility Score: inf
ROOT
ATOM      1  C   UNL A   1      39.139  22.350  26.263  1.00  0.00     0.202 C 
ENDROOT
BRANCH   1   2
ATOM      2  O   UNL A   1      38.547  21.373  25.408  1.00  0.00    -0.374 OA
BRANCH   2   3
ATOM      3  C   UNL A   1      37.271  21.676  24.838  1.00  0.00     0.202 C 
BRANCH   3   4
ATOM      4  C   UNL A   1      36.107  20.763  25.233  1.00  0.00     0.261 C 
BRANCH   4   5
ATOM      5  O   UNL A   1      34.863  21.450  25.060  1.00  0.00    -0.459 OA
BRANCH   5   6
ATOM      6  C   UNL A   1      33.878  21.168  25.950  1.00  0.00     0.365 C 
ATOM      7  O   UNL A   1      34.006  21.212  27.171  1.00  0.00    -0.245 OA
BRANCH   6   8
ATOM      8  C   UNL A   1      32.515  20.925  25.281  1.00  0.00     0.304 C 
ATOM      9  C   UNL A   1      31.409  22.995  24.752  1.00  0.00     0.283 C 
ATOM     10  N   UNL A   1      31.426  21.857  25.682  1.00  0.00    -0.319 N 
ATOM     11  S   UNL A   1      31.771  22.312  23.111  1.00  0.00    -0.087 SA
ATOM     12  H   UNL A   1      30.530  21.372  25.647  1.00  0.00     0.348 HD
ATOM     13  H   UNL A   1      31.587  22.190  26.633  1.00  0.00     0.348 HD
ATOM     14  C   UNL A   1      32.641  20.863  23.763  1.00  0.00     0.153 C 
BRANCH   9  15
ATOM     15  C   UNL A   1      32.279  24.150  25.170  1.00  0.00     0.128 A 
ATOM     16  C   UNL A   1      33.474  24.554  24.680  1.00  0.00     0.205 A 
ATOM     17  O   UNL A   1      34.204  25.589  25.236  1.00  0.00    -0.440 OA
ATOM     18  C   UNL A   1      33.503  26.575  25.861  1.00  0.00     0.140 A 
ATOM     19  C   UNL A   1      31.675  25.001  26.243  1.00  0.00     0.205 A 
ATOM     20  C   UNL A   1      34.074  27.838  25.913  1.00  0.00     0.051 A 
ATOM     21  C   UNL A   1      32.240  26.347  26.391  1.00  0.00     0.068 A 
ATOM     22  O   UNL A   1      30.699  24.662  26.899  1.00  0.00    -0.288 OA
ATOM     23  C   UNL A   1      33.349  28.885  26.477  1.00  0.00     0.043 A 
ATOM     24  C   UNL A   1      31.519  27.385  26.976  1.00  0.00     0.055 A 
ATOM     25  C   UNL A   1      32.087  28.651  27.008  1.00  0.00     0.124 A 
ATOM     26  F   UNL A   1      31.410  29.661  27.567  1.00  0.00    -0.207 F 
BRANCH  16  27
ATOM     27  N   UNL A   1      34.125  24.010  23.610  1.00  0.00    -0.369 N 
ATOM     28  H   UNL A   1      34.861  23.372  23.754  1.00  0.00     0.159 HD
ATOM     29  H   UNL A   1      33.861  24.257  22.695  1.00  0.00     0.159 HD
ENDBRANCH  16  27
ENDBRANCH   9  15
ENDBRANCH   6   8
ENDBRANCH   5   6
ENDBRANCH   4   5
ENDBRANCH   3   4
ENDBRANCH   2   3
ENDBRANCH   1   2
BRANCH   1  30
ATOM     30  C   UNL A   1      40.599  22.150  26.699  1.00  0.00     0.261 C 
BRANCH  30  31
ATOM     31  O   UNL A   1      41.071  23.086  27.680  1.00  0.00    -0.460 OA
BRANCH  31  32
ATOM     32  C   UNL A   1      41.783  24.123  27.180  1.00  0.00     0.338 C 
ATOM     33  O   UNL A   1      42.406  24.151  26.122  1.00  0.00    -0.246 OA
BRANCH  32  34
ATOM     34  C   UNL A   1      41.600  25.319  28.020  1.00  0.00     0.060 A 
ATOM     35  C   UNL A   1      40.365  25.611  28.592  1.00  0.00     0.016 A 
ATOM     36  C   UNL A   1      42.717  26.110  28.315  1.00  0.00     0.016 A 
ATOM     37  C   UNL A   1      40.264  26.694  29.475  1.00  0.00     0.010 A 
ATOM     38  C   UNL A   1      42.608  27.189  29.200  1.00  0.00     0.010 A 
ATOM     39  C   UNL A   1      41.379  27.496  29.796  1.00  0.00    -0.014 A 
BRANCH  39  40
ATOM     40  C   UNL A   1      41.256  28.551  30.845  1.00  0.00     0.031 A 
ATOM     41  C   UNL A   1      40.371  29.761  30.688  1.00  0.00     0.074 A 
ATOM     42  C   UNL A   1      41.927  28.392  32.004  1.00  0.00     0.049 A 
ATOM     43  N   UNL A   1      39.898  30.547  31.624  1.00  0.00    -0.248 NA
ATOM     44  C   UNL A   1      39.925  30.125  29.335  1.00  0.00     0.031 C 
ATOM     45  C   UNL A   1      42.871  27.310  32.292  1.00  0.00     0.029 A 
ATOM     46  N   UNL A   1      41.919  29.140  33.155  1.00  0.00    -0.354 N 
ATOM     47  C   UNL A   1      38.978  31.380  31.000  1.00  0.00     0.074 A 
ATOM     48  C   UNL A   1      39.063  31.107  29.583  1.00  0.00     0.031 C 
ATOM     49  C   UNL A   1      43.341  27.458  33.539  1.00  0.00     0.029 A 
ATOM     50  C   UNL A   1      42.757  28.657  34.130  1.00  0.00     0.049 A 
ATOM     51  H   UNL A   1      41.365  29.945  33.269  1.00  0.00     0.167 HD
ATOM     52  C   UNL A   1      38.099  32.235  31.572  1.00  0.00     0.037 A 
ATOM     53  C   UNL A   1      43.035  29.132  35.360  1.00  0.00     0.037 A 
ATOM     54  C   UNL A   1      38.175  32.672  32.941  1.00  0.00     0.049 A 
ATOM     55  C   UNL A   1      42.298  30.340  35.867  1.00  0.00     0.074 A 
ATOM     56  C   UNL A   1      37.390  33.607  33.594  1.00  0.00     0.029 A 
ATOM     57  N   UNL A   1      39.151  32.275  33.842  1.00  0.00    -0.354 N 
ATOM     58  N   UNL A   1      41.295  30.983  35.320  1.00  0.00    -0.248 NA
ATOM     59  C   UNL A   1      42.731  30.888  37.160  1.00  0.00     0.031 C 
ATOM     60  C   UNL A   1      37.963  33.858  34.847  1.00  0.00     0.029 A 
ATOM     61  C   UNL A   1      39.057  33.022  35.005  1.00  0.00     0.049 A 
ATOM     62  H   UNL A   1      39.814  31.565  33.679  1.00  0.00     0.167 HD
ATOM     63  C   UNL A   1      40.952  31.990  36.216  1.00  0.00     0.074 A 
ATOM     64  C   UNL A   1      41.856  31.867  37.343  1.00  0.00     0.031 C 
ATOM     65  C   UNL A   1      39.971  32.922  36.117  1.00  0.00     0.037 A 
BRANCH  52  66
ATOM     66  C   UNL A   1      36.967  32.753  30.730  1.00  0.00     0.058 A 
ATOM     67  C   UNL A   1      35.677  32.211  30.869  1.00  0.00     0.135 A 
ATOM     68  C   UNL A   1      37.124  33.853  29.876  1.00  0.00     0.135 A 
ATOM     69  F   UNL A   1      35.464  31.169  31.685  1.00  0.00    -0.206 F 
ATOM     70  C   UNL A   1      34.587  32.733  30.183  1.00  0.00     0.059 A 
ATOM     71  C   UNL A   1      36.043  34.402  29.190  1.00  0.00     0.059 A 
ATOM     72  F   UNL A   1      38.333  34.412  29.716  1.00  0.00    -0.206 F 
ATOM     73  C   UNL A   1      34.779  33.834  29.347  1.00  0.00     0.060 A 
BRANCH  73  74
ATOM     74  S   UNL A   1      33.346  34.503  28.475  1.00  0.00     0.124 S 
ATOM     75  O   UNL A   1      32.489  34.906  29.586  1.00  0.00    -0.237 OA
ATOM     76  O   UNL A   1      33.936  35.591  27.702  1.00  0.00    -0.237 OA
ATOM     77  O   UNL A   1      32.862  33.369  27.695  1.00  0.00    -0.744 OA
ENDBRANCH  73  74
ENDBRANCH  52  66
BRANCH  53  78
ATOM     78  C   UNL A   1      44.083  28.470  36.180  1.00  0.00     0.058 A 
ATOM     79  C   UNL A   1      43.786  27.386  37.017  1.00  0.00     0.135 A 
ATOM     80  C   UNL A   1      45.417  28.910  36.127  1.00  0.00     0.135 A 
ATOM     81  F   UNL A   1      42.525  26.938  37.114  1.00  0.00    -0.206 F 
ATOM     82  C   UNL A   1      44.773  26.762  37.775  1.00  0.00     0.059 A 
ATOM     83  C   UNL A   1      46.425  28.285  36.851  1.00  0.00     0.059 A 
ATOM     84  F   UNL A   1      45.754  29.942  35.338  1.00  0.00    -0.206 F 
ATOM     85  C   UNL A   1      46.091  27.215  37.680  1.00  0.00     0.060 A 
BRANCH  85  86
ATOM     86  S   UNL A   1      47.370  26.367  38.630  1.00  0.00     0.124 S 
ATOM     87  O   UNL A   1      47.619  25.191  37.804  1.00  0.00    -0.237 OA
ATOM     88  O   UNL A   1      48.437  27.364  38.662  1.00  0.00    -0.237 OA
ATOM     89  O   UNL A   1      46.723  26.111  39.914  1.00  0.00    -0.744 OA
ENDBRANCH  85  86
ENDBRANCH  53  78
BRANCH  65  90
ATOM     90  C   UNL A   1      39.814  33.891  37.257  1.00  0.00     0.058 A 
ATOM     91  C   UNL A   1      39.016  33.592  38.372  1.00  0.00     0.135 A 
ATOM     92  C   UNL A   1      40.493  35.120  37.249  1.00  0.00     0.135 A 
ATOM     93  F   UNL A   1      38.341  32.433  38.430  1.00  0.00    -0.206 F 
ATOM     94  C   UNL A   1      38.868  34.492  39.423  1.00  0.00     0.059 A 
ATOM     95  C   UNL A   1      40.387  36.020  38.306  1.00  0.00     0.059 A 
ATOM     96  F   UNL A   1      41.281  35.453  36.215  1.00  0.00    -0.206 F 
ATOM     97  C   UNL A   1      39.557  35.705  39.380  1.00  0.00     0.060 A 
BRANCH  97  98
ATOM     98  S   UNL A   1      39.364  36.858  40.755  1.00  0.00     0.124 S 
ATOM     99  O   UNL A   1      38.655  36.036  41.730  1.00  0.00    -0.237 OA
ATOM    100  O   UNL A   1      40.748  37.183  41.086  1.00  0.00    -0.237 OA
ATOM    101  O   UNL A   1      38.591  37.952  40.176  1.00  0.00    -0.744 OA
ENDBRANCH  97  98
ENDBRANCH  65  90
ENDBRANCH  39  40
ENDBRANCH  32  34
ENDBRANCH  31  32
ENDBRANCH  30  31
ENDBRANCH   1  30
TORSDOF 19
ENDMDL
MODEL 2
REMARK VINA RESULT:     -11.1      0.854      8.143
REMARK SMILES Nc1oc2ccc(F)cc2c(=O)c1[C@@H]1[NH2+][C@H](C(=O)OCCOCCOC(=O)c2ccc(-c3c4nc(c(-c5c(F)cc(S(=O)(=O)[O-])cc5F)c5ccc([nH]5)c(-c5c(F)cc(S(=O)(=O)[O-])cc5F)c5nc(c(-c6c(F)cc(S(=O)(=O)[O-])cc6F)c6ccc3[nH]6)C=C5)C=C4)cc2)CS1
REMARK SMILES IDX 23 1 22 2 21 3 20 4 19 5 17 6 18 7 16 8 14 9 15 10 95 11
REMARK SMILES IDX 94 14 13 15 2 16 3 17 4 18 11 19 5 20 10 21 12 22 6 23 9 24
REMARK SMILES IDX 7 25 8 26 1 27 24 30 25 31 26 32 27 33 28 34 29 35 93 36
REMARK SMILES IDX 30 37 92 38 31 39 32 40 33 41 86 42 34 43 91 44 85 45 87 46
REMARK SMILES IDX 35 47 90 48 84 49 83 50 36 52 70 53 49 54 69 55 50 56 53 57
REMARK SMILES IDX 68 58 88 59 51 60 52 61 67 63 89 64 54 65 37 66 38 67 47 68
REMARK SMILES IDX 39 69 40 70 46 71 48 72 41 73 42 74 43 75 44 76 45 77 71 78
REMARK SMILES IDX 72 79 81 80 73 81 74 82 80 83 82 84 75 85 76 86 77 87 78 88
REMARK SMILES IDX 79 89 55 90 56 91 65 92 57 93 58 94 64 95 66 96 59 97 60 98
REMARK SMILES IDX 61 99 62 100 63 101
REMARK H PARENT 15 12 15 13 1 28 1 29 87 51 53 62
REMARK Flexibility Score: inf
ROOT
ATOM      1  C   UNL A   1      39.724  21.822  26.516  1.00  0.00     0.202 C 
ENDROOT
BRANCH   1   2
ATOM      2  O   UNL A   1      38.871  21.626  25.388  1.00  0.00    -0.374 OA
BRANCH   2   3
ATOM      3  C   UNL A   1      37.550  21.139  25.632  1.00  0.00     0.202 C 
BRANCH   3   4
ATOM      4  C   UNL A   1      36.449  22.189  25.799  1.00  0.00     0.261 C 
BRANCH   4   5
ATOM      5  O   UNL A   1      35.204  21.678  25.311  1.00  0.00    -0.459 OA
BRANCH   5   6
ATOM      6  C   UNL A   1      34.262  21.370  26.239  1.00  0.00     0.365 C 
ATOM      7  O   UNL A   1      34.411  21.490  27.452  1.00  0.00    -0.245 OA
BRANCH   6   8
ATOM      8  C   UNL A   1      32.909  20.987  25.618  1.00  0.00     0.304 C 
ATOM      9  C   UNL A   1      31.668  22.932  24.935  1.00  0.00     0.283 C 
ATOM     10  N   UNL A   1      31.769  21.881  25.958  1.00  0.00    -0.319 N 
ATOM     11  S   UNL A   1      32.052  22.135  23.352  1.00  0.00    -0.087 SA
ATOM     12  H   UNL A   1      30.904  21.341  25.980  1.00  0.00     0.348 HD
ATOM     13  H   UNL A   1      31.921  22.304  26.874  1.00  0.00     0.348 HD
ATOM     14  C   UNL A   1      33.019  20.803  24.108  1.00  0.00     0.153 C 
BRANCH   9  15
ATOM     15  C   UNL A   1      32.469  24.170  25.238  1.00  0.00     0.128 A 
ATOM     16  C   UNL A   1      33.580  24.651  24.632  1.00  0.00     0.205 A 
ATOM     17  O   UNL A   1      34.264  25.764  25.088  1.00  0.00    -0.440 OA
ATOM     18  C   UNL A   1      33.536  26.712  25.740  1.00  0.00     0.140 A 
ATOM     19  C   UNL A   1      31.888  25.010  26.331  1.00  0.00     0.205 A 
ATOM     20  C   UNL A   1      34.000  28.019  25.701  1.00  0.00     0.051 A 
ATOM     21  C   UNL A   1      32.347  26.403  26.386  1.00  0.00     0.068 A 
ATOM     22  O   UNL A   1      31.003  24.619  27.081  1.00  0.00    -0.288 OA
ATOM     23  C   UNL A   1      33.240  29.025  26.293  1.00  0.00     0.043 A 
ATOM     24  C   UNL A   1      31.592  27.401  26.998  1.00  0.00     0.055 A 
ATOM     25  C   UNL A   1      32.051  28.710  26.939  1.00  0.00     0.124 A 
ATOM     26  F   UNL A   1      31.340  29.682  27.522  1.00  0.00    -0.207 F 
BRANCH  16  27
ATOM     27  N   UNL A   1      34.183  24.121  23.528  1.00  0.00    -0.369 N 
ATOM     28  H   UNL A   1      35.161  24.011  23.506  1.00  0.00     0.159 HD
ATOM     29  H   UNL A   1      33.640  23.849  22.753  1.00  0.00     0.159 HD
ENDBRANCH  16  27
ENDBRANCH   9  15
ENDBRANCH   6   8
ENDBRANCH   5   6
ENDBRANCH   4   5
ENDBRANCH   3   4
ENDBRANCH   2   3
ENDBRANCH   1   2
BRANCH   1  30
ATOM     30  C   UNL A   1      40.661  23.040  26.519  1.00  0.00     0.261 C 
BRANCH  30  31
ATOM     31  O   UNL A   1      40.020  24.296  26.250  1.00  0.00    -0.460 OA
BRANCH  31  32
ATOM     32  C   UNL A   1      40.850  25.365  26.221  1.00  0.00     0.338 C 
ATOM     33  O   UNL A   1      41.488  25.780  25.257  1.00  0.00    -0.246 OA
BRANCH  32  34
ATOM     34  C   UNL A   1      40.788  26.093  27.499  1.00  0.00     0.060 A 
ATOM     35  C   UNL A   1      41.777  27.007  27.853  1.00  0.00     0.016 A 
ATOM     36  C   UNL A   1      39.663  25.923  28.315  1.00  0.00     0.016 A 
ATOM     37  C   UNL A   1      41.620  27.760  29.023  1.00  0.00     0.010 A 
ATOM     38  C   UNL A   1      39.513  26.681  29.483  1.00  0.00     0.010 A 
ATOM     39  C   UNL A   1      40.488  27.614  29.853  1.00  0.00    -0.014 A 
BRANCH  39  40
ATOM     40  C   UNL A   1      40.296  28.533  31.014  1.00  0.00     0.031 A 
ATOM     41  C   UNL A   1      41.059  28.389  32.305  1.00  0.00     0.074 A 
ATOM     42  C   UNL A   1      39.438  29.565  30.886  1.00  0.00     0.049 A 
ATOM     43  N   UNL A   1      41.260  29.293  33.233  1.00  0.00    -0.248 NA
ATOM     44  C   UNL A   1      41.713  27.103  32.588  1.00  0.00     0.031 C 
ATOM     45  C   UNL A   1      38.579  29.811  29.725  1.00  0.00     0.029 A 
ATOM     46  N   UNL A   1      39.148  30.601  31.738  1.00  0.00    -0.354 N 
ATOM     47  C   UNL A   1      42.186  28.745  34.111  1.00  0.00     0.074 A 
ATOM     48  C   UNL A   1      42.401  27.379  33.691  1.00  0.00     0.031 C 
ATOM     49  C   UNL A   1      37.867  30.929  29.935  1.00  0.00     0.029 A 
ATOM     50  C   UNL A   1      38.197  31.465  31.251  1.00  0.00     0.049 A 
ATOM     51  H   UNL A   1      39.581  30.714  32.615  1.00  0.00     0.167 HD
ATOM     52  C   UNL A   1      42.844  29.356  35.125  1.00  0.00     0.037 A 
ATOM     53  C   UNL A   1      37.642  32.560  31.806  1.00  0.00     0.037 A 
ATOM     54  C   UNL A   1      42.464  30.627  35.681  1.00  0.00     0.049 A 
ATOM     55  C   UNL A   1      38.135  33.040  33.143  1.00  0.00     0.074 A 
ATOM     56  C   UNL A   1      43.006  31.290  36.769  1.00  0.00     0.029 A 
ATOM     57  N   UNL A   1      41.383  31.383  35.253  1.00  0.00    -0.354 N 
ATOM     58  N   UNL A   1      39.149  32.604  33.851  1.00  0.00    -0.248 NA
ATOM     59  C   UNL A   1      37.409  34.160  33.755  1.00  0.00     0.031 C 
ATOM     60  C   UNL A   1      42.182  32.383  37.067  1.00  0.00     0.029 A 
ATOM     61  C   UNL A   1      41.174  32.445  36.118  1.00  0.00     0.049 A 
ATOM     62  H   UNL A   1      40.843  31.193  34.452  1.00  0.00     0.167 HD
ATOM     63  C   UNL A   1      39.205  33.419  34.977  1.00  0.00     0.074 A 
ATOM     64  C   UNL A   1      38.123  34.375  34.851  1.00  0.00     0.031 C 
ATOM     65  C   UNL A   1      40.082  33.382  36.012  1.00  0.00     0.037 A 
BRANCH  52  66
ATOM     66  C   UNL A   1      44.053  28.670  35.697  1.00  0.00     0.058 A 
ATOM     67  C   UNL A   1      45.344  29.071  35.308  1.00  0.00     0.135 A 
ATOM     68  C   UNL A   1      43.947  27.706  36.707  1.00  0.00     0.135 A 
ATOM     69  F   UNL A   1      45.506  30.003  34.358  1.00  0.00    -0.206 F 
ATOM     70  C   UNL A   1      46.484  28.531  35.892  1.00  0.00     0.059 A 
ATOM     71  C   UNL A   1      45.075  27.162  37.317  1.00  0.00     0.059 A 
ATOM     72  F   UNL A   1      42.737  27.296  37.120  1.00  0.00    -0.206 F 
ATOM     73  C   UNL A   1      46.339  27.579  36.900  1.00  0.00     0.060 A 
BRANCH  73  74
ATOM     74  S   UNL A   1      47.835  26.900  37.652  1.00  0.00     0.124 S 
ATOM     75  O   UNL A   1      48.738  28.045  37.591  1.00  0.00    -0.237 OA
ATOM     76  O   UNL A   1      47.369  26.532  38.986  1.00  0.00    -0.237 OA
ATOM     77  O   UNL A   1      48.180  25.785  36.777  1.00  0.00    -0.744 OA
ENDBRANCH  73  74
ENDBRANCH  52  66
BRANCH  53  78
ATOM     78  C   UNL A   1      36.534  33.256  31.100  1.00  0.00     0.058 A 
ATOM     79  C   UNL A   1      35.200  33.110  31.500  1.00  0.00     0.135 A 
ATOM     80  C   UNL A   1      36.802  34.100  30.007  1.00  0.00     0.135 A 
ATOM     81  F   UNL A   1      34.891  32.304  32.528  1.00  0.00    -0.206 F 
ATOM     82  C   UNL A   1      34.168  33.772  30.842  1.00  0.00     0.059 A 
ATOM     83  C   UNL A   1      35.792  34.794  29.353  1.00  0.00     0.059 A 
ATOM     84  F   UNL A   1      38.064  34.277  29.587  1.00  0.00    -0.206 F 
ATOM     85  C   UNL A   1      34.475  34.617  29.774  1.00  0.00     0.060 A 
BRANCH  85  86
ATOM     86  S   UNL A   1      33.133  35.509  28.959  1.00  0.00     0.124 S 
ATOM     87  O   UNL A   1      33.870  36.456  28.130  1.00  0.00    -0.237 OA
ATOM     88  O   UNL A   1      32.442  34.438  28.248  1.00  0.00    -0.237 OA
ATOM     89  O   UNL A   1      32.391  36.092  30.074  1.00  0.00    -0.744 OA
ENDBRANCH  85  86
ENDBRANCH  53  78
BRANCH  65  90
ATOM     90  C   UNL A   1      39.915  34.407  37.101  1.00  0.00     0.058 A 
ATOM     91  C   UNL A   1      40.389  35.720  36.955  1.00  0.00     0.135 A 
ATOM     92  C   UNL A   1      39.247  34.082  38.293  1.00  0.00     0.135 A 
ATOM     93  F   UNL A   1      41.039  36.085  35.839  1.00  0.00    -0.206 F 
ATOM     94  C   UNL A   1      40.238  36.664  37.966  1.00  0.00     0.059 A 
ATOM     95  C   UNL A   1      39.053  35.020  39.302  1.00  0.00     0.059 A 
ATOM     96  F   UNL A   1      38.760  32.845  38.482  1.00  0.00    -0.206 F 
ATOM     97  C   UNL A   1      39.569  36.305  39.137  1.00  0.00     0.060 A 
BRANCH  97  98
ATOM     98  S   UNL A   1      39.372  37.543  40.435  1.00  0.00     0.124 S 
ATOM     99  O   UNL A   1      40.753  37.966  40.649  1.00  0.00    -0.237 OA
ATOM    100  O   UNL A   1      38.499  38.525  39.799  1.00  0.00    -0.237 OA
ATOM    101  O   UNL A   1      38.768  36.794  41.532  1.00  0.00    -0.744 OA
ENDBRANCH  97  98
ENDBRANCH  65  90
ENDBRANCH  39  40
ENDBRANCH  32  34
ENDBRANCH  31  32
ENDBRANCH  30  31
ENDBRANCH   1  30
TORSDOF 19
ENDMDL
MODEL 3
REMARK VINA RESULT:     -11.1      3.458      9.118
REMARK SMILES Nc1oc2ccc(F)cc2c(=O)c1[C@@H]1[NH2+][C@H](C(=O)OCCOCCOC(=O)c2ccc(-c3c4nc(c(-c5c(F)cc(S(=O)(=O)[O-])cc5F)c5ccc([nH]5)c(-c5c(F)cc(S(=O)(=O)[O-])cc5F)c5nc(c(-c6c(F)cc(S(=O)(=O)[O-])cc6F)c6ccc3[nH]6)C=C5)C=C4)cc2)CS1
REMARK SMILES IDX 23 1 22 2 21 3 20 4 19 5 17 6 18 7 16 8 14 9 15 10 95 11
REMARK SMILES IDX 94 14 13 15 2 16 3 17 4 18 11 19 5 20 10 21 12 22 6 23 9 24
REMARK SMILES IDX 7 25 8 26 1 27 24 30 25 31 26 32 27 33 28 34 29 35 93 36
REMARK SMILES IDX 30 37 92 38 31 39 32 40 33 41 86 42 34 43 91 44 85 45 87 46
REMARK SMILES IDX 35 47 90 48 84 49 83 50 36 52 70 53 49 54 69 55 50 56 53 57
REMARK SMILES IDX 68 58 88 59 51 60 52 61 67 63 89 64 54 65 37 66 38 67 47 68
REMARK SMILES IDX 39 69 40 70 46 71 48 72 41 73 42 74 43 75 44 76 45 77 71 78
REMARK SMILES IDX 72 79 81 80 73 81 74 82 80 83 82 84 75 85 76 86 77 87 78 88
REMARK SMILES IDX 79 89 55 90 56 91 65 92 57 93 58 94 64 95 66 96 59 97 60 98
REMARK SMILES IDX 61 99 62 100 63 101
REMARK H PARENT 15 12 15 13 1 28 1 29 87 51 53 62
REMARK Flexibility Score: inf
ROOT
ATOM      1  C   UNL A   1      32.603  29.506  25.275  1.00  0.00     0.202 C 
ENDROOT
BRANCH   1   2
ATOM      2  O   UNL A   1      33.670  28.639  24.893  1.00  0.00    -0.374 OA
BRANCH   2   3
ATOM      3  C   UNL A   1      33.893  28.437  23.495  1.00  0.00     0.202 C 
BRANCH   3   4
ATOM      4  C   UNL A   1      32.712  27.903  22.680  1.00  0.00     0.261 C 
BRANCH   4   5
ATOM      5  O   UNL A   1      32.044  26.865  23.405  1.00  0.00    -0.459 OA
BRANCH   5   6
ATOM      6  C   UNL A   1      31.425  25.906  22.671  1.00  0.00     0.365 C 
ATOM      7  O   UNL A   1      31.739  25.590  21.527  1.00  0.00    -0.245 OA
BRANCH   6   8
ATOM      8  C   UNL A   1      30.364  25.131  23.469  1.00  0.00     0.304 C 
ATOM      9  C   UNL A   1      31.373  23.631  25.056  1.00  0.00     0.283 C 
ATOM     10  N   UNL A   1      30.689  23.707  23.758  1.00  0.00    -0.319 N 
ATOM     11  S   UNL A   1      30.563  24.849  26.127  1.00  0.00    -0.087 SA
ATOM     12  H   UNL A   1      29.830  23.159  23.791  1.00  0.00     0.348 HD
ATOM     13  H   UNL A   1      31.294  23.334  23.025  1.00  0.00     0.348 HD
ATOM     14  C   UNL A   1      29.977  25.866  24.747  1.00  0.00     0.153 C 
BRANCH   9  15
ATOM     15  C   UNL A   1      32.872  23.748  24.975  1.00  0.00     0.128 A 
ATOM     16  C   UNL A   1      33.685  24.747  25.391  1.00  0.00     0.205 A 
ATOM     17  O   UNL A   1      35.049  24.753  25.160  1.00  0.00    -0.440 OA
ATOM     18  C   UNL A   1      35.665  23.542  25.066  1.00  0.00     0.140 A 
ATOM     19  C   UNL A   1      33.540  22.536  24.406  1.00  0.00     0.205 A 
ATOM     20  C   UNL A   1      37.009  23.476  25.406  1.00  0.00     0.051 A 
ATOM     21  C   UNL A   1      34.974  22.399  24.690  1.00  0.00     0.068 A 
ATOM     22  O   UNL A   1      32.934  21.643  23.829  1.00  0.00    -0.288 OA
ATOM     23  C   UNL A   1      37.649  22.239  25.394  1.00  0.00     0.043 A 
ATOM     24  C   UNL A   1      35.613  21.162  24.655  1.00  0.00     0.055 A 
ATOM     25  C   UNL A   1      36.953  21.098  25.015  1.00  0.00     0.124 A 
ATOM     26  F   UNL A   1      37.585  19.919  24.987  1.00  0.00    -0.207 F 
BRANCH  16  27
ATOM     27  N   UNL A   1      33.294  25.868  26.065  1.00  0.00    -0.369 N 
ATOM     28  H   UNL A   1      33.722  26.734  25.870  1.00  0.00     0.159 HD
ATOM     29  H   UNL A   1      32.587  25.812  26.747  1.00  0.00     0.159 HD
ENDBRANCH  16  27
ENDBRANCH   9  15
ENDBRANCH   6   8
ENDBRANCH   5   6
ENDBRANCH   4   5
ENDBRANCH   3   4
ENDBRANCH   2   3
ENDBRANCH   1   2
BRANCH   1  30
ATOM     30  C   UNL A   1      32.468  29.887  26.758  1.00  0.00     0.261 C 
BRANCH  30  31
ATOM     31  O   UNL A   1      33.628  29.617  27.560  1.00  0.00    -0.460 OA
BRANCH  31  32
ATOM     32  C   UNL A   1      34.545  30.612  27.586  1.00  0.00     0.338 C 
ATOM     33  O   UNL A   1      34.354  31.802  27.345  1.00  0.00    -0.246 OA
BRANCH  32  34
ATOM     34  C   UNL A   1      35.829  30.108  28.102  1.00  0.00     0.060 A 
ATOM     35  C   UNL A   1      36.974  30.119  27.310  1.00  0.00     0.016 A 
ATOM     36  C   UNL A   1      35.903  29.706  29.441  1.00  0.00     0.016 A 
ATOM     37  C   UNL A   1      38.196  29.738  27.877  1.00  0.00     0.010 A 
ATOM     38  C   UNL A   1      37.130  29.327  30.001  1.00  0.00     0.010 A 
ATOM     39  C   UNL A   1      38.296  29.340  29.227  1.00  0.00    -0.014 A 
BRANCH  39  40
ATOM     40  C   UNL A   1      39.639  29.075  29.825  1.00  0.00     0.031 A 
ATOM     41  C   UNL A   1      40.201  29.886  30.963  1.00  0.00     0.074 A 
ATOM     42  C   UNL A   1      40.360  28.036  29.358  1.00  0.00     0.049 A 
ATOM     43  N   UNL A   1      41.159  29.558  31.796  1.00  0.00    -0.248 NA
ATOM     44  C   UNL A   1      39.609  31.203  31.239  1.00  0.00     0.031 C 
ATOM     45  C   UNL A   1      39.986  27.190  28.222  1.00  0.00     0.029 A 
ATOM     46  N   UNL A   1      41.557  27.513  29.781  1.00  0.00    -0.354 N 
ATOM     47  C   UNL A   1      41.167  30.539  32.780  1.00  0.00     0.074 A 
ATOM     48  C   UNL A   1      40.220  31.551  32.367  1.00  0.00     0.031 C 
ATOM     49  C   UNL A   1      40.927  26.250  28.046  1.00  0.00     0.029 A 
ATOM     50  C   UNL A   1      41.983  26.441  29.035  1.00  0.00     0.049 A 
ATOM     51  H   UNL A   1      42.061  27.873  30.546  1.00  0.00     0.167 HD
ATOM     52  C   UNL A   1      41.849  30.549  33.949  1.00  0.00     0.037 A 
ATOM     53  C   UNL A   1      43.105  25.701  29.127  1.00  0.00     0.037 A 
ATOM     54  C   UNL A   1      42.949  29.670  34.246  1.00  0.00     0.049 A 
ATOM     55  C   UNL A   1      44.073  25.965  30.246  1.00  0.00     0.074 A 
ATOM     56  C   UNL A   1      43.767  29.660  35.363  1.00  0.00     0.029 A 
ATOM     57  N   UNL A   1      43.447  28.710  33.380  1.00  0.00    -0.354 N 
ATOM     58  N   UNL A   1      43.946  26.774  31.270  1.00  0.00    -0.248 NA
ATOM     59  C   UNL A   1      45.335  25.214  30.223  1.00  0.00     0.031 C 
ATOM     60  C   UNL A   1      44.825  28.774  35.119  1.00  0.00     0.029 A 
ATOM     61  C   UNL A   1      44.621  28.177  33.886  1.00  0.00     0.049 A 
ATOM     62  H   UNL A   1      43.027  28.445  32.530  1.00  0.00     0.167 HD
ATOM     63  C   UNL A   1      45.097  26.606  32.033  1.00  0.00     0.074 A 
ATOM     64  C   UNL A   1      45.905  25.615  31.351  1.00  0.00     0.031 C 
ATOM     65  C   UNL A   1      45.443  27.211  33.198  1.00  0.00     0.037 A 
BRANCH  52  66
ATOM     66  C   UNL A   1      41.424  31.529  35.007  1.00  0.00     0.058 A 
ATOM     67  C   UNL A   1      42.029  32.797  35.079  1.00  0.00     0.135 A 
ATOM     68  C   UNL A   1      40.351  31.268  35.868  1.00  0.00     0.135 A 
ATOM     69  F   UNL A   1      43.048  33.109  34.266  1.00  0.00    -0.206 F 
ATOM     70  C   UNL A   1      41.591  33.765  35.975  1.00  0.00     0.059 A 
ATOM     71  C   UNL A   1      39.887  32.229  36.765  1.00  0.00     0.059 A 
ATOM     72  F   UNL A   1      39.735  30.077  35.833  1.00  0.00    -0.206 F 
ATOM     73  C   UNL A   1      40.515  33.473  36.813  1.00  0.00     0.060 A 
BRANCH  73  74
ATOM     74  S   UNL A   1      39.957  34.750  37.961  1.00  0.00     0.124 S 
ATOM     75  O   UNL A   1      39.678  35.858  37.052  1.00  0.00    -0.237 OA
ATOM     76  O   UNL A   1      38.789  34.125  38.574  1.00  0.00    -0.237 OA
ATOM     77  O   UNL A   1      41.103  34.940  38.842  1.00  0.00    -0.744 OA
ENDBRANCH  73  74
ENDBRANCH  52  66
BRANCH  53  78
ATOM     78  C   UNL A   1      43.378  24.656  28.104  1.00  0.00     0.058 A 
ATOM     79  C   UNL A   1      44.076  24.946  26.925  1.00  0.00     0.135 A 
ATOM     80  C   UNL A   1      42.948  23.332  28.302  1.00  0.00     0.135 A 
ATOM     81  F   UNL A   1      44.494  26.198  26.682  1.00  0.00    -0.206 F 
ATOM     82  C   UNL A   1      44.338  23.963  25.976  1.00  0.00     0.059 A 
ATOM     83  C   UNL A   1      43.224  22.327  27.383  1.00  0.00     0.059 A 
ATOM     84  F   UNL A   1      42.278  23.002  29.418  1.00  0.00    -0.206 F 
ATOM     85  C   UNL A   1      43.913  22.654  26.217  1.00  0.00     0.060 A 
BRANCH  85  86
ATOM     86  S   UNL A   1      44.302  21.377  25.003  1.00  0.00     0.124 S 
ATOM     87  O   UNL A   1      44.152  22.107  23.749  1.00  0.00    -0.237 OA
ATOM     88  O   UNL A   1      45.666  21.011  25.371  1.00  0.00    -0.237 OA
ATOM     89  O   UNL A   1      43.294  20.351  25.259  1.00  0.00    -0.744 OA
ENDBRANCH  85  86
ENDBRANCH  53  78
BRANCH  65  90
ATOM     90  C   UNL A   1      46.757  26.822  33.819  1.00  0.00     0.058 A 
ATOM     91  C   UNL A   1      47.932  27.547  33.569  1.00  0.00     0.135 A 
ATOM     92  C   UNL A   1      46.837  25.730  34.699  1.00  0.00     0.135 A 
ATOM     93  F   UNL A   1      47.915  28.597  32.733  1.00  0.00    -0.206 F 
ATOM     94  C   UNL A   1      49.147  27.182  34.140  1.00  0.00     0.059 A 
ATOM     95  C   UNL A   1      48.034  25.369  35.310  1.00  0.00     0.059 A 
ATOM     96  F   UNL A   1      45.742  25.009  34.986  1.00  0.00    -0.206 F 
ATOM     97  C   UNL A   1      49.189  26.091  35.009  1.00  0.00     0.060 A 
BRANCH  97  98
ATOM     98  S   UNL A   1      50.770  25.635  35.752  1.00  0.00     0.124 S 
ATOM     99  O   UNL A   1      51.341  24.776  34.719  1.00  0.00    -0.237 OA
ATOM    100  O   UNL A   1      51.416  26.932  35.928  1.00  0.00    -0.237 OA
ATOM    101  O   UNL A   1      50.385  24.961  36.987  1.00  0.00    -0.744 OA
ENDBRANCH  97  98
ENDBRANCH  65  90
ENDBRANCH  39  40
ENDBRANCH  32  34
ENDBRANCH  31  32
ENDBRANCH  30  31
ENDBRANCH   1  30
TORSDOF 19
ENDMDL
