MODEL 1
REMARK VINA RESULT:     -10.3      0.000      0.000
REMARK SMILES C[C@H]1OCC[C@H]1C(=O)N1CCCC[C@@H]1CC(=O)OCCOCCOC(=O)c1ccc(-c2c3nc(c(-c4c(F)cc(S(=O)(=O)[O-])cc4F)c4ccc([nH]4)c(-c4c(F)cc(S(=O)(=O)[O-])cc4F)c4nc(c(-c5c(F)cc(S(=O)(=O)[O-])cc5F)c5ccc2[nH]5)C=C4)C=C3)cc1
REMARK SMILES IDX 21 1 20 2 19 3 18 4 16 5 17 6 15 7 14 8 9 9 10 10 11 11
REMARK SMILES IDX 13 12 12 13 7 14 8 15 6 16 1 17 2 18 3 19 4 20 5 21 22 22
REMARK SMILES IDX 23 23 24 24 25 25 26 26 27 27 28 28 92 29 29 30 91 31 30 32
REMARK SMILES IDX 31 33 32 34 85 35 33 36 90 37 84 38 86 39 34 40 89 41 83 42
REMARK SMILES IDX 82 43 35 45 69 46 48 47 68 48 49 49 52 50 67 51 87 52 50 53
REMARK SMILES IDX 51 54 66 56 88 57 53 58 36 59 37 60 46 61 38 62 39 63 45 64
REMARK SMILES IDX 47 65 40 66 41 67 42 68 43 69 44 70 70 71 71 72 80 73 72 74
REMARK SMILES IDX 73 75 79 76 81 77 74 78 75 79 76 80 77 81 78 82 54 83 55 84
REMARK SMILES IDX 64 85 56 86 57 87 63 88 65 89 58 90 59 91 60 92 61 93 62 94
REMARK H PARENT 86 44 52 55
REMARK Flexibility Score: inf
ROOT
ATOM      1  O   UNL A   1      37.466  21.530  25.048  1.00  0.00    -0.374 OA
ENDROOT
BRANCH   1   2
ATOM      2  C   UNL A   1      37.045  22.624  24.238  1.00  0.00     0.202 C 
BRANCH   2   3
ATOM      3  C   UNL A   1      35.588  23.077  24.365  1.00  0.00     0.261 C 
BRANCH   3   4
ATOM      4  O   UNL A   1      35.465  24.479  24.656  1.00  0.00    -0.463 OA
BRANCH   4   5
ATOM      5  C   UNL A   1      34.372  24.795  25.386  1.00  0.00     0.307 C 
ATOM      6  O   UNL A   1      33.816  24.040  26.180  1.00  0.00    -0.252 OA
BRANCH   5   7
ATOM      7  C   UNL A   1      33.868  26.195  25.204  1.00  0.00     0.147 C 
BRANCH   7   8
ATOM      8  C   UNL A   1      33.461  27.109  26.362  1.00  0.00     0.096 C 
ATOM      9  N   UNL A   1      32.000  27.451  26.306  1.00  0.00    -0.339 N 
ATOM     10  C   UNL A   1      31.540  28.493  27.223  1.00  0.00     0.120 C 
ATOM     11  C   UNL A   1      32.413  29.742  27.161  1.00  0.00     0.022 C 
ATOM     12  C   UNL A   1      34.351  28.363  26.406  1.00  0.00     0.026 C 
ATOM     13  C   UNL A   1      33.866  29.378  27.437  1.00  0.00     0.004 C 
BRANCH   9  14
ATOM     14  C   UNL A   1      31.258  27.285  25.141  1.00  0.00     0.228 C 
ATOM     15  O   UNL A   1      30.392  26.414  25.054  1.00  0.00    -0.274 OA
BRANCH  14  16
ATOM     16  C   UNL A   1      31.519  28.260  23.970  1.00  0.00     0.109 C 
ATOM     17  C   UNL A   1      31.811  26.309  22.218  1.00  0.00     0.039 C 
ATOM     18  C   UNL A   1      31.303  27.702  22.562  1.00  0.00     0.127 C 
ATOM     19  O   UNL A   1      29.890  27.841  22.306  1.00  0.00    -0.378 OA
ATOM     20  C   UNL A   1      29.416  28.952  23.082  1.00  0.00     0.161 C 
ATOM     21  C   UNL A   1      30.589  29.460  23.903  1.00  0.00     0.044 C 
ENDBRANCH  14  16
ENDBRANCH   9  14
ENDBRANCH   7   8
ENDBRANCH   5   7
ENDBRANCH   4   5
ENDBRANCH   3   4
ENDBRANCH   2   3
ENDBRANCH   1   2
BRANCH   1  22
ATOM     22  C   UNL A   1      38.549  21.739  25.954  1.00  0.00     0.202 C 
BRANCH  22  23
ATOM     23  C   UNL A   1      38.980  23.189  26.225  1.00  0.00     0.261 C 
BRANCH  23  24
ATOM     24  O   UNL A   1      39.904  23.302  27.325  1.00  0.00    -0.460 OA
BRANCH  24  25
ATOM     25  C   UNL A   1      40.876  24.238  27.157  1.00  0.00     0.338 C 
ATOM     26  O   UNL A   1      41.811  24.193  26.377  1.00  0.00    -0.246 OA
BRANCH  25  27
ATOM     27  C   UNL A   1      40.556  25.454  27.928  1.00  0.00     0.060 A 
ATOM     28  C   UNL A   1      41.525  26.465  27.987  1.00  0.00     0.016 A 
ATOM     29  C   UNL A   1      39.390  25.544  28.689  1.00  0.00     0.016 A 
ATOM     30  C   UNL A   1      41.346  27.556  28.834  1.00  0.00     0.010 A 
ATOM     31  C   UNL A   1      39.220  26.633  29.551  1.00  0.00     0.010 A 
ATOM     32  C   UNL A   1      40.212  27.627  29.652  1.00  0.00    -0.014 A 
BRANCH  32  33
ATOM     33  C   UNL A   1      40.149  28.656  30.721  1.00  0.00     0.031 A 
ATOM     34  C   UNL A   1      41.085  28.543  31.897  1.00  0.00     0.074 A 
ATOM     35  C   UNL A   1      39.310  29.702  30.622  1.00  0.00     0.049 A 
ATOM     36  N   UNL A   1      41.178  29.301  32.958  1.00  0.00    -0.248 NA
ATOM     37  C   UNL A   1      42.050  27.431  31.866  1.00  0.00     0.031 C 
ATOM     38  C   UNL A   1      38.401  29.955  29.505  1.00  0.00     0.029 A 
ATOM     39  N   UNL A   1      39.087  30.752  31.479  1.00  0.00    -0.354 N 
ATOM     40  C   UNL A   1      42.210  28.764  33.719  1.00  0.00     0.074 A 
ATOM     41  C   UNL A   1      42.690  27.595  33.015  1.00  0.00     0.031 C 
ATOM     42  C   UNL A   1      37.711  31.083  29.748  1.00  0.00     0.029 A 
ATOM     43  C   UNL A   1      38.104  31.613  31.052  1.00  0.00     0.049 A 
ATOM     44  H   UNL A   1      39.584  30.877  32.320  1.00  0.00     0.167 HD
ATOM     45  C   UNL A   1      42.721  29.212  34.891  1.00  0.00     0.037 A 
ATOM     46  C   UNL A   1      37.569  32.693  31.658  1.00  0.00     0.037 A 
ATOM     47  C   UNL A   1      42.237  30.374  35.591  1.00  0.00     0.049 A 
ATOM     48  C   UNL A   1      38.087  33.112  33.012  1.00  0.00     0.074 A 
ATOM     49  C   UNL A   1      42.674  30.897  36.796  1.00  0.00     0.029 A 
ATOM     50  N   UNL A   1      41.210  31.193  35.149  1.00  0.00    -0.354 N 
ATOM     51  N   UNL A   1      39.057  32.588  33.723  1.00  0.00    -0.248 NA
ATOM     52  C   UNL A   1      37.436  34.268  33.646  1.00  0.00     0.031 C 
ATOM     53  C   UNL A   1      41.885  32.010  37.101  1.00  0.00     0.029 A 
ATOM     54  C   UNL A   1      40.989  32.209  36.064  1.00  0.00     0.049 A 
ATOM     55  H   UNL A   1      40.712  31.071  34.309  1.00  0.00     0.167 HD
ATOM     56  C   UNL A   1      39.156  33.373  34.868  1.00  0.00     0.074 A 
ATOM     57  C   UNL A   1      38.153  34.410  34.752  1.00  0.00     0.031 C 
ATOM     58  C   UNL A   1      40.001  33.249  35.921  1.00  0.00     0.037 A 
BRANCH  45  59
ATOM     59  C   UNL A   1      43.858  28.439  35.500  1.00  0.00     0.058 A 
ATOM     60  C   UNL A   1      43.632  27.417  36.435  1.00  0.00     0.135 A 
ATOM     61  C   UNL A   1      45.183  28.686  35.106  1.00  0.00     0.135 A 
ATOM     62  F   UNL A   1      42.387  27.154  36.861  1.00  0.00    -0.206 F 
ATOM     63  C   UNL A   1      44.681  26.675  36.967  1.00  0.00     0.059 A 
ATOM     64  C   UNL A   1      46.245  27.939  35.608  1.00  0.00     0.059 A 
ATOM     65  F   UNL A   1      45.455  29.657  34.220  1.00  0.00    -0.206 F 
ATOM     66  C   UNL A   1      45.985  26.941  36.545  1.00  0.00     0.060 A 
BRANCH  66  67
ATOM     67  S   UNL A   1      47.331  25.952  37.229  1.00  0.00     0.124 S 
ATOM     68  O   UNL A   1      47.303  26.354  38.632  1.00  0.00    -0.237 OA
ATOM     69  O   UNL A   1      46.890  24.590  36.950  1.00  0.00    -0.237 OA
ATOM     70  O   UNL A   1      48.498  26.398  36.474  1.00  0.00    -0.744 OA
ENDBRANCH  66  67
ENDBRANCH  45  59
BRANCH  46  71
ATOM     71  C   UNL A   1      36.460  33.448  31.012  1.00  0.00     0.058 A 
ATOM     72  C   UNL A   1      35.143  33.348  31.483  1.00  0.00     0.135 A 
ATOM     73  C   UNL A   1      36.689  34.248  29.881  1.00  0.00     0.135 A 
ATOM     74  F   UNL A   1      34.870  32.587  32.554  1.00  0.00    -0.206 F 
ATOM     75  C   UNL A   1      34.087  33.985  30.839  1.00  0.00     0.059 A 
ATOM     76  C   UNL A   1      35.655  34.918  29.236  1.00  0.00     0.059 A 
ATOM     77  F   UNL A   1      37.932  34.385  29.395  1.00  0.00    -0.206 F 
ATOM     78  C   UNL A   1      34.353  34.765  29.712  1.00  0.00     0.060 A 
BRANCH  78  79
ATOM     79  S   UNL A   1      32.979  35.591  28.883  1.00  0.00     0.124 S 
ATOM     80  O   UNL A   1      32.211  36.091  30.017  1.00  0.00    -0.237 OA
ATOM     81  O   UNL A   1      33.665  36.600  28.081  1.00  0.00    -0.237 OA
ATOM     82  O   UNL A   1      32.352  34.516  28.120  1.00  0.00    -0.744 OA
ENDBRANCH  78  79
ENDBRANCH  46  71
BRANCH  58  83
ATOM     83  C   UNL A   1      39.916  34.284  37.010  1.00  0.00     0.058 A 
ATOM     84  C   UNL A   1      40.596  35.508  36.922  1.00  0.00     0.135 A 
ATOM     85  C   UNL A   1      39.100  34.066  38.132  1.00  0.00     0.135 A 
ATOM     86  F   UNL A   1      41.394  35.764  35.873  1.00  0.00    -0.206 F 
ATOM     87  C   UNL A   1      40.487  36.473  37.918  1.00  0.00     0.059 A 
ATOM     88  C   UNL A   1      38.953  35.028  39.127  1.00  0.00     0.059 A 
ATOM     89  F   UNL A   1      38.419  32.916  38.261  1.00  0.00    -0.206 F 
ATOM     90  C   UNL A   1      39.661  36.224  39.017  1.00  0.00     0.060 A 
BRANCH  90  91
ATOM     91  S   UNL A   1      39.498  37.501  40.284  1.00  0.00     0.124 S 
ATOM     92  O   UNL A   1      40.884  37.919  40.459  1.00  0.00    -0.237 OA
ATOM     93  O   UNL A   1      38.619  38.471  39.639  1.00  0.00    -0.237 OA
ATOM     94  O   UNL A   1      38.910  36.786  41.413  1.00  0.00    -0.744 OA
ENDBRANCH  90  91
ENDBRANCH  58  83
ENDBRANCH  32  33
ENDBRANCH  25  27
ENDBRANCH  24  25
ENDBRANCH  23  24
ENDBRANCH  22  23
ENDBRANCH   1  22
TORSDOF 20
ENDMDL
MODEL 2
REMARK VINA RESULT:     -10.2      6.724     12.160
REMARK SMILES C[C@H]1OCC[C@H]1C(=O)N1CCCC[C@@H]1CC(=O)OCCOCCOC(=O)c1ccc(-c2c3nc(c(-c4c(F)cc(S(=O)(=O)[O-])cc4F)c4ccc([nH]4)c(-c4c(F)cc(S(=O)(=O)[O-])cc4F)c4nc(c(-c5c(F)cc(S(=O)(=O)[O-])cc5F)c5ccc2[nH]5)C=C4)C=C3)cc1
REMARK SMILES IDX 21 1 20 2 19 3 18 4 16 5 17 6 15 7 14 8 9 9 10 10 11 11
REMARK SMILES IDX 13 12 12 13 7 14 8 15 6 16 1 17 2 18 3 19 4 20 5 21 22 22
REMARK SMILES IDX 23 23 24 24 25 25 26 26 27 27 28 28 92 29 29 30 91 31 30 32
REMARK SMILES IDX 31 33 32 34 85 35 33 36 90 37 84 38 86 39 34 40 89 41 83 42
REMARK SMILES IDX 82 43 35 45 69 46 48 47 68 48 49 49 52 50 67 51 87 52 50 53
REMARK SMILES IDX 51 54 66 56 88 57 53 58 36 59 37 60 46 61 38 62 39 63 45 64
REMARK SMILES IDX 47 65 40 66 41 67 42 68 43 69 44 70 70 71 71 72 80 73 72 74
REMARK SMILES IDX 73 75 79 76 81 77 74 78 75 79 76 80 77 81 78 82 54 83 55 84
REMARK SMILES IDX 64 85 56 86 57 87 63 88 65 89 58 90 59 91 60 92 61 93 62 94
REMARK H PARENT 86 44 52 55
REMARK Flexibility Score: inf
ROOT
ATOM      1  O   UNL A   1      33.630  30.790  27.038  1.00  0.00    -0.374 OA
ENDROOT
BRANCH   1   2
ATOM      2  C   UNL A   1      32.367  30.153  27.201  1.00  0.00     0.202 C 
BRANCH   2   3
ATOM      3  C   UNL A   1      31.809  29.374  26.005  1.00  0.00     0.261 C 
BRANCH   3   4
ATOM      4  O   UNL A   1      31.204  30.227  25.020  1.00  0.00    -0.463 OA
BRANCH   4   5
ATOM      5  C   UNL A   1      30.462  29.567  24.103  1.00  0.00     0.307 C 
ATOM      6  O   UNL A   1      29.706  30.102  23.295  1.00  0.00    -0.252 OA
BRANCH   5   7
ATOM      7  C   UNL A   1      30.642  28.079  24.090  1.00  0.00     0.147 C 
BRANCH   7   8
ATOM      8  C   UNL A   1      31.372  27.322  22.979  1.00  0.00     0.096 C 
ATOM      9  N   UNL A   1      31.148  25.841  23.083  1.00  0.00    -0.339 N 
ATOM     10  C   UNL A   1      31.971  24.996  22.219  1.00  0.00     0.120 C 
ATOM     11  C   UNL A   1      33.453  25.350  22.307  1.00  0.00     0.022 C 
ATOM     12  C   UNL A   1      32.866  27.685  22.961  1.00  0.00     0.026 C 
ATOM     13  C   UNL A   1      33.658  26.823  21.982  1.00  0.00     0.004 C 
BRANCH   9  14
ATOM     14  C   UNL A   1      30.689  25.255  24.259  1.00  0.00     0.228 C 
ATOM     15  O   UNL A   1      29.624  25.600  24.770  1.00  0.00    -0.274 OA
BRANCH  14  16
ATOM     16  C   UNL A   1      31.534  24.121  24.882  1.00  0.00     0.109 C 
ATOM     17  C   UNL A   1      33.118  25.803  26.157  1.00  0.00     0.039 C 
ATOM     18  C   UNL A   1      32.352  24.488  26.122  1.00  0.00     0.127 C 
ATOM     19  O   UNL A   1      31.442  24.361  27.234  1.00  0.00    -0.378 OA
ATOM     20  C   UNL A   1      30.454  23.383  26.876  1.00  0.00     0.161 C 
ATOM     21  C   UNL A   1      30.742  22.954  25.447  1.00  0.00     0.044 C 
ENDBRANCH  14  16
ENDBRANCH   9  14
ENDBRANCH   7   8
ENDBRANCH   5   7
ENDBRANCH   4   5
ENDBRANCH   3   4
ENDBRANCH   2   3
ENDBRANCH   1   2
BRANCH   1  22
ATOM     22  C   UNL A   1      33.944  31.892  27.889  1.00  0.00     0.202 C 
BRANCH  22  23
ATOM     23  C   UNL A   1      35.006  31.671  28.976  1.00  0.00     0.261 C 
BRANCH  23  24
ATOM     24  O   UNL A   1      35.683  30.404  28.851  1.00  0.00    -0.460 OA
BRANCH  24  25
ATOM     25  C   UNL A   1      36.432  30.051  29.929  1.00  0.00     0.338 C 
ATOM     26  O   UNL A   1      36.025  29.667  31.011  1.00  0.00    -0.246 OA
BRANCH  25  27
ATOM     27  C   UNL A   1      37.861  30.008  29.568  1.00  0.00     0.060 A 
ATOM     28  C   UNL A   1      38.189  29.834  28.216  1.00  0.00     0.016 A 
ATOM     29  C   UNL A   1      38.856  30.000  30.546  1.00  0.00     0.016 A 
ATOM     30  C   UNL A   1      39.513  29.619  27.841  1.00  0.00     0.010 A 
ATOM     31  C   UNL A   1      40.184  29.767  30.168  1.00  0.00     0.010 A 
ATOM     32  C   UNL A   1      40.514  29.543  28.817  1.00  0.00    -0.014 A 
BRANCH  32  33
ATOM     33  C   UNL A   1      41.869  29.071  28.436  1.00  0.00     0.031 A 
ATOM     34  C   UNL A   1      43.004  30.063  28.409  1.00  0.00     0.074 A 
ATOM     35  C   UNL A   1      42.098  27.773  28.172  1.00  0.00     0.049 A 
ATOM     36  N   UNL A   1      44.253  29.883  28.070  1.00  0.00    -0.248 NA
ATOM     37  C   UNL A   1      42.686  31.439  28.826  1.00  0.00     0.031 C 
ATOM     38  C   UNL A   1      41.097  26.709  28.226  1.00  0.00     0.029 A 
ATOM     39  N   UNL A   1      43.252  27.127  27.803  1.00  0.00    -0.354 N 
ATOM     40  C   UNL A   1      44.874  31.116  28.236  1.00  0.00     0.074 A 
ATOM     41  C   UNL A   1      43.855  32.046  28.673  1.00  0.00     0.031 C 
ATOM     42  C   UNL A   1      41.678  25.543  27.894  1.00  0.00     0.029 A 
ATOM     43  C   UNL A   1      43.083  25.783  27.570  1.00  0.00     0.049 A 
ATOM     44  H   UNL A   1      44.121  27.583  27.714  1.00  0.00     0.167 HD
ATOM     45  C   UNL A   1      46.176  31.441  28.056  1.00  0.00     0.037 A 
ATOM     46  C   UNL A   1      43.958  24.859  27.125  1.00  0.00     0.037 A 
ATOM     47  C   UNL A   1      47.186  30.513  27.617  1.00  0.00     0.049 A 
ATOM     48  C   UNL A   1      45.381  25.270  26.833  1.00  0.00     0.074 A 
ATOM     49  C   UNL A   1      48.530  30.751  27.384  1.00  0.00     0.029 A 
ATOM     50  N   UNL A   1      46.965  29.172  27.348  1.00  0.00    -0.354 N 
ATOM     51  N   UNL A   1      45.949  26.442  26.986  1.00  0.00    -0.248 NA
ATOM     52  C   UNL A   1      46.279  24.232  26.307  1.00  0.00     0.031 C 
ATOM     53  C   UNL A   1      49.113  29.561  26.936  1.00  0.00     0.029 A 
ATOM     54  C   UNL A   1      48.144  28.571  26.936  1.00  0.00     0.049 A 
ATOM     55  H   UNL A   1      46.099  28.713  27.437  1.00  0.00     0.167 HD
ATOM     56  C   UNL A   1      47.279  26.272  26.610  1.00  0.00     0.074 A 
ATOM     57  C   UNL A   1      47.431  24.884  26.230  1.00  0.00     0.031 C 
ATOM     58  C   UNL A   1      48.284  27.181  26.583  1.00  0.00     0.037 A 
BRANCH  45  59
ATOM     59  C   UNL A   1      46.586  32.863  28.322  1.00  0.00     0.058 A 
ATOM     60  C   UNL A   1      47.181  33.240  29.536  1.00  0.00     0.135 A 
ATOM     61  C   UNL A   1      46.434  33.848  27.333  1.00  0.00     0.135 A 
ATOM     62  F   UNL A   1      47.332  32.342  30.522  1.00  0.00    -0.206 F 
ATOM     63  C   UNL A   1      47.599  34.546  29.766  1.00  0.00     0.059 A 
ATOM     64  C   UNL A   1      46.867  35.156  27.533  1.00  0.00     0.059 A 
ATOM     65  F   UNL A   1      45.866  33.542  26.156  1.00  0.00    -0.206 F 
ATOM     66  C   UNL A   1      47.440  35.497  28.756  1.00  0.00     0.060 A 
BRANCH  66  67
ATOM     67  S   UNL A   1      48.009  37.183  29.063  1.00  0.00     0.124 S 
ATOM     68  O   UNL A   1      49.249  36.942  29.795  1.00  0.00    -0.237 OA
ATOM     69  O   UNL A   1      48.163  37.711  27.712  1.00  0.00    -0.237 OA
ATOM     70  O   UNL A   1      46.926  37.771  29.844  1.00  0.00    -0.744 OA
ENDBRANCH  66  67
ENDBRANCH  45  59
BRANCH  46  71
ATOM     71  C   UNL A   1      43.521  23.454  26.897  1.00  0.00     0.058 A 
ATOM     72  C   UNL A   1      43.293  22.966  25.602  1.00  0.00     0.135 A 
ATOM     73  C   UNL A   1      43.276  22.586  27.973  1.00  0.00     0.135 A 
ATOM     74  F   UNL A   1      43.502  23.759  24.540  1.00  0.00    -0.206 F 
ATOM     75  C   UNL A   1      42.808  21.680  25.381  1.00  0.00     0.059 A 
ATOM     76  C   UNL A   1      42.818  21.288  27.777  1.00  0.00     0.059 A 
ATOM     77  F   UNL A   1      43.486  23.000  29.232  1.00  0.00    -0.206 F 
ATOM     78  C   UNL A   1      42.568  20.850  26.477  1.00  0.00     0.060 A 
BRANCH  78  79
ATOM     79  S   UNL A   1      41.942  19.182  26.183  1.00  0.00     0.124 S 
ATOM     80  O   UNL A   1      42.286  18.516  27.433  1.00  0.00    -0.237 OA
ATOM     81  O   UNL A   1      40.520  19.423  25.957  1.00  0.00    -0.237 OA
ATOM     82  O   UNL A   1      42.690  18.747  25.008  1.00  0.00    -0.744 OA
ENDBRANCH  78  79
ENDBRANCH  46  71
BRANCH  58  83
ATOM     83  C   UNL A   1      49.650  26.700  26.176  1.00  0.00     0.058 A 
ATOM     84  C   UNL A   1      50.106  26.800  24.853  1.00  0.00     0.135 A 
ATOM     85  C   UNL A   1      50.533  26.179  27.137  1.00  0.00     0.135 A 
ATOM     86  F   UNL A   1      49.301  27.286  23.895  1.00  0.00    -0.206 F 
ATOM     87  C   UNL A   1      51.383  26.383  24.492  1.00  0.00     0.059 A 
ATOM     88  C   UNL A   1      51.824  25.781  26.804  1.00  0.00     0.059 A 
ATOM     89  F   UNL A   1      50.150  26.070  28.419  1.00  0.00    -0.206 F 
ATOM     90  C   UNL A   1      52.237  25.876  25.475  1.00  0.00     0.060 A 
BRANCH  90  91
ATOM     91  S   UNL A   1      53.904  25.374  25.000  1.00  0.00     0.124 S 
ATOM     92  O   UNL A   1      53.826  23.924  25.142  1.00  0.00    -0.237 OA
ATOM     93  O   UNL A   1      54.003  25.872  23.632  1.00  0.00    -0.237 OA
ATOM     94  O   UNL A   1      54.755  26.055  25.972  1.00  0.00    -0.744 OA
ENDBRANCH  90  91
ENDBRANCH  58  83
ENDBRANCH  32  33
ENDBRANCH  25  27
ENDBRANCH  24  25
ENDBRANCH  23  24
ENDBRANCH  22  23
ENDBRANCH   1  22
TORSDOF 20
ENDMDL
MODEL 3
REMARK VINA RESULT:      -9.9      1.984      8.747
REMARK SMILES C[C@H]1OCC[C@H]1C(=O)N1CCCC[C@@H]1CC(=O)OCCOCCOC(=O)c1ccc(-c2c3nc(c(-c4c(F)cc(S(=O)(=O)[O-])cc4F)c4ccc([nH]4)c(-c4c(F)cc(S(=O)(=O)[O-])cc4F)c4nc(c(-c5c(F)cc(S(=O)(=O)[O-])cc5F)c5ccc2[nH]5)C=C4)C=C3)cc1
REMARK SMILES IDX 21 1 20 2 19 3 18 4 16 5 17 6 15 7 14 8 9 9 10 10 11 11
REMARK SMILES IDX 13 12 12 13 7 14 8 15 6 16 1 17 2 18 3 19 4 20 5 21 22 22
REMARK SMILES IDX 23 23 24 24 25 25 26 26 27 27 28 28 92 29 29 30 91 31 30 32
REMARK SMILES IDX 31 33 32 34 85 35 33 36 90 37 84 38 86 39 34 40 89 41 83 42
REMARK SMILES IDX 82 43 35 45 69 46 48 47 68 48 49 49 52 50 67 51 87 52 50 53
REMARK SMILES IDX 51 54 66 56 88 57 53 58 36 59 37 60 46 61 38 62 39 63 45 64
REMARK SMILES IDX 47 65 40 66 41 67 42 68 43 69 44 70 70 71 71 72 80 73 72 74
REMARK SMILES IDX 73 75 79 76 81 77 74 78 75 79 76 80 77 81 78 82 54 83 55 84
REMARK SMILES IDX 64 85 56 86 57 87 63 88 65 89 58 90 59 91 60 92 61 93 62 94
REMARK H PARENT 86 44 52 55
REMARK Flexibility Score: inf
ROOT
ATOM      1  O   UNL A   1      39.351  22.265  26.135  1.00  0.00    -0.374 OA
ENDROOT
BRANCH   1   2
ATOM      2  C   UNL A   1      38.605  23.460  26.346  1.00  0.00     0.202 C 
BRANCH   2   3
ATOM      3  C   UNL A   1      37.173  23.502  25.804  1.00  0.00     0.261 C 
BRANCH   3   4
ATOM      4  O   UNL A   1      37.124  23.596  24.371  1.00  0.00    -0.463 OA
BRANCH   4   5
ATOM      5  C   UNL A   1      35.894  23.389  23.848  1.00  0.00     0.307 C 
ATOM      6  O   UNL A   1      35.544  23.731  22.721  1.00  0.00    -0.252 OA
BRANCH   5   7
ATOM      7  C   UNL A   1      34.941  22.649  24.738  1.00  0.00     0.147 C 
BRANCH   7   8
ATOM      8  C   UNL A   1      34.278  21.324  24.356  1.00  0.00     0.096 C 
ATOM      9  N   UNL A   1      32.844  21.278  24.797  1.00  0.00    -0.339 N 
ATOM     10  C   UNL A   1      32.171  19.984  24.692  1.00  0.00     0.120 C 
ATOM     11  C   UNL A   1      32.988  18.857  25.315  1.00  0.00     0.022 C 
ATOM     12  C   UNL A   1      35.090  20.133  24.893  1.00  0.00     0.026 C 
ATOM     13  C   UNL A   1      34.372  18.803  24.683  1.00  0.00     0.004 C 
BRANCH   9  14
ATOM     14  C   UNL A   1      32.351  22.151  25.763  1.00  0.00     0.228 C 
ATOM     15  O   UNL A   1      32.699  22.062  26.940  1.00  0.00    -0.274 OA
BRANCH  14  16
ATOM     16  C   UNL A   1      31.389  23.270  25.305  1.00  0.00     0.109 C 
ATOM     17  C   UNL A   1      29.660  22.773  27.236  1.00  0.00     0.039 C 
ATOM     18  C   UNL A   1      30.389  23.773  26.348  1.00  0.00     0.127 C 
ATOM     19  O   UNL A   1      31.102  24.761  27.119  1.00  0.00    -0.378 OA
ATOM     20  C   UNL A   1      32.112  25.328  26.270  1.00  0.00     0.161 C 
ATOM     21  C   UNL A   1      32.050  24.589  24.944  1.00  0.00     0.044 C 
ENDBRANCH  14  16
ENDBRANCH   9  14
ENDBRANCH   7   8
ENDBRANCH   5   7
ENDBRANCH   4   5
ENDBRANCH   3   4
ENDBRANCH   2   3
ENDBRANCH   1   2
BRANCH   1  22
ATOM     22  C   UNL A   1      40.461  22.003  26.993  1.00  0.00     0.202 C 
BRANCH  22  23
ATOM     23  C   UNL A   1      41.831  22.558  26.574  1.00  0.00     0.261 C 
BRANCH  23  24
ATOM     24  O   UNL A   1      41.809  23.978  26.328  1.00  0.00    -0.460 OA
BRANCH  24  25
ATOM     25  C   UNL A   1      42.843  24.667  26.882  1.00  0.00     0.338 C 
ATOM     26  O   UNL A   1      44.026  24.554  26.615  1.00  0.00    -0.246 OA
BRANCH  25  27
ATOM     27  C   UNL A   1      42.335  25.744  27.751  1.00  0.00     0.060 A 
ATOM     28  C   UNL A   1      43.174  26.840  27.993  1.00  0.00     0.016 A 
ATOM     29  C   UNL A   1      41.119  25.619  28.424  1.00  0.00     0.016 A 
ATOM     30  C   UNL A   1      42.815  27.801  28.935  1.00  0.00     0.010 A 
ATOM     31  C   UNL A   1      40.767  26.578  29.382  1.00  0.00     0.010 A 
ATOM     32  C   UNL A   1      41.629  27.655  29.665  1.00  0.00    -0.014 A 
BRANCH  32  33
ATOM     33  C   UNL A   1      41.377  28.541  30.830  1.00  0.00     0.031 A 
ATOM     34  C   UNL A   1      40.275  29.564  30.741  1.00  0.00     0.074 A 
ATOM     35  C   UNL A   1      42.081  28.402  31.967  1.00  0.00     0.049 A 
ATOM     36  N   UNL A   1      39.906  30.464  31.615  1.00  0.00    -0.248 NA
ATOM     37  C   UNL A   1      39.478  29.569  29.502  1.00  0.00     0.031 C 
ATOM     38  C   UNL A   1      43.129  27.408  32.197  1.00  0.00     0.029 A 
ATOM     39  N   UNL A   1      42.018  29.101  33.147  1.00  0.00    -0.354 N 
ATOM     40  C   UNL A   1      38.835  31.138  31.039  1.00  0.00     0.074 A 
ATOM     41  C   UNL A   1      38.635  30.567  29.724  1.00  0.00     0.031 C 
ATOM     42  C   UNL A   1      43.617  27.567  33.440  1.00  0.00     0.029 A 
ATOM     43  C   UNL A   1      42.943  28.694  34.080  1.00  0.00     0.049 A 
ATOM     44  H   UNL A   1      41.372  29.826  33.310  1.00  0.00     0.167 HD
ATOM     45  C   UNL A   1      38.077  32.131  31.562  1.00  0.00     0.037 A 
ATOM     46  C   UNL A   1      43.225  29.191  35.301  1.00  0.00     0.037 A 
ATOM     47  C   UNL A   1      38.283  32.699  32.870  1.00  0.00     0.049 A 
ATOM     48  C   UNL A   1      42.433  30.366  35.821  1.00  0.00     0.074 A 
ATOM     49  C   UNL A   1      37.582  33.724  33.483  1.00  0.00     0.029 A 
ATOM     50  N   UNL A   1      39.258  32.290  33.766  1.00  0.00    -0.354 N 
ATOM     51  N   UNL A   1      41.429  30.998  35.260  1.00  0.00    -0.248 NA
ATOM     52  C   UNL A   1      42.813  30.896  37.138  1.00  0.00     0.031 C 
ATOM     53  C   UNL A   1      38.160  33.961  34.734  1.00  0.00     0.029 A 
ATOM     54  C   UNL A   1      39.188  33.052  34.921  1.00  0.00     0.049 A 
ATOM     55  H   UNL A   1      39.904  31.565  33.606  1.00  0.00     0.167 HD
ATOM     56  C   UNL A   1      41.037  31.974  36.172  1.00  0.00     0.074 A 
ATOM     57  C   UNL A   1      41.905  31.844  37.323  1.00  0.00     0.031 C 
ATOM     58  C   UNL A   1      40.046  32.894  36.068  1.00  0.00     0.037 A 
BRANCH  45  59
ATOM     59  C   UNL A   1      36.960  32.679  30.719  1.00  0.00     0.058 A 
ATOM     60  C   UNL A   1      35.652  32.179  30.819  1.00  0.00     0.135 A 
ATOM     61  C   UNL A   1      37.186  33.751  29.840  1.00  0.00     0.135 A 
ATOM     62  F   UNL A   1      35.385  31.142  31.629  1.00  0.00    -0.206 F 
ATOM     63  C   UNL A   1      34.610  32.714  30.069  1.00  0.00     0.059 A 
ATOM     64  C   UNL A   1      36.154  34.317  29.098  1.00  0.00     0.059 A 
ATOM     65  F   UNL A   1      38.419  34.262  29.702  1.00  0.00    -0.206 F 
ATOM     66  C   UNL A   1      34.871  33.786  29.213  1.00  0.00     0.060 A 
BRANCH  66  67
ATOM     67  S   UNL A   1      33.502  34.483  28.265  1.00  0.00     0.124 S 
ATOM     68  O   UNL A   1      32.688  35.076  29.322  1.00  0.00    -0.237 OA
ATOM     69  O   UNL A   1      34.181  35.427  27.384  1.00  0.00    -0.237 OA
ATOM     70  O   UNL A   1      32.919  33.320  27.603  1.00  0.00    -0.744 OA
ENDBRANCH  66  67
ENDBRANCH  45  59
BRANCH  46  71
ATOM     71  C   UNL A   1      44.323  28.606  36.119  1.00  0.00     0.058 A 
ATOM     72  C   UNL A   1      44.077  27.566  37.027  1.00  0.00     0.135 A 
ATOM     73  C   UNL A   1      45.631  29.109  36.043  1.00  0.00     0.135 A 
ATOM     74  F   UNL A   1      42.840  27.058  37.144  1.00  0.00    -0.206 F 
ATOM     75  C   UNL A   1      45.078  27.066  37.853  1.00  0.00     0.059 A 
ATOM     76  C   UNL A   1      46.656  28.607  36.838  1.00  0.00     0.059 A 
ATOM     77  F   UNL A   1      45.923  30.099  35.184  1.00  0.00    -0.206 F 
ATOM     78  C   UNL A   1      46.365  27.598  37.755  1.00  0.00     0.060 A 
BRANCH  78  79
ATOM     79  S   UNL A   1      47.660  26.942  38.828  1.00  0.00     0.124 S 
ATOM     80  O   UNL A   1      47.886  25.626  38.243  1.00  0.00    -0.237 OA
ATOM     81  O   UNL A   1      48.733  27.915  38.646  1.00  0.00    -0.237 OA
ATOM     82  O   UNL A   1      47.036  26.948  40.147  1.00  0.00    -0.744 OA
ENDBRANCH  78  79
ENDBRANCH  46  71
BRANCH  58  83
ATOM     83  C   UNL A   1      39.811  33.802  37.244  1.00  0.00     0.058 A 
ATOM     84  C   UNL A   1      38.928  33.457  38.279  1.00  0.00     0.135 A 
ATOM     85  C   UNL A   1      40.520  35.008  37.361  1.00  0.00     0.135 A 
ATOM     86  F   UNL A   1      38.221  32.318  38.214  1.00  0.00    -0.206 F 
ATOM     87  C   UNL A   1      38.740  34.287  39.380  1.00  0.00     0.059 A 
ATOM     88  C   UNL A   1      40.369  35.841  38.466  1.00  0.00     0.059 A 
ATOM     89  F   UNL A   1      41.384  35.381  36.404  1.00  0.00    -0.206 F 
ATOM     90  C   UNL A   1      39.467  35.477  39.466  1.00  0.00     0.060 A 
BRANCH  90  91
ATOM     91  S   UNL A   1      39.243  36.527  40.918  1.00  0.00     0.124 S 
ATOM     92  O   UNL A   1      38.477  35.650  41.798  1.00  0.00    -0.237 OA
ATOM     93  O   UNL A   1      40.618  36.793  41.327  1.00  0.00    -0.237 OA
ATOM     94  O   UNL A   1      38.517  37.681  40.394  1.00  0.00    -0.744 OA
ENDBRANCH  90  91
ENDBRANCH  58  83
ENDBRANCH  32  33
ENDBRANCH  25  27
ENDBRANCH  24  25
ENDBRANCH  23  24
ENDBRANCH  22  23
ENDBRANCH   1  22
TORSDOF 20
ENDMDL
