MODEL 1
REMARK VINA RESULT:      -8.9      0.000      0.000
REMARK SMILES COC(=O)CCN(C)C(=O)NCc1ccc(C(=O)OCCOCCOC(=O)c2ccc(-c3c4nc(c(-c5c(F)cc(S(=O)(=O)[O-])cc5F)c5ccc([nH]5)c(-c5c(F)cc(S(=O)(=O)[O-])cc5F)c5nc(c(-c6c(F)cc(S(=O)(=O)[O-])cc6F)c6ccc3[nH]6)C=C5)C=C4)cc2)o1
REMARK SMILES IDX 20 1 19 2 17 3 18 4 16 5 13 6 14 7 94 8 15 9 12 10 11 11
REMARK SMILES IDX 9 12 10 13 7 15 8 16 6 17 5 18 3 19 4 20 2 21 1 22 21 23
REMARK SMILES IDX 22 24 23 25 24 26 25 27 26 28 27 29 28 30 29 31 93 32 30 33
REMARK SMILES IDX 92 34 31 35 32 36 33 37 86 38 34 39 91 40 85 41 87 42 35 43
REMARK SMILES IDX 90 44 84 45 83 46 36 48 70 49 49 50 69 51 50 52 53 53 68 54
REMARK SMILES IDX 88 55 51 56 52 57 67 59 89 60 54 61 37 62 38 63 47 64 39 65
REMARK SMILES IDX 40 66 46 67 48 68 41 69 42 70 43 71 44 72 45 73 71 74 72 75
REMARK SMILES IDX 81 76 73 77 74 78 80 79 82 80 75 81 76 82 77 83 78 84 79 85
REMARK SMILES IDX 55 86 56 87 65 88 57 89 58 90 64 91 66 92 59 93 60 94 61 95
REMARK SMILES IDX 62 96 63 97
REMARK H PARENT 11 14 87 47 53 58
REMARK Flexibility Score: inf
ROOT
ATOM      1  C   UNL A   1      33.362  35.398  30.739  1.00  0.00     0.261 C 
ENDROOT
BRANCH   1   2
ATOM      2  O   UNL A   1      33.172  34.477  29.652  1.00  0.00    -0.457 OA
BRANCH   2   3
ATOM      3  C   UNL A   1      34.016  34.626  28.591  1.00  0.00     0.374 C 
ATOM      4  O   UNL A   1      34.223  35.677  27.998  1.00  0.00    -0.242 OA
BRANCH   3   5
ATOM      5  C   UNL A   1      34.720  33.385  28.368  1.00  0.00     0.211 A 
ATOM      6  C   UNL A   1      34.830  31.278  27.724  1.00  0.00     0.124 A 
ATOM      7  C   UNL A   1      36.131  31.694  27.913  1.00  0.00     0.048 A 
ATOM      8  O   UNL A   1      33.972  32.286  28.039  1.00  0.00    -0.452 OA
ATOM      9  C   UNL A   1      36.062  33.051  28.313  1.00  0.00     0.058 A 
BRANCH   6  10
ATOM     10  C   UNL A   1      34.205  30.035  27.210  1.00  0.00     0.193 C 
BRANCH  10  11
ATOM     11  N   UNL A   1      32.997  30.399  26.504  1.00  0.00    -0.331 N 
ATOM     12  C   UNL A   1      32.054  29.762  25.797  1.00  0.00     0.317 C 
ATOM     13  O   UNL A   1      31.086  30.456  25.470  1.00  0.00    -0.249 OA
ATOM     14  H   UNL A   1      32.823  31.367  26.555  1.00  0.00     0.165 HD
BRANCH  12  15
ATOM     15  N   UNL A   1      32.118  28.432  25.492  1.00  0.00    -0.327 N 
ATOM     16  C   UNL A   1      31.391  27.352  26.140  1.00  0.00     0.148 C 
BRANCH  15  17
ATOM     17  C   UNL A   1      32.984  28.043  24.368  1.00  0.00     0.132 C 
BRANCH  17  18
ATOM     18  C   UNL A   1      32.549  28.665  23.046  1.00  0.00     0.144 C 
BRANCH  18  19
ATOM     19  C   UNL A   1      31.307  27.995  22.519  1.00  0.00     0.307 C 
ATOM     20  O   UNL A   1      31.249  26.810  22.220  1.00  0.00    -0.252 OA
BRANCH  19  21
ATOM     21  O   UNL A   1      30.284  28.888  22.427  1.00  0.00    -0.469 OA
ATOM     22  C   UNL A   1      29.042  28.411  22.947  1.00  0.00     0.282 C 
ENDBRANCH  19  21
ENDBRANCH  18  19
ENDBRANCH  17  18
ENDBRANCH  15  17
ENDBRANCH  12  15
ENDBRANCH  10  11
ENDBRANCH   6  10
ENDBRANCH   3   5
ENDBRANCH   2   3
ENDBRANCH   1   2
BRANCH   1  23
ATOM     23  C   UNL A   1      34.275  34.768  31.796  1.00  0.00     0.202 C 
BRANCH  23  24
ATOM     24  O   UNL A   1      33.768  33.549  32.345  1.00  0.00    -0.374 OA
BRANCH  24  25
ATOM     25  C   UNL A   1      34.747  32.585  32.744  1.00  0.00     0.202 C 
BRANCH  25  26
ATOM     26  C   UNL A   1      35.596  32.021  31.600  1.00  0.00     0.261 C 
BRANCH  26  27
ATOM     27  O   UNL A   1      36.624  31.151  32.106  1.00  0.00    -0.460 OA
BRANCH  27  28
ATOM     28  C   UNL A   1      37.794  31.762  32.415  1.00  0.00     0.338 C 
ATOM     29  O   UNL A   1      37.976  32.605  33.278  1.00  0.00    -0.246 OA
BRANCH  28  30
ATOM     30  C   UNL A   1      38.900  31.126  31.669  1.00  0.00     0.060 A 
ATOM     31  C   UNL A   1      39.829  30.383  32.408  1.00  0.00     0.016 A 
ATOM     32  C   UNL A   1      39.055  31.278  30.289  1.00  0.00     0.016 A 
ATOM     33  C   UNL A   1      40.941  29.828  31.778  1.00  0.00     0.010 A 
ATOM     34  C   UNL A   1      40.176  30.726  29.658  1.00  0.00     0.010 A 
ATOM     35  C   UNL A   1      41.140  30.026  30.406  1.00  0.00    -0.014 A 
BRANCH  35  36
ATOM     36  C   UNL A   1      42.425  29.619  29.787  1.00  0.00     0.031 A 
ATOM     37  C   UNL A   1      42.545  28.242  29.195  1.00  0.00     0.074 A 
ATOM     38  C   UNL A   1      43.461  30.475  29.722  1.00  0.00     0.049 A 
ATOM     39  N   UNL A   1      43.572  27.674  28.618  1.00  0.00    -0.248 NA
ATOM     40  C   UNL A   1      41.345  27.392  29.262  1.00  0.00     0.031 C 
ATOM     41  C   UNL A   1      43.455  31.847  30.229  1.00  0.00     0.029 A 
ATOM     42  N   UNL A   1      44.721  30.312  29.205  1.00  0.00    -0.354 N 
ATOM     43  C   UNL A   1      43.146  26.401  28.254  1.00  0.00     0.074 A 
ATOM     44  C   UNL A   1      41.776  26.271  28.702  1.00  0.00     0.031 C 
ATOM     45  C   UNL A   1      44.660  32.400  30.003  1.00  0.00     0.029 A 
ATOM     46  C   UNL A   1      45.528  31.414  29.360  1.00  0.00     0.049 A 
ATOM     47  H   UNL A   1      45.019  29.484  28.764  1.00  0.00     0.167 HD
ATOM     48  C   UNL A   1      43.829  25.435  27.596  1.00  0.00     0.037 A 
ATOM     49  C   UNL A   1      46.823  31.598  29.036  1.00  0.00     0.037 A 
ATOM     50  C   UNL A   1      45.193  25.566  27.153  1.00  0.00     0.049 A 
ATOM     51  C   UNL A   1      47.584  30.486  28.362  1.00  0.00     0.074 A 
ATOM     52  C   UNL A   1      45.969  24.647  26.469  1.00  0.00     0.029 A 
ATOM     53  N   UNL A   1      45.986  26.685  27.358  1.00  0.00    -0.354 N 
ATOM     54  N   UNL A   1      47.161  29.296  28.008  1.00  0.00    -0.248 NA
ATOM     55  C   UNL A   1      48.995  30.742  28.045  1.00  0.00     0.031 C 
ATOM     56  C   UNL A   1      47.245  25.195  26.294  1.00  0.00     0.029 A 
ATOM     57  C   UNL A   1      47.250  26.473  26.832  1.00  0.00     0.049 A 
ATOM     58  H   UNL A   1      45.694  27.510  27.810  1.00  0.00     0.167 HD
ATOM     59  C   UNL A   1      48.248  28.671  27.402  1.00  0.00     0.074 A 
ATOM     60  C   UNL A   1      49.344  29.618  27.434  1.00  0.00     0.031 C 
ATOM     61  C   UNL A   1      48.330  27.428  26.866  1.00  0.00     0.037 A 
BRANCH  48  62
ATOM     62  C   UNL A   1      43.113  24.140  27.337  1.00  0.00     0.058 A 
ATOM     63  C   UNL A   1      42.322  23.952  26.192  1.00  0.00     0.135 A 
ATOM     64  C   UNL A   1      43.231  23.069  28.236  1.00  0.00     0.135 A 
ATOM     65  F   UNL A   1      42.161  24.951  25.310  1.00  0.00    -0.206 F 
ATOM     66  C   UNL A   1      41.648  22.757  25.963  1.00  0.00     0.059 A 
ATOM     67  C   UNL A   1      42.585  21.856  28.014  1.00  0.00     0.059 A 
ATOM     68  F   UNL A   1      43.974  23.196  29.347  1.00  0.00    -0.206 F 
ATOM     69  C   UNL A   1      41.782  21.715  26.883  1.00  0.00     0.060 A 
BRANCH  69  70
ATOM     70  S   UNL A   1      40.894  20.173  26.580  1.00  0.00     0.124 S 
ATOM     71  O   UNL A   1      41.823  19.472  25.698  1.00  0.00    -0.237 OA
ATOM     72  O   UNL A   1      40.756  19.621  27.923  1.00  0.00    -0.237 OA
ATOM     73  O   UNL A   1      39.650  20.616  25.957  1.00  0.00    -0.744 OA
ENDBRANCH  69  70
ENDBRANCH  48  62
BRANCH  49  74
ATOM     74  C   UNL A   1      47.487  32.891  29.348  1.00  0.00     0.058 A 
ATOM     75  C   UNL A   1      48.131  33.097  30.576  1.00  0.00     0.135 A 
ATOM     76  C   UNL A   1      47.497  33.942  28.418  1.00  0.00     0.135 A 
ATOM     77  F   UNL A   1      48.137  32.125  31.501  1.00  0.00    -0.206 F 
ATOM     78  C   UNL A   1      48.756  34.303  30.876  1.00  0.00     0.059 A 
ATOM     79  C   UNL A   1      48.134  35.149  28.686  1.00  0.00     0.059 A 
ATOM     80  F   UNL A   1      46.902  33.790  27.224  1.00  0.00    -0.206 F 
ATOM     81  C   UNL A   1      48.755  35.322  29.923  1.00  0.00     0.060 A 
BRANCH  81  82
ATOM     82  S   UNL A   1      49.622  36.863  30.296  1.00  0.00     0.124 S 
ATOM     83  O   UNL A   1      50.229  36.553  31.584  1.00  0.00    -0.237 OA
ATOM     84  O   UNL A   1      50.539  36.980  29.167  1.00  0.00    -0.237 OA
ATOM     85  O   UNL A   1      48.547  37.851  30.323  1.00  0.00    -0.744 OA
ENDBRANCH  81  82
ENDBRANCH  49  74
BRANCH  61  86
ATOM     86  C   UNL A   1      49.636  27.026  26.243  1.00  0.00     0.058 A 
ATOM     87  C   UNL A   1      50.676  26.469  27.004  1.00  0.00     0.135 A 
ATOM     88  C   UNL A   1      49.831  27.148  24.858  1.00  0.00     0.135 A 
ATOM     89  F   UNL A   1      50.543  26.334  28.332  1.00  0.00    -0.206 F 
ATOM     90  C   UNL A   1      51.870  26.065  26.415  1.00  0.00     0.059 A 
ATOM     91  C   UNL A   1      51.008  26.730  24.245  1.00  0.00     0.059 A 
ATOM     92  F   UNL A   1      48.863  27.666  24.083  1.00  0.00    -0.206 F 
ATOM     93  C   UNL A   1      52.026  26.199  25.035  1.00  0.00     0.060 A 
BRANCH  93  94
ATOM     94  S   UNL A   1      53.567  25.639  24.276  1.00  0.00     0.124 S 
ATOM     95  O   UNL A   1      54.558  26.405  25.024  1.00  0.00    -0.237 OA
ATOM     96  O   UNL A   1      53.544  24.203  24.539  1.00  0.00    -0.237 OA
ATOM     97  O   UNL A   1      53.410  26.015  22.873  1.00  0.00    -0.744 OA
ENDBRANCH  93  94
ENDBRANCH  61  86
ENDBRANCH  35  36
ENDBRANCH  28  30
ENDBRANCH  27  28
ENDBRANCH  26  27
ENDBRANCH  25  26
ENDBRANCH  24  25
ENDBRANCH  23  24
ENDBRANCH   1  23
TORSDOF 24
ENDMDL
MODEL 2
REMARK VINA RESULT:      -8.7      5.093     10.189
REMARK SMILES COC(=O)CCN(C)C(=O)NCc1ccc(C(=O)OCCOCCOC(=O)c2ccc(-c3c4nc(c(-c5c(F)cc(S(=O)(=O)[O-])cc5F)c5ccc([nH]5)c(-c5c(F)cc(S(=O)(=O)[O-])cc5F)c5nc(c(-c6c(F)cc(S(=O)(=O)[O-])cc6F)c6ccc3[nH]6)C=C5)C=C4)cc2)o1
REMARK SMILES IDX 20 1 19 2 17 3 18 4 16 5 13 6 14 7 94 8 15 9 12 10 11 11
REMARK SMILES IDX 9 12 10 13 7 15 8 16 6 17 5 18 3 19 4 20 2 21 1 22 21 23
REMARK SMILES IDX 22 24 23 25 24 26 25 27 26 28 27 29 28 30 29 31 93 32 30 33
REMARK SMILES IDX 92 34 31 35 32 36 33 37 86 38 34 39 91 40 85 41 87 42 35 43
REMARK SMILES IDX 90 44 84 45 83 46 36 48 70 49 49 50 69 51 50 52 53 53 68 54
REMARK SMILES IDX 88 55 51 56 52 57 67 59 89 60 54 61 37 62 38 63 47 64 39 65
REMARK SMILES IDX 40 66 46 67 48 68 41 69 42 70 43 71 44 72 45 73 71 74 72 75
REMARK SMILES IDX 81 76 73 77 74 78 80 79 82 80 75 81 76 82 77 83 78 84 79 85
REMARK SMILES IDX 55 86 56 87 65 88 57 89 58 90 64 91 66 92 59 93 60 94 61 95
REMARK SMILES IDX 62 96 63 97
REMARK H PARENT 11 14 87 47 53 58
REMARK Flexibility Score: inf
ROOT
ATOM      1  C   UNL A   1      34.384  24.651  25.995  1.00  0.00     0.261 C 
ENDROOT
BRANCH   1   2
ATOM      2  O   UNL A   1      35.438  24.246  25.104  1.00  0.00    -0.457 OA
BRANCH   2   3
ATOM      3  C   UNL A   1      36.323  23.338  25.603  1.00  0.00     0.374 C 
ATOM      4  O   UNL A   1      37.340  23.615  26.228  1.00  0.00    -0.242 OA
BRANCH   3   5
ATOM      5  C   UNL A   1      35.805  22.006  25.393  1.00  0.00     0.211 A 
ATOM      6  C   UNL A   1      34.164  20.558  25.112  1.00  0.00     0.124 A 
ATOM      7  C   UNL A   1      35.332  19.881  24.829  1.00  0.00     0.048 A 
ATOM      8  O   UNL A   1      34.450  21.833  25.495  1.00  0.00    -0.452 OA
ATOM      9  C   UNL A   1      36.385  20.814  24.995  1.00  0.00     0.058 A 
BRANCH   6  10
ATOM     10  C   UNL A   1      32.724  20.218  25.029  1.00  0.00     0.193 C 
BRANCH  10  11
ATOM     11  N   UNL A   1      32.329  20.272  23.639  1.00  0.00    -0.331 N 
ATOM     12  C   UNL A   1      32.095  21.227  22.731  1.00  0.00     0.317 C 
ATOM     13  O   UNL A   1      31.906  20.822  21.579  1.00  0.00    -0.249 OA
ATOM     14  H   UNL A   1      32.200  19.371  23.262  1.00  0.00     0.165 HD
BRANCH  12  15
ATOM     15  N   UNL A   1      32.107  22.561  23.028  1.00  0.00    -0.327 N 
ATOM     16  C   UNL A   1      31.196  23.265  23.914  1.00  0.00     0.148 C 
BRANCH  15  17
ATOM     17  C   UNL A   1      33.173  23.373  22.420  1.00  0.00     0.132 C 
BRANCH  17  18
ATOM     18  C   UNL A   1      32.905  24.871  22.523  1.00  0.00     0.144 C 
BRANCH  18  19
ATOM     19  C   UNL A   1      32.494  25.437  21.190  1.00  0.00     0.307 C 
ATOM     20  O   UNL A   1      33.097  25.225  20.146  1.00  0.00    -0.252 OA
BRANCH  19  21
ATOM     21  O   UNL A   1      31.377  26.203  21.319  1.00  0.00    -0.469 OA
ATOM     22  C   UNL A   1      31.510  27.282  22.246  1.00  0.00     0.282 C 
ENDBRANCH  19  21
ENDBRANCH  18  19
ENDBRANCH  17  18
ENDBRANCH  15  17
ENDBRANCH  12  15
ENDBRANCH  10  11
ENDBRANCH   6  10
ENDBRANCH   3   5
ENDBRANCH   2   3
ENDBRANCH   1   2
BRANCH   1  23
ATOM     23  C   UNL A   1      33.952  26.084  25.667  1.00  0.00     0.202 C 
BRANCH  23  24
ATOM     24  O   UNL A   1      32.835  26.540  26.435  1.00  0.00    -0.374 OA
BRANCH  24  25
ATOM     25  C   UNL A   1      32.321  27.830  26.091  1.00  0.00     0.202 C 
BRANCH  25  26
ATOM     26  C   UNL A   1      32.637  28.937  27.102  1.00  0.00     0.261 C 
BRANCH  26  27
ATOM     27  O   UNL A   1      34.033  28.924  27.456  1.00  0.00    -0.460 OA
BRANCH  27  28
ATOM     28  C   UNL A   1      34.612  30.146  27.557  1.00  0.00     0.338 C 
ATOM     29  O   UNL A   1      34.130  31.215  27.222  1.00  0.00    -0.246 OA
BRANCH  28  30
ATOM     30  C   UNL A   1      35.874  30.037  28.317  1.00  0.00     0.060 A 
ATOM     31  C   UNL A   1      37.055  30.390  27.654  1.00  0.00     0.016 A 
ATOM     32  C   UNL A   1      35.916  29.566  29.633  1.00  0.00     0.016 A 
ATOM     33  C   UNL A   1      38.287  30.231  28.285  1.00  0.00     0.010 A 
ATOM     34  C   UNL A   1      37.155  29.400  30.263  1.00  0.00     0.010 A 
ATOM     35  C   UNL A   1      38.347  29.701  29.581  1.00  0.00    -0.014 A 
BRANCH  35  36
ATOM     36  C   UNL A   1      39.662  29.336  30.161  1.00  0.00     0.031 A 
ATOM     37  C   UNL A   1      40.174  30.104  31.349  1.00  0.00     0.074 A 
ATOM     38  C   UNL A   1      40.376  28.311  29.661  1.00  0.00     0.049 A 
ATOM     39  N   UNL A   1      41.296  29.964  32.006  1.00  0.00    -0.248 NA
ATOM     40  C   UNL A   1      39.302  31.172  31.864  1.00  0.00     0.031 C 
ATOM     41  C   UNL A   1      39.970  27.469  28.536  1.00  0.00     0.029 A 
ATOM     42  N   UNL A   1      41.596  27.808  30.035  1.00  0.00    -0.354 N 
ATOM     43  C   UNL A   1      41.268  30.925  33.011  1.00  0.00     0.074 A 
ATOM     44  C   UNL A   1      40.031  31.660  32.857  1.00  0.00     0.031 C 
ATOM     45  C   UNL A   1      40.931  26.557  28.305  1.00  0.00     0.029 A 
ATOM     46  C   UNL A   1      42.028  26.766  29.249  1.00  0.00     0.049 A 
ATOM     47  H   UNL A   1      42.115  28.161  30.794  1.00  0.00     0.167 HD
ATOM     48  C   UNL A   1      42.184  31.165  33.979  1.00  0.00     0.037 A 
ATOM     49  C   UNL A   1      43.183  26.074  29.278  1.00  0.00     0.037 A 
ATOM     50  C   UNL A   1      43.415  30.434  34.128  1.00  0.00     0.049 A 
ATOM     51  C   UNL A   1      44.217  26.400  30.324  1.00  0.00     0.074 A 
ATOM     52  C   UNL A   1      44.402  30.595  35.084  1.00  0.00     0.029 A 
ATOM     53  N   UNL A   1      43.830  29.407  33.293  1.00  0.00    -0.354 N 
ATOM     54  N   UNL A   1      44.168  27.298  31.279  1.00  0.00    -0.248 NA
ATOM     55  C   UNL A   1      45.461  25.619  30.297  1.00  0.00     0.031 C 
ATOM     56  C   UNL A   1      45.434  29.691  34.804  1.00  0.00     0.029 A 
ATOM     57  C   UNL A   1      45.069  28.939  33.699  1.00  0.00     0.049 A 
ATOM     58  H   UNL A   1      43.319  29.061  32.525  1.00  0.00     0.167 HD
ATOM     59  C   UNL A   1      45.363  27.173  31.982  1.00  0.00     0.074 A 
ATOM     60  C   UNL A   1      46.111  26.108  31.345  1.00  0.00     0.031 C 
ATOM     61  C   UNL A   1      45.799  27.873  33.057  1.00  0.00     0.037 A 
BRANCH  48  62
ATOM     62  C   UNL A   1      41.893  32.282  34.940  1.00  0.00     0.058 A 
ATOM     63  C   UNL A   1      42.364  33.586  34.717  1.00  0.00     0.135 A 
ATOM     64  C   UNL A   1      41.123  32.050  36.091  1.00  0.00     0.135 A 
ATOM     65  F   UNL A   1      43.121  33.857  33.642  1.00  0.00    -0.206 F 
ATOM     66  C   UNL A   1      42.105  34.615  35.617  1.00  0.00     0.059 A 
ATOM     67  C   UNL A   1      40.832  33.071  36.991  1.00  0.00     0.059 A 
ATOM     68  F   UNL A   1      40.651  30.822  36.352  1.00  0.00    -0.206 F 
ATOM     69  C   UNL A   1      41.343  34.347  36.754  1.00  0.00     0.060 A 
BRANCH  69  70
ATOM     70  S   UNL A   1      41.024  35.688  37.919  1.00  0.00     0.124 S 
ATOM     71  O   UNL A   1      40.132  36.543  37.141  1.00  0.00    -0.237 OA
ATOM     72  O   UNL A   1      40.410  34.990  39.043  1.00  0.00    -0.237 OA
ATOM     73  O   UNL A   1      42.353  36.237  38.176  1.00  0.00    -0.744 OA
ENDBRANCH  69  70
ENDBRANCH  48  62
BRANCH  49  74
ATOM     74  C   UNL A   1      43.428  25.000  28.279  1.00  0.00     0.058 A 
ATOM     75  C   UNL A   1      43.190  23.654  28.588  1.00  0.00     0.135 A 
ATOM     76  C   UNL A   1      43.897  25.304  26.991  1.00  0.00     0.135 A 
ATOM     77  F   UNL A   1      42.752  23.315  29.811  1.00  0.00    -0.206 F 
ATOM     78  C   UNL A   1      43.415  22.643  27.660  1.00  0.00     0.059 A 
ATOM     79  C   UNL A   1      44.109  24.312  26.039  1.00  0.00     0.059 A 
ATOM     80  F   UNL A   1      44.131  26.579  26.644  1.00  0.00    -0.206 F 
ATOM     81  C   UNL A   1      43.871  22.983  26.386  1.00  0.00     0.060 A 
BRANCH  81  82
ATOM     82  S   UNL A   1      44.102  21.670  25.166  1.00  0.00     0.124 S 
ATOM     83  O   UNL A   1      44.034  22.416  23.916  1.00  0.00    -0.237 OA
ATOM     84  O   UNL A   1      45.415  21.144  25.526  1.00  0.00    -0.237 OA
ATOM     85  O   UNL A   1      42.983  20.770  25.429  1.00  0.00    -0.744 OA
ENDBRANCH  81  82
ENDBRANCH  49  74
BRANCH  61  86
ATOM     86  C   UNL A   1      47.133  27.495  33.637  1.00  0.00     0.058 A 
ATOM     87  C   UNL A   1      48.317  28.137  33.244  1.00  0.00     0.135 A 
ATOM     88  C   UNL A   1      47.221  26.515  34.639  1.00  0.00     0.135 A 
ATOM     89  F   UNL A   1      48.289  29.078  32.287  1.00  0.00    -0.206 F 
ATOM     90  C   UNL A   1      49.544  27.808  33.810  1.00  0.00     0.059 A 
ATOM     91  C   UNL A   1      48.434  26.185  35.235  1.00  0.00     0.059 A 
ATOM     92  F   UNL A   1      46.115  25.877  35.059  1.00  0.00    -0.206 F 
ATOM     93  C   UNL A   1      49.593  26.831  34.806  1.00  0.00     0.060 A 
BRANCH  93  94
ATOM     94  S   UNL A   1      51.186  26.435  35.559  1.00  0.00     0.124 S 
ATOM     95  O   UNL A   1      51.801  25.607  34.528  1.00  0.00    -0.237 OA
ATOM     96  O   UNL A   1      51.780  27.755  35.749  1.00  0.00    -0.237 OA
ATOM     97  O   UNL A   1      50.816  25.739  36.788  1.00  0.00    -0.744 OA
ENDBRANCH  93  94
ENDBRANCH  61  86
ENDBRANCH  35  36
ENDBRANCH  28  30
ENDBRANCH  27  28
ENDBRANCH  26  27
ENDBRANCH  25  26
ENDBRANCH  24  25
ENDBRANCH  23  24
ENDBRANCH   1  23
TORSDOF 24
ENDMDL
MODEL 3
REMARK VINA RESULT:      -8.6      1.251      8.254
REMARK SMILES COC(=O)CCN(C)C(=O)NCc1ccc(C(=O)OCCOCCOC(=O)c2ccc(-c3c4nc(c(-c5c(F)cc(S(=O)(=O)[O-])cc5F)c5ccc([nH]5)c(-c5c(F)cc(S(=O)(=O)[O-])cc5F)c5nc(c(-c6c(F)cc(S(=O)(=O)[O-])cc6F)c6ccc3[nH]6)C=C5)C=C4)cc2)o1
REMARK SMILES IDX 20 1 19 2 17 3 18 4 16 5 13 6 14 7 94 8 15 9 12 10 11 11
REMARK SMILES IDX 9 12 10 13 7 15 8 16 6 17 5 18 3 19 4 20 2 21 1 22 21 23
REMARK SMILES IDX 22 24 23 25 24 26 25 27 26 28 27 29 28 30 29 31 93 32 30 33
REMARK SMILES IDX 92 34 31 35 32 36 33 37 86 38 34 39 91 40 85 41 87 42 35 43
REMARK SMILES IDX 90 44 84 45 83 46 36 48 70 49 49 50 69 51 50 52 53 53 68 54
REMARK SMILES IDX 88 55 51 56 52 57 67 59 89 60 54 61 37 62 38 63 47 64 39 65
REMARK SMILES IDX 40 66 46 67 48 68 41 69 42 70 43 71 44 72 45 73 71 74 72 75
REMARK SMILES IDX 81 76 73 77 74 78 80 79 82 80 75 81 76 82 77 83 78 84 79 85
REMARK SMILES IDX 55 86 56 87 65 88 57 89 58 90 64 91 66 92 59 93 60 94 61 95
REMARK SMILES IDX 62 96 63 97
REMARK H PARENT 11 14 87 47 53 58
REMARK Flexibility Score: inf
ROOT
ATOM      1  C   UNL A   1      33.922  34.506  29.500  1.00  0.00     0.261 C 
ENDROOT
BRANCH   1   2
ATOM      2  O   UNL A   1      33.745  33.221  28.880  1.00  0.00    -0.457 OA
BRANCH   2   3
ATOM      3  C   UNL A   1      34.729  32.834  28.019  1.00  0.00     0.374 C 
ATOM      4  O   UNL A   1      35.646  33.548  27.631  1.00  0.00    -0.242 OA
BRANCH   3   5
ATOM      5  C   UNL A   1      34.593  31.422  27.747  1.00  0.00     0.211 A 
ATOM      6  C   UNL A   1      33.665  29.699  26.729  1.00  0.00     0.124 A 
ATOM      7  C   UNL A   1      34.791  29.215  27.363  1.00  0.00     0.048 A 
ATOM      8  O   UNL A   1      33.519  31.026  26.994  1.00  0.00    -0.452 OA
ATOM      9  C   UNL A   1      35.395  30.324  28.005  1.00  0.00     0.058 A 
BRANCH   6  10
ATOM     10  C   UNL A   1      32.662  29.111  25.809  1.00  0.00     0.193 C 
BRANCH  10  11
ATOM     11  N   UNL A   1      33.213  29.132  24.472  1.00  0.00    -0.331 N 
ATOM     12  C   UNL A   1      32.950  28.536  23.302  1.00  0.00     0.317 C 
ATOM     13  O   UNL A   1      33.603  28.954  22.342  1.00  0.00    -0.249 OA
ATOM     14  H   UNL A   1      33.981  29.744  24.404  1.00  0.00     0.165 HD
BRANCH  12  15
ATOM     15  N   UNL A   1      31.998  27.566  23.154  1.00  0.00    -0.327 N 
ATOM     16  C   UNL A   1      30.635  27.747  22.682  1.00  0.00     0.148 C 
BRANCH  15  17
ATOM     17  C   UNL A   1      32.395  26.184  23.468  1.00  0.00     0.132 C 
BRANCH  17  18
ATOM     18  C   UNL A   1      31.210  25.227  23.517  1.00  0.00     0.144 C 
BRANCH  18  19
ATOM     19  C   UNL A   1      30.958  24.752  24.923  1.00  0.00     0.307 C 
ATOM     20  O   UNL A   1      30.987  25.485  25.903  1.00  0.00    -0.252 OA
BRANCH  19  21
ATOM     21  O   UNL A   1      30.699  23.416  24.938  1.00  0.00    -0.469 OA
ATOM     22  C   UNL A   1      31.166  22.743  26.108  1.00  0.00     0.282 C 
ENDBRANCH  19  21
ENDBRANCH  18  19
ENDBRANCH  17  18
ENDBRANCH  15  17
ENDBRANCH  12  15
ENDBRANCH  10  11
ENDBRANCH   6  10
ENDBRANCH   3   5
ENDBRANCH   2   3
ENDBRANCH   1   2
BRANCH   1  23
ATOM     23  C   UNL A   1      34.550  34.328  30.886  1.00  0.00     0.202 C 
BRANCH  23  24
ATOM     24  O   UNL A   1      33.942  33.296  31.667  1.00  0.00    -0.374 OA
BRANCH  24  25
ATOM     25  C   UNL A   1      34.765  32.706  32.678  1.00  0.00     0.202 C 
BRANCH  25  26
ATOM     26  C   UNL A   1      35.803  31.707  32.157  1.00  0.00     0.261 C 
BRANCH  26  27
ATOM     27  O   UNL A   1      37.042  31.833  32.879  1.00  0.00    -0.460 OA
BRANCH  27  28
ATOM     28  C   UNL A   1      37.950  32.670  32.320  1.00  0.00     0.338 C 
ATOM     29  O   UNL A   1      38.009  33.881  32.451  1.00  0.00    -0.246 OA
BRANCH  28  30
ATOM     30  C   UNL A   1      39.008  31.883  31.652  1.00  0.00     0.060 A 
ATOM     31  C   UNL A   1      39.844  31.111  32.467  1.00  0.00     0.016 A 
ATOM     32  C   UNL A   1      39.208  31.923  30.269  1.00  0.00     0.016 A 
ATOM     33  C   UNL A   1      40.913  30.411  31.909  1.00  0.00     0.010 A 
ATOM     34  C   UNL A   1      40.286  31.225  29.711  1.00  0.00     0.010 A 
ATOM     35  C   UNL A   1      41.161  30.493  30.533  1.00  0.00    -0.014 A 
BRANCH  35  36
ATOM     36  C   UNL A   1      42.416  29.925  29.982  1.00  0.00     0.031 A 
ATOM     37  C   UNL A   1      43.660  30.771  29.979  1.00  0.00     0.074 A 
ATOM     38  C   UNL A   1      42.457  28.662  29.522  1.00  0.00     0.049 A 
ATOM     39  N   UNL A   1      44.857  30.484  29.538  1.00  0.00    -0.248 NA
ATOM     40  C   UNL A   1      43.536  32.121  30.553  1.00  0.00     0.031 C 
ATOM     41  C   UNL A   1      41.328  27.733  29.504  1.00  0.00     0.029 A 
ATOM     42  N   UNL A   1      43.492  27.945  28.976  1.00  0.00    -0.354 N 
ATOM     43  C   UNL A   1      45.629  31.615  29.778  1.00  0.00     0.074 A 
ATOM     44  C   UNL A   1      44.758  32.603  30.376  1.00  0.00     0.031 C 
ATOM     45  C   UNL A   1      41.730  26.568  28.965  1.00  0.00     0.029 A 
ATOM     46  C   UNL A   1      43.136  26.678  28.579  1.00  0.00     0.049 A 
ATOM     47  H   UNL A   1      44.404  28.304  28.878  1.00  0.00     0.167 HD
ATOM     48  C   UNL A   1      46.947  31.808  29.533  1.00  0.00     0.037 A 
ATOM     49  C   UNL A   1      43.859  25.724  27.960  1.00  0.00     0.037 A 
ATOM     50  C   UNL A   1      47.812  30.824  28.935  1.00  0.00     0.049 A 
ATOM     51  C   UNL A   1      45.308  25.984  27.638  1.00  0.00     0.074 A 
ATOM     52  C   UNL A   1      49.164  30.922  28.656  1.00  0.00     0.029 A 
ATOM     53  N   UNL A   1      47.407  29.565  28.518  1.00  0.00    -0.354 N 
ATOM     54  N   UNL A   1      46.029  27.051  27.887  1.00  0.00    -0.248 NA
ATOM     55  C   UNL A   1      46.040  24.911  26.951  1.00  0.00     0.031 C 
ATOM     56  C   UNL A   1      49.569  29.735  28.033  1.00  0.00     0.029 A 
ATOM     57  C   UNL A   1      48.478  28.882  27.964  1.00  0.00     0.049 A 
ATOM     58  H   UNL A   1      46.493  29.208  28.603  1.00  0.00     0.167 HD
ATOM     59  C   UNL A   1      47.306  26.767  27.411  1.00  0.00     0.074 A 
ATOM     60  C   UNL A   1      47.259  25.427  26.864  1.00  0.00     0.031 C 
ATOM     61  C   UNL A   1      48.416  27.545  27.428  1.00  0.00     0.037 A 
BRANCH  48  62
ATOM     62  C   UNL A   1      47.526  33.146  29.893  1.00  0.00     0.058 A 
ATOM     63  C   UNL A   1      47.571  34.202  28.968  1.00  0.00     0.135 A 
ATOM     64  C   UNL A   1      48.028  33.382  31.182  1.00  0.00     0.135 A 
ATOM     65  F   UNL A   1      47.121  34.023  27.715  1.00  0.00    -0.206 F 
ATOM     66  C   UNL A   1      48.121  35.436  29.300  1.00  0.00     0.059 A 
ATOM     67  C   UNL A   1      48.561  34.616  31.543  1.00  0.00     0.059 A 
ATOM     68  F   UNL A   1      48.011  32.406  32.104  1.00  0.00    -0.206 F 
ATOM     69  C   UNL A   1      48.619  35.632  30.590  1.00  0.00     0.060 A 
BRANCH  69  70
ATOM     70  S   UNL A   1      49.340  37.234  31.004  1.00  0.00     0.124 S 
ATOM     71  O   UNL A   1      49.204  37.246  32.458  1.00  0.00    -0.237 OA
ATOM     72  O   UNL A   1      50.702  37.106  30.497  1.00  0.00    -0.237 OA
ATOM     73  O   UNL A   1      48.494  38.182  30.286  1.00  0.00    -0.744 OA
ENDBRANCH  69  70
ENDBRANCH  48  62
BRANCH  49  74
ATOM     74  C   UNL A   1      43.222  24.431  27.598  1.00  0.00     0.058 A 
ATOM     75  C   UNL A   1      43.169  23.368  28.511  1.00  0.00     0.135 A 
ATOM     76  C   UNL A   1      42.645  24.237  26.333  1.00  0.00     0.135 A 
ATOM     77  F   UNL A   1      43.718  23.503  29.728  1.00  0.00    -0.206 F 
ATOM     78  C   UNL A   1      42.575  22.155  28.182  1.00  0.00     0.059 A 
ATOM     79  C   UNL A   1      42.026  23.040  25.988  1.00  0.00     0.059 A 
ATOM     80  F   UNL A   1      42.662  25.227  25.428  1.00  0.00    -0.206 F 
ATOM     81  C   UNL A   1      42.002  22.002  26.919  1.00  0.00     0.060 A 
BRANCH  81  82
ATOM     82  S   UNL A   1      41.177  20.445  26.521  1.00  0.00     0.124 S 
ATOM     83  O   UNL A   1      42.131  19.832  25.605  1.00  0.00    -0.237 OA
ATOM     84  O   UNL A   1      41.055  19.818  27.833  1.00  0.00    -0.237 OA
ATOM     85  O   UNL A   1      39.916  20.878  25.925  1.00  0.00    -0.744 OA
ENDBRANCH  81  82
ENDBRANCH  49  74
BRANCH  61  86
ATOM     86  C   UNL A   1      49.682  26.960  26.867  1.00  0.00     0.058 A 
ATOM     87  C   UNL A   1      50.570  26.221  27.664  1.00  0.00     0.135 A 
ATOM     88  C   UNL A   1      49.983  27.095  25.502  1.00  0.00     0.135 A 
ATOM     89  F   UNL A   1      50.331  26.067  28.975  1.00  0.00    -0.206 F 
ATOM     90  C   UNL A   1      51.722  25.652  27.130  1.00  0.00     0.059 A 
ATOM     91  C   UNL A   1      51.117  26.516  24.943  1.00  0.00     0.059 A 
ATOM     92  F   UNL A   1      49.161  27.785  24.693  1.00  0.00    -0.206 F 
ATOM     93  C   UNL A   1      51.987  25.804  25.768  1.00  0.00     0.060 A 
BRANCH  93  94
ATOM     94  S   UNL A   1      53.467  25.031  25.079  1.00  0.00     0.124 S 
ATOM     95  O   UNL A   1      53.430  25.504  23.700  1.00  0.00    -0.237 OA
ATOM     96  O   UNL A   1      54.529  25.588  25.912  1.00  0.00    -0.237 OA
ATOM     97  O   UNL A   1      53.220  23.603  25.262  1.00  0.00    -0.744 OA
ENDBRANCH  93  94
ENDBRANCH  61  86
ENDBRANCH  35  36
ENDBRANCH  28  30
ENDBRANCH  27  28
ENDBRANCH  26  27
ENDBRANCH  25  26
ENDBRANCH  24  25
ENDBRANCH  23  24
ENDBRANCH   1  23
TORSDOF 24
ENDMDL
