MODEL 1
REMARK VINA RESULT:      -9.6      0.000      0.000
REMARK SMILES O=C(CCC(=O)[C@H]1CSCCO1)OCCOCCOC(=O)c1ccc(-c2c3nc(c(-c4c(F)cc(S(=O)(=O)[O-])cc4F)c4ccc([nH]4)c(-c4c(F)cc(S(=O)(=O)[O-])cc4F)c4nc(c(-c5c(F)cc(S(=O)(=O)[O-])cc5F)c5ccc2[nH]5)C=C4)C=C3)cc1
REMARK SMILES IDX 16 1 15 2 14 3 13 4 2 5 1 6 3 7 4 8 5 9 6 10 7 11 8 12 12 13
REMARK SMILES IDX 9 14 11 15 10 16 17 17 18 18 19 19 20 20 21 21 22 22 23 23
REMARK SMILES IDX 87 24 24 25 86 26 25 27 26 28 27 29 80 30 28 31 85 32 79 33
REMARK SMILES IDX 81 34 29 35 84 36 78 37 77 38 30 40 64 41 43 42 63 43 44 44
REMARK SMILES IDX 47 45 62 46 82 47 45 48 46 49 61 51 83 52 48 53 31 54 32 55
REMARK SMILES IDX 41 56 33 57 34 58 40 59 42 60 35 61 36 62 37 63 38 64 39 65
REMARK SMILES IDX 65 66 66 67 75 68 67 69 68 70 74 71 76 72 69 73 70 74 71 75
REMARK SMILES IDX 72 76 73 77 49 78 50 79 59 80 51 81 52 82 58 83 60 84 53 85
REMARK SMILES IDX 54 86 55 87 56 88 57 89
REMARK H PARENT 81 39 47 50
REMARK Flexibility Score: inf
ROOT
ATOM      1  O   UNL A   1      45.545  24.119  25.823  1.00  0.00    -0.374 OA
ENDROOT
BRANCH   1   2
ATOM      2  C   UNL A   1      45.716  23.570  24.529  1.00  0.00     0.202 C 
BRANCH   2   3
ATOM      3  C   UNL A   1      46.439  22.228  24.394  1.00  0.00     0.261 C 
BRANCH   3   4
ATOM      4  O   UNL A   1      45.767  21.067  24.916  1.00  0.00    -0.463 OA
BRANCH   4   5
ATOM      5  C   UNL A   1      46.241  19.809  24.979  1.00  0.00     0.306 C 
ATOM      6  O   UNL A   1      47.442  19.594  24.829  1.00  0.00    -0.252 OA
BRANCH   5   7
ATOM      7  C   UNL A   1      45.293  18.689  25.294  1.00  0.00     0.130 C 
BRANCH   7   8
ATOM      8  C   UNL A   1      43.916  18.949  24.696  1.00  0.00     0.090 C 
BRANCH   8   9
ATOM      9  C   UNL A   1      42.838  18.797  25.752  1.00  0.00     0.162 C 
ATOM     10  O   UNL A   1      42.475  17.671  26.101  1.00  0.00    -0.297 OA
BRANCH   9  11
ATOM     11  C   UNL A   1      42.119  20.077  26.197  1.00  0.00     0.194 C 
ATOM     12  C   UNL A   1      40.603  19.908  26.149  1.00  0.00     0.109 C 
ATOM     13  O   UNL A   1      42.550  20.514  27.483  1.00  0.00    -0.369 OA
ATOM     14  S   UNL A   1      39.841  21.562  26.222  1.00  0.00    -0.156 SA
ATOM     15  C   UNL A   1      42.201  21.895  27.691  1.00  0.00     0.172 C 
ATOM     16  C   UNL A   1      40.689  22.139  27.731  1.00  0.00     0.098 C 
ENDBRANCH   9  11
ENDBRANCH   8   9
ENDBRANCH   7   8
ENDBRANCH   5   7
ENDBRANCH   4   5
ENDBRANCH   3   4
ENDBRANCH   2   3
ENDBRANCH   1   2
BRANCH   1  17
ATOM     17  C   UNL A   1      44.290  24.688  26.183  1.00  0.00     0.202 C 
BRANCH  17  18
ATOM     18  C   UNL A   1      43.164  24.688  25.147  1.00  0.00     0.261 C 
BRANCH  18  19
ATOM     19  O   UNL A   1      42.041  25.507  25.525  1.00  0.00    -0.460 OA
BRANCH  19  20
ATOM     20  C   UNL A   1      42.286  26.836  25.577  1.00  0.00     0.338 C 
ATOM     21  O   UNL A   1      42.330  27.612  24.628  1.00  0.00    -0.246 OA
BRANCH  20  22
ATOM     22  C   UNL A   1      42.376  27.296  26.974  1.00  0.00     0.060 A 
ATOM     23  C   UNL A   1      41.596  26.645  27.939  1.00  0.00     0.016 A 
ATOM     24  C   UNL A   1      43.117  28.432  27.308  1.00  0.00     0.016 A 
ATOM     25  C   UNL A   1      41.503  27.168  29.228  1.00  0.00     0.010 A 
ATOM     26  C   UNL A   1      43.011  28.961  28.598  1.00  0.00     0.010 A 
ATOM     27  C   UNL A   1      42.168  28.359  29.549  1.00  0.00    -0.014 A 
BRANCH  27  28
ATOM     28  C   UNL A   1      41.837  29.078  30.804  1.00  0.00     0.031 A 
ATOM     29  C   UNL A   1      40.638  29.988  30.819  1.00  0.00     0.074 A 
ATOM     30  C   UNL A   1      42.582  28.923  31.913  1.00  0.00     0.049 A 
ATOM     31  N   UNL A   1      40.197  30.764  31.775  1.00  0.00    -0.248 NA
ATOM     32  C   UNL A   1      39.832  30.031  29.587  1.00  0.00     0.031 C 
ATOM     33  C   UNL A   1      43.743  28.046  32.030  1.00  0.00     0.029 A 
ATOM     34  N   UNL A   1      42.476  29.511  33.149  1.00  0.00    -0.354 N 
ATOM     35  C   UNL A   1      39.070  31.394  31.259  1.00  0.00     0.074 A 
ATOM     36  C   UNL A   1      38.910  30.931  29.897  1.00  0.00     0.031 C 
ATOM     37  C   UNL A   1      44.255  28.162  33.267  1.00  0.00     0.029 A 
ATOM     38  C   UNL A   1      43.476  29.146  34.018  1.00  0.00     0.049 A 
ATOM     39  H   UNL A   1      41.754  30.134  33.390  1.00  0.00     0.167 HD
ATOM     40  C   UNL A   1      38.241  32.275  31.867  1.00  0.00     0.037 A 
ATOM     41  C   UNL A   1      43.745  29.576  35.266  1.00  0.00     0.037 A 
ATOM     42  C   UNL A   1      38.404  32.733  33.222  1.00  0.00     0.049 A 
ATOM     43  C   UNL A   1      42.841  30.598  35.905  1.00  0.00     0.074 A 
ATOM     44  C   UNL A   1      37.610  33.614  33.936  1.00  0.00     0.029 A 
ATOM     45  N   UNL A   1      39.436  32.352  34.067  1.00  0.00    -0.354 N 
ATOM     46  N   UNL A   1      41.768  31.175  35.413  1.00  0.00    -0.248 NA
ATOM     47  C   UNL A   1      43.179  31.028  37.269  1.00  0.00     0.031 C 
ATOM     48  C   UNL A   1      38.186  33.799  35.197  1.00  0.00     0.029 A 
ATOM     49  C   UNL A   1      39.311  32.994  35.288  1.00  0.00     0.049 A 
ATOM     50  H   UNL A   1      40.152  31.717  33.834  1.00  0.00     0.167 HD
ATOM     51  C   UNL A   1      41.290  32.011  36.417  1.00  0.00     0.074 A 
ATOM     52  C   UNL A   1      42.183  31.859  37.547  1.00  0.00     0.031 C 
ATOM     53  C   UNL A   1      40.206  32.828  36.406  1.00  0.00     0.037 A 
BRANCH  40  54
ATOM     54  C   UNL A   1      37.094  32.820  31.060  1.00  0.00     0.058 A 
ATOM     55  C   UNL A   1      37.270  33.863  30.137  1.00  0.00     0.135 A 
ATOM     56  C   UNL A   1      35.807  32.275  31.195  1.00  0.00     0.135 A 
ATOM     57  F   UNL A   1      38.475  34.433  29.983  1.00  0.00    -0.206 F 
ATOM     58  C   UNL A   1      36.205  34.364  29.395  1.00  0.00     0.059 A 
ATOM     59  C   UNL A   1      34.733  32.743  30.444  1.00  0.00     0.059 A 
ATOM     60  F   UNL A   1      35.583  31.279  32.067  1.00  0.00    -0.206 F 
ATOM     61  C   UNL A   1      34.939  33.799  29.557  1.00  0.00     0.060 A 
BRANCH  61  62
ATOM     62  S   UNL A   1      33.567  34.458  28.587  1.00  0.00     0.124 S 
ATOM     63  O   UNL A   1      34.217  35.554  27.873  1.00  0.00    -0.237 OA
ATOM     64  O   UNL A   1      33.181  33.312  27.771  1.00  0.00    -0.237 OA
ATOM     65  O   UNL A   1      32.595  34.859  29.600  1.00  0.00    -0.744 OA
ENDBRANCH  61  62
ENDBRANCH  40  54
BRANCH  41  66
ATOM     66  C   UNL A   1      44.931  29.051  35.994  1.00  0.00     0.058 A 
ATOM     67  C   UNL A   1      46.190  29.654  35.861  1.00  0.00     0.135 A 
ATOM     68  C   UNL A   1      44.828  27.934  36.840  1.00  0.00     0.135 A 
ATOM     69  F   UNL A   1      46.344  30.714  35.055  1.00  0.00    -0.206 F 
ATOM     70  C   UNL A   1      47.307  29.164  36.532  1.00  0.00     0.059 A 
ATOM     71  C   UNL A   1      45.924  27.441  37.539  1.00  0.00     0.059 A 
ATOM     72  F   UNL A   1      43.643  27.325  37.008  1.00  0.00    -0.206 F 
ATOM     73  C   UNL A   1      47.163  28.059  37.372  1.00  0.00     0.060 A 
BRANCH  73  74
ATOM     74  S   UNL A   1      48.606  27.465  38.282  1.00  0.00     0.124 S 
ATOM     75  O   UNL A   1      47.987  26.862  39.456  1.00  0.00    -0.237 OA
ATOM     76  O   UNL A   1      49.209  26.538  37.329  1.00  0.00    -0.237 OA
ATOM     77  O   UNL A   1      49.372  28.683  38.526  1.00  0.00    -0.744 OA
ENDBRANCH  73  74
ENDBRANCH  41  66
BRANCH  53  78
ATOM     78  C   UNL A   1      39.901  33.592  37.665  1.00  0.00     0.058 A 
ATOM     79  C   UNL A   1      40.524  34.815  37.957  1.00  0.00     0.135 A 
ATOM     80  C   UNL A   1      38.933  33.118  38.565  1.00  0.00     0.135 A 
ATOM     81  F   UNL A   1      41.459  35.311  37.133  1.00  0.00    -0.206 F 
ATOM     82  C   UNL A   1      40.216  35.530  39.111  1.00  0.00     0.059 A 
ATOM     83  C   UNL A   1      38.590  33.828  39.711  1.00  0.00     0.059 A 
ATOM     84  F   UNL A   1      38.297  31.959  38.327  1.00  0.00    -0.206 F 
ATOM     85  C   UNL A   1      39.247  35.027  39.983  1.00  0.00     0.060 A 
BRANCH  85  86
ATOM     86  S   UNL A   1      38.837  35.976  41.463  1.00  0.00     0.124 S 
ATOM     87  O   UNL A   1      39.966  35.667  42.333  1.00  0.00    -0.237 OA
ATOM     88  O   UNL A   1      38.783  37.343  40.955  1.00  0.00    -0.237 OA
ATOM     89  O   UNL A   1      37.553  35.418  41.878  1.00  0.00    -0.744 OA
ENDBRANCH  85  86
ENDBRANCH  53  78
ENDBRANCH  27  28
ENDBRANCH  20  22
ENDBRANCH  19  20
ENDBRANCH  18  19
ENDBRANCH  17  18
ENDBRANCH   1  17
TORSDOF 20
ENDMDL
MODEL 2
REMARK VINA RESULT:      -9.5      1.125      2.096
REMARK SMILES O=C(CCC(=O)[C@H]1CSCCO1)OCCOCCOC(=O)c1ccc(-c2c3nc(c(-c4c(F)cc(S(=O)(=O)[O-])cc4F)c4ccc([nH]4)c(-c4c(F)cc(S(=O)(=O)[O-])cc4F)c4nc(c(-c5c(F)cc(S(=O)(=O)[O-])cc5F)c5ccc2[nH]5)C=C4)C=C3)cc1
REMARK SMILES IDX 16 1 15 2 14 3 13 4 2 5 1 6 3 7 4 8 5 9 6 10 7 11 8 12 12 13
REMARK SMILES IDX 9 14 11 15 10 16 17 17 18 18 19 19 20 20 21 21 22 22 23 23
REMARK SMILES IDX 87 24 24 25 86 26 25 27 26 28 27 29 80 30 28 31 85 32 79 33
REMARK SMILES IDX 81 34 29 35 84 36 78 37 77 38 30 40 64 41 43 42 63 43 44 44
REMARK SMILES IDX 47 45 62 46 82 47 45 48 46 49 61 51 83 52 48 53 31 54 32 55
REMARK SMILES IDX 41 56 33 57 34 58 40 59 42 60 35 61 36 62 37 63 38 64 39 65
REMARK SMILES IDX 65 66 66 67 75 68 67 69 68 70 74 71 76 72 69 73 70 74 71 75
REMARK SMILES IDX 72 76 73 77 49 78 50 79 59 80 51 81 52 82 58 83 60 84 53 85
REMARK SMILES IDX 54 86 55 87 56 88 57 89
REMARK H PARENT 81 39 47 50
REMARK Flexibility Score: inf
ROOT
ATOM      1  O   UNL A   1      46.546  23.147  25.436  1.00  0.00    -0.374 OA
ENDROOT
BRANCH   1   2
ATOM      2  C   UNL A   1      45.699  22.312  24.667  1.00  0.00     0.202 C 
BRANCH   2   3
ATOM      3  C   UNL A   1      45.576  20.838  25.058  1.00  0.00     0.261 C 
BRANCH   3   4
ATOM      4  O   UNL A   1      44.259  20.352  25.374  1.00  0.00    -0.463 OA
BRANCH   4   5
ATOM      5  C   UNL A   1      43.861  19.069  25.462  1.00  0.00     0.306 C 
ATOM      6  O   UNL A   1      44.576  18.170  25.023  1.00  0.00    -0.252 OA
BRANCH   5   7
ATOM      7  C   UNL A   1      42.567  18.754  26.153  1.00  0.00     0.130 C 
BRANCH   7   8
ATOM      8  C   UNL A   1      41.840  20.026  26.567  1.00  0.00     0.090 C 
BRANCH   8   9
ATOM      9  C   UNL A   1      40.392  19.984  26.120  1.00  0.00     0.162 C 
ATOM     10  O   UNL A   1      39.976  19.017  25.476  1.00  0.00    -0.297 OA
BRANCH   9  11
ATOM     11  C   UNL A   1      39.561  21.256  26.337  1.00  0.00     0.194 C 
ATOM     12  C   UNL A   1      40.452  22.494  26.412  1.00  0.00     0.109 C 
ATOM     13  O   UNL A   1      38.547  21.409  25.349  1.00  0.00    -0.369 OA
ATOM     14  S   UNL A   1      39.476  23.855  27.131  1.00  0.00    -0.156 SA
ATOM     15  C   UNL A   1      37.541  22.336  25.796  1.00  0.00     0.172 C 
ATOM     16  C   UNL A   1      38.066  23.763  25.976  1.00  0.00     0.098 C 
ENDBRANCH   9  11
ENDBRANCH   8   9
ENDBRANCH   7   8
ENDBRANCH   5   7
ENDBRANCH   4   5
ENDBRANCH   3   4
ENDBRANCH   2   3
ENDBRANCH   1   2
BRANCH   1  17
ATOM     17  C   UNL A   1      46.701  24.515  25.071  1.00  0.00     0.202 C 
BRANCH  17  18
ATOM     18  C   UNL A   1      45.466  25.418  25.081  1.00  0.00     0.261 C 
BRANCH  18  19
ATOM     19  O   UNL A   1      45.077  25.838  26.403  1.00  0.00    -0.460 OA
BRANCH  19  20
ATOM     20  C   UNL A   1      43.925  25.302  26.865  1.00  0.00     0.338 C 
ATOM     21  O   UNL A   1      43.533  24.151  26.699  1.00  0.00    -0.246 OA
BRANCH  20  22
ATOM     22  C   UNL A   1      43.216  26.256  27.735  1.00  0.00     0.060 A 
ATOM     23  C   UNL A   1      43.734  27.551  27.860  1.00  0.00     0.016 A 
ATOM     24  C   UNL A   1      42.134  25.845  28.516  1.00  0.00     0.016 A 
ATOM     25  C   UNL A   1      43.212  28.421  28.816  1.00  0.00     0.010 A 
ATOM     26  C   UNL A   1      41.620  26.716  29.483  1.00  0.00     0.010 A 
ATOM     27  C   UNL A   1      42.187  27.989  29.668  1.00  0.00    -0.014 A 
BRANCH  27  28
ATOM     28  C   UNL A   1      41.838  28.786  30.871  1.00  0.00     0.031 A 
ATOM     29  C   UNL A   1      40.645  29.702  30.807  1.00  0.00     0.074 A 
ATOM     30  C   UNL A   1      42.561  28.695  32.001  1.00  0.00     0.049 A 
ATOM     31  N   UNL A   1      40.192  30.537  31.706  1.00  0.00    -0.248 NA
ATOM     32  C   UNL A   1      39.863  29.675  29.560  1.00  0.00     0.031 C 
ATOM     33  C   UNL A   1      43.713  27.819  32.194  1.00  0.00     0.029 A 
ATOM     34  N   UNL A   1      42.436  29.357  33.197  1.00  0.00    -0.354 N 
ATOM     35  C   UNL A   1      39.079  31.142  31.131  1.00  0.00     0.074 A 
ATOM     36  C   UNL A   1      38.942  30.598  29.797  1.00  0.00     0.031 C 
ATOM     37  C   UNL A   1      44.203  28.007  33.432  1.00  0.00     0.029 A 
ATOM     38  C   UNL A   1      43.417  29.039  34.106  1.00  0.00     0.049 A 
ATOM     39  H   UNL A   1      41.714  29.998  33.386  1.00  0.00     0.167 HD
ATOM     40  C   UNL A   1      38.245  32.063  31.669  1.00  0.00     0.037 A 
ATOM     41  C   UNL A   1      43.666  29.543  35.331  1.00  0.00     0.037 A 
ATOM     42  C   UNL A   1      38.386  32.602  32.996  1.00  0.00     0.049 A 
ATOM     43  C   UNL A   1      42.756  30.608  35.889  1.00  0.00     0.074 A 
ATOM     44  C   UNL A   1      37.585  33.529  33.639  1.00  0.00     0.029 A 
ATOM     45  N   UNL A   1      39.400  32.267  33.882  1.00  0.00    -0.354 N 
ATOM     46  N   UNL A   1      41.698  31.160  35.342  1.00  0.00    -0.248 NA
ATOM     47  C   UNL A   1      43.072  31.118  37.230  1.00  0.00     0.031 C 
ATOM     48  C   UNL A   1      38.139  33.788  34.898  1.00  0.00     0.029 A 
ATOM     49  C   UNL A   1      39.256  32.983  35.059  1.00  0.00     0.049 A 
ATOM     50  H   UNL A   1      40.116  31.615  33.701  1.00  0.00     0.167 HD
ATOM     51  C   UNL A   1      41.207  32.059  36.283  1.00  0.00     0.074 A 
ATOM     52  C   UNL A   1      42.078  31.971  37.438  1.00  0.00     0.031 C 
ATOM     53  C   UNL A   1      40.129  32.880  36.202  1.00  0.00     0.037 A 
BRANCH  40  54
ATOM     54  C   UNL A   1      37.118  32.565  30.808  1.00  0.00     0.058 A 
ATOM     55  C   UNL A   1      37.309  33.579  29.857  1.00  0.00     0.135 A 
ATOM     56  C   UNL A   1      35.835  32.007  30.920  1.00  0.00     0.135 A 
ATOM     57  F   UNL A   1      38.511  34.162  29.721  1.00  0.00    -0.206 F 
ATOM     58  C   UNL A   1      36.262  34.040  29.065  1.00  0.00     0.059 A 
ATOM     59  C   UNL A   1      34.779  32.434  30.120  1.00  0.00     0.059 A 
ATOM     60  F   UNL A   1      35.596  31.036  31.817  1.00  0.00    -0.206 F 
ATOM     61  C   UNL A   1      34.999  33.463  29.206  1.00  0.00     0.060 A 
BRANCH  61  62
ATOM     62  S   UNL A   1      33.651  34.071  28.171  1.00  0.00     0.124 S 
ATOM     63  O   UNL A   1      34.370  34.922  27.228  1.00  0.00    -0.237 OA
ATOM     64  O   UNL A   1      33.100  32.837  27.619  1.00  0.00    -0.237 OA
ATOM     65  O   UNL A   1      32.786  34.772  29.116  1.00  0.00    -0.744 OA
ENDBRANCH  61  62
ENDBRANCH  40  54
BRANCH  41  66
ATOM     66  C   UNL A   1      44.834  29.056  36.112  1.00  0.00     0.058 A 
ATOM     67  C   UNL A   1      44.716  27.972  36.993  1.00  0.00     0.135 A 
ATOM     68  C   UNL A   1      46.093  29.666  35.990  1.00  0.00     0.135 A 
ATOM     69  F   UNL A   1      43.532  27.365  37.155  1.00  0.00    -0.206 F 
ATOM     70  C   UNL A   1      45.802  27.515  37.735  1.00  0.00     0.059 A 
ATOM     71  C   UNL A   1      47.198  29.212  36.703  1.00  0.00     0.059 A 
ATOM     72  F   UNL A   1      46.261  30.703  35.154  1.00  0.00    -0.206 F 
ATOM     73  C   UNL A   1      47.040  28.140  37.579  1.00  0.00     0.060 A 
BRANCH  73  74
ATOM     74  S   UNL A   1      48.457  27.504  38.503  1.00  0.00     0.124 S 
ATOM     75  O   UNL A   1      47.921  27.440  39.857  1.00  0.00    -0.237 OA
ATOM     76  O   UNL A   1      48.698  26.221  37.849  1.00  0.00    -0.237 OA
ATOM     77  O   UNL A   1      49.485  28.515  38.276  1.00  0.00    -0.744 OA
ENDBRANCH  73  74
ENDBRANCH  41  66
BRANCH  53  78
ATOM     78  C   UNL A   1      39.806  33.722  37.406  1.00  0.00     0.058 A 
ATOM     79  C   UNL A   1      38.908  33.289  38.393  1.00  0.00     0.135 A 
ATOM     80  C   UNL A   1      40.446  34.957  37.598  1.00  0.00     0.135 A 
ATOM     81  F   UNL A   1      38.267  32.118  38.256  1.00  0.00    -0.206 F 
ATOM     82  C   UNL A   1      38.636  34.062  39.517  1.00  0.00     0.059 A 
ATOM     83  C   UNL A   1      40.209  35.736  38.727  1.00  0.00     0.059 A 
ATOM     84  F   UNL A   1      41.324  35.414  36.691  1.00  0.00    -0.206 F 
ATOM     85  C   UNL A   1      39.291  35.286  39.675  1.00  0.00     0.060 A 
BRANCH  85  86
ATOM     86  S   UNL A   1      38.950  36.268  41.151  1.00  0.00     0.124 S 
ATOM     87  O   UNL A   1      38.617  37.564  40.570  1.00  0.00    -0.237 OA
ATOM     88  O   UNL A   1      37.840  35.543  41.762  1.00  0.00    -0.237 OA
ATOM     89  O   UNL A   1      40.206  36.215  41.892  1.00  0.00    -0.744 OA
ENDBRANCH  85  86
ENDBRANCH  53  78
ENDBRANCH  27  28
ENDBRANCH  20  22
ENDBRANCH  19  20
ENDBRANCH  18  19
ENDBRANCH  17  18
ENDBRANCH   1  17
TORSDOF 20
ENDMDL
MODEL 3
REMARK VINA RESULT:      -9.5      5.490     13.978
REMARK SMILES O=C(CCC(=O)[C@H]1CSCCO1)OCCOCCOC(=O)c1ccc(-c2c3nc(c(-c4c(F)cc(S(=O)(=O)[O-])cc4F)c4ccc([nH]4)c(-c4c(F)cc(S(=O)(=O)[O-])cc4F)c4nc(c(-c5c(F)cc(S(=O)(=O)[O-])cc5F)c5ccc2[nH]5)C=C4)C=C3)cc1
REMARK SMILES IDX 16 1 15 2 14 3 13 4 2 5 1 6 3 7 4 8 5 9 6 10 7 11 8 12 12 13
REMARK SMILES IDX 9 14 11 15 10 16 17 17 18 18 19 19 20 20 21 21 22 22 23 23
REMARK SMILES IDX 87 24 24 25 86 26 25 27 26 28 27 29 80 30 28 31 85 32 79 33
REMARK SMILES IDX 81 34 29 35 84 36 78 37 77 38 30 40 64 41 43 42 63 43 44 44
REMARK SMILES IDX 47 45 62 46 82 47 45 48 46 49 61 51 83 52 48 53 31 54 32 55
REMARK SMILES IDX 41 56 33 57 34 58 40 59 42 60 35 61 36 62 37 63 38 64 39 65
REMARK SMILES IDX 65 66 66 67 75 68 67 69 68 70 74 71 76 72 69 73 70 74 71 75
REMARK SMILES IDX 72 76 73 77 49 78 50 79 59 80 51 81 52 82 58 83 60 84 53 85
REMARK SMILES IDX 54 86 55 87 56 88 57 89
REMARK H PARENT 81 39 47 50
REMARK Flexibility Score: inf
ROOT
ATOM      1  O   UNL A   1      34.238  34.474  29.232  1.00  0.00    -0.374 OA
ENDROOT
BRANCH   1   2
ATOM      2  C   UNL A   1      33.137  35.361  29.322  1.00  0.00     0.202 C 
BRANCH   2   3
ATOM      3  C   UNL A   1      32.918  36.124  30.630  1.00  0.00     0.261 C 
BRANCH   3   4
ATOM      4  O   UNL A   1      32.557  35.349  31.788  1.00  0.00    -0.463 OA
BRANCH   4   5
ATOM      5  C   UNL A   1      33.388  34.724  32.643  1.00  0.00     0.306 C 
ATOM      6  O   UNL A   1      33.284  33.513  32.829  1.00  0.00    -0.252 OA
BRANCH   5   7
ATOM      7  C   UNL A   1      34.473  35.515  33.314  1.00  0.00     0.130 C 
BRANCH   7   8
ATOM      8  C   UNL A   1      35.252  34.654  34.300  1.00  0.00     0.090 C 
BRANCH   8   9
ATOM      9  C   UNL A   1      36.569  34.209  33.695  1.00  0.00     0.162 C 
ATOM     10  O   UNL A   1      36.832  34.488  32.523  1.00  0.00    -0.297 OA
BRANCH   9  11
ATOM     11  C   UNL A   1      37.433  33.261  34.538  1.00  0.00     0.194 C 
ATOM     12  C   UNL A   1      37.209  33.485  36.031  1.00  0.00     0.109 C 
ATOM     13  O   UNL A   1      37.232  31.896  34.184  1.00  0.00    -0.369 OA
ATOM     14  S   UNL A   1      38.575  32.691  36.939  1.00  0.00    -0.156 SA
ATOM     15  C   UNL A   1      38.320  31.084  34.661  1.00  0.00     0.172 C 
ATOM     16  C   UNL A   1      38.418  31.035  36.188  1.00  0.00     0.098 C 
ENDBRANCH   9  11
ENDBRANCH   8   9
ENDBRANCH   7   8
ENDBRANCH   5   7
ENDBRANCH   4   5
ENDBRANCH   3   4
ENDBRANCH   2   3
ENDBRANCH   1   2
BRANCH   1  17
ATOM     17  C   UNL A   1      34.064  33.200  28.619  1.00  0.00     0.202 C 
BRANCH  17  18
ATOM     18  C   UNL A   1      35.309  32.399  28.234  1.00  0.00     0.261 C 
BRANCH  18  19
ATOM     19  O   UNL A   1      36.413  32.591  29.140  1.00  0.00    -0.460 OA
BRANCH  19  20
ATOM     20  C   UNL A   1      36.554  31.640  30.090  1.00  0.00     0.338 C 
ATOM     21  O   UNL A   1      35.809  31.440  31.044  1.00  0.00    -0.246 OA
BRANCH  20  22
ATOM     22  C   UNL A   1      37.681  30.747  29.773  1.00  0.00     0.060 A 
ATOM     23  C   UNL A   1      38.575  30.416  30.800  1.00  0.00     0.016 A 
ATOM     24  C   UNL A   1      37.930  30.346  28.458  1.00  0.00     0.016 A 
ATOM     25  C   UNL A   1      39.757  29.737  30.504  1.00  0.00     0.010 A 
ATOM     26  C   UNL A   1      39.122  29.676  28.163  1.00  0.00     0.010 A 
ATOM     27  C   UNL A   1      40.061  29.411  29.175  1.00  0.00    -0.014 A 
BRANCH  27  28
ATOM     28  C   UNL A   1      41.432  28.970  28.816  1.00  0.00     0.031 A 
ATOM     29  C   UNL A   1      42.539  29.989  28.810  1.00  0.00     0.074 A 
ATOM     30  C   UNL A   1      41.692  27.688  28.505  1.00  0.00     0.049 A 
ATOM     31  N   UNL A   1      43.794  29.850  28.468  1.00  0.00    -0.248 NA
ATOM     32  C   UNL A   1      42.181  31.350  29.245  1.00  0.00     0.031 C 
ATOM     33  C   UNL A   1      40.711  26.606  28.509  1.00  0.00     0.029 A 
ATOM     34  N   UNL A   1      42.860  27.083  28.115  1.00  0.00    -0.354 N 
ATOM     35  C   UNL A   1      44.372  31.104  28.636  1.00  0.00     0.074 A 
ATOM     36  C   UNL A   1      43.326  31.997  29.084  1.00  0.00     0.031 C 
ATOM     37  C   UNL A   1      41.314  25.468  28.123  1.00  0.00     0.029 A 
ATOM     38  C   UNL A   1      42.715  25.749  27.815  1.00  0.00     0.049 A 
ATOM     39  H   UNL A   1      43.720  27.558  28.054  1.00  0.00     0.167 HD
ATOM     40  C   UNL A   1      45.659  31.474  28.439  1.00  0.00     0.037 A 
ATOM     41  C   UNL A   1      43.606  24.864  27.325  1.00  0.00     0.037 A 
ATOM     42  C   UNL A   1      46.696  30.582  27.991  1.00  0.00     0.049 A 
ATOM     43  C   UNL A   1      45.021  25.312  27.060  1.00  0.00     0.074 A 
ATOM     44  C   UNL A   1      48.035  30.856  27.774  1.00  0.00     0.029 A 
ATOM     45  N   UNL A   1      46.509  29.241  27.685  1.00  0.00    -0.354 N 
ATOM     46  N   UNL A   1      45.560  26.496  27.239  1.00  0.00    -0.248 NA
ATOM     47  C   UNL A   1      45.951  24.305  26.531  1.00  0.00     0.031 C 
ATOM     48  C   UNL A   1      48.649  29.694  27.295  1.00  0.00     0.029 A 
ATOM     49  C   UNL A   1      47.703  28.681  27.262  1.00  0.00     0.049 A 
ATOM     50  H   UNL A   1      45.653  28.759  27.758  1.00  0.00     0.167 HD
ATOM     51  C   UNL A   1      46.895  26.367  26.871  1.00  0.00     0.074 A 
ATOM     52  C   UNL A   1      47.085  24.988  26.469  1.00  0.00     0.031 C 
ATOM     53  C   UNL A   1      47.877  27.304  26.871  1.00  0.00     0.037 A 
BRANCH  40  54
ATOM     54  C   UNL A   1      46.011  32.916  28.683  1.00  0.00     0.058 A 
ATOM     55  C   UNL A   1      45.929  33.879  27.666  1.00  0.00     0.135 A 
ATOM     56  C   UNL A   1      46.414  33.344  29.958  1.00  0.00     0.135 A 
ATOM     57  F   UNL A   1      45.569  33.522  26.423  1.00  0.00    -0.206 F 
ATOM     58  C   UNL A   1      46.258  35.212  27.897  1.00  0.00     0.059 A 
ATOM     59  C   UNL A   1      46.722  34.675  30.219  1.00  0.00     0.059 A 
ATOM     60  F   UNL A   1      46.514  32.462  30.966  1.00  0.00    -0.206 F 
ATOM     61  C   UNL A   1      46.656  35.600  29.177  1.00  0.00     0.060 A 
BRANCH  61  62
ATOM     62  S   UNL A   1      47.078  37.331  29.463  1.00  0.00     0.124 S 
ATOM     63  O   UNL A   1      47.457  37.763  28.121  1.00  0.00    -0.237 OA
ATOM     64  O   UNL A   1      45.826  37.878  29.976  1.00  0.00    -0.237 OA
ATOM     65  O   UNL A   1      48.170  37.260  30.430  1.00  0.00    -0.744 OA
ENDBRANCH  61  62
ENDBRANCH  40  54
BRANCH  41  66
ATOM     66  C   UNL A   1      43.186  23.467  27.040  1.00  0.00     0.058 A 
ATOM     67  C   UNL A   1      42.987  23.022  25.725  1.00  0.00     0.135 A 
ATOM     68  C   UNL A   1      42.976  22.546  28.080  1.00  0.00     0.135 A 
ATOM     69  F   UNL A   1      43.160  23.867  24.698  1.00  0.00    -0.206 F 
ATOM     70  C   UNL A   1      42.585  21.718  25.449  1.00  0.00     0.059 A 
ATOM     71  C   UNL A   1      42.598  21.231  27.828  1.00  0.00     0.059 A 
ATOM     72  F   UNL A   1      43.161  22.918  29.356  1.00  0.00    -0.206 F 
ATOM     73  C   UNL A   1      42.397  20.829  26.508  1.00  0.00     0.060 A 
BRANCH  73  74
ATOM     74  S   UNL A   1      41.931  19.123  26.138  1.00  0.00     0.124 S 
ATOM     75  O   UNL A   1      42.741  18.845  24.958  1.00  0.00    -0.237 OA
ATOM     76  O   UNL A   1      42.321  18.427  27.360  1.00  0.00    -0.237 OA
ATOM     77  O   UNL A   1      40.492  19.212  25.912  1.00  0.00    -0.744 OA
ENDBRANCH  73  74
ENDBRANCH  41  66
BRANCH  53  78
ATOM     78  C   UNL A   1      49.255  26.864  26.459  1.00  0.00     0.058 A 
ATOM     79  C   UNL A   1      50.122  26.213  27.350  1.00  0.00     0.135 A 
ATOM     80  C   UNL A   1      49.693  27.051  25.137  1.00  0.00     0.135 A 
ATOM     81  F   UNL A   1      49.754  26.012  28.625  1.00  0.00    -0.206 F 
ATOM     82  C   UNL A   1      51.385  25.785  26.953  1.00  0.00     0.059 A 
ATOM     83  C   UNL A   1      50.942  26.608  24.711  1.00  0.00     0.059 A 
ATOM     84  F   UNL A   1      48.899  27.657  24.240  1.00  0.00    -0.206 F 
ATOM     85  C   UNL A   1      51.787  25.988  25.630  1.00  0.00     0.060 A 
BRANCH  85  86
ATOM     86  S   UNL A   1      53.417  25.405  25.120  1.00  0.00     0.124 S 
ATOM     87  O   UNL A   1      54.292  26.169  26.002  1.00  0.00    -0.237 OA
ATOM     88  O   UNL A   1      53.338  23.973  25.391  1.00  0.00    -0.237 OA
ATOM     89  O   UNL A   1      53.479  25.765  23.707  1.00  0.00    -0.744 OA
ENDBRANCH  85  86
ENDBRANCH  53  78
ENDBRANCH  27  28
ENDBRANCH  20  22
ENDBRANCH  19  20
ENDBRANCH  18  19
ENDBRANCH  17  18
ENDBRANCH   1  17
TORSDOF 20
ENDMDL
