MODEL 1
REMARK VINA RESULT:     -12.2      0.000      0.000
REMARK SMILES Cc1cccc(OC2(C(=O)OCCOCCOC(=O)c3ccc(-c4c5nc(c(-c6c(F)cc(S(=O)(=O)[O-])cc6F)c6ccc([nH]6)c(-c6c(F)cc(S(=O)(=O)[O-])cc6F)c6nc(c(-c7c(F)cc(S(=O)(=O)[O-])cc7F)c7ccc4[nH]7)C=C6)C=C5)cc3)CCN(C(=O)c3cnc[nH]c3=O)CC2)c1
REMARK SMILES IDX 15 1 14 2 13 3 12 4 11 5 9 6 10 7 8 8 86 9 99 10 87 11 98 12
REMARK SMILES IDX 88 13 89 14 90 15 7 16 6 17 1 18 2 19 3 20 100 21 4 22 5 23
REMARK SMILES IDX 91 24 92 25 96 26 93 27 95 28 97 29 94 30 16 32 17 33 18 34
REMARK SMILES IDX 19 35 20 36 21 37 85 38 22 39 84 40 23 41 24 42 25 43 78 44
REMARK SMILES IDX 26 45 83 46 77 47 79 48 27 49 82 50 76 51 75 52 28 54 62 55
REMARK SMILES IDX 41 56 61 57 42 58 45 59 60 60 80 61 43 62 44 63 59 65 81 66
REMARK SMILES IDX 46 67 29 68 30 69 39 70 31 71 32 72 38 73 40 74 33 75 34 76
REMARK SMILES IDX 35 77 36 78 37 79 63 80 64 81 73 82 65 83 66 84 72 85 74 86
REMARK SMILES IDX 67 87 68 88 69 89 70 90 71 91 47 92 48 93 57 94 49 95 50 96
REMARK SMILES IDX 56 97 58 98 51 99 52 100 53 101 54 102 55 103
REMARK H PARENT 95 31 79 53 45 64
REMARK Flexibility Score: inf
ROOT
ATOM      1  C   UNL A   1      32.776  26.979  25.484  1.00  0.00     0.202 C 
ENDROOT
BRANCH   1   2
ATOM      2  O   UNL A   1      33.079  25.774  26.144  1.00  0.00    -0.374 OA
BRANCH   2   3
ATOM      3  C   UNL A   1      31.965  24.950  26.442  1.00  0.00     0.202 C 
BRANCH   3   4
ATOM      4  C   UNL A   1      32.516  23.626  26.874  1.00  0.00     0.261 C 
BRANCH   4   5
ATOM      5  O   UNL A   1      33.937  23.390  26.487  1.00  0.00    -0.460 OA
BRANCH   5   6
ATOM      6  C   UNL A   1      34.783  22.355  26.276  1.00  0.00     0.350 C 
ATOM      7  O   UNL A   1      34.503  21.248  26.743  1.00  0.00    -0.247 OA
BRANCH   6   8
ATOM      8  C   UNL A   1      36.165  22.594  25.631  1.00  0.00     0.209 C 
ATOM      9  C   UNL A   1      36.864  23.767  26.311  1.00  0.00     0.082 C 
ATOM     10  C   UNL A   1      37.036  21.330  25.850  1.00  0.00     0.082 C 
ATOM     11  C   UNL A   1      38.332  23.973  26.106  1.00  0.00     0.124 C 
ATOM     12  C   UNL A   1      38.469  21.630  25.390  1.00  0.00     0.124 C 
ATOM     13  N   UNL A   1      39.010  22.709  26.212  1.00  0.00    -0.338 N 
ATOM     14  C   UNL A   1      40.058  22.586  27.109  1.00  0.00     0.261 C 
ATOM     15  O   UNL A   1      40.187  23.211  28.135  1.00  0.00    -0.269 OA
BRANCH   8  16
ATOM     16  O   UNL A   1      36.104  22.621  24.182  1.00  0.00    -0.475 OA
BRANCH  16  17
ATOM     17  C   UNL A   1      34.930  22.954  23.588  1.00  0.00     0.121 A 
ATOM     18  C   UNL A   1      31.871  21.143  22.362  1.00  0.00     0.044 C 
ATOM     19  C   UNL A   1      32.758  22.276  22.772  1.00  0.00    -0.047 A 
ATOM     20  C   UNL A   1      32.431  23.613  22.546  1.00  0.00     0.003 A 
ATOM     21  C   UNL A   1      33.979  21.972  23.371  1.00  0.00     0.050 A 
ATOM     22  C   UNL A   1      33.352  24.621  22.854  1.00  0.00     0.004 A 
ATOM     23  C   UNL A   1      34.612  24.289  23.362  1.00  0.00     0.046 A 
ENDBRANCH  16  17
ENDBRANCH   8  16
BRANCH  14  24
ATOM     24  C   UNL A   1      41.124  21.703  26.614  1.00  0.00     0.123 A 
ATOM     25  C   UNL A   1      41.975  22.112  25.669  1.00  0.00     0.132 A 
ATOM     26  C   UNL A   1      41.323  20.370  27.205  1.00  0.00     0.263 A 
ATOM     27  N   UNL A   1      43.050  21.377  25.225  1.00  0.00    -0.246 NA
ATOM     28  N   UNL A   1      42.421  19.705  26.749  1.00  0.00    -0.312 N 
ATOM     29  O   UNL A   1      40.584  19.872  28.050  1.00  0.00    -0.269 OA
ATOM     30  C   UNL A   1      43.230  20.228  25.785  1.00  0.00     0.199 A 
ATOM     31  H   UNL A   1      42.636  18.822  27.127  1.00  0.00     0.171 HD
ENDBRANCH  14  24
ENDBRANCH   6   8
ENDBRANCH   5   6
ENDBRANCH   4   5
ENDBRANCH   3   4
ENDBRANCH   2   3
ENDBRANCH   1   2
BRANCH   1  32
ATOM     32  C   UNL A   1      32.756  28.214  26.384  1.00  0.00     0.261 C 
BRANCH  32  33
ATOM     33  O   UNL A   1      34.030  28.890  26.419  1.00  0.00    -0.460 OA
BRANCH  33  34
ATOM     34  C   UNL A   1      34.164  29.881  27.350  1.00  0.00     0.338 C 
ATOM     35  O   UNL A   1      33.227  30.531  27.780  1.00  0.00    -0.246 OA
BRANCH  34  36
ATOM     36  C   UNL A   1      35.554  29.956  27.871  1.00  0.00     0.060 A 
ATOM     37  C   UNL A   1      36.651  30.124  27.006  1.00  0.00     0.016 A 
ATOM     38  C   UNL A   1      35.767  29.711  29.225  1.00  0.00     0.016 A 
ATOM     39  C   UNL A   1      37.959  29.944  27.482  1.00  0.00     0.010 A 
ATOM     40  C   UNL A   1      37.041  29.413  29.658  1.00  0.00     0.010 A 
ATOM     41  C   UNL A   1      38.147  29.542  28.800  1.00  0.00    -0.014 A 
BRANCH  41  42
ATOM     42  C   UNL A   1      39.426  29.252  29.449  1.00  0.00     0.031 A 
ATOM     43  C   UNL A   1      40.092  27.986  29.095  1.00  0.00     0.074 A 
ATOM     44  C   UNL A   1      40.129  30.228  30.064  1.00  0.00     0.049 A 
ATOM     45  N   UNL A   1      41.194  27.588  29.620  1.00  0.00    -0.248 NA
ATOM     46  C   UNL A   1      39.533  27.010  28.159  1.00  0.00     0.031 C 
ATOM     47  C   UNL A   1      41.577  30.418  30.125  1.00  0.00     0.029 A 
ATOM     48  N   UNL A   1      39.642  31.363  30.701  1.00  0.00    -0.354 N 
ATOM     49  C   UNL A   1      41.678  26.580  28.826  1.00  0.00     0.074 A 
ATOM     50  C   UNL A   1      40.530  26.123  28.090  1.00  0.00     0.031 C 
ATOM     51  C   UNL A   1      41.865  31.448  30.945  1.00  0.00     0.029 A 
ATOM     52  C   UNL A   1      40.617  31.884  31.554  1.00  0.00     0.049 A 
ATOM     53  H   UNL A   1      38.744  31.745  30.569  1.00  0.00     0.167 HD
ATOM     54  C   UNL A   1      43.030  26.404  28.781  1.00  0.00     0.037 A 
ATOM     55  C   UNL A   1      40.334  32.020  32.876  1.00  0.00     0.037 A 
ATOM     56  C   UNL A   1      43.677  27.231  29.828  1.00  0.00     0.049 A 
ATOM     57  C   UNL A   1      41.161  30.998  33.598  1.00  0.00     0.074 A 
ATOM     58  C   UNL A   1      44.509  28.338  29.802  1.00  0.00     0.029 A 
ATOM     59  N   UNL A   1      43.219  27.137  31.151  1.00  0.00    -0.354 N 
ATOM     60  N   UNL A   1      41.595  29.910  33.013  1.00  0.00    -0.248 NA
ATOM     61  C   UNL A   1      41.725  31.187  34.926  1.00  0.00     0.031 C 
ATOM     62  C   UNL A   1      44.471  28.951  31.095  1.00  0.00     0.029 A 
ATOM     63  C   UNL A   1      43.640  28.207  31.923  1.00  0.00     0.049 A 
ATOM     64  H   UNL A   1      42.664  26.398  31.490  1.00  0.00     0.167 HD
ATOM     65  C   UNL A   1      42.563  29.342  33.776  1.00  0.00     0.074 A 
ATOM     66  C   UNL A   1      42.574  30.144  34.992  1.00  0.00     0.031 C 
ATOM     67  C   UNL A   1      43.314  28.285  33.352  1.00  0.00     0.037 A 
BRANCH  54  68
ATOM     68  C   UNL A   1      43.780  25.656  27.677  1.00  0.00     0.058 A 
ATOM     69  C   UNL A   1      44.403  24.416  27.947  1.00  0.00     0.135 A 
ATOM     70  C   UNL A   1      43.985  26.109  26.350  1.00  0.00     0.135 A 
ATOM     71  F   UNL A   1      44.341  23.859  29.164  1.00  0.00    -0.206 F 
ATOM     72  C   UNL A   1      45.135  23.692  26.990  1.00  0.00     0.059 A 
ATOM     73  C   UNL A   1      44.678  25.390  25.371  1.00  0.00     0.059 A 
ATOM     74  F   UNL A   1      43.571  27.298  25.914  1.00  0.00    -0.206 F 
ATOM     75  C   UNL A   1      45.254  24.180  25.696  1.00  0.00     0.060 A 
BRANCH  75  76
ATOM     76  S   UNL A   1      46.150  23.234  24.452  1.00  0.00     0.124 S 
ATOM     77  O   UNL A   1      45.116  22.988  23.452  1.00  0.00    -0.237 OA
ATOM     78  O   UNL A   1      47.206  24.163  24.062  1.00  0.00    -0.237 OA
ATOM     79  O   UNL A   1      46.603  22.052  25.179  1.00  0.00    -0.744 OA
ENDBRANCH  75  76
ENDBRANCH  54  68
BRANCH  55  80
ATOM     80  C   UNL A   1      38.928  32.496  33.104  1.00  0.00     0.058 A 
ATOM     81  C   UNL A   1      38.670  33.853  32.794  1.00  0.00     0.135 A 
ATOM     82  C   UNL A   1      37.824  31.627  33.060  1.00  0.00     0.135 A 
ATOM     83  F   UNL A   1      39.682  34.738  32.797  1.00  0.00    -0.206 F 
ATOM     84  C   UNL A   1      37.434  34.294  32.311  1.00  0.00     0.059 A 
ATOM     85  C   UNL A   1      36.581  32.043  32.554  1.00  0.00     0.059 A 
ATOM     86  F   UNL A   1      37.981  30.325  33.338  1.00  0.00    -0.206 F 
ATOM     87  C   UNL A   1      36.414  33.364  32.126  1.00  0.00     0.060 A 
BRANCH  87  88
ATOM     88  S   UNL A   1      35.018  33.807  31.043  1.00  0.00     0.124 S 
ATOM     89  O   UNL A   1      34.405  34.917  31.760  1.00  0.00    -0.237 OA
ATOM     90  O   UNL A   1      35.684  34.148  29.787  1.00  0.00    -0.237 OA
ATOM     91  O   UNL A   1      34.243  32.573  30.985  1.00  0.00    -0.744 OA
ENDBRANCH  87  88
ENDBRANCH  55  80
BRANCH  67  92
ATOM     92  C   UNL A   1      43.853  27.253  34.306  1.00  0.00     0.058 A 
ATOM     93  C   UNL A   1      43.038  26.317  34.971  1.00  0.00     0.135 A 
ATOM     94  C   UNL A   1      45.246  27.044  34.429  1.00  0.00     0.135 A 
ATOM     95  F   UNL A   1      41.705  26.305  34.835  1.00  0.00    -0.206 F 
ATOM     96  C   UNL A   1      43.560  25.313  35.776  1.00  0.00     0.059 A 
ATOM     97  C   UNL A   1      45.788  25.996  35.161  1.00  0.00     0.059 A 
ATOM     98  F   UNL A   1      46.140  27.835  33.819  1.00  0.00    -0.206 F 
ATOM     99  C   UNL A   1      44.936  25.158  35.863  1.00  0.00     0.060 A 
BRANCH  99 100
ATOM    100  S   UNL A   1      45.594  23.835  36.878  1.00  0.00     0.124 S 
ATOM    101  O   UNL A   1      47.018  24.151  36.869  1.00  0.00    -0.237 OA
ATOM    102  O   UNL A   1      44.908  24.042  38.151  1.00  0.00    -0.237 OA
ATOM    103  O   UNL A   1      45.208  22.629  36.154  1.00  0.00    -0.744 OA
ENDBRANCH  99 100
ENDBRANCH  67  92
ENDBRANCH  41  42
ENDBRANCH  34  36
ENDBRANCH  33  34
ENDBRANCH  32  33
ENDBRANCH   1  32
TORSDOF 20
ENDMDL
MODEL 2
REMARK VINA RESULT:     -12.1      1.430      2.389
REMARK SMILES Cc1cccc(OC2(C(=O)OCCOCCOC(=O)c3ccc(-c4c5nc(c(-c6c(F)cc(S(=O)(=O)[O-])cc6F)c6ccc([nH]6)c(-c6c(F)cc(S(=O)(=O)[O-])cc6F)c6nc(c(-c7c(F)cc(S(=O)(=O)[O-])cc7F)c7ccc4[nH]7)C=C6)C=C5)cc3)CCN(C(=O)c3cnc[nH]c3=O)CC2)c1
REMARK SMILES IDX 15 1 14 2 13 3 12 4 11 5 9 6 10 7 8 8 86 9 99 10 87 11 98 12
REMARK SMILES IDX 88 13 89 14 90 15 7 16 6 17 1 18 2 19 3 20 100 21 4 22 5 23
REMARK SMILES IDX 91 24 92 25 96 26 93 27 95 28 97 29 94 30 16 32 17 33 18 34
REMARK SMILES IDX 19 35 20 36 21 37 85 38 22 39 84 40 23 41 24 42 25 43 78 44
REMARK SMILES IDX 26 45 83 46 77 47 79 48 27 49 82 50 76 51 75 52 28 54 62 55
REMARK SMILES IDX 41 56 61 57 42 58 45 59 60 60 80 61 43 62 44 63 59 65 81 66
REMARK SMILES IDX 46 67 29 68 30 69 39 70 31 71 32 72 38 73 40 74 33 75 34 76
REMARK SMILES IDX 35 77 36 78 37 79 63 80 64 81 73 82 65 83 66 84 72 85 74 86
REMARK SMILES IDX 67 87 68 88 69 89 70 90 71 91 47 92 48 93 57 94 49 95 50 96
REMARK SMILES IDX 56 97 58 98 51 99 52 100 53 101 54 102 55 103
REMARK H PARENT 95 31 79 53 45 64
REMARK Flexibility Score: inf
ROOT
ATOM      1  C   UNL A   1      31.653  27.565  26.445  1.00  0.00     0.202 C 
ENDROOT
BRANCH   1   2
ATOM      2  O   UNL A   1      31.036  26.357  26.821  1.00  0.00    -0.374 OA
BRANCH   2   3
ATOM      3  C   UNL A   1      30.072  25.860  25.910  1.00  0.00     0.202 C 
BRANCH   3   4
ATOM      4  C   UNL A   1      30.831  25.305  24.744  1.00  0.00     0.261 C 
BRANCH   4   5
ATOM      5  O   UNL A   1      31.752  24.181  25.083  1.00  0.00    -0.460 OA
BRANCH   5   6
ATOM      6  C   UNL A   1      31.688  22.877  25.441  1.00  0.00     0.350 C 
ATOM      7  O   UNL A   1      30.678  22.462  26.013  1.00  0.00    -0.247 OA
BRANCH   6   8
ATOM      8  C   UNL A   1      32.931  21.971  25.311  1.00  0.00     0.209 C 
ATOM      9  C   UNL A   1      33.572  22.154  23.940  1.00  0.00     0.082 C 
ATOM     10  C   UNL A   1      33.968  22.401  26.382  1.00  0.00     0.082 C 
ATOM     11  C   UNL A   1      34.963  21.658  23.701  1.00  0.00     0.124 C 
ATOM     12  C   UNL A   1      35.278  21.643  26.134  1.00  0.00     0.124 C 
ATOM     13  N   UNL A   1      35.794  22.013  24.819  1.00  0.00    -0.338 N 
ATOM     14  C   UNL A   1      36.962  22.720  24.585  1.00  0.00     0.261 C 
ATOM     15  O   UNL A   1      37.155  23.484  23.668  1.00  0.00    -0.269 OA
BRANCH   8  16
ATOM     16  O   UNL A   1      32.670  20.608  25.734  1.00  0.00    -0.475 OA
BRANCH  16  17
ATOM     17  C   UNL A   1      32.856  19.604  24.841  1.00  0.00     0.121 A 
ATOM     18  C   UNL A   1      34.828  16.405  24.688  1.00  0.00     0.044 C 
ATOM     19  C   UNL A   1      33.822  17.450  24.320  1.00  0.00    -0.047 A 
ATOM     20  C   UNL A   1      33.115  17.429  23.117  1.00  0.00     0.003 A 
ATOM     21  C   UNL A   1      33.615  18.505  25.205  1.00  0.00     0.050 A 
ATOM     22  C   UNL A   1      32.268  18.493  22.785  1.00  0.00     0.004 A 
ATOM     23  C   UNL A   1      32.151  19.591  23.641  1.00  0.00     0.046 A 
ENDBRANCH  16  17
ENDBRANCH   8  16
BRANCH  14  24
ATOM     24  C   UNL A   1      38.047  22.335  25.497  1.00  0.00     0.123 A 
ATOM     25  C   UNL A   1      38.663  21.155  25.379  1.00  0.00     0.132 A 
ATOM     26  C   UNL A   1      38.533  23.276  26.520  1.00  0.00     0.263 A 
ATOM     27  N   UNL A   1      39.745  20.767  26.135  1.00  0.00    -0.246 NA
ATOM     28  N   UNL A   1      39.625  22.849  27.213  1.00  0.00    -0.312 N 
ATOM     29  O   UNL A   1      38.023  24.370  26.749  1.00  0.00    -0.269 OA
ATOM     30  C   UNL A   1      40.179  21.622  26.998  1.00  0.00     0.199 A 
ATOM     31  H   UNL A   1      40.024  23.443  27.889  1.00  0.00     0.171 HD
ENDBRANCH  14  24
ENDBRANCH   6   8
ENDBRANCH   5   6
ENDBRANCH   4   5
ENDBRANCH   3   4
ENDBRANCH   2   3
ENDBRANCH   1   2
BRANCH   1  32
ATOM     32  C   UNL A   1      32.211  28.386  27.607  1.00  0.00     0.261 C 
BRANCH  32  33
ATOM     33  O   UNL A   1      33.637  28.578  27.510  1.00  0.00    -0.460 OA
BRANCH  33  34
ATOM     34  C   UNL A   1      34.079  29.869  27.567  1.00  0.00     0.338 C 
ATOM     35  O   UNL A   1      33.366  30.835  27.354  1.00  0.00    -0.246 OA
BRANCH  34  36
ATOM     36  C   UNL A   1      35.479  29.947  28.062  1.00  0.00     0.060 A 
ATOM     37  C   UNL A   1      36.556  30.145  27.179  1.00  0.00     0.016 A 
ATOM     38  C   UNL A   1      35.721  29.673  29.406  1.00  0.00     0.016 A 
ATOM     39  C   UNL A   1      37.876  29.967  27.625  1.00  0.00     0.010 A 
ATOM     40  C   UNL A   1      37.007  29.378  29.806  1.00  0.00     0.010 A 
ATOM     41  C   UNL A   1      38.093  29.537  28.929  1.00  0.00    -0.014 A 
BRANCH  41  42
ATOM     42  C   UNL A   1      39.389  29.244  29.546  1.00  0.00     0.031 A 
ATOM     43  C   UNL A   1      40.013  27.950  29.223  1.00  0.00     0.074 A 
ATOM     44  C   UNL A   1      40.133  30.229  30.095  1.00  0.00     0.049 A 
ATOM     45  N   UNL A   1      41.125  27.549  29.726  1.00  0.00    -0.248 NA
ATOM     46  C   UNL A   1      39.402  26.949  28.350  1.00  0.00     0.031 C 
ATOM     47  C   UNL A   1      41.586  30.387  30.098  1.00  0.00     0.029 A 
ATOM     48  N   UNL A   1      39.694  31.401  30.698  1.00  0.00    -0.354 N 
ATOM     49  C   UNL A   1      41.558  26.497  28.960  1.00  0.00     0.074 A 
ATOM     50  C   UNL A   1      40.376  26.037  28.284  1.00  0.00     0.031 C 
ATOM     51  C   UNL A   1      41.925  31.444  30.862  1.00  0.00     0.029 A 
ATOM     52  C   UNL A   1      40.710  31.934  31.495  1.00  0.00     0.049 A 
ATOM     53  H   UNL A   1      38.801  31.797  30.582  1.00  0.00     0.167 HD
ATOM     54  C   UNL A   1      42.904  26.288  28.876  1.00  0.00     0.037 A 
ATOM     55  C   UNL A   1      40.476  32.131  32.819  1.00  0.00     0.037 A 
ATOM     56  C   UNL A   1      43.605  27.143  29.864  1.00  0.00     0.049 A 
ATOM     57  C   UNL A   1      41.306  31.121  33.554  1.00  0.00     0.074 A 
ATOM     58  C   UNL A   1      44.460  28.229  29.763  1.00  0.00     0.029 A 
ATOM     59  N   UNL A   1      43.192  27.116  31.205  1.00  0.00    -0.354 N 
ATOM     60  N   UNL A   1      41.695  30.001  33.002  1.00  0.00    -0.248 NA
ATOM     61  C   UNL A   1      41.920  31.353  34.854  1.00  0.00     0.031 C 
ATOM     62  C   UNL A   1      44.481  28.896  31.029  1.00  0.00     0.029 A 
ATOM     63  C   UNL A   1      43.663  28.207  31.916  1.00  0.00     0.049 A 
ATOM     64  H   UNL A   1      42.634  26.404  31.594  1.00  0.00     0.167 HD
ATOM     65  C   UNL A   1      42.678  29.443  33.755  1.00  0.00     0.074 A 
ATOM     66  C   UNL A   1      42.748  30.294  34.934  1.00  0.00     0.031 C 
ATOM     67  C   UNL A   1      43.389  28.352  33.350  1.00  0.00     0.037 A 
BRANCH  54  68
ATOM     68  C   UNL A   1      43.598  25.478  27.779  1.00  0.00     0.058 A 
ATOM     69  C   UNL A   1      43.441  24.074  27.718  1.00  0.00     0.135 A 
ATOM     70  C   UNL A   1      44.477  25.987  26.792  1.00  0.00     0.135 A 
ATOM     71  F   UNL A   1      42.673  23.422  28.602  1.00  0.00    -0.206 F 
ATOM     72  C   UNL A   1      44.074  23.265  26.759  1.00  0.00     0.059 A 
ATOM     73  C   UNL A   1      45.090  25.208  25.806  1.00  0.00     0.059 A 
ATOM     74  F   UNL A   1      44.844  27.268  26.734  1.00  0.00    -0.206 F 
ATOM     75  C   UNL A   1      44.887  23.844  25.794  1.00  0.00     0.060 A 
BRANCH  75  76
ATOM     76  S   UNL A   1      45.664  22.819  24.533  1.00  0.00     0.124 S 
ATOM     77  O   UNL A   1      46.554  23.769  23.872  1.00  0.00    -0.237 OA
ATOM     78  O   UNL A   1      46.315  21.787  25.334  1.00  0.00    -0.237 OA
ATOM     79  O   UNL A   1      44.540  22.357  23.724  1.00  0.00    -0.744 OA
ENDBRANCH  75  76
ENDBRANCH  54  68
BRANCH  55  80
ATOM     80  C   UNL A   1      39.090  32.649  33.074  1.00  0.00     0.058 A 
ATOM     81  C   UNL A   1      38.785  33.916  32.522  1.00  0.00     0.135 A 
ATOM     82  C   UNL A   1      37.999  31.793  33.308  1.00  0.00     0.135 A 
ATOM     83  F   UNL A   1      39.779  34.779  32.253  1.00  0.00    -0.206 F 
ATOM     84  C   UNL A   1      37.504  34.255  32.076  1.00  0.00     0.059 A 
ATOM     85  C   UNL A   1      36.710  32.103  32.846  1.00  0.00     0.059 A 
ATOM     86  F   UNL A   1      38.201  30.574  33.828  1.00  0.00    -0.206 F 
ATOM     87  C   UNL A   1      36.485  33.310  32.177  1.00  0.00     0.060 A 
BRANCH  87  88
ATOM     88  S   UNL A   1      34.989  33.530  31.160  1.00  0.00     0.124 S 
ATOM     89  O   UNL A   1      34.580  34.887  31.494  1.00  0.00    -0.237 OA
ATOM     90  O   UNL A   1      35.495  33.331  29.802  1.00  0.00    -0.237 OA
ATOM     91  O   UNL A   1      34.115  32.461  31.627  1.00  0.00    -0.744 OA
ENDBRANCH  87  88
ENDBRANCH  55  80
BRANCH  67  92
ATOM     92  C   UNL A   1      43.939  27.348  34.328  1.00  0.00     0.058 A 
ATOM     93  C   UNL A   1      43.169  26.306  34.879  1.00  0.00     0.135 A 
ATOM     94  C   UNL A   1      45.327  27.286  34.592  1.00  0.00     0.135 A 
ATOM     95  F   UNL A   1      41.867  26.156  34.603  1.00  0.00    -0.206 F 
ATOM     96  C   UNL A   1      43.714  25.334  35.707  1.00  0.00     0.059 A 
ATOM     97  C   UNL A   1      45.904  26.274  35.350  1.00  0.00     0.059 A 
ATOM     98  F   UNL A   1      46.185  28.190  34.101  1.00  0.00    -0.206 F 
ATOM     99  C   UNL A   1      45.083  25.324  35.935  1.00  0.00     0.060 A 
BRANCH  99 100
ATOM    100  S   UNL A   1      45.776  24.041  36.979  1.00  0.00     0.124 S 
ATOM    101  O   UNL A   1      45.338  24.482  38.299  1.00  0.00    -0.237 OA
ATOM    102  O   UNL A   1      45.129  22.835  36.468  1.00  0.00    -0.237 OA
ATOM    103  O   UNL A   1      47.209  24.133  36.723  1.00  0.00    -0.744 OA
ENDBRANCH  99 100
ENDBRANCH  67  92
ENDBRANCH  41  42
ENDBRANCH  34  36
ENDBRANCH  33  34
ENDBRANCH  32  33
ENDBRANCH   1  32
TORSDOF 20
ENDMDL
MODEL 3
REMARK VINA RESULT:     -11.5      2.217      3.864
REMARK SMILES Cc1cccc(OC2(C(=O)OCCOCCOC(=O)c3ccc(-c4c5nc(c(-c6c(F)cc(S(=O)(=O)[O-])cc6F)c6ccc([nH]6)c(-c6c(F)cc(S(=O)(=O)[O-])cc6F)c6nc(c(-c7c(F)cc(S(=O)(=O)[O-])cc7F)c7ccc4[nH]7)C=C6)C=C5)cc3)CCN(C(=O)c3cnc[nH]c3=O)CC2)c1
REMARK SMILES IDX 15 1 14 2 13 3 12 4 11 5 9 6 10 7 8 8 86 9 99 10 87 11 98 12
REMARK SMILES IDX 88 13 89 14 90 15 7 16 6 17 1 18 2 19 3 20 100 21 4 22 5 23
REMARK SMILES IDX 91 24 92 25 96 26 93 27 95 28 97 29 94 30 16 32 17 33 18 34
REMARK SMILES IDX 19 35 20 36 21 37 85 38 22 39 84 40 23 41 24 42 25 43 78 44
REMARK SMILES IDX 26 45 83 46 77 47 79 48 27 49 82 50 76 51 75 52 28 54 62 55
REMARK SMILES IDX 41 56 61 57 42 58 45 59 60 60 80 61 43 62 44 63 59 65 81 66
REMARK SMILES IDX 46 67 29 68 30 69 39 70 31 71 32 72 38 73 40 74 33 75 34 76
REMARK SMILES IDX 35 77 36 78 37 79 63 80 64 81 73 82 65 83 66 84 72 85 74 86
REMARK SMILES IDX 67 87 68 88 69 89 70 90 71 91 47 92 48 93 57 94 49 95 50 96
REMARK SMILES IDX 56 97 58 98 51 99 52 100 53 101 54 102 55 103
REMARK H PARENT 95 31 79 53 45 64
REMARK Flexibility Score: inf
ROOT
ATOM      1  C   UNL A   1      32.503  29.590  24.386  1.00  0.00     0.202 C 
ENDROOT
BRANCH   1   2
ATOM      2  O   UNL A   1      33.318  28.476  24.107  1.00  0.00    -0.374 OA
BRANCH   2   3
ATOM      3  C   UNL A   1      32.858  27.636  23.063  1.00  0.00     0.202 C 
BRANCH   3   4
ATOM      4  C   UNL A   1      33.986  26.709  22.732  1.00  0.00     0.261 C 
BRANCH   4   5
ATOM      5  O   UNL A   1      33.657  25.260  22.863  1.00  0.00    -0.460 OA
BRANCH   5   6
ATOM      6  C   UNL A   1      34.232  24.113  23.295  1.00  0.00     0.350 C 
ATOM      7  O   UNL A   1      35.408  23.885  23.000  1.00  0.00    -0.247 OA
BRANCH   6   8
ATOM      8  C   UNL A   1      33.382  23.021  23.977  1.00  0.00     0.209 C 
ATOM      9  C   UNL A   1      32.277  22.552  23.035  1.00  0.00     0.082 C 
ATOM     10  C   UNL A   1      34.295  21.804  24.282  1.00  0.00     0.082 C 
ATOM     11  C   UNL A   1      31.549  21.277  23.325  1.00  0.00     0.124 C 
ATOM     12  C   UNL A   1      33.423  20.643  24.777  1.00  0.00     0.124 C 
ATOM     13  N   UNL A   1      32.494  20.266  23.714  1.00  0.00    -0.338 N 
ATOM     14  C   UNL A   1      32.503  19.062  23.030  1.00  0.00     0.261 C 
ATOM     15  O   UNL A   1      32.177  18.901  21.877  1.00  0.00    -0.269 OA
BRANCH   8  16
ATOM     16  O   UNL A   1      32.981  23.389  25.322  1.00  0.00    -0.475 OA
BRANCH  16  17
ATOM     17  C   UNL A   1      32.307  24.552  25.503  1.00  0.00     0.121 A 
ATOM     18  C   UNL A   1      29.099  26.079  24.270  1.00  0.00     0.044 C 
ATOM     19  C   UNL A   1      30.330  25.883  25.097  1.00  0.00    -0.047 A 
ATOM     20  C   UNL A   1      30.797  26.841  25.997  1.00  0.00     0.003 A 
ATOM     21  C   UNL A   1      31.058  24.708  24.926  1.00  0.00     0.050 A 
ATOM     22  C   UNL A   1      32.013  26.646  26.660  1.00  0.00     0.004 A 
ATOM     23  C   UNL A   1      32.779  25.505  26.400  1.00  0.00     0.046 A 
ENDBRANCH  16  17
ENDBRANCH   8  16
BRANCH  14  24
ATOM     24  C   UNL A   1      32.812  17.920  23.901  1.00  0.00     0.123 A 
ATOM     25  C   UNL A   1      32.233  17.789  25.098  1.00  0.00     0.132 A 
ATOM     26  C   UNL A   1      33.713  16.851  23.441  1.00  0.00     0.263 A 
ATOM     27  N   UNL A   1      32.402  16.703  25.926  1.00  0.00    -0.246 NA
ATOM     28  N   UNL A   1      33.815  15.789  24.288  1.00  0.00    -0.312 N 
ATOM     29  O   UNL A   1      34.332  16.879  22.380  1.00  0.00    -0.269 OA
ATOM     30  C   UNL A   1      33.165  15.760  25.486  1.00  0.00     0.199 A 
ATOM     31  H   UNL A   1      34.373  15.022  24.028  1.00  0.00     0.171 HD
ENDBRANCH  14  24
ENDBRANCH   6   8
ENDBRANCH   5   6
ENDBRANCH   4   5
ENDBRANCH   3   4
ENDBRANCH   2   3
ENDBRANCH   1   2
BRANCH   1  32
ATOM     32  C   UNL A   1      32.574  30.087  25.829  1.00  0.00     0.261 C 
BRANCH  32  33
ATOM     33  O   UNL A   1      33.763  29.634  26.508  1.00  0.00    -0.460 OA
BRANCH  33  34
ATOM     34  C   UNL A   1      34.444  30.574  27.228  1.00  0.00     0.338 C 
ATOM     35  O   UNL A   1      34.053  31.719  27.379  1.00  0.00    -0.246 OA
BRANCH  34  36
ATOM     36  C   UNL A   1      35.623  29.988  27.918  1.00  0.00     0.060 A 
ATOM     37  C   UNL A   1      35.600  29.711  29.297  1.00  0.00     0.016 A 
ATOM     38  C   UNL A   1      36.808  29.850  27.200  1.00  0.00     0.016 A 
ATOM     39  C   UNL A   1      36.789  29.396  29.974  1.00  0.00     0.010 A 
ATOM     40  C   UNL A   1      37.988  29.665  27.889  1.00  0.00     0.010 A 
ATOM     41  C   UNL A   1      37.989  29.420  29.273  1.00  0.00    -0.014 A 
BRANCH  41  42
ATOM     42  C   UNL A   1      39.325  29.178  29.821  1.00  0.00     0.031 A 
ATOM     43  C   UNL A   1      39.981  27.908  29.464  1.00  0.00     0.074 A 
ATOM     44  C   UNL A   1      40.058  30.189  30.333  1.00  0.00     0.049 A 
ATOM     45  N   UNL A   1      41.131  27.550  29.909  1.00  0.00    -0.248 NA
ATOM     46  C   UNL A   1      39.364  26.885  28.621  1.00  0.00     0.031 C 
ATOM     47  C   UNL A   1      41.502  30.404  30.262  1.00  0.00     0.029 A 
ATOM     48  N   UNL A   1      39.606  31.344  30.962  1.00  0.00    -0.354 N 
ATOM     49  C   UNL A   1      41.565  26.516  29.118  1.00  0.00     0.074 A 
ATOM     50  C   UNL A   1      40.368  26.011  28.503  1.00  0.00     0.031 C 
ATOM     51  C   UNL A   1      41.840  31.472  31.011  1.00  0.00     0.029 A 
ATOM     52  C   UNL A   1      40.640  31.915  31.706  1.00  0.00     0.049 A 
ATOM     53  H   UNL A   1      38.694  31.705  30.892  1.00  0.00     0.167 HD
ATOM     54  C   UNL A   1      42.911  26.359  28.965  1.00  0.00     0.037 A 
ATOM     55  C   UNL A   1      40.468  32.103  33.041  1.00  0.00     0.037 A 
ATOM     56  C   UNL A   1      43.630  27.239  29.917  1.00  0.00     0.049 A 
ATOM     57  C   UNL A   1      41.372  31.125  33.730  1.00  0.00     0.074 A 
ATOM     58  C   UNL A   1      44.435  28.357  29.775  1.00  0.00     0.029 A 
ATOM     59  N   UNL A   1      43.287  27.196  31.278  1.00  0.00    -0.354 N 
ATOM     60  N   UNL A   1      41.775  30.021  33.156  1.00  0.00    -0.248 NA
ATOM     61  C   UNL A   1      42.044  31.380  34.997  1.00  0.00     0.031 C 
ATOM     62  C   UNL A   1      44.496  29.024  31.040  1.00  0.00     0.029 A 
ATOM     63  C   UNL A   1      43.752  28.304  31.966  1.00  0.00     0.049 A 
ATOM     64  H   UNL A   1      42.777  26.463  31.694  1.00  0.00     0.167 HD
ATOM     65  C   UNL A   1      42.816  29.501  33.856  1.00  0.00     0.074 A 
ATOM     66  C   UNL A   1      42.914  30.354  35.033  1.00  0.00     0.031 C 
ATOM     67  C   UNL A   1      43.547  28.438  33.413  1.00  0.00     0.037 A 
BRANCH  54  68
ATOM     68  C   UNL A   1      43.579  25.575  27.832  1.00  0.00     0.058 A 
ATOM     69  C   UNL A   1      43.699  24.169  27.908  1.00  0.00     0.135 A 
ATOM     70  C   UNL A   1      44.177  26.128  26.673  1.00  0.00     0.135 A 
ATOM     71  F   UNL A   1      43.221  23.487  28.958  1.00  0.00    -0.206 F 
ATOM     72  C   UNL A   1      44.328  23.392  26.921  1.00  0.00     0.059 A 
ATOM     73  C   UNL A   1      44.776  25.373  25.661  1.00  0.00     0.059 A 
ATOM     74  F   UNL A   1      44.266  27.440  26.453  1.00  0.00    -0.206 F 
ATOM     75  C   UNL A   1      44.851  24.001  25.789  1.00  0.00     0.060 A 
BRANCH  75  76
ATOM     76  S   UNL A   1      45.617  23.007  24.497  1.00  0.00     0.124 S 
ATOM     77  O   UNL A   1      46.538  23.958  23.884  1.00  0.00    -0.237 OA
ATOM     78  O   UNL A   1      46.232  21.928  25.264  1.00  0.00    -0.237 OA
ATOM     79  O   UNL A   1      44.491  22.605  23.659  1.00  0.00    -0.744 OA
ENDBRANCH  75  76
ENDBRANCH  54  68
BRANCH  55  80
ATOM     80  C   UNL A   1      39.078  32.567  33.368  1.00  0.00     0.058 A 
ATOM     81  C   UNL A   1      38.758  33.894  32.993  1.00  0.00     0.135 A 
ATOM     82  C   UNL A   1      37.997  31.676  33.489  1.00  0.00     0.135 A 
ATOM     83  F   UNL A   1      39.742  34.796  32.839  1.00  0.00    -0.206 F 
ATOM     84  C   UNL A   1      37.471  34.276  32.601  1.00  0.00     0.059 A 
ATOM     85  C   UNL A   1      36.702  32.032  33.076  1.00  0.00     0.059 A 
ATOM     86  F   UNL A   1      38.213  30.400  33.839  1.00  0.00    -0.206 F 
ATOM     87  C   UNL A   1      36.462  33.316  32.577  1.00  0.00     0.060 A 
BRANCH  87  88
ATOM     88  S   UNL A   1      34.959  33.655  31.605  1.00  0.00     0.124 S 
ATOM     89  O   UNL A   1      35.398  33.380  30.244  1.00  0.00    -0.237 OA
ATOM     90  O   UNL A   1      33.995  32.710  32.169  1.00  0.00    -0.237 OA
ATOM     91  O   UNL A   1      34.672  35.050  31.919  1.00  0.00    -0.744 OA
ENDBRANCH  87  88
ENDBRANCH  55  80
BRANCH  67  92
ATOM     92  C   UNL A   1      44.184  27.455  34.359  1.00  0.00     0.058 A 
ATOM     93  C   UNL A   1      43.471  26.419  34.991  1.00  0.00     0.135 A 
ATOM     94  C   UNL A   1      45.590  27.406  34.507  1.00  0.00     0.135 A 
ATOM     95  F   UNL A   1      42.151  26.256  34.828  1.00  0.00    -0.206 F 
ATOM     96  C   UNL A   1      44.091  25.466  35.788  1.00  0.00     0.059 A 
ATOM     97  C   UNL A   1      46.236  26.413  35.231  1.00  0.00     0.059 A 
ATOM     98  F   UNL A   1      46.397  28.307  33.929  1.00  0.00    -0.206 F 
ATOM     99  C   UNL A   1      45.474  25.469  35.900  1.00  0.00     0.060 A 
BRANCH  99 100
ATOM    100  S   UNL A   1      46.262  24.209  36.905  1.00  0.00     0.124 S 
ATOM    101  O   UNL A   1      47.663  24.389  36.538  1.00  0.00    -0.237 OA
ATOM    102  O   UNL A   1      45.905  24.618  38.261  1.00  0.00    -0.237 OA
ATOM    103  O   UNL A   1      45.641  22.972  36.446  1.00  0.00    -0.744 OA
ENDBRANCH  99 100
ENDBRANCH  67  92
ENDBRANCH  41  42
ENDBRANCH  34  36
ENDBRANCH  33  34
ENDBRANCH  32  33
ENDBRANCH   1  32
TORSDOF 20
ENDMDL
