MODEL 1
REMARK VINA RESULT:      -9.4      0.000      0.000
REMARK SMILES CCN1C[C@@H](C(=O)OCCOCCOC(=O)c2ccc(-c3c4nc(c(-c5c(F)cc(S(=O)(=O)[O-])cc5F)c5ccc([nH]5)c(-c5c(F)cc(S(=O)(=O)[O-])cc5F)c5nc(c(-c6c(F)cc(S(=O)(=O)[O-])cc6F)c6ccc3[nH]6)C=C5)C=C4)cc2)CC1=O
REMARK SMILES IDX 12 1 11 2 10 3 9 4 8 5 6 6 7 7 5 8 3 9 4 10 84 11 83 12
REMARK SMILES IDX 85 13 2 14 1 15 13 16 14 17 15 18 16 19 17 20 18 21 82 22
REMARK SMILES IDX 19 23 81 24 20 25 21 26 22 27 75 28 23 29 80 30 74 31 76 32
REMARK SMILES IDX 24 33 79 34 73 35 72 36 25 38 59 39 38 40 58 41 39 42 42 43
REMARK SMILES IDX 57 44 77 45 40 46 41 47 56 49 78 50 43 51 26 52 27 53 36 54
REMARK SMILES IDX 28 55 29 56 35 57 37 58 30 59 31 60 32 61 33 62 34 63 60 64
REMARK SMILES IDX 61 65 70 66 62 67 63 68 69 69 71 70 64 71 65 72 66 73 67 74
REMARK SMILES IDX 68 75 44 76 45 77 54 78 46 79 47 80 53 81 55 82 48 83 49 84
REMARK SMILES IDX 50 85 51 86 52 87
REMARK H PARENT 76 37 42 48
REMARK Flexibility Score: inf
ROOT
ATOM      1  C   UNL A   1      33.383  34.261  28.338  1.00  0.00     0.202 C 
ENDROOT
BRANCH   1   2
ATOM      2  O   UNL A   1      32.827  34.409  29.644  1.00  0.00    -0.374 OA
BRANCH   2   3
ATOM      3  C   UNL A   1      32.943  35.686  30.272  1.00  0.00     0.202 C 
BRANCH   3   4
ATOM      4  C   UNL A   1      33.661  35.716  31.625  1.00  0.00     0.261 C 
BRANCH   4   5
ATOM      5  O   UNL A   1      34.689  34.713  31.687  1.00  0.00    -0.463 OA
BRANCH   5   6
ATOM      6  C   UNL A   1      34.556  33.793  32.672  1.00  0.00     0.311 C 
ATOM      7  O   UNL A   1      33.490  33.366  33.103  1.00  0.00    -0.252 OA
BRANCH   6   8
ATOM      8  C   UNL A   1      35.872  33.310  33.212  1.00  0.00     0.128 C 
ATOM      9  N   UNL A   1      38.162  33.450  32.901  1.00  0.00    -0.342 N 
ATOM     10  C   UNL A   1      36.971  34.249  32.763  1.00  0.00     0.135 C 
ATOM     11  C   UNL A   1      37.876  32.096  32.980  1.00  0.00     0.223 C 
ATOM     12  C   UNL A   1      36.388  31.936  32.796  1.00  0.00     0.117 C 
ATOM     13  O   UNL A   1      38.665  31.181  33.154  1.00  0.00    -0.275 OA
BRANCH   9  14
ATOM     14  C   UNL A   1      39.477  34.045  33.036  1.00  0.00     0.116 C 
ATOM     15  C   UNL A   1      39.654  34.824  34.328  1.00  0.00     0.027 C 
ENDBRANCH   9  14
ENDBRANCH   6   8
ENDBRANCH   5   6
ENDBRANCH   4   5
ENDBRANCH   3   4
ENDBRANCH   2   3
ENDBRANCH   1   2
BRANCH   1  16
ATOM     16  C   UNL A   1      34.556  33.285  28.173  1.00  0.00     0.261 C 
BRANCH  16  17
ATOM     17  O   UNL A   1      34.437  32.121  29.012  1.00  0.00    -0.460 OA
BRANCH  17  18
ATOM     18  C   UNL A   1      34.408  30.944  28.340  1.00  0.00     0.338 C 
ATOM     19  O   UNL A   1      33.509  30.534  27.616  1.00  0.00    -0.246 OA
BRANCH  18  20
ATOM     20  C   UNL A   1      35.709  30.260  28.437  1.00  0.00     0.060 A 
ATOM     21  C   UNL A   1      36.139  29.867  29.711  1.00  0.00     0.016 A 
ATOM     22  C   UNL A   1      36.537  30.087  27.325  1.00  0.00     0.016 A 
ATOM     23  C   UNL A   1      37.418  29.347  29.889  1.00  0.00     0.010 A 
ATOM     24  C   UNL A   1      37.827  29.573  27.508  1.00  0.00     0.010 A 
ATOM     25  C   UNL A   1      38.285  29.234  28.795  1.00  0.00    -0.014 A 
BRANCH  25  26
ATOM     26  C   UNL A   1      39.714  28.903  29.029  1.00  0.00     0.031 A 
ATOM     27  C   UNL A   1      40.620  29.953  29.614  1.00  0.00     0.074 A 
ATOM     28  C   UNL A   1      40.185  27.671  28.768  1.00  0.00     0.049 A 
ATOM     29  N   UNL A   1      41.900  29.890  29.875  1.00  0.00    -0.248 NA
ATOM     30  C   UNL A   1      39.999  31.245  29.950  1.00  0.00     0.031 C 
ATOM     31  C   UNL A   1      39.396  26.560  28.236  1.00  0.00     0.029 A 
ATOM     32  N   UNL A   1      41.447  27.150  28.908  1.00  0.00    -0.354 N 
ATOM     33  C   UNL A   1      42.239  31.127  30.410  1.00  0.00     0.074 A 
ATOM     34  C   UNL A   1      41.038  31.935  30.402  1.00  0.00     0.031 C 
ATOM     35  C   UNL A   1      40.199  25.493  28.076  1.00  0.00     0.029 A 
ATOM     36  C   UNL A   1      41.560  25.853  28.468  1.00  0.00     0.049 A 
ATOM     37  H   UNL A   1      42.200  27.658  29.288  1.00  0.00     0.167 HD
ATOM     38  C   UNL A   1      43.437  31.550  30.879  1.00  0.00     0.037 A 
ATOM     39  C   UNL A   1      42.643  25.056  28.371  1.00  0.00     0.037 A 
ATOM     40  C   UNL A   1      44.633  30.747  30.877  1.00  0.00     0.049 A 
ATOM     41  C   UNL A   1      43.982  25.568  28.836  1.00  0.00     0.074 A 
ATOM     42  C   UNL A   1      45.900  31.088  31.317  1.00  0.00     0.029 A 
ATOM     43  N   UNL A   1      44.711  29.444  30.409  1.00  0.00    -0.354 N 
ATOM     44  N   UNL A   1      44.285  26.739  29.346  1.00  0.00    -0.248 NA
ATOM     45  C   UNL A   1      45.125  24.652  28.719  1.00  0.00     0.031 C 
ATOM     46  C   UNL A   1      46.752  30.003  31.082  1.00  0.00     0.029 A 
ATOM     47  C   UNL A   1      46.006  28.970  30.538  1.00  0.00     0.049 A 
ATOM     48  H   UNL A   1      43.956  28.930  30.039  1.00  0.00     0.167 HD
ATOM     49  C   UNL A   1      45.646  26.690  29.632  1.00  0.00     0.074 A 
ATOM     50  C   UNL A   1      46.104  25.370  29.251  1.00  0.00     0.031 C 
ATOM     51  C   UNL A   1      46.444  27.649  30.162  1.00  0.00     0.037 A 
BRANCH  38  52
ATOM     52  C   UNL A   1      43.517  32.948  31.424  1.00  0.00     0.058 A 
ATOM     53  C   UNL A   1      43.344  33.213  32.791  1.00  0.00     0.135 A 
ATOM     54  C   UNL A   1      43.805  34.031  30.578  1.00  0.00     0.135 A 
ATOM     55  F   UNL A   1      43.048  32.217  33.641  1.00  0.00    -0.206 F 
ATOM     56  C   UNL A   1      43.432  34.505  33.298  1.00  0.00     0.059 A 
ATOM     57  C   UNL A   1      43.923  35.329  31.067  1.00  0.00     0.059 A 
ATOM     58  F   UNL A   1      43.978  33.834  29.261  1.00  0.00    -0.206 F 
ATOM     59  C   UNL A   1      43.722  35.558  32.427  1.00  0.00     0.060 A 
BRANCH  59  60
ATOM     60  S   UNL A   1      43.841  37.228  33.102  1.00  0.00     0.124 S 
ATOM     61  O   UNL A   1      43.785  38.037  31.889  1.00  0.00    -0.237 OA
ATOM     62  O   UNL A   1      42.667  37.300  33.966  1.00  0.00    -0.237 OA
ATOM     63  O   UNL A   1      45.125  37.224  33.795  1.00  0.00    -0.744 OA
ENDBRANCH  59  60
ENDBRANCH  38  52
BRANCH  39  64
ATOM     64  C   UNL A   1      42.514  23.697  27.781  1.00  0.00     0.058 A 
ATOM     65  C   UNL A   1      42.399  22.557  28.590  1.00  0.00     0.135 A 
ATOM     66  C   UNL A   1      42.514  23.513  26.390  1.00  0.00     0.135 A 
ATOM     67  F   UNL A   1      42.405  22.680  29.927  1.00  0.00    -0.206 F 
ATOM     68  C   UNL A   1      42.307  21.281  28.042  1.00  0.00     0.059 A 
ATOM     69  C   UNL A   1      42.398  22.250  25.818  1.00  0.00     0.059 A 
ATOM     70  F   UNL A   1      42.609  24.572  25.571  1.00  0.00    -0.206 F 
ATOM     71  C   UNL A   1      42.308  21.139  26.653  1.00  0.00     0.060 A 
BRANCH  71  72
ATOM     72  S   UNL A   1      42.147  19.484  25.948  1.00  0.00     0.124 S 
ATOM     73  O   UNL A   1      43.010  19.580  24.775  1.00  0.00    -0.237 OA
ATOM     74  O   UNL A   1      42.635  18.638  27.033  1.00  0.00    -0.237 OA
ATOM     75  O   UNL A   1      40.717  19.375  25.674  1.00  0.00    -0.744 OA
ENDBRANCH  71  72
ENDBRANCH  39  64
BRANCH  51  76
ATOM     76  C   UNL A   1      47.889  27.301  30.395  1.00  0.00     0.058 A 
ATOM     77  C   UNL A   1      48.893  27.675  29.490  1.00  0.00     0.135 A 
ATOM     78  C   UNL A   1      48.277  26.629  31.567  1.00  0.00     0.135 A 
ATOM     79  F   UNL A   1      48.575  28.314  28.354  1.00  0.00    -0.206 F 
ATOM     80  C   UNL A   1      50.232  27.376  29.727  1.00  0.00     0.059 A 
ATOM     81  C   UNL A   1      49.612  26.342  31.835  1.00  0.00     0.059 A 
ATOM     82  F   UNL A   1      47.357  26.257  32.470  1.00  0.00    -0.206 F 
ATOM     83  C   UNL A   1      50.582  26.710  30.903  1.00  0.00     0.060 A 
BRANCH  83  84
ATOM     84  S   UNL A   1      52.325  26.356  31.215  1.00  0.00     0.124 S 
ATOM     85  O   UNL A   1      52.754  27.572  31.897  1.00  0.00    -0.237 OA
ATOM     86  O   UNL A   1      52.256  25.154  32.041  1.00  0.00    -0.237 OA
ATOM     87  O   UNL A   1      52.875  26.158  29.877  1.00  0.00    -0.744 OA
ENDBRANCH  83  84
ENDBRANCH  51  76
ENDBRANCH  25  26
ENDBRANCH  18  20
ENDBRANCH  17  18
ENDBRANCH  16  17
ENDBRANCH   1  16
TORSDOF 18
ENDMDL
MODEL 2
REMARK VINA RESULT:      -9.2      3.040      4.426
REMARK SMILES CCN1C[C@@H](C(=O)OCCOCCOC(=O)c2ccc(-c3c4nc(c(-c5c(F)cc(S(=O)(=O)[O-])cc5F)c5ccc([nH]5)c(-c5c(F)cc(S(=O)(=O)[O-])cc5F)c5nc(c(-c6c(F)cc(S(=O)(=O)[O-])cc6F)c6ccc3[nH]6)C=C5)C=C4)cc2)CC1=O
REMARK SMILES IDX 12 1 11 2 10 3 9 4 8 5 6 6 7 7 5 8 3 9 4 10 84 11 83 12
REMARK SMILES IDX 85 13 2 14 1 15 13 16 14 17 15 18 16 19 17 20 18 21 82 22
REMARK SMILES IDX 19 23 81 24 20 25 21 26 22 27 75 28 23 29 80 30 74 31 76 32
REMARK SMILES IDX 24 33 79 34 73 35 72 36 25 38 59 39 38 40 58 41 39 42 42 43
REMARK SMILES IDX 57 44 77 45 40 46 41 47 56 49 78 50 43 51 26 52 27 53 36 54
REMARK SMILES IDX 28 55 29 56 35 57 37 58 30 59 31 60 32 61 33 62 34 63 60 64
REMARK SMILES IDX 61 65 70 66 62 67 63 68 69 69 71 70 64 71 65 72 66 73 67 74
REMARK SMILES IDX 68 75 44 76 45 77 54 78 46 79 47 80 53 81 55 82 48 83 49 84
REMARK SMILES IDX 50 85 51 86 52 87
REMARK H PARENT 76 37 42 48
REMARK Flexibility Score: inf
ROOT
ATOM      1  C   UNL A   1      35.533  32.105  32.866  1.00  0.00     0.202 C 
ENDROOT
BRANCH   1   2
ATOM      2  O   UNL A   1      36.306  32.346  34.041  1.00  0.00    -0.374 OA
BRANCH   2   3
ATOM      3  C   UNL A   1      36.538  33.705  34.414  1.00  0.00     0.202 C 
BRANCH   3   4
ATOM      4  C   UNL A   1      35.310  34.617  34.458  1.00  0.00     0.261 C 
BRANCH   4   5
ATOM      5  O   UNL A   1      35.355  35.595  33.405  1.00  0.00    -0.463 OA
BRANCH   5   6
ATOM      6  C   UNL A   1      34.226  36.323  33.229  1.00  0.00     0.311 C 
ATOM      7  O   UNL A   1      33.850  37.234  33.959  1.00  0.00    -0.252 OA
BRANCH   6   8
ATOM      8  C   UNL A   1      33.443  35.917  32.013  1.00  0.00     0.128 C 
ATOM      9  N   UNL A   1      33.651  34.958  29.915  1.00  0.00    -0.342 N 
ATOM     10  C   UNL A   1      34.233  34.888  31.232  1.00  0.00     0.135 C 
ATOM     11  C   UNL A   1      32.931  36.128  29.725  1.00  0.00     0.223 C 
ATOM     12  C   UNL A   1      33.098  36.969  30.964  1.00  0.00     0.117 C 
ATOM     13  O   UNL A   1      32.284  36.446  28.741  1.00  0.00    -0.275 OA
BRANCH   9  14
ATOM     14  C   UNL A   1      33.751  33.864  28.970  1.00  0.00     0.116 C 
ATOM     15  C   UNL A   1      34.906  34.016  27.995  1.00  0.00     0.027 C 
ENDBRANCH   9  14
ENDBRANCH   6   8
ENDBRANCH   5   6
ENDBRANCH   4   5
ENDBRANCH   3   4
ENDBRANCH   2   3
ENDBRANCH   1   2
BRANCH   1  16
ATOM     16  C   UNL A   1      36.038  31.029  31.894  1.00  0.00     0.261 C 
BRANCH  16  17
ATOM     17  O   UNL A   1      36.140  31.503  30.539  1.00  0.00    -0.460 OA
BRANCH  17  18
ATOM     18  C   UNL A   1      37.248  32.240  30.282  1.00  0.00     0.338 C 
ATOM     19  O   UNL A   1      37.379  33.448  30.439  1.00  0.00    -0.246 OA
BRANCH  18  20
ATOM     20  C   UNL A   1      38.386  31.366  29.946  1.00  0.00     0.060 A 
ATOM     21  C   UNL A   1      39.460  31.332  30.846  1.00  0.00     0.016 A 
ATOM     22  C   UNL A   1      38.451  30.669  28.739  1.00  0.00     0.016 A 
ATOM     23  C   UNL A   1      40.624  30.642  30.519  1.00  0.00     0.010 A 
ATOM     24  C   UNL A   1      39.626  29.983  28.408  1.00  0.00     0.010 A 
ATOM     25  C   UNL A   1      40.730  29.996  29.281  1.00  0.00    -0.014 A 
BRANCH  25  26
ATOM     26  C   UNL A   1      42.048  29.467  28.847  1.00  0.00     0.031 A 
ATOM     27  C   UNL A   1      43.222  30.405  28.766  1.00  0.00     0.074 A 
ATOM     28  C   UNL A   1      42.207  28.159  28.573  1.00  0.00     0.049 A 
ATOM     29  N   UNL A   1      44.450  30.166  28.388  1.00  0.00    -0.248 NA
ATOM     30  C   UNL A   1      42.977  31.801  29.168  1.00  0.00     0.031 C 
ATOM     31  C   UNL A   1      41.155  27.146  28.652  1.00  0.00     0.029 A 
ATOM     32  N   UNL A   1      43.316  27.462  28.165  1.00  0.00    -0.354 N 
ATOM     33  C   UNL A   1      45.127  31.373  28.509  1.00  0.00     0.074 A 
ATOM     34  C   UNL A   1      44.164  32.354  28.961  1.00  0.00     0.031 C 
ATOM     35  C   UNL A   1      41.666  25.958  28.284  1.00  0.00     0.029 A 
ATOM     36  C   UNL A   1      43.071  26.132  27.918  1.00  0.00     0.049 A 
ATOM     37  H   UNL A   1      44.203  27.875  28.060  1.00  0.00     0.167 HD
ATOM     38  C   UNL A   1      46.435  31.640  28.278  1.00  0.00     0.037 A 
ATOM     39  C   UNL A   1      43.880  25.171  27.430  1.00  0.00     0.037 A 
ATOM     40  C   UNL A   1      47.389  30.664  27.820  1.00  0.00     0.049 A 
ATOM     41  C   UNL A   1      45.317  25.505  27.116  1.00  0.00     0.074 A 
ATOM     42  C   UNL A   1      48.734  30.838  27.544  1.00  0.00     0.029 A 
ATOM     43  N   UNL A   1      47.099  29.331  27.566  1.00  0.00    -0.354 N 
ATOM     44  N   UNL A   1      45.944  26.650  27.243  1.00  0.00    -0.248 NA
ATOM     45  C   UNL A   1      46.157  24.415  26.600  1.00  0.00     0.031 C 
ATOM     46  C   UNL A   1      49.249  29.618  27.090  1.00  0.00     0.029 A 
ATOM     47  C   UNL A   1      48.235  28.675  27.126  1.00  0.00     0.049 A 
ATOM     48  H   UNL A   1      46.215  28.914  27.683  1.00  0.00     0.167 HD
ATOM     49  C   UNL A   1      47.257  26.413  26.845  1.00  0.00     0.074 A 
ATOM     50  C   UNL A   1      47.335  25.012  26.487  1.00  0.00     0.031 C 
ATOM     51  C   UNL A   1      48.300  27.275  26.782  1.00  0.00     0.037 A 
BRANCH  38  52
ATOM     52  C   UNL A   1      46.909  33.047  28.509  1.00  0.00     0.058 A 
ATOM     53  C   UNL A   1      47.423  33.455  29.750  1.00  0.00     0.135 A 
ATOM     54  C   UNL A   1      46.882  33.991  27.470  1.00  0.00     0.135 A 
ATOM     55  F   UNL A   1      47.453  32.597  30.783  1.00  0.00    -0.206 F 
ATOM     56  C   UNL A   1      47.875  34.753  29.960  1.00  0.00     0.059 A 
ATOM     57  C   UNL A   1      47.352  35.289  27.650  1.00  0.00     0.059 A 
ATOM     58  F   UNL A   1      46.398  33.656  26.264  1.00  0.00    -0.206 F 
ATOM     59  C   UNL A   1      47.835  35.664  28.902  1.00  0.00     0.060 A 
BRANCH  59  60
ATOM     60  S   UNL A   1      48.433  37.343  29.188  1.00  0.00     0.124 S 
ATOM     61  O   UNL A   1      47.466  38.130  28.429  1.00  0.00    -0.237 OA
ATOM     62  O   UNL A   1      48.346  37.463  30.641  1.00  0.00    -0.237 OA
ATOM     63  O   UNL A   1      49.787  37.320  28.645  1.00  0.00    -0.744 OA
ENDBRANCH  59  60
ENDBRANCH  38  52
BRANCH  39  64
ATOM     64  C   UNL A   1      43.346  23.807  27.179  1.00  0.00     0.058 A 
ATOM     65  C   UNL A   1      42.974  23.392  25.892  1.00  0.00     0.135 A 
ATOM     66  C   UNL A   1      43.189  22.890  28.230  1.00  0.00     0.135 A 
ATOM     67  F   UNL A   1      43.095  24.237  24.855  1.00  0.00    -0.206 F 
ATOM     68  C   UNL A   1      42.447  22.126  25.657  1.00  0.00     0.059 A 
ATOM     69  C   UNL A   1      42.689  21.610  28.018  1.00  0.00     0.059 A 
ATOM     70  F   UNL A   1      43.542  23.232  29.479  1.00  0.00    -0.206 F 
ATOM     71  C   UNL A   1      42.308  21.241  26.729  1.00  0.00     0.060 A 
BRANCH  71  72
ATOM     72  S   UNL A   1      41.662  19.585  26.411  1.00  0.00     0.124 S 
ATOM     73  O   UNL A   1      40.234  19.849  26.273  1.00  0.00    -0.237 OA
ATOM     74  O   UNL A   1      42.364  19.210  25.188  1.00  0.00    -0.237 OA
ATOM     75  O   UNL A   1      42.056  18.839  27.603  1.00  0.00    -0.744 OA
ENDBRANCH  71  72
ENDBRANCH  39  64
BRANCH  51  76
ATOM     76  C   UNL A   1      49.630  26.726  26.341  1.00  0.00     0.058 A 
ATOM     77  C   UNL A   1      50.078  26.852  25.018  1.00  0.00     0.135 A 
ATOM     78  C   UNL A   1      50.487  26.113  27.270  1.00  0.00     0.135 A 
ATOM     79  F   UNL A   1      49.296  27.427  24.091  1.00  0.00    -0.206 F 
ATOM     80  C   UNL A   1      51.322  26.369  24.624  1.00  0.00     0.059 A 
ATOM     81  C   UNL A   1      51.745  25.644  26.903  1.00  0.00     0.059 A 
ATOM     82  F   UNL A   1      50.110  25.976  28.551  1.00  0.00    -0.206 F 
ATOM     83  C   UNL A   1      52.150  25.768  25.574  1.00  0.00     0.060 A 
BRANCH  83  84
ATOM     84  S   UNL A   1      53.775  25.173  25.058  1.00  0.00     0.124 S 
ATOM     85  O   UNL A   1      53.930  25.828  23.764  1.00  0.00    -0.237 OA
ATOM     86  O   UNL A   1      54.641  25.664  26.126  1.00  0.00    -0.237 OA
ATOM     87  O   UNL A   1      53.607  23.723  25.013  1.00  0.00    -0.744 OA
ENDBRANCH  83  84
ENDBRANCH  51  76
ENDBRANCH  25  26
ENDBRANCH  18  20
ENDBRANCH  17  18
ENDBRANCH  16  17
ENDBRANCH   1  16
TORSDOF 18
ENDMDL
MODEL 3
REMARK VINA RESULT:      -9.1      2.962      9.359
REMARK SMILES CCN1C[C@@H](C(=O)OCCOCCOC(=O)c2ccc(-c3c4nc(c(-c5c(F)cc(S(=O)(=O)[O-])cc5F)c5ccc([nH]5)c(-c5c(F)cc(S(=O)(=O)[O-])cc5F)c5nc(c(-c6c(F)cc(S(=O)(=O)[O-])cc6F)c6ccc3[nH]6)C=C5)C=C4)cc2)CC1=O
REMARK SMILES IDX 12 1 11 2 10 3 9 4 8 5 6 6 7 7 5 8 3 9 4 10 84 11 83 12
REMARK SMILES IDX 85 13 2 14 1 15 13 16 14 17 15 18 16 19 17 20 18 21 82 22
REMARK SMILES IDX 19 23 81 24 20 25 21 26 22 27 75 28 23 29 80 30 74 31 76 32
REMARK SMILES IDX 24 33 79 34 73 35 72 36 25 38 59 39 38 40 58 41 39 42 42 43
REMARK SMILES IDX 57 44 77 45 40 46 41 47 56 49 78 50 43 51 26 52 27 53 36 54
REMARK SMILES IDX 28 55 29 56 35 57 37 58 30 59 31 60 32 61 33 62 34 63 60 64
REMARK SMILES IDX 61 65 70 66 62 67 63 68 69 69 71 70 64 71 65 72 66 73 67 74
REMARK SMILES IDX 68 75 44 76 45 77 54 78 46 79 47 80 53 81 55 82 48 83 49 84
REMARK SMILES IDX 50 85 51 86 52 87
REMARK H PARENT 76 37 42 48
REMARK Flexibility Score: inf
ROOT
ATOM      1  C   UNL A   1      36.797  32.279  32.366  1.00  0.00     0.202 C 
ENDROOT
BRANCH   1   2
ATOM      2  O   UNL A   1      36.481  32.426  33.751  1.00  0.00    -0.374 OA
BRANCH   2   3
ATOM      3  C   UNL A   1      35.322  33.187  34.089  1.00  0.00     0.202 C 
BRANCH   3   4
ATOM      4  C   UNL A   1      35.550  34.666  34.412  1.00  0.00     0.261 C 
BRANCH   4   5
ATOM      5  O   UNL A   1      35.473  35.472  33.223  1.00  0.00    -0.463 OA
BRANCH   5   6
ATOM      6  C   UNL A   1      34.338  36.196  33.075  1.00  0.00     0.311 C 
ATOM      7  O   UNL A   1      33.970  37.096  33.821  1.00  0.00    -0.252 OA
BRANCH   6   8
ATOM      8  C   UNL A   1      33.537  35.799  31.868  1.00  0.00     0.128 C 
ATOM      9  N   UNL A   1      33.726  34.970  29.713  1.00  0.00    -0.342 N 
ATOM     10  C   UNL A   1      34.365  34.873  31.002  1.00  0.00     0.135 C 
ATOM     11  C   UNL A   1      32.919  36.093  29.615  1.00  0.00     0.223 C 
ATOM     12  C   UNL A   1      33.076  36.877  30.892  1.00  0.00     0.117 C 
ATOM     13  O   UNL A   1      32.211  36.415  28.675  1.00  0.00    -0.275 OA
BRANCH   9  14
ATOM     14  C   UNL A   1      33.864  33.938  28.705  1.00  0.00     0.116 C 
ATOM     15  C   UNL A   1      35.310  33.581  28.405  1.00  0.00     0.027 C 
ENDBRANCH   9  14
ENDBRANCH   6   8
ENDBRANCH   5   6
ENDBRANCH   4   5
ENDBRANCH   3   4
ENDBRANCH   2   3
ENDBRANCH   1   2
BRANCH   1  16
ATOM     16  C   UNL A   1      35.832  31.454  31.504  1.00  0.00     0.261 C 
BRANCH  16  17
ATOM     17  O   UNL A   1      36.275  30.099  31.311  1.00  0.00    -0.460 OA
BRANCH  17  18
ATOM     18  C   UNL A   1      36.519  29.765  30.021  1.00  0.00     0.338 C 
ATOM     19  O   UNL A   1      35.689  29.600  29.135  1.00  0.00    -0.246 OA
BRANCH  18  20
ATOM     20  C   UNL A   1      37.966  29.798  29.741  1.00  0.00     0.060 A 
ATOM     21  C   UNL A   1      38.362  29.836  28.398  1.00  0.00     0.016 A 
ATOM     22  C   UNL A   1      38.917  29.698  30.758  1.00  0.00     0.016 A 
ATOM     23  C   UNL A   1      39.709  29.724  28.062  1.00  0.00     0.010 A 
ATOM     24  C   UNL A   1      40.270  29.574  30.418  1.00  0.00     0.010 A 
ATOM     25  C   UNL A   1      40.668  29.551  29.068  1.00  0.00    -0.014 A 
BRANCH  25  26
ATOM     26  C   UNL A   1      42.061  29.199  28.693  1.00  0.00     0.031 A 
ATOM     27  C   UNL A   1      42.374  27.781  28.298  1.00  0.00     0.074 A 
ATOM     28  C   UNL A   1      43.022  30.139  28.660  1.00  0.00     0.049 A 
ATOM     29  N   UNL A   1      43.520  27.249  27.961  1.00  0.00    -0.248 NA
ATOM     30  C   UNL A   1      41.243  26.838  28.278  1.00  0.00     0.031 C 
ATOM     31  C   UNL A   1      42.832  31.553  28.985  1.00  0.00     0.029 A 
ATOM     32  N   UNL A   1      44.354  30.042  28.345  1.00  0.00    -0.354 N 
ATOM     33  C   UNL A   1      43.251  25.913  27.684  1.00  0.00     0.074 A 
ATOM     34  C   UNL A   1      41.840  25.707  27.928  1.00  0.00     0.031 C 
ATOM     35  C   UNL A   1      44.012  32.188  28.871  1.00  0.00     0.029 A 
ATOM     36  C   UNL A   1      45.043  31.223  28.492  1.00  0.00     0.049 A 
ATOM     37  H   UNL A   1      44.777  29.206  28.042  1.00  0.00     0.167 HD
ATOM     38  C   UNL A   1      44.099  24.949  27.254  1.00  0.00     0.037 A 
ATOM     39  C   UNL A   1      46.358  31.488  28.360  1.00  0.00     0.037 A 
ATOM     40  C   UNL A   1      45.505  25.155  27.021  1.00  0.00     0.049 A 
ATOM     41  C   UNL A   1      47.296  30.384  27.944  1.00  0.00     0.074 A 
ATOM     42  C   UNL A   1      46.452  24.238  26.597  1.00  0.00     0.029 A 
ATOM     43  N   UNL A   1      46.169  26.361  27.196  1.00  0.00    -0.354 N 
ATOM     44  N   UNL A   1      47.025  29.128  27.679  1.00  0.00    -0.248 NA
ATOM     45  C   UNL A   1      48.717  30.734  27.802  1.00  0.00     0.031 C 
ATOM     46  C   UNL A   1      47.694  24.882  26.549  1.00  0.00     0.029 A 
ATOM     47  C   UNL A   1      47.513  26.209  26.900  1.00  0.00     0.049 A 
ATOM     48  H   UNL A   1      45.745  27.201  27.487  1.00  0.00     0.167 HD
ATOM     49  C   UNL A   1      48.237  28.544  27.317  1.00  0.00     0.074 A 
ATOM     50  C   UNL A   1      49.237  29.589  27.384  1.00  0.00     0.031 C 
ATOM     51  C   UNL A   1      48.496  27.263  26.962  1.00  0.00     0.037 A 
BRANCH  38  52
ATOM     52  C   UNL A   1      43.530  23.579  27.016  1.00  0.00     0.058 A 
ATOM     53  C   UNL A   1      43.269  23.107  25.719  1.00  0.00     0.135 A 
ATOM     54  C   UNL A   1      43.275  22.712  28.091  1.00  0.00     0.135 A 
ATOM     55  F   UNL A   1      43.478  23.901  24.657  1.00  0.00    -0.206 F 
ATOM     56  C   UNL A   1      42.756  21.834  25.497  1.00  0.00     0.059 A 
ATOM     57  C   UNL A   1      42.784  21.425  27.891  1.00  0.00     0.059 A 
ATOM     58  F   UNL A   1      43.503  23.113  29.351  1.00  0.00    -0.206 F 
ATOM     59  C   UNL A   1      42.516  20.999  26.591  1.00  0.00     0.060 A 
BRANCH  59  60
ATOM     60  S   UNL A   1      41.857  19.346  26.286  1.00  0.00     0.124 S 
ATOM     61  O   UNL A   1      42.313  18.628  27.472  1.00  0.00    -0.237 OA
ATOM     62  O   UNL A   1      40.421  19.592  26.208  1.00  0.00    -0.237 OA
ATOM     63  O   UNL A   1      42.491  18.954  25.032  1.00  0.00    -0.744 OA
ENDBRANCH  59  60
ENDBRANCH  38  52
BRANCH  39  64
ATOM     64  C   UNL A   1      46.873  32.852  28.652  1.00  0.00     0.058 A 
ATOM     65  C   UNL A   1      47.253  33.228  29.949  1.00  0.00     0.135 A 
ATOM     66  C   UNL A   1      46.986  33.812  27.635  1.00  0.00     0.135 A 
ATOM     67  F   UNL A   1      47.153  32.348  30.958  1.00  0.00    -0.206 F 
ATOM     68  C   UNL A   1      47.709  34.512  30.232  1.00  0.00     0.059 A 
ATOM     69  C   UNL A   1      47.463  35.094  27.887  1.00  0.00     0.059 A 
ATOM     70  F   UNL A   1      46.649  33.500  26.374  1.00  0.00    -0.206 F 
ATOM     71  C   UNL A   1      47.810  35.439  29.192  1.00  0.00     0.060 A 
BRANCH  71  72
ATOM     72  S   UNL A   1      48.441  37.091  29.558  1.00  0.00     0.124 S 
ATOM     73  O   UNL A   1      47.208  37.867  29.628  1.00  0.00    -0.237 OA
ATOM     74  O   UNL A   1      49.137  36.881  30.824  1.00  0.00    -0.237 OA
ATOM     75  O   UNL A   1      49.306  37.378  28.417  1.00  0.00    -0.744 OA
ENDBRANCH  71  72
ENDBRANCH  39  64
BRANCH  51  76
ATOM     76  C   UNL A   1      49.911  26.919  26.584  1.00  0.00     0.058 A 
ATOM     77  C   UNL A   1      50.829  26.433  27.527  1.00  0.00     0.135 A 
ATOM     78  C   UNL A   1      50.335  27.028  25.249  1.00  0.00     0.135 A 
ATOM     79  F   UNL A   1      50.476  26.314  28.815  1.00  0.00    -0.206 F 
ATOM     80  C   UNL A   1      52.128  26.088  27.163  1.00  0.00     0.059 A 
ATOM     81  C   UNL A   1      51.621  26.666  24.860  1.00  0.00     0.059 A 
ATOM     82  F   UNL A   1      49.492  27.478  24.306  1.00  0.00    -0.206 F 
ATOM     83  C   UNL A   1      52.514  26.207  25.827  1.00  0.00     0.060 A 
BRANCH  83  84
ATOM     84  S   UNL A   1      54.192  25.727  25.362  1.00  0.00     0.124 S 
ATOM     85  O   UNL A   1      54.133  25.825  23.908  1.00  0.00    -0.237 OA
ATOM     86  O   UNL A   1      55.003  26.737  26.035  1.00  0.00    -0.237 OA
ATOM     87  O   UNL A   1      54.318  24.373  25.896  1.00  0.00    -0.744 OA
ENDBRANCH  83  84
ENDBRANCH  51  76
ENDBRANCH  25  26
ENDBRANCH  18  20
ENDBRANCH  17  18
ENDBRANCH  16  17
ENDBRANCH   1  16
TORSDOF 18
ENDMDL
