MODEL 1
REMARK VINA RESULT:     -10.9      0.000      0.000
REMARK SMILES CSCC[C@H](NC(=O)Cc1c(C)c2ccc(O)cc2oc1=O)C(=O)OCCOCCOC(=O)c1ccc(-c2c3nc(c(-c4c(F)cc(S(=O)(=O)[O-])cc4F)c4ccc([nH]4)c(-c4c(F)cc(S(=O)(=O)[O-])cc4F)c4nc(c(-c5c(F)cc(S(=O)(=O)[O-])cc5F)c5ccc2[nH]5)C=C4)C=C3)cc1
REMARK SMILES IDX 27 1 26 2 25 3 23 4 24 5 5 6 4 7 3 8 2 9 1 10 6 11 7 12 8 14
REMARK SMILES IDX 9 15 10 16 11 17 21 18 12 19 13 20 20 21 22 22 14 23 19 24
REMARK SMILES IDX 15 25 18 26 16 27 17 28 28 30 29 31 30 32 31 33 32 34 33 35
REMARK SMILES IDX 34 36 35 37 99 38 36 39 98 40 37 41 38 42 39 43 92 44 40 45
REMARK SMILES IDX 97 46 91 47 93 48 41 49 96 50 90 51 89 52 42 54 76 55 55 56
REMARK SMILES IDX 75 57 56 58 59 59 74 60 94 61 57 62 58 63 73 65 95 66 60 67
REMARK SMILES IDX 43 68 44 69 53 70 45 71 46 72 52 73 54 74 47 75 48 76 49 77
REMARK SMILES IDX 50 78 51 79 77 80 78 81 87 82 79 83 80 84 86 85 88 86 81 87
REMARK SMILES IDX 82 88 83 89 84 90 85 91 61 92 62 93 71 94 63 95 64 96 70 97
REMARK SMILES IDX 72 98 65 99 66 100 67 101 68 102 69 103
REMARK H PARENT 6 13 17 29 93 53 59 64
REMARK Flexibility Score: inf
ROOT
ATOM      1  C   UNL A   1      33.434  30.004  27.046  1.00  0.00     0.202 C 
ENDROOT
BRANCH   1   2
ATOM      2  C   UNL A   1      32.040  30.364  26.536  1.00  0.00     0.261 C 
BRANCH   2   3
ATOM      3  O   UNL A   1      31.936  29.959  25.158  1.00  0.00    -0.462 OA
BRANCH   3   4
ATOM      4  C   UNL A   1      31.567  28.673  24.959  1.00  0.00     0.328 C 
ATOM      5  O   UNL A   1      31.228  27.900  25.848  1.00  0.00    -0.250 OA
BRANCH   4   6
ATOM      6  C   UNL A   1      31.413  28.340  23.460  1.00  0.00     0.193 C 
BRANCH   6   7
ATOM      7  C   UNL A   1      30.092  27.610  23.190  1.00  0.00     0.048 C 
BRANCH   7   8
ATOM      8  C   UNL A   1      28.947  28.551  22.805  1.00  0.00     0.072 C 
BRANCH   8   9
ATOM      9  S   UNL A   1      29.510  30.184  22.198  1.00  0.00    -0.165 SA
ATOM     10  C   UNL A   1      28.112  30.669  21.157  1.00  0.00     0.085 C 
ENDBRANCH   8   9
ENDBRANCH   7   8
ENDBRANCH   6   7
BRANCH   6  11
ATOM     11  N   UNL A   1      32.528  27.793  22.676  1.00  0.00    -0.342 N 
ATOM     12  C   UNL A   1      32.933  26.530  22.379  1.00  0.00     0.225 C 
ATOM     13  H   UNL A   1      33.104  28.488  22.285  1.00  0.00     0.164 HD
ATOM     14  O   UNL A   1      33.636  26.406  21.372  1.00  0.00    -0.275 OA
BRANCH  12  15
ATOM     15  C   UNL A   1      32.487  25.312  23.184  1.00  0.00     0.143 C 
BRANCH  15  16
ATOM     16  C   UNL A   1      33.627  24.456  23.683  1.00  0.00     0.051 A 
ATOM     17  C   UNL A   1      34.354  24.719  24.790  1.00  0.00    -0.029 A 
ATOM     18  C   UNL A   1      33.875  23.239  22.871  1.00  0.00     0.340 A 
ATOM     19  C   UNL A   1      33.955  25.800  25.760  1.00  0.00     0.046 C 
ATOM     20  C   UNL A   1      35.563  23.913  25.053  1.00  0.00     0.021 A 
ATOM     21  O   UNL A   1      34.987  22.482  23.166  1.00  0.00    -0.422 OA
ATOM     22  O   UNL A   1      33.108  22.918  21.972  1.00  0.00    -0.246 OA
ATOM     23  C   UNL A   1      36.503  24.206  26.051  1.00  0.00     0.016 A 
ATOM     24  C   UNL A   1      35.846  22.836  24.214  1.00  0.00     0.142 A 
ATOM     25  C   UNL A   1      37.684  23.457  26.178  1.00  0.00     0.047 A 
ATOM     26  C   UNL A   1      37.011  22.077  24.326  1.00  0.00     0.094 A 
ATOM     27  C   UNL A   1      37.933  22.409  25.302  1.00  0.00     0.119 A 
BRANCH  27  28
ATOM     28  O   UNL A   1      39.091  21.695  25.352  1.00  0.00    -0.508 OA
ATOM     29  H   UNL A   1      39.105  20.851  25.759  1.00  0.00     0.293 HD
ENDBRANCH  27  28
ENDBRANCH  15  16
ENDBRANCH  12  15
ENDBRANCH   6  11
ENDBRANCH   4   6
ENDBRANCH   3   4
ENDBRANCH   2   3
ENDBRANCH   1   2
BRANCH   1  30
ATOM     30  O   UNL A   1      34.317  31.127  27.143  1.00  0.00    -0.374 OA
BRANCH  30  31
ATOM     31  C   UNL A   1      34.172  31.969  28.287  1.00  0.00     0.202 C 
BRANCH  31  32
ATOM     32  C   UNL A   1      35.154  31.723  29.437  1.00  0.00     0.261 C 
BRANCH  32  33
ATOM     33  O   UNL A   1      35.781  30.433  29.373  1.00  0.00    -0.460 OA
BRANCH  33  34
ATOM     34  C   UNL A   1      36.595  30.140  30.418  1.00  0.00     0.338 C 
ATOM     35  O   UNL A   1      36.247  29.858  31.552  1.00  0.00    -0.246 OA
BRANCH  34  36
ATOM     36  C   UNL A   1      38.003  30.051  29.976  1.00  0.00     0.060 A 
ATOM     37  C   UNL A   1      38.252  29.995  28.600  1.00  0.00     0.016 A 
ATOM     38  C   UNL A   1      39.060  29.957  30.884  1.00  0.00     0.016 A 
ATOM     39  C   UNL A   1      39.550  29.794  28.131  1.00  0.00     0.010 A 
ATOM     40  C   UNL A   1      40.366  29.780  30.411  1.00  0.00     0.010 A 
ATOM     41  C   UNL A   1      40.612  29.645  29.034  1.00  0.00    -0.014 A 
BRANCH  41  42
ATOM     42  C   UNL A   1      41.920  29.141  28.538  1.00  0.00     0.031 A 
ATOM     43  C   UNL A   1      43.077  30.104  28.461  1.00  0.00     0.074 A 
ATOM     44  C   UNL A   1      42.103  27.844  28.224  1.00  0.00     0.049 A 
ATOM     45  N   UNL A   1      44.324  29.882  28.134  1.00  0.00    -0.248 NA
ATOM     46  C   UNL A   1      42.787  31.508  28.799  1.00  0.00     0.031 C 
ATOM     47  C   UNL A   1      41.074  26.807  28.265  1.00  0.00     0.029 A 
ATOM     48  N   UNL A   1      43.234  27.178  27.814  1.00  0.00    -0.354 N 
ATOM     49  C   UNL A   1      44.964  31.112  28.231  1.00  0.00     0.074 A 
ATOM     50  C   UNL A   1      43.960  32.086  28.595  1.00  0.00     0.031 C 
ATOM     51  C   UNL A   1      41.622  25.634  27.900  1.00  0.00     0.029 A 
ATOM     52  C   UNL A   1      43.035  25.838  27.582  1.00  0.00     0.049 A 
ATOM     53  H   UNL A   1      44.105  27.621  27.697  1.00  0.00     0.167 HD
ATOM     54  C   UNL A   1      46.275  31.406  28.057  1.00  0.00     0.037 A 
ATOM     55  C   UNL A   1      43.895  24.887  27.160  1.00  0.00     0.037 A 
ATOM     56  C   UNL A   1      47.277  30.439  27.691  1.00  0.00     0.049 A 
ATOM     57  C   UNL A   1      45.342  25.248  26.922  1.00  0.00     0.074 A 
ATOM     58  C   UNL A   1      48.635  30.636  27.512  1.00  0.00     0.029 A 
ATOM     59  N   UNL A   1      47.030  29.099  27.439  1.00  0.00    -0.354 N 
ATOM     60  N   UNL A   1      45.943  26.405  27.068  1.00  0.00    -0.248 NA
ATOM     61  C   UNL A   1      46.230  24.165  26.474  1.00  0.00     0.031 C 
ATOM     62  C   UNL A   1      49.199  29.426  27.093  1.00  0.00     0.029 A 
ATOM     63  C   UNL A   1      48.206  28.460  27.078  1.00  0.00     0.049 A 
ATOM     64  H   UNL A   1      46.149  28.664  27.504  1.00  0.00     0.167 HD
ATOM     65  C   UNL A   1      47.284  26.181  26.767  1.00  0.00     0.074 A 
ATOM     66  C   UNL A   1      47.407  24.775  26.443  1.00  0.00     0.031 C 
ATOM     67  C   UNL A   1      48.321  27.057  26.762  1.00  0.00     0.037 A 
BRANCH  54  68
ATOM     68  C   UNL A   1      46.696  32.839  28.244  1.00  0.00     0.058 A 
ATOM     69  C   UNL A   1      47.211  33.307  29.465  1.00  0.00     0.135 A 
ATOM     70  C   UNL A   1      46.605  33.752  27.181  1.00  0.00     0.135 A 
ATOM     71  F   UNL A   1      47.302  32.482  30.521  1.00  0.00    -0.206 F 
ATOM     72  C   UNL A   1      47.594  34.633  29.633  1.00  0.00     0.059 A 
ATOM     73  C   UNL A   1      47.011  35.076  27.317  1.00  0.00     0.059 A 
ATOM     74  F   UNL A   1      46.116  33.360  25.993  1.00  0.00    -0.206 F 
ATOM     75  C   UNL A   1      47.492  35.510  28.552  1.00  0.00     0.060 A 
BRANCH  75  76
ATOM     76  S   UNL A   1      48.004  37.225  28.783  1.00  0.00     0.124 S 
ATOM     77  O   UNL A   1      49.410  37.165  28.395  1.00  0.00    -0.237 OA
ATOM     78  O   UNL A   1      47.123  37.939  27.863  1.00  0.00    -0.237 OA
ATOM     79  O   UNL A   1      47.755  37.469  30.200  1.00  0.00    -0.744 OA
ENDBRANCH  75  76
ENDBRANCH  54  68
BRANCH  55  80
ATOM     80  C   UNL A   1      43.419  23.493  26.941  1.00  0.00     0.058 A 
ATOM     81  C   UNL A   1      43.208  22.616  28.017  1.00  0.00     0.135 A 
ATOM     82  C   UNL A   1      43.184  23.002  25.647  1.00  0.00     0.135 A 
ATOM     83  F   UNL A   1      43.433  23.028  29.272  1.00  0.00    -0.206 F 
ATOM     84  C   UNL A   1      42.799  21.300  27.818  1.00  0.00     0.059 A 
ATOM     85  C   UNL A   1      42.746  21.699  25.424  1.00  0.00     0.059 A 
ATOM     86  F   UNL A   1      43.363  23.799  24.582  1.00  0.00    -0.206 F 
ATOM     87  C   UNL A   1      42.566  20.853  26.516  1.00  0.00     0.060 A 
BRANCH  87  88
ATOM     88  S   UNL A   1      41.979  19.162  26.273  1.00  0.00     0.124 S 
ATOM     89  O   UNL A   1      42.885  18.679  25.238  1.00  0.00    -0.237 OA
ATOM     90  O   UNL A   1      42.157  18.583  27.601  1.00  0.00    -0.237 OA
ATOM     91  O   UNL A   1      40.589  19.345  25.861  1.00  0.00    -0.744 OA
ENDBRANCH  87  88
ENDBRANCH  55  80
BRANCH  67  92
ATOM     92  C   UNL A   1      49.692  26.517  26.443  1.00  0.00     0.058 A 
ATOM     93  C   UNL A   1      50.189  26.473  25.131  1.00  0.00     0.135 A 
ATOM     94  C   UNL A   1      50.534  26.067  27.474  1.00  0.00     0.135 A 
ATOM     95  F   UNL A   1      49.430  26.891  24.105  1.00  0.00    -0.206 F 
ATOM     96  C   UNL A   1      51.452  25.961  24.848  1.00  0.00     0.059 A 
ATOM     97  C   UNL A   1      51.813  25.584  27.218  1.00  0.00     0.059 A 
ATOM     98  F   UNL A   1      50.120  26.102  28.750  1.00  0.00    -0.206 F 
ATOM     99  C   UNL A   1      52.257  25.516  25.898  1.00  0.00     0.060 A 
BRANCH  99 100
ATOM    100  S   UNL A   1      53.892  24.853  25.518  1.00  0.00     0.124 S 
ATOM    101  O   UNL A   1      54.575  25.002  26.799  1.00  0.00    -0.237 OA
ATOM    102  O   UNL A   1      53.589  23.483  25.117  1.00  0.00    -0.237 OA
ATOM    103  O   UNL A   1      54.372  25.722  24.448  1.00  0.00    -0.744 OA
ENDBRANCH  99 100
ENDBRANCH  67  92
ENDBRANCH  41  42
ENDBRANCH  34  36
ENDBRANCH  33  34
ENDBRANCH  32  33
ENDBRANCH  31  32
ENDBRANCH  30  31
ENDBRANCH   1  30
TORSDOF 24
ENDMDL
MODEL 2
REMARK VINA RESULT:     -10.6      1.248      2.154
REMARK SMILES CSCC[C@H](NC(=O)Cc1c(C)c2ccc(O)cc2oc1=O)C(=O)OCCOCCOC(=O)c1ccc(-c2c3nc(c(-c4c(F)cc(S(=O)(=O)[O-])cc4F)c4ccc([nH]4)c(-c4c(F)cc(S(=O)(=O)[O-])cc4F)c4nc(c(-c5c(F)cc(S(=O)(=O)[O-])cc5F)c5ccc2[nH]5)C=C4)C=C3)cc1
REMARK SMILES IDX 27 1 26 2 25 3 23 4 24 5 5 6 4 7 3 8 2 9 1 10 6 11 7 12 8 14
REMARK SMILES IDX 9 15 10 16 11 17 21 18 12 19 13 20 20 21 22 22 14 23 19 24
REMARK SMILES IDX 15 25 18 26 16 27 17 28 28 30 29 31 30 32 31 33 32 34 33 35
REMARK SMILES IDX 34 36 35 37 99 38 36 39 98 40 37 41 38 42 39 43 92 44 40 45
REMARK SMILES IDX 97 46 91 47 93 48 41 49 96 50 90 51 89 52 42 54 76 55 55 56
REMARK SMILES IDX 75 57 56 58 59 59 74 60 94 61 57 62 58 63 73 65 95 66 60 67
REMARK SMILES IDX 43 68 44 69 53 70 45 71 46 72 52 73 54 74 47 75 48 76 49 77
REMARK SMILES IDX 50 78 51 79 77 80 78 81 87 82 79 83 80 84 86 85 88 86 81 87
REMARK SMILES IDX 82 88 83 89 84 90 85 91 61 92 62 93 71 94 63 95 64 96 70 97
REMARK SMILES IDX 72 98 65 99 66 100 67 101 68 102 69 103
REMARK H PARENT 6 13 17 29 93 53 59 64
REMARK Flexibility Score: inf
ROOT
ATOM      1  C   UNL A   1      34.094  29.742  27.593  1.00  0.00     0.202 C 
ENDROOT
BRANCH   1   2
ATOM      2  C   UNL A   1      33.565  29.193  26.269  1.00  0.00     0.261 C 
BRANCH   2   3
ATOM      3  O   UNL A   1      32.127  29.142  26.336  1.00  0.00    -0.462 OA
BRANCH   3   4
ATOM      4  C   UNL A   1      31.615  28.076  26.992  1.00  0.00     0.328 C 
ATOM      5  O   UNL A   1      31.200  28.102  28.146  1.00  0.00    -0.250 OA
BRANCH   4   6
ATOM      6  C   UNL A   1      31.409  26.864  26.059  1.00  0.00     0.193 C 
BRANCH   6   7
ATOM      7  C   UNL A   1      30.483  27.219  24.890  1.00  0.00     0.048 C 
BRANCH   7   8
ATOM      8  C   UNL A   1      31.234  27.513  23.589  1.00  0.00     0.072 C 
BRANCH   8   9
ATOM      9  S   UNL A   1      30.372  28.698  22.492  1.00  0.00    -0.165 SA
ATOM     10  C   UNL A   1      29.901  29.985  23.673  1.00  0.00     0.085 C 
ENDBRANCH   8   9
ENDBRANCH   7   8
ENDBRANCH   6   7
BRANCH   6  11
ATOM     11  N   UNL A   1      31.153  25.520  26.592  1.00  0.00    -0.342 N 
ATOM     12  C   UNL A   1      31.558  24.275  26.228  1.00  0.00     0.225 C 
ATOM     13  H   UNL A   1      30.562  25.521  27.379  1.00  0.00     0.164 HD
ATOM     14  O   UNL A   1      31.522  23.410  27.107  1.00  0.00    -0.275 OA
BRANCH  12  15
ATOM     15  C   UNL A   1      32.107  23.963  24.837  1.00  0.00     0.143 C 
BRANCH  15  16
ATOM     16  C   UNL A   1      33.559  23.544  24.832  1.00  0.00     0.051 A 
ATOM     17  C   UNL A   1      33.989  22.274  24.673  1.00  0.00    -0.029 A 
ATOM     18  C   UNL A   1      34.517  24.669  24.972  1.00  0.00     0.340 A 
ATOM     19  C   UNL A   1      33.050  21.165  24.277  1.00  0.00     0.046 C 
ATOM     20  C   UNL A   1      35.419  21.977  24.887  1.00  0.00     0.021 A 
ATOM     21  O   UNL A   1      35.851  24.363  25.126  1.00  0.00    -0.422 OA
ATOM     22  O   UNL A   1      34.130  25.830  24.945  1.00  0.00    -0.246 OA
ATOM     23  C   UNL A   1      35.955  20.683  24.944  1.00  0.00     0.016 A 
ATOM     24  C   UNL A   1      36.294  23.035  25.128  1.00  0.00     0.142 A 
ATOM     25  C   UNL A   1      37.307  20.470  25.253  1.00  0.00     0.047 A 
ATOM     26  C   UNL A   1      37.643  22.846  25.434  1.00  0.00     0.094 A 
ATOM     27  C   UNL A   1      38.135  21.555  25.511  1.00  0.00     0.119 A 
BRANCH  27  28
ATOM     28  O   UNL A   1      39.437  21.392  25.873  1.00  0.00    -0.508 OA
ATOM     29  H   UNL A   1      39.880  22.069  26.345  1.00  0.00     0.293 HD
ENDBRANCH  27  28
ENDBRANCH  15  16
ENDBRANCH  12  15
ENDBRANCH   6  11
ENDBRANCH   4   6
ENDBRANCH   3   4
ENDBRANCH   2   3
ENDBRANCH   1   2
BRANCH   1  30
ATOM     30  O   UNL A   1      34.764  31.001  27.465  1.00  0.00    -0.374 OA
BRANCH  30  31
ATOM     31  C   UNL A   1      34.207  32.108  28.174  1.00  0.00     0.202 C 
BRANCH  31  32
ATOM     32  C   UNL A   1      34.948  32.540  29.443  1.00  0.00     0.261 C 
BRANCH  32  33
ATOM     33  O   UNL A   1      36.351  32.239  29.403  1.00  0.00    -0.460 OA
BRANCH  33  34
ATOM     34  C   UNL A   1      36.777  31.369  30.353  1.00  0.00     0.338 C 
ATOM     35  O   UNL A   1      36.248  31.155  31.430  1.00  0.00    -0.246 OA
BRANCH  34  36
ATOM     36  C   UNL A   1      37.917  30.569  29.857  1.00  0.00     0.060 A 
ATOM     37  C   UNL A   1      38.919  30.225  30.773  1.00  0.00     0.016 A 
ATOM     38  C   UNL A   1      38.044  30.214  28.513  1.00  0.00     0.016 A 
ATOM     39  C   UNL A   1      40.071  29.572  30.336  1.00  0.00     0.010 A 
ATOM     40  C   UNL A   1      39.190  29.536  28.080  1.00  0.00     0.010 A 
ATOM     41  C   UNL A   1      40.234  29.258  28.980  1.00  0.00    -0.014 A 
BRANCH  41  42
ATOM     42  C   UNL A   1      41.573  28.839  28.489  1.00  0.00     0.031 A 
ATOM     43  C   UNL A   1      42.668  29.874  28.422  1.00  0.00     0.074 A 
ATOM     44  C   UNL A   1      41.840  27.558  28.171  1.00  0.00     0.049 A 
ATOM     45  N   UNL A   1      43.928  29.732  28.100  1.00  0.00    -0.248 NA
ATOM     46  C   UNL A   1      42.289  31.255  28.764  1.00  0.00     0.031 C 
ATOM     47  C   UNL A   1      40.878  26.458  28.202  1.00  0.00     0.029 A 
ATOM     48  N   UNL A   1      43.012  26.966  27.764  1.00  0.00    -0.354 N 
ATOM     49  C   UNL A   1      44.489  31.000  28.206  1.00  0.00     0.074 A 
ATOM     50  C   UNL A   1      43.424  31.907  28.568  1.00  0.00     0.031 C 
ATOM     51  C   UNL A   1      41.500  25.323  27.836  1.00  0.00     0.029 A 
ATOM     52  C   UNL A   1      42.900  25.617  27.525  1.00  0.00     0.049 A 
ATOM     53  H   UNL A   1      43.854  27.463  27.653  1.00  0.00     0.167 HD
ATOM     54  C   UNL A   1      45.780  31.376  28.040  1.00  0.00     0.037 A 
ATOM     55  C   UNL A   1      43.819  24.724  27.103  1.00  0.00     0.037 A 
ATOM     56  C   UNL A   1      46.843  30.476  27.675  1.00  0.00     0.049 A 
ATOM     57  C   UNL A   1      45.242  25.176  26.874  1.00  0.00     0.074 A 
ATOM     58  C   UNL A   1      48.186  30.758  27.503  1.00  0.00     0.029 A 
ATOM     59  N   UNL A   1      46.682  29.124  27.415  1.00  0.00    -0.354 N 
ATOM     60  N   UNL A   1      45.768  26.369  27.028  1.00  0.00    -0.248 NA
ATOM     61  C   UNL A   1      46.199  24.153  26.427  1.00  0.00     0.031 C 
ATOM     62  C   UNL A   1      48.828  29.588  27.082  1.00  0.00     0.029 A 
ATOM     63  C   UNL A   1      47.897  28.562  27.058  1.00  0.00     0.049 A 
ATOM     64  H   UNL A   1      45.829  28.634  27.475  1.00  0.00     0.167 HD
ATOM     65  C   UNL A   1      47.122  26.231  26.733  1.00  0.00     0.074 A 
ATOM     66  C   UNL A   1      47.335  24.837  26.405  1.00  0.00     0.031 C 
ATOM     67  C   UNL A   1      48.102  27.171  26.737  1.00  0.00     0.037 A 
BRANCH  54  68
ATOM     68  C   UNL A   1      46.108  32.832  28.234  1.00  0.00     0.058 A 
ATOM     69  C   UNL A   1      46.036  33.755  27.177  1.00  0.00     0.135 A 
ATOM     70  C   UNL A   1      46.478  33.316  29.499  1.00  0.00     0.135 A 
ATOM     71  F   UNL A   1      45.707  33.345  25.941  1.00  0.00    -0.206 F 
ATOM     72  C   UNL A   1      46.345  35.098  27.362  1.00  0.00     0.059 A 
ATOM     73  C   UNL A   1      46.760  34.661  29.714  1.00  0.00     0.059 A 
ATOM     74  F   UNL A   1      46.566  32.477  30.544  1.00  0.00    -0.206 F 
ATOM     75  C   UNL A   1      46.704  35.543  28.635  1.00  0.00     0.060 A 
BRANCH  75  76
ATOM     76  S   UNL A   1      47.090  37.291  28.861  1.00  0.00     0.124 S 
ATOM     77  O   UNL A   1      48.362  37.404  28.153  1.00  0.00    -0.237 OA
ATOM     78  O   UNL A   1      45.951  37.946  28.226  1.00  0.00    -0.237 OA
ATOM     79  O   UNL A   1      47.166  37.440  30.311  1.00  0.00    -0.744 OA
ENDBRANCH  75  76
ENDBRANCH  54  68
BRANCH  55  80
ATOM     80  C   UNL A   1      43.433  23.304  26.877  1.00  0.00     0.058 A 
ATOM     81  C   UNL A   1      43.263  22.790  25.582  1.00  0.00     0.135 A 
ATOM     82  C   UNL A   1      43.206  22.434  27.956  1.00  0.00     0.135 A 
ATOM     83  F   UNL A   1      43.450  23.582  24.517  1.00  0.00    -0.206 F 
ATOM     84  C   UNL A   1      42.866  21.474  25.364  1.00  0.00     0.059 A 
ATOM     85  C   UNL A   1      42.837  21.106  27.763  1.00  0.00     0.059 A 
ATOM     86  F   UNL A   1      43.361  22.870  29.216  1.00  0.00    -0.206 F 
ATOM     87  C   UNL A   1      42.660  20.638  26.463  1.00  0.00     0.060 A 
BRANCH  87  88
ATOM     88  S   UNL A   1      42.202  18.916  26.167  1.00  0.00     0.124 S 
ATOM     89  O   UNL A   1      40.813  19.045  25.747  1.00  0.00    -0.237 OA
ATOM     90  O   UNL A   1      43.151  18.521  25.131  1.00  0.00    -0.237 OA
ATOM     91  O   UNL A   1      42.413  18.284  27.468  1.00  0.00    -0.744 OA
ENDBRANCH  87  88
ENDBRANCH  55  80
BRANCH  67  92
ATOM     92  C   UNL A   1      49.505  26.719  26.423  1.00  0.00     0.058 A 
ATOM     93  C   UNL A   1      50.035  26.778  25.124  1.00  0.00     0.135 A 
ATOM     94  C   UNL A   1      50.346  26.252  27.448  1.00  0.00     0.135 A 
ATOM     95  F   UNL A   1      49.279  27.218  24.105  1.00  0.00    -0.206 F 
ATOM     96  C   UNL A   1      51.329  26.348  24.845  1.00  0.00     0.059 A 
ATOM     97  C   UNL A   1      51.654  25.848  27.197  1.00  0.00     0.059 A 
ATOM     98  F   UNL A   1      49.901  26.189  28.712  1.00  0.00    -0.206 F 
ATOM     99  C   UNL A   1      52.130  25.881  25.888  1.00  0.00     0.060 A 
BRANCH  99 100
ATOM    100  S   UNL A   1      53.806  25.324  25.512  1.00  0.00     0.124 S 
ATOM    101  O   UNL A   1      54.322  26.448  24.737  1.00  0.00    -0.237 OA
ATOM    102  O   UNL A   1      54.384  25.152  26.841  1.00  0.00    -0.237 OA
ATOM    103  O   UNL A   1      53.594  24.090  24.762  1.00  0.00    -0.744 OA
ENDBRANCH  99 100
ENDBRANCH  67  92
ENDBRANCH  41  42
ENDBRANCH  34  36
ENDBRANCH  33  34
ENDBRANCH  32  33
ENDBRANCH  31  32
ENDBRANCH  30  31
ENDBRANCH   1  30
TORSDOF 24
ENDMDL
MODEL 3
REMARK VINA RESULT:     -10.4      6.173      8.449
REMARK SMILES CSCC[C@H](NC(=O)Cc1c(C)c2ccc(O)cc2oc1=O)C(=O)OCCOCCOC(=O)c1ccc(-c2c3nc(c(-c4c(F)cc(S(=O)(=O)[O-])cc4F)c4ccc([nH]4)c(-c4c(F)cc(S(=O)(=O)[O-])cc4F)c4nc(c(-c5c(F)cc(S(=O)(=O)[O-])cc5F)c5ccc2[nH]5)C=C4)C=C3)cc1
REMARK SMILES IDX 27 1 26 2 25 3 23 4 24 5 5 6 4 7 3 8 2 9 1 10 6 11 7 12 8 14
REMARK SMILES IDX 9 15 10 16 11 17 21 18 12 19 13 20 20 21 22 22 14 23 19 24
REMARK SMILES IDX 15 25 18 26 16 27 17 28 28 30 29 31 30 32 31 33 32 34 33 35
REMARK SMILES IDX 34 36 35 37 99 38 36 39 98 40 37 41 38 42 39 43 92 44 40 45
REMARK SMILES IDX 97 46 91 47 93 48 41 49 96 50 90 51 89 52 42 54 76 55 55 56
REMARK SMILES IDX 75 57 56 58 59 59 74 60 94 61 57 62 58 63 73 65 95 66 60 67
REMARK SMILES IDX 43 68 44 69 53 70 45 71 46 72 52 73 54 74 47 75 48 76 49 77
REMARK SMILES IDX 50 78 51 79 77 80 78 81 87 82 79 83 80 84 86 85 88 86 81 87
REMARK SMILES IDX 82 88 83 89 84 90 85 91 61 92 62 93 71 94 63 95 64 96 70 97
REMARK SMILES IDX 72 98 65 99 66 100 67 101 68 102 69 103
REMARK H PARENT 6 13 17 29 93 53 59 64
REMARK Flexibility Score: inf
ROOT
ATOM      1  C   UNL A   1      33.992  28.855  27.131  1.00  0.00     0.202 C 
ENDROOT
BRANCH   1   2
ATOM      2  C   UNL A   1      33.185  27.658  26.631  1.00  0.00     0.261 C 
BRANCH   2   3
ATOM      3  O   UNL A   1      33.931  27.007  25.585  1.00  0.00    -0.462 OA
BRANCH   3   4
ATOM      4  C   UNL A   1      33.638  27.410  24.327  1.00  0.00     0.328 C 
ATOM      5  O   UNL A   1      34.004  28.471  23.833  1.00  0.00    -0.250 OA
BRANCH   4   6
ATOM      6  C   UNL A   1      32.968  26.292  23.501  1.00  0.00     0.193 C 
BRANCH   6   7
ATOM      7  C   UNL A   1      31.709  25.767  24.200  1.00  0.00     0.048 C 
BRANCH   7   8
ATOM      8  C   UNL A   1      30.486  25.708  23.282  1.00  0.00     0.072 C 
BRANCH   8   9
ATOM      9  S   UNL A   1      29.075  26.715  23.869  1.00  0.00    -0.165 SA
ATOM     10  C   UNL A   1      29.460  28.320  23.128  1.00  0.00     0.085 C 
ENDBRANCH   8   9
ENDBRANCH   7   8
ENDBRANCH   6   7
BRANCH   6  11
ATOM     11  N   UNL A   1      33.756  25.219  22.880  1.00  0.00    -0.342 N 
ATOM     12  C   UNL A   1      34.062  23.948  23.250  1.00  0.00     0.225 C 
ATOM     13  H   UNL A   1      34.147  25.476  22.014  1.00  0.00     0.164 HD
ATOM     14  O   UNL A   1      34.376  23.175  22.340  1.00  0.00    -0.275 OA
BRANCH  12  15
ATOM     15  C   UNL A   1      33.948  23.461  24.693  1.00  0.00     0.143 C 
BRANCH  15  16
ATOM     16  C   UNL A   1      33.704  21.975  24.821  1.00  0.00     0.051 A 
ATOM     17  C   UNL A   1      34.676  21.038  24.843  1.00  0.00    -0.029 A 
ATOM     18  C   UNL A   1      32.275  21.604  24.972  1.00  0.00     0.340 A 
ATOM     19  C   UNL A   1      36.132  21.412  24.948  1.00  0.00     0.046 C 
ATOM     20  C   UNL A   1      34.292  19.615  24.772  1.00  0.00     0.021 A 
ATOM     21  O   UNL A   1      31.950  20.266  24.946  1.00  0.00    -0.422 OA
ATOM     22  O   UNL A   1      31.416  22.464  25.122  1.00  0.00    -0.246 OA
ATOM     23  C   UNL A   1      35.200  18.562  24.593  1.00  0.00     0.016 A 
ATOM     24  C   UNL A   1      32.938  19.284  24.804  1.00  0.00     0.142 A 
ATOM     25  C   UNL A   1      34.756  17.241  24.430  1.00  0.00     0.047 A 
ATOM     26  C   UNL A   1      32.475  17.977  24.648  1.00  0.00     0.094 A 
ATOM     27  C   UNL A   1      33.395  16.964  24.443  1.00  0.00     0.119 A 
BRANCH  27  28
ATOM     28  O   UNL A   1      32.919  15.706  24.230  1.00  0.00    -0.508 OA
ATOM     29  H   UNL A   1      32.044  15.487  24.485  1.00  0.00     0.293 HD
ENDBRANCH  27  28
ENDBRANCH  15  16
ENDBRANCH  12  15
ENDBRANCH   6  11
ENDBRANCH   4   6
ENDBRANCH   3   4
ENDBRANCH   2   3
ENDBRANCH   1   2
BRANCH   1  30
ATOM     30  O   UNL A   1      33.414  30.120  26.786  1.00  0.00    -0.374 OA
BRANCH  30  31
ATOM     31  C   UNL A   1      33.773  31.239  27.596  1.00  0.00     0.202 C 
BRANCH  31  32
ATOM     32  C   UNL A   1      32.765  32.391  27.643  1.00  0.00     0.261 C 
BRANCH  32  33
ATOM     33  O   UNL A   1      33.372  33.675  27.431  1.00  0.00    -0.460 OA
BRANCH  33  34
ATOM     34  C   UNL A   1      33.389  34.487  28.519  1.00  0.00     0.338 C 
ATOM     35  O   UNL A   1      32.527  35.287  28.840  1.00  0.00    -0.246 OA
BRANCH  34  36
ATOM     36  C   UNL A   1      34.544  34.176  29.387  1.00  0.00     0.060 A 
ATOM     37  C   UNL A   1      35.823  34.253  28.823  1.00  0.00     0.016 A 
ATOM     38  C   UNL A   1      34.385  33.752  30.708  1.00  0.00     0.016 A 
ATOM     39  C   UNL A   1      36.939  33.859  29.561  1.00  0.00     0.010 A 
ATOM     40  C   UNL A   1      35.508  33.379  31.456  1.00  0.00     0.010 A 
ATOM     41  C   UNL A   1      36.787  33.381  30.870  1.00  0.00    -0.014 A 
BRANCH  41  42
ATOM     42  C   UNL A   1      37.929  32.694  31.529  1.00  0.00     0.031 A 
ATOM     43  C   UNL A   1      38.387  33.196  32.875  1.00  0.00     0.074 A 
ATOM     44  C   UNL A   1      38.508  31.608  30.984  1.00  0.00     0.049 A 
ATOM     45  N   UNL A   1      39.307  32.716  33.672  1.00  0.00    -0.248 NA
ATOM     46  C   UNL A   1      37.717  34.401  33.391  1.00  0.00     0.031 C 
ATOM     47  C   UNL A   1      38.154  31.014  29.696  1.00  0.00     0.029 A 
ATOM     48  N   UNL A   1      39.519  30.805  31.457  1.00  0.00    -0.354 N 
ATOM     49  C   UNL A   1      39.322  33.556  34.780  1.00  0.00     0.074 A 
ATOM     50  C   UNL A   1      38.359  34.605  34.530  1.00  0.00     0.031 C 
ATOM     51  C   UNL A   1      38.933  29.937  29.484  1.00  0.00     0.029 A 
ATOM     52  C   UNL A   1      39.852  29.775  30.610  1.00  0.00     0.049 A 
ATOM     53  H   UNL A   1      39.964  30.956  32.322  1.00  0.00     0.167 HD
ATOM     54  C   UNL A   1      40.052  33.454  35.916  1.00  0.00     0.037 A 
ATOM     55  C   UNL A   1      40.792  28.813  30.731  1.00  0.00     0.037 A 
ATOM     56  C   UNL A   1      41.015  32.413  36.166  1.00  0.00     0.049 A 
ATOM     57  C   UNL A   1      41.631  28.749  31.984  1.00  0.00     0.074 A 
ATOM     58  C   UNL A   1      41.789  32.213  37.295  1.00  0.00     0.029 A 
ATOM     59  N   UNL A   1      41.342  31.405  35.272  1.00  0.00    -0.354 N 
ATOM     60  N   UNL A   1      41.597  29.520  33.046  1.00  0.00    -0.248 NA
ATOM     61  C   UNL A   1      42.629  27.672  32.060  1.00  0.00     0.031 C 
ATOM     62  C   UNL A   1      42.628  31.117  37.060  1.00  0.00     0.029 A 
ATOM     63  C   UNL A   1      42.327  30.595  35.813  1.00  0.00     0.049 A 
ATOM     64  H   UNL A   1      40.935  31.283  34.384  1.00  0.00     0.167 HD
ATOM     65  C   UNL A   1      42.541  29.000  33.928  1.00  0.00     0.074 A 
ATOM     66  C   UNL A   1      43.118  27.840  33.281  1.00  0.00     0.031 C 
ATOM     67  C   UNL A   1      42.894  29.438  35.164  1.00  0.00     0.037 A 
BRANCH  54  68
ATOM     68  C   UNL A   1      39.849  34.511  36.968  1.00  0.00     0.058 A 
ATOM     69  C   UNL A   1      38.965  34.325  38.044  1.00  0.00     0.135 A 
ATOM     70  C   UNL A   1      40.565  35.717  36.913  1.00  0.00     0.135 A 
ATOM     71  F   UNL A   1      38.239  33.199  38.136  1.00  0.00    -0.206 F 
ATOM     72  C   UNL A   1      38.778  35.307  39.011  1.00  0.00     0.059 A 
ATOM     73  C   UNL A   1      40.418  36.701  37.886  1.00  0.00     0.059 A 
ATOM     74  F   UNL A   1      41.422  35.950  35.905  1.00  0.00    -0.206 F 
ATOM     75  C   UNL A   1      39.511  36.491  38.925  1.00  0.00     0.060 A 
BRANCH  75  76
ATOM     76  S   UNL A   1      39.266  37.751  40.193  1.00  0.00     0.124 S 
ATOM     77  O   UNL A   1      38.139  38.502  39.647  1.00  0.00    -0.237 OA
ATOM     78  O   UNL A   1      38.978  36.948  41.378  1.00  0.00    -0.237 OA
ATOM     79  O   UNL A   1      40.540  38.464  40.218  1.00  0.00    -0.744 OA
ENDBRANCH  75  76
ENDBRANCH  54  68
BRANCH  55  80
ATOM     80  C   UNL A   1      40.988  27.819  29.639  1.00  0.00     0.058 A 
ATOM     81  C   UNL A   1      42.089  27.896  28.771  1.00  0.00     0.135 A 
ATOM     82  C   UNL A   1      40.065  26.783  29.429  1.00  0.00     0.135 A 
ATOM     83  F   UNL A   1      42.991  28.876  28.917  1.00  0.00    -0.206 F 
ATOM     84  C   UNL A   1      42.259  26.992  27.726  1.00  0.00     0.059 A 
ATOM     85  C   UNL A   1      40.229  25.850  28.409  1.00  0.00     0.059 A 
ATOM     86  F   UNL A   1      38.997  26.658  30.233  1.00  0.00    -0.206 F 
ATOM     87  C   UNL A   1      41.325  25.969  27.556  1.00  0.00     0.060 A 
BRANCH  87  88
ATOM     88  S   UNL A   1      41.587  24.767  26.233  1.00  0.00     0.124 S 
ATOM     89  O   UNL A   1      40.476  23.847  26.444  1.00  0.00    -0.237 OA
ATOM     90  O   UNL A   1      41.507  25.605  25.040  1.00  0.00    -0.237 OA
ATOM     91  O   UNL A   1      42.915  24.232  26.523  1.00  0.00    -0.744 OA
ENDBRANCH  87  88
ENDBRANCH  55  80
BRANCH  67  92
ATOM     92  C   UNL A   1      43.921  28.636  35.922  1.00  0.00     0.058 A 
ATOM     93  C   UNL A   1      45.292  28.930  35.859  1.00  0.00     0.135 A 
ATOM     94  C   UNL A   1      43.520  27.577  36.754  1.00  0.00     0.135 A 
ATOM     95  F   UNL A   1      45.734  29.932  35.082  1.00  0.00    -0.206 F 
ATOM     96  C   UNL A   1      46.232  28.175  36.555  1.00  0.00     0.059 A 
ATOM     97  C   UNL A   1      44.438  26.831  37.486  1.00  0.00     0.059 A 
ATOM     98  F   UNL A   1      42.220  27.261  36.869  1.00  0.00    -0.206 F 
ATOM     99  C   UNL A   1      45.795  27.125  37.365  1.00  0.00     0.060 A 
BRANCH  99 100
ATOM    100  S   UNL A   1      47.024  26.152  38.262  1.00  0.00     0.124 S 
ATOM    101  O   UNL A   1      48.160  27.067  38.289  1.00  0.00    -0.237 OA
ATOM    102  O   UNL A   1      46.365  25.921  39.543  1.00  0.00    -0.237 OA
ATOM    103  O   UNL A   1      47.194  24.966  37.428  1.00  0.00    -0.744 OA
ENDBRANCH  99 100
ENDBRANCH  67  92
ENDBRANCH  41  42
ENDBRANCH  34  36
ENDBRANCH  33  34
ENDBRANCH  32  33
ENDBRANCH  31  32
ENDBRANCH  30  31
ENDBRANCH   1  30
TORSDOF 24
ENDMDL
