MODEL 1
REMARK VINA RESULT:      -9.9      0.000      0.000
REMARK SMILES CCCCCCOC(=O)Nc1cccc(-c2ccc([C@@H](C)C(=O)OCCOCCOC(=O)c3ccc(-c4c5nc(c(-c6c(F)cc(S(=O)(=O)[O-])cc6F)c6ccc([nH]6)c(-c6c(F)cc(S(=O)(=O)[O-])cc6F)c6nc(c(-c7c(F)cc(S(=O)(=O)[O-])cc7F)c7ccc4[nH]7)C=C6)C=C5)cc3)cc2F)c1
REMARK SMILES IDX 24 1 22 2 23 3 20 4 21 5 19 6 16 7 17 8 100 9 18 10 99 11
REMARK SMILES IDX 101 12 15 13 11 14 12 15 102 16 13 17 14 18 10 19 8 20 9 21
REMARK SMILES IDX 7 23 6 24 5 25 4 26 3 27 2 28 1 29 25 30 26 31 27 32 28 33
REMARK SMILES IDX 29 34 30 35 31 36 32 37 33 38 34 39 98 40 35 41 97 42 36 43
REMARK SMILES IDX 37 44 38 45 91 46 39 47 96 48 90 49 92 50 40 51 95 52 89 53
REMARK SMILES IDX 88 54 41 56 75 57 54 58 74 59 55 60 58 61 73 62 93 63 56 64
REMARK SMILES IDX 57 65 72 67 94 68 59 69 42 70 43 71 52 72 44 73 45 74 51 75
REMARK SMILES IDX 53 76 46 77 47 78 48 79 49 80 50 81 76 82 77 83 86 84 78 85
REMARK SMILES IDX 79 86 85 87 87 88 80 89 81 90 82 91 83 92 84 93 60 94 61 95
REMARK SMILES IDX 70 96 62 97 63 98 69 99 71 100 64 101 65 102 66 103 67 104
REMARK SMILES IDX 68 105
REMARK H PARENT 10 22 92 55 58 66
REMARK Flexibility Score: inf
ROOT
ATOM      1  O   UNL A   1      42.318  20.439  25.635  1.00  0.00    -0.463 OA
ENDROOT
BRANCH   1   2
ATOM      2  C   UNL A   1      41.517  20.589  26.720  1.00  0.00     0.313 C 
ATOM      3  O   UNL A   1      41.309  19.717  27.559  1.00  0.00    -0.252 OA
BRANCH   2   4
ATOM      4  C   UNL A   1      40.852  21.954  26.807  1.00  0.00     0.126 C 
ATOM      5  C   UNL A   1      40.836  22.419  28.261  1.00  0.00     0.025 C 
BRANCH   4   6
ATOM      6  C   UNL A   1      39.491  22.131  26.142  1.00  0.00    -0.031 A 
ATOM      7  C   UNL A   1      36.836  22.468  25.149  1.00  0.00     0.018 A 
ATOM      8  C   UNL A   1      37.529  21.261  24.973  1.00  0.00     0.012 A 
ATOM      9  C   UNL A   1      37.519  23.510  25.790  1.00  0.00     0.131 A 
ATOM     10  C   UNL A   1      38.835  21.094  25.461  1.00  0.00     0.005 A 
ATOM     11  C   UNL A   1      38.818  23.354  26.277  1.00  0.00     0.044 A 
ATOM     12  F   UNL A   1      36.915  24.693  25.993  1.00  0.00    -0.206 F 
BRANCH   7  13
ATOM     13  C   UNL A   1      35.433  22.623  24.732  1.00  0.00    -0.013 A 
ATOM     14  C   UNL A   1      33.048  22.505  25.256  1.00  0.00     0.045 A 
ATOM     15  C   UNL A   1      32.737  22.629  23.902  1.00  0.00     0.026 A 
ATOM     16  C   UNL A   1      34.387  22.508  25.664  1.00  0.00     0.035 A 
ATOM     17  C   UNL A   1      33.758  22.808  22.970  1.00  0.00     0.003 A 
ATOM     18  C   UNL A   1      35.093  22.801  23.381  1.00  0.00     0.009 A 
BRANCH  14  19
ATOM     19  N   UNL A   1      32.002  22.265  26.158  1.00  0.00    -0.291 N 
ATOM     20  C   UNL A   1      31.033  23.141  26.568  1.00  0.00     0.411 C 
ATOM     21  O   UNL A   1      30.440  22.978  27.627  1.00  0.00    -0.224 OA
ATOM     22  H   UNL A   1      31.959  21.360  26.543  1.00  0.00     0.173 HD
BRANCH  20  23
ATOM     23  O   UNL A   1      30.743  24.086  25.640  1.00  0.00    -0.449 OA
BRANCH  23  24
ATOM     24  C   UNL A   1      31.010  25.461  25.960  1.00  0.00     0.235 C 
BRANCH  24  25
ATOM     25  C   UNL A   1      32.510  25.774  25.974  1.00  0.00     0.042 C 
BRANCH  25  26
ATOM     26  C   UNL A   1      33.023  26.648  24.822  1.00  0.00     0.003 C 
BRANCH  26  27
ATOM     27  C   UNL A   1      31.957  27.506  24.128  1.00  0.00    -0.000 C 
BRANCH  27  28
ATOM     28  C   UNL A   1      32.445  28.284  22.906  1.00  0.00    -0.003 C 
ATOM     29  C   UNL A   1      33.876  28.776  23.054  1.00  0.00     0.004 C 
ENDBRANCH  27  28
ENDBRANCH  26  27
ENDBRANCH  25  26
ENDBRANCH  24  25
ENDBRANCH  23  24
ENDBRANCH  20  23
ENDBRANCH  14  19
ENDBRANCH   7  13
ENDBRANCH   4   6
ENDBRANCH   2   4
ENDBRANCH   1   2
BRANCH   1  30
ATOM     30  C   UNL A   1      43.074  21.598  25.239  1.00  0.00     0.261 C 
BRANCH  30  31
ATOM     31  C   UNL A   1      44.531  21.488  25.695  1.00  0.00     0.202 C 
BRANCH  31  32
ATOM     32  O   UNL A   1      45.234  22.723  25.840  1.00  0.00    -0.374 OA
BRANCH  32  33
ATOM     33  C   UNL A   1      45.120  23.668  24.777  1.00  0.00     0.202 C 
BRANCH  33  34
ATOM     34  C   UNL A   1      44.107  24.802  24.976  1.00  0.00     0.261 C 
BRANCH  34  35
ATOM     35  O   UNL A   1      43.607  24.856  26.324  1.00  0.00    -0.460 OA
BRANCH  35  36
ATOM     36  C   UNL A   1      42.386  25.431  26.451  1.00  0.00     0.338 C 
ATOM     37  O   UNL A   1      41.427  25.293  25.709  1.00  0.00    -0.246 OA
BRANCH  36  38
ATOM     38  C   UNL A   1      42.289  26.140  27.742  1.00  0.00     0.060 A 
ATOM     39  C   UNL A   1      41.053  26.106  28.400  1.00  0.00     0.016 A 
ATOM     40  C   UNL A   1      43.348  26.892  28.257  1.00  0.00     0.016 A 
ATOM     41  C   UNL A   1      40.850  26.874  29.544  1.00  0.00     0.010 A 
ATOM     42  C   UNL A   1      43.139  27.669  29.404  1.00  0.00     0.010 A 
ATOM     43  C   UNL A   1      41.877  27.695  30.028  1.00  0.00    -0.014 A 
BRANCH  43  44
ATOM     44  C   UNL A   1      41.572  28.687  31.088  1.00  0.00     0.031 A 
ATOM     45  C   UNL A   1      42.355  28.649  32.373  1.00  0.00     0.074 A 
ATOM     46  C   UNL A   1      40.639  29.638  30.895  1.00  0.00     0.049 A 
ATOM     47  N   UNL A   1      42.257  29.418  33.427  1.00  0.00    -0.248 NA
ATOM     48  C   UNL A   1      43.383  27.603  32.485  1.00  0.00     0.031 C 
ATOM     49  C   UNL A   1      39.835  29.797  29.685  1.00  0.00     0.029 A 
ATOM     50  N   UNL A   1      40.210  30.647  31.720  1.00  0.00    -0.354 N 
ATOM     51  C   UNL A   1      43.201  28.945  34.330  1.00  0.00     0.074 A 
ATOM     52  C   UNL A   1      43.844  27.805  33.711  1.00  0.00     0.031 C 
ATOM     53  C   UNL A   1      38.997  30.835  29.852  1.00  0.00     0.029 A 
ATOM     54  C   UNL A   1      39.190  31.397  31.188  1.00  0.00     0.049 A 
ATOM     55  H   UNL A   1      40.597  30.818  32.609  1.00  0.00     0.167 HD
ATOM     56  C   UNL A   1      43.511  29.420  35.560  1.00  0.00     0.037 A 
ATOM     57  C   UNL A   1      38.479  32.410  31.724  1.00  0.00     0.037 A 
ATOM     58  C   UNL A   1      42.877  30.559  36.170  1.00  0.00     0.049 A 
ATOM     59  C   UNL A   1      38.814  32.900  33.108  1.00  0.00     0.074 A 
ATOM     60  C   UNL A   1      43.148  31.141  37.396  1.00  0.00     0.029 A 
ATOM     61  N   UNL A   1      41.837  31.283  35.605  1.00  0.00    -0.354 N 
ATOM     62  N   UNL A   1      39.737  32.468  33.934  1.00  0.00    -0.248 NA
ATOM     63  C   UNL A   1      38.017  34.020  33.630  1.00  0.00     0.031 C 
ATOM     64  C   UNL A   1      42.240  32.187  37.594  1.00  0.00     0.029 A 
ATOM     65  C   UNL A   1      41.436  32.289  36.470  1.00  0.00     0.049 A 
ATOM     66  H   UNL A   1      41.442  31.108  34.721  1.00  0.00     0.167 HD
ATOM     67  C   UNL A   1      39.646  33.275  35.064  1.00  0.00     0.074 A 
ATOM     68  C   UNL A   1      38.586  34.229  34.810  1.00  0.00     0.031 C 
ATOM     69  C   UNL A   1      40.377  33.232  36.206  1.00  0.00     0.037 A 
BRANCH  56  70
ATOM     70  C   UNL A   1      44.566  28.686  36.343  1.00  0.00     0.058 A 
ATOM     71  C   UNL A   1      44.264  27.550  37.110  1.00  0.00     0.135 A 
ATOM     72  C   UNL A   1      45.901  29.118  36.306  1.00  0.00     0.135 A 
ATOM     73  F   UNL A   1      43.001  27.105  37.192  1.00  0.00    -0.206 F 
ATOM     74  C   UNL A   1      45.246  26.884  37.839  1.00  0.00     0.059 A 
ATOM     75  C   UNL A   1      46.904  28.453  37.007  1.00  0.00     0.059 A 
ATOM     76  F   UNL A   1      46.243  30.200  35.589  1.00  0.00    -0.206 F 
ATOM     77  C   UNL A   1      46.562  27.346  37.783  1.00  0.00     0.060 A 
BRANCH  77  78
ATOM     78  S   UNL A   1      47.825  26.480  38.740  1.00  0.00     0.124 S 
ATOM     79  O   UNL A   1      47.238  25.148  38.854  1.00  0.00    -0.237 OA
ATOM     80  O   UNL A   1      48.997  26.583  37.877  1.00  0.00    -0.237 OA
ATOM     81  O   UNL A   1      47.894  27.244  39.981  1.00  0.00    -0.744 OA
ENDBRANCH  77  78
ENDBRANCH  56  70
BRANCH  57  82
ATOM     82  C   UNL A   1      37.367  33.018  30.946  1.00  0.00     0.058 A 
ATOM     83  C   UNL A   1      37.616  33.905  29.890  1.00  0.00     0.135 A 
ATOM     84  C   UNL A   1      36.029  32.702  31.236  1.00  0.00     0.135 A 
ATOM     85  F   UNL A   1      38.876  34.247  29.583  1.00  0.00    -0.206 F 
ATOM     86  C   UNL A   1      36.578  34.461  29.147  1.00  0.00     0.059 A 
ATOM     87  C   UNL A   1      34.977  33.226  30.494  1.00  0.00     0.059 A 
ATOM     88  F   UNL A   1      35.741  31.850  32.231  1.00  0.00    -0.206 F 
ATOM     89  C   UNL A   1      35.261  34.110  29.453  1.00  0.00     0.060 A 
BRANCH  89  90
ATOM     90  S   UNL A   1      33.925  34.777  28.437  1.00  0.00     0.124 S 
ATOM     91  O   UNL A   1      34.186  34.138  27.153  1.00  0.00    -0.237 OA
ATOM     92  O   UNL A   1      32.738  34.318  29.151  1.00  0.00    -0.237 OA
ATOM     93  O   UNL A   1      34.157  36.218  28.485  1.00  0.00    -0.744 OA
ENDBRANCH  89  90
ENDBRANCH  57  82
BRANCH  69  94
ATOM     94  C   UNL A   1      40.075  34.259  37.264  1.00  0.00     0.058 A 
ATOM     95  C   UNL A   1      39.100  34.038  38.249  1.00  0.00     0.135 A 
ATOM     96  C   UNL A   1      40.810  35.455  37.324  1.00  0.00     0.135 A 
ATOM     97  F   UNL A   1      38.367  32.914  38.234  1.00  0.00    -0.206 F 
ATOM     98  C   UNL A   1      38.848  34.978  39.244  1.00  0.00     0.059 A 
ATOM     99  C   UNL A   1      40.591  36.397  38.325  1.00  0.00     0.059 A 
ATOM    100  F   UNL A   1      41.762  35.710  36.412  1.00  0.00    -0.206 F 
ATOM    101  C   UNL A   1      39.599  36.154  39.273  1.00  0.00     0.060 A 
BRANCH 101 102
ATOM    102  S   UNL A   1      39.283  37.353  40.587  1.00  0.00     0.124 S 
ATOM    103  O   UNL A   1      40.567  38.041  40.670  1.00  0.00    -0.237 OA
ATOM    104  O   UNL A   1      38.178  38.134  40.040  1.00  0.00    -0.237 OA
ATOM    105  O   UNL A   1      38.943  36.517  41.734  1.00  0.00    -0.744 OA
ENDBRANCH 101 102
ENDBRANCH  69  94
ENDBRANCH  43  44
ENDBRANCH  36  38
ENDBRANCH  35  36
ENDBRANCH  34  35
ENDBRANCH  33  34
ENDBRANCH  32  33
ENDBRANCH  31  32
ENDBRANCH  30  31
ENDBRANCH   1  30
TORSDOF 26
ENDMDL
MODEL 2
REMARK VINA RESULT:      -9.8      1.319      8.103
REMARK SMILES CCCCCCOC(=O)Nc1cccc(-c2ccc([C@@H](C)C(=O)OCCOCCOC(=O)c3ccc(-c4c5nc(c(-c6c(F)cc(S(=O)(=O)[O-])cc6F)c6ccc([nH]6)c(-c6c(F)cc(S(=O)(=O)[O-])cc6F)c6nc(c(-c7c(F)cc(S(=O)(=O)[O-])cc7F)c7ccc4[nH]7)C=C6)C=C5)cc3)cc2F)c1
REMARK SMILES IDX 24 1 22 2 23 3 20 4 21 5 19 6 16 7 17 8 100 9 18 10 99 11
REMARK SMILES IDX 101 12 15 13 11 14 12 15 102 16 13 17 14 18 10 19 8 20 9 21
REMARK SMILES IDX 7 23 6 24 5 25 4 26 3 27 2 28 1 29 25 30 26 31 27 32 28 33
REMARK SMILES IDX 29 34 30 35 31 36 32 37 33 38 34 39 98 40 35 41 97 42 36 43
REMARK SMILES IDX 37 44 38 45 91 46 39 47 96 48 90 49 92 50 40 51 95 52 89 53
REMARK SMILES IDX 88 54 41 56 75 57 54 58 74 59 55 60 58 61 73 62 93 63 56 64
REMARK SMILES IDX 57 65 72 67 94 68 59 69 42 70 43 71 52 72 44 73 45 74 51 75
REMARK SMILES IDX 53 76 46 77 47 78 48 79 49 80 50 81 76 82 77 83 86 84 78 85
REMARK SMILES IDX 79 86 85 87 87 88 80 89 81 90 82 91 83 92 84 93 60 94 61 95
REMARK SMILES IDX 70 96 62 97 63 98 69 99 71 100 64 101 65 102 66 103 67 104
REMARK SMILES IDX 68 105
REMARK H PARENT 10 22 92 55 58 66
REMARK Flexibility Score: inf
ROOT
ATOM      1  O   UNL A   1      42.222  19.892  26.324  1.00  0.00    -0.463 OA
ENDROOT
BRANCH   1   2
ATOM      2  C   UNL A   1      41.354  20.326  27.273  1.00  0.00     0.313 C 
ATOM      3  O   UNL A   1      40.789  19.599  28.085  1.00  0.00    -0.252 OA
BRANCH   2   4
ATOM      4  C   UNL A   1      41.103  21.825  27.235  1.00  0.00     0.126 C 
ATOM      5  C   UNL A   1      41.243  22.399  28.642  1.00  0.00     0.025 C 
BRANCH   4   6
ATOM      6  C   UNL A   1      39.837  22.322  26.546  1.00  0.00    -0.031 A 
ATOM      7  C   UNL A   1      37.348  23.252  25.502  1.00  0.00     0.018 A 
ATOM      8  C   UNL A   1      37.814  21.960  25.221  1.00  0.00     0.012 A 
ATOM      9  C   UNL A   1      38.176  24.078  26.275  1.00  0.00     0.131 A 
ATOM     10  C   UNL A   1      39.039  21.501  25.735  1.00  0.00     0.005 A 
ATOM     11  C   UNL A   1      39.394  23.631  26.788  1.00  0.00     0.044 A 
ATOM     12  F   UNL A   1      37.790  25.327  26.583  1.00  0.00    -0.206 F 
BRANCH   7  13
ATOM     13  C   UNL A   1      36.021  23.710  25.056  1.00  0.00    -0.013 A 
ATOM     14  C   UNL A   1      33.709  24.310  25.573  1.00  0.00     0.045 A 
ATOM     15  C   UNL A   1      33.397  24.309  24.213  1.00  0.00     0.026 A 
ATOM     16  C   UNL A   1      35.014  24.017  25.986  1.00  0.00     0.035 A 
ATOM     17  C   UNL A   1      34.397  24.069  23.273  1.00  0.00     0.003 A 
ATOM     18  C   UNL A   1      35.697  23.769  23.691  1.00  0.00     0.009 A 
BRANCH  14  19
ATOM     19  N   UNL A   1      32.667  24.494  26.492  1.00  0.00    -0.291 N 
ATOM     20  C   UNL A   1      31.660  23.620  26.802  1.00  0.00     0.411 C 
ATOM     21  O   UNL A   1      30.605  24.015  27.283  1.00  0.00    -0.224 OA
ATOM     22  H   UNL A   1      32.656  25.354  26.972  1.00  0.00     0.173 HD
BRANCH  20  23
ATOM     23  O   UNL A   1      32.011  22.321  26.634  1.00  0.00    -0.449 OA
BRANCH  23  24
ATOM     24  C   UNL A   1      31.692  21.683  25.387  1.00  0.00     0.235 C 
BRANCH  24  25
ATOM     25  C   UNL A   1      32.830  20.786  24.885  1.00  0.00     0.042 C 
BRANCH  25  26
ATOM     26  C   UNL A   1      32.414  19.621  23.978  1.00  0.00     0.003 C 
BRANCH  26  27
ATOM     27  C   UNL A   1      32.833  18.229  24.467  1.00  0.00    -0.000 C 
BRANCH  27  28
ATOM     28  C   UNL A   1      34.233  17.786  24.044  1.00  0.00    -0.003 C 
ATOM     29  C   UNL A   1      34.261  16.369  23.495  1.00  0.00     0.004 C 
ENDBRANCH  27  28
ENDBRANCH  26  27
ENDBRANCH  25  26
ENDBRANCH  24  25
ENDBRANCH  23  24
ENDBRANCH  20  23
ENDBRANCH  14  19
ENDBRANCH   7  13
ENDBRANCH   4   6
ENDBRANCH   2   4
ENDBRANCH   1   2
BRANCH   1  30
ATOM     30  C   UNL A   1      42.786  20.904  25.469  1.00  0.00     0.261 C 
BRANCH  30  31
ATOM     31  C   UNL A   1      44.082  21.464  26.058  1.00  0.00     0.202 C 
BRANCH  31  32
ATOM     32  O   UNL A   1      44.843  22.313  25.197  1.00  0.00    -0.374 OA
BRANCH  32  33
ATOM     33  C   UNL A   1      44.136  23.341  24.503  1.00  0.00     0.202 C 
BRANCH  33  34
ATOM     34  C   UNL A   1      42.942  23.965  25.235  1.00  0.00     0.261 C 
BRANCH  34  35
ATOM     35  O   UNL A   1      43.271  25.231  25.832  1.00  0.00    -0.460 OA
BRANCH  35  36
ATOM     36  C   UNL A   1      42.221  26.076  25.980  1.00  0.00     0.338 C 
ATOM     37  O   UNL A   1      41.251  26.179  25.248  1.00  0.00    -0.246 OA
BRANCH  36  38
ATOM     38  C   UNL A   1      42.305  26.769  27.281  1.00  0.00     0.060 A 
ATOM     39  C   UNL A   1      41.594  26.210  28.351  1.00  0.00     0.016 A 
ATOM     40  C   UNL A   1      42.984  27.980  27.434  1.00  0.00     0.016 A 
ATOM     41  C   UNL A   1      41.509  26.890  29.563  1.00  0.00     0.010 A 
ATOM     42  C   UNL A   1      42.891  28.665  28.652  1.00  0.00     0.010 A 
ATOM     43  C   UNL A   1      42.120  28.143  29.708  1.00  0.00    -0.014 A 
BRANCH  43  44
ATOM     44  C   UNL A   1      41.815  28.963  30.907  1.00  0.00     0.031 A 
ATOM     45  C   UNL A   1      40.620  29.879  30.881  1.00  0.00     0.074 A 
ATOM     46  C   UNL A   1      42.564  28.864  32.020  1.00  0.00     0.049 A 
ATOM     47  N   UNL A   1      40.169  30.679  31.813  1.00  0.00    -0.248 NA
ATOM     48  C   UNL A   1      39.831  29.896  29.639  1.00  0.00     0.031 C 
ATOM     49  C   UNL A   1      43.728  27.993  32.178  1.00  0.00     0.029 A 
ATOM     50  N   UNL A   1      42.458  29.506  33.227  1.00  0.00    -0.354 N 
ATOM     51  C   UNL A   1      39.052  31.301  31.269  1.00  0.00     0.074 A 
ATOM     52  C   UNL A   1      38.909  30.806  29.916  1.00  0.00     0.031 C 
ATOM     53  C   UNL A   1      44.239  28.168  33.409  1.00  0.00     0.029 A 
ATOM     54  C   UNL A   1      43.453  29.178  34.116  1.00  0.00     0.049 A 
ATOM     55  H   UNL A   1      41.736  30.143  33.437  1.00  0.00     0.167 HD
ATOM     56  C   UNL A   1      38.216  32.198  31.845  1.00  0.00     0.037 A 
ATOM     57  C   UNL A   1      43.711  29.652  35.352  1.00  0.00     0.037 A 
ATOM     58  C   UNL A   1      38.354  32.683  33.194  1.00  0.00     0.049 A 
ATOM     59  C   UNL A   1      42.791  30.676  35.961  1.00  0.00     0.074 A 
ATOM     60  C   UNL A   1      37.536  33.561  33.881  1.00  0.00     0.029 A 
ATOM     61  N   UNL A   1      39.384  32.337  34.057  1.00  0.00    -0.354 N 
ATOM     62  N   UNL A   1      41.716  31.226  35.449  1.00  0.00    -0.248 NA
ATOM     63  C   UNL A   1      43.114  31.139  37.318  1.00  0.00     0.031 C 
ATOM     64  C   UNL A   1      38.097  33.786  35.143  1.00  0.00     0.029 A 
ATOM     65  C   UNL A   1      39.238  33.007  35.261  1.00  0.00     0.049 A 
ATOM     66  H   UNL A   1      40.111  31.708  33.846  1.00  0.00     0.167 HD
ATOM     67  C   UNL A   1      41.222  32.083  36.427  1.00  0.00     0.074 A 
ATOM     68  C   UNL A   1      42.110  31.970  37.566  1.00  0.00     0.031 C 
ATOM     69  C   UNL A   1      40.131  32.888  36.387  1.00  0.00     0.037 A 
BRANCH  56  70
ATOM     70  C   UNL A   1      37.091  32.739  31.005  1.00  0.00     0.058 A 
ATOM     71  C   UNL A   1      37.311  33.685  29.991  1.00  0.00     0.135 A 
ATOM     72  C   UNL A   1      35.778  32.287  31.207  1.00  0.00     0.135 A 
ATOM     73  F   UNL A   1      38.545  34.162  29.768  1.00  0.00    -0.206 F 
ATOM     74  C   UNL A   1      36.262  34.186  29.226  1.00  0.00     0.059 A 
ATOM     75  C   UNL A   1      34.717  32.755  30.437  1.00  0.00     0.059 A 
ATOM     76  F   UNL A   1      35.512  31.384  32.164  1.00  0.00    -0.206 F 
ATOM     77  C   UNL A   1      34.968  33.718  29.459  1.00  0.00     0.060 A 
BRANCH  77  78
ATOM     78  S   UNL A   1      33.614  34.382  28.467  1.00  0.00     0.124 S 
ATOM     79  O   UNL A   1      32.651  34.752  29.500  1.00  0.00    -0.237 OA
ATOM     80  O   UNL A   1      34.253  35.495  27.770  1.00  0.00    -0.237 OA
ATOM     81  O   UNL A   1      33.228  33.257  27.622  1.00  0.00    -0.744 OA
ENDBRANCH  77  78
ENDBRANCH  56  70
BRANCH  57  82
ATOM     82  C   UNL A   1      44.909  29.166  36.088  1.00  0.00     0.058 A 
ATOM     83  C   UNL A   1      46.147  29.813  35.974  1.00  0.00     0.135 A 
ATOM     84  C   UNL A   1      44.827  28.052  36.939  1.00  0.00     0.135 A 
ATOM     85  F   UNL A   1      46.278  30.874  35.165  1.00  0.00    -0.206 F 
ATOM     86  C   UNL A   1      47.265  29.373  36.677  1.00  0.00     0.059 A 
ATOM     87  C   UNL A   1      45.923  27.607  37.669  1.00  0.00     0.059 A 
ATOM     88  F   UNL A   1      43.661  27.405  37.088  1.00  0.00    -0.206 F 
ATOM     89  C   UNL A   1      47.141  28.271  37.527  1.00  0.00     0.060 A 
BRANCH  89  90
ATOM     90  S   UNL A   1      48.577  27.752  38.491  1.00  0.00     0.124 S 
ATOM     91  O   UNL A   1      48.000  26.722  39.346  1.00  0.00    -0.237 OA
ATOM     92  O   UNL A   1      49.491  27.285  37.454  1.00  0.00    -0.237 OA
ATOM     93  O   UNL A   1      48.986  28.980  39.168  1.00  0.00    -0.744 OA
ENDBRANCH  89  90
ENDBRANCH  57  82
BRANCH  69  94
ATOM     94  C   UNL A   1      39.817  33.696  37.617  1.00  0.00     0.058 A 
ATOM     95  C   UNL A   1      38.849  33.282  38.545  1.00  0.00     0.135 A 
ATOM     96  C   UNL A   1      40.534  34.871  37.898  1.00  0.00     0.135 A 
ATOM     97  F   UNL A   1      38.132  32.169  38.321  1.00  0.00    -0.206 F 
ATOM     98  C   UNL A   1      38.585  34.016  39.696  1.00  0.00     0.059 A 
ATOM     99  C   UNL A   1      40.304  35.607  39.057  1.00  0.00     0.059 A 
ATOM    100  F   UNL A   1      41.480  35.305  37.050  1.00  0.00    -0.206 F 
ATOM    101  C   UNL A   1      39.319  35.178  39.944  1.00  0.00     0.060 A 
BRANCH 101 102
ATOM    102  S   UNL A   1      38.989  36.107  41.457  1.00  0.00     0.124 S 
ATOM    103  O   UNL A   1      40.244  35.941  42.182  1.00  0.00    -0.237 OA
ATOM    104  O   UNL A   1      38.722  37.449  40.949  1.00  0.00    -0.237 OA
ATOM    105  O   UNL A   1      37.836  35.422  42.032  1.00  0.00    -0.744 OA
ENDBRANCH 101 102
ENDBRANCH  69  94
ENDBRANCH  43  44
ENDBRANCH  36  38
ENDBRANCH  35  36
ENDBRANCH  34  35
ENDBRANCH  33  34
ENDBRANCH  32  33
ENDBRANCH  31  32
ENDBRANCH  30  31
ENDBRANCH   1  30
TORSDOF 26
ENDMDL
MODEL 3
REMARK VINA RESULT:      -9.2      6.600      8.576
REMARK SMILES CCCCCCOC(=O)Nc1cccc(-c2ccc([C@@H](C)C(=O)OCCOCCOC(=O)c3ccc(-c4c5nc(c(-c6c(F)cc(S(=O)(=O)[O-])cc6F)c6ccc([nH]6)c(-c6c(F)cc(S(=O)(=O)[O-])cc6F)c6nc(c(-c7c(F)cc(S(=O)(=O)[O-])cc7F)c7ccc4[nH]7)C=C6)C=C5)cc3)cc2F)c1
REMARK SMILES IDX 24 1 22 2 23 3 20 4 21 5 19 6 16 7 17 8 100 9 18 10 99 11
REMARK SMILES IDX 101 12 15 13 11 14 12 15 102 16 13 17 14 18 10 19 8 20 9 21
REMARK SMILES IDX 7 23 6 24 5 25 4 26 3 27 2 28 1 29 25 30 26 31 27 32 28 33
REMARK SMILES IDX 29 34 30 35 31 36 32 37 33 38 34 39 98 40 35 41 97 42 36 43
REMARK SMILES IDX 37 44 38 45 91 46 39 47 96 48 90 49 92 50 40 51 95 52 89 53
REMARK SMILES IDX 88 54 41 56 75 57 54 58 74 59 55 60 58 61 73 62 93 63 56 64
REMARK SMILES IDX 57 65 72 67 94 68 59 69 42 70 43 71 52 72 44 73 45 74 51 75
REMARK SMILES IDX 53 76 46 77 47 78 48 79 49 80 50 81 76 82 77 83 86 84 78 85
REMARK SMILES IDX 79 86 85 87 87 88 80 89 81 90 82 91 83 92 84 93 60 94 61 95
REMARK SMILES IDX 70 96 62 97 63 98 69 99 71 100 64 101 65 102 66 103 67 104
REMARK SMILES IDX 68 105
REMARK H PARENT 10 22 92 55 58 66
REMARK Flexibility Score: inf
ROOT
ATOM      1  O   UNL A   1      42.758  21.929  25.273  1.00  0.00    -0.463 OA
ENDROOT
BRANCH   1   2
ATOM      2  C   UNL A   1      42.517  22.936  26.151  1.00  0.00     0.313 C 
ATOM      3  O   UNL A   1      43.115  24.008  26.163  1.00  0.00    -0.252 OA
BRANCH   2   4
ATOM      4  C   UNL A   1      41.434  22.616  27.168  1.00  0.00     0.126 C 
ATOM      5  C   UNL A   1      41.714  21.254  27.797  1.00  0.00     0.025 C 
BRANCH   4   6
ATOM      6  C   UNL A   1      39.979  22.747  26.730  1.00  0.00    -0.031 A 
ATOM      7  C   UNL A   1      37.346  22.989  25.653  1.00  0.00     0.018 A 
ATOM      8  C   UNL A   1      37.952  24.055  26.333  1.00  0.00     0.012 A 
ATOM      9  C   UNL A   1      38.069  21.791  25.567  1.00  0.00     0.131 A 
ATOM     10  C   UNL A   1      39.248  23.937  26.863  1.00  0.00     0.005 A 
ATOM     11  C   UNL A   1      39.356  21.664  26.092  1.00  0.00     0.044 A 
ATOM     12  F   UNL A   1      37.549  20.730  24.928  1.00  0.00    -0.206 F 
BRANCH   7  13
ATOM     13  C   UNL A   1      36.032  23.131  25.005  1.00  0.00    -0.013 A 
ATOM     14  C   UNL A   1      33.593  23.040  25.132  1.00  0.00     0.045 A 
ATOM     15  C   UNL A   1      33.511  23.113  23.741  1.00  0.00     0.026 A 
ATOM     16  C   UNL A   1      34.847  23.055  25.754  1.00  0.00     0.035 A 
ATOM     17  C   UNL A   1      34.672  23.251  22.984  1.00  0.00     0.003 A 
ATOM     18  C   UNL A   1      35.922  23.257  23.610  1.00  0.00     0.009 A 
BRANCH  14  19
ATOM     19  N   UNL A   1      32.410  22.839  25.857  1.00  0.00    -0.291 N 
ATOM     20  C   UNL A   1      31.784  23.719  26.699  1.00  0.00     0.411 C 
ATOM     21  O   UNL A   1      31.023  23.325  27.573  1.00  0.00    -0.224 OA
ATOM     22  H   UNL A   1      31.978  21.961  25.750  1.00  0.00     0.173 HD
BRANCH  20  23
ATOM     23  O   UNL A   1      32.007  25.016  26.374  1.00  0.00    -0.449 OA
BRANCH  23  24
ATOM     24  C   UNL A   1      31.248  25.591  25.299  1.00  0.00     0.235 C 
BRANCH  24  25
ATOM     25  C   UNL A   1      32.007  26.718  24.588  1.00  0.00     0.042 C 
BRANCH  25  26
ATOM     26  C   UNL A   1      33.143  27.368  25.388  1.00  0.00     0.003 C 
BRANCH  26  27
ATOM     27  C   UNL A   1      32.841  28.772  25.930  1.00  0.00    -0.000 C 
BRANCH  27  28
ATOM     28  C   UNL A   1      33.495  29.105  27.270  1.00  0.00    -0.003 C 
ATOM     29  C   UNL A   1      35.013  29.102  27.201  1.00  0.00     0.004 C 
ENDBRANCH  27  28
ENDBRANCH  26  27
ENDBRANCH  25  26
ENDBRANCH  24  25
ENDBRANCH  23  24
ENDBRANCH  20  23
ENDBRANCH  14  19
ENDBRANCH   7  13
ENDBRANCH   4   6
ENDBRANCH   2   4
ENDBRANCH   1   2
BRANCH   1  30
ATOM     30  C   UNL A   1      44.068  21.334  25.335  1.00  0.00     0.261 C 
BRANCH  30  31
ATOM     31  C   UNL A   1      44.807  21.491  24.005  1.00  0.00     0.202 C 
BRANCH  31  32
ATOM     32  O   UNL A   1      45.244  22.813  23.687  1.00  0.00    -0.374 OA
BRANCH  32  33
ATOM     33  C   UNL A   1      46.441  23.274  24.313  1.00  0.00     0.202 C 
BRANCH  33  34
ATOM     34  C   UNL A   1      46.370  24.641  25.003  1.00  0.00     0.261 C 
BRANCH  34  35
ATOM     35  O   UNL A   1      47.068  25.660  24.265  1.00  0.00    -0.460 OA
BRANCH  35  36
ATOM     36  C   UNL A   1      48.024  26.313  24.970  1.00  0.00     0.338 C 
ATOM     37  O   UNL A   1      49.232  26.185  24.864  1.00  0.00    -0.246 OA
BRANCH  36  38
ATOM     38  C   UNL A   1      47.412  27.371  25.799  1.00  0.00     0.060 A 
ATOM     39  C   UNL A   1      46.633  28.330  25.140  1.00  0.00     0.016 A 
ATOM     40  C   UNL A   1      47.664  27.478  27.169  1.00  0.00     0.016 A 
ATOM     41  C   UNL A   1      46.150  29.435  25.837  1.00  0.00     0.010 A 
ATOM     42  C   UNL A   1      47.183  28.594  27.866  1.00  0.00     0.010 A 
ATOM     43  C   UNL A   1      46.459  29.598  27.194  1.00  0.00    -0.014 A 
BRANCH  43  44
ATOM     44  C   UNL A   1      46.155  30.891  27.856  1.00  0.00     0.031 A 
ATOM     45  C   UNL A   1      44.875  31.029  28.636  1.00  0.00     0.074 A 
ATOM     46  C   UNL A   1      47.024  31.916  27.800  1.00  0.00     0.049 A 
ATOM     47  N   UNL A   1      44.412  32.061  29.293  1.00  0.00    -0.248 NA
ATOM     48  C   UNL A   1      44.001  29.846  28.680  1.00  0.00     0.031 C 
ATOM     49  C   UNL A   1      48.308  31.896  27.100  1.00  0.00     0.029 A 
ATOM     50  N   UNL A   1      46.954  33.175  28.339  1.00  0.00    -0.354 N 
ATOM     51  C   UNL A   1      43.191  31.658  29.819  1.00  0.00     0.074 A 
ATOM     52  C   UNL A   1      42.972  30.295  29.383  1.00  0.00     0.031 C 
ATOM     53  C   UNL A   1      48.899  33.095  27.240  1.00  0.00     0.029 A 
ATOM     54  C   UNL A   1      48.026  33.973  28.019  1.00  0.00     0.049 A 
ATOM     55  H   UNL A   1      46.206  33.480  28.903  1.00  0.00     0.167 HD
ATOM     56  C   UNL A   1      42.332  32.356  30.601  1.00  0.00     0.037 A 
ATOM     57  C   UNL A   1      48.267  35.269  28.305  1.00  0.00     0.037 A 
ATOM     58  C   UNL A   1      42.556  33.708  31.041  1.00  0.00     0.049 A 
ATOM     59  C   UNL A   1      47.283  36.038  29.144  1.00  0.00     0.074 A 
ATOM     60  C   UNL A   1      41.765  34.486  31.867  1.00  0.00     0.029 A 
ATOM     61  N   UNL A   1      43.647  34.487  30.683  1.00  0.00    -0.354 N 
ATOM     62  N   UNL A   1      46.151  35.632  29.668  1.00  0.00    -0.248 NA
ATOM     63  C   UNL A   1      47.610  37.441  29.439  1.00  0.00     0.031 C 
ATOM     64  C   UNL A   1      42.351  35.753  31.969  1.00  0.00     0.029 A 
ATOM     65  C   UNL A   1      43.535  35.747  31.247  1.00  0.00     0.049 A 
ATOM     66  H   UNL A   1      44.391  34.188  30.112  1.00  0.00     0.167 HD
ATOM     67  C   UNL A   1      45.642  36.719  30.370  1.00  0.00     0.074 A 
ATOM     68  C   UNL A   1      46.595  37.798  30.214  1.00  0.00     0.031 C 
ATOM     69  C   UNL A   1      44.491  36.815  31.083  1.00  0.00     0.037 A 
BRANCH  56  70
ATOM     70  C   UNL A   1      41.052  31.676  31.006  1.00  0.00     0.058 A 
ATOM     71  C   UNL A   1      39.838  31.931  30.349  1.00  0.00     0.135 A 
ATOM     72  C   UNL A   1      41.049  30.742  32.053  1.00  0.00     0.135 A 
ATOM     73  F   UNL A   1      39.782  32.827  29.352  1.00  0.00    -0.206 F 
ATOM     74  C   UNL A   1      38.657  31.305  30.738  1.00  0.00     0.059 A 
ATOM     75  C   UNL A   1      39.885  30.085  32.443  1.00  0.00     0.059 A 
ATOM     76  F   UNL A   1      42.183  30.463  32.715  1.00  0.00    -0.206 F 
ATOM     77  C   UNL A   1      38.691  30.386  31.789  1.00  0.00     0.060 A 
BRANCH  77  78
ATOM     78  S   UNL A   1      37.152  29.587  32.290  1.00  0.00     0.124 S 
ATOM     79  O   UNL A   1      36.454  30.688  32.948  1.00  0.00    -0.237 OA
ATOM     80  O   UNL A   1      36.592  29.156  31.013  1.00  0.00    -0.237 OA
ATOM     81  O   UNL A   1      37.597  28.512  33.170  1.00  0.00    -0.744 OA
ENDBRANCH  77  78
ENDBRANCH  56  70
BRANCH  57  82
ATOM     82  C   UNL A   1      49.494  35.920  27.775  1.00  0.00     0.058 A 
ATOM     83  C   UNL A   1      49.492  36.584  26.541  1.00  0.00     0.135 A 
ATOM     84  C   UNL A   1      50.690  35.908  28.511  1.00  0.00     0.135 A 
ATOM     85  F   UNL A   1      48.377  36.613  25.796  1.00  0.00    -0.206 F 
ATOM     86  C   UNL A   1      50.634  37.212  26.051  1.00  0.00     0.059 A 
ATOM     87  C   UNL A   1      51.837  36.548  28.054  1.00  0.00     0.059 A 
ATOM     88  F   UNL A   1      50.740  35.294  29.703  1.00  0.00    -0.206 F 
ATOM     89  C   UNL A   1      51.801  37.193  26.818  1.00  0.00     0.060 A 
BRANCH  89  90
ATOM     90  S   UNL A   1      53.255  38.073  26.210  1.00  0.00     0.124 S 
ATOM     91  O   UNL A   1      53.039  38.039  24.769  1.00  0.00    -0.237 OA
ATOM     92  O   UNL A   1      53.113  39.379  26.847  1.00  0.00    -0.237 OA
ATOM     93  O   UNL A   1      54.366  37.264  26.703  1.00  0.00    -0.744 OA
ENDBRANCH  89  90
ENDBRANCH  57  82
BRANCH  69  94
ATOM     94  C   UNL A   1      44.205  38.122  31.770  1.00  0.00     0.058 A 
ATOM     95  C   UNL A   1      44.528  38.333  33.119  1.00  0.00     0.135 A 
ATOM     96  C   UNL A   1      43.650  39.196  31.053  1.00  0.00     0.135 A 
ATOM     97  F   UNL A   1      45.056  37.339  33.850  1.00  0.00    -0.206 F 
ATOM     98  C   UNL A   1      44.291  39.555  33.740  1.00  0.00     0.059 A 
ATOM     99  C   UNL A   1      43.427  40.434  31.648  1.00  0.00     0.059 A 
ATOM    100  F   UNL A   1      43.332  39.051  29.756  1.00  0.00    -0.206 F 
ATOM    101  C   UNL A   1      43.739  40.600  32.996  1.00  0.00     0.060 A 
BRANCH 101 102
ATOM    102  S   UNL A   1      43.463  42.190  33.806  1.00  0.00     0.124 S 
ATOM    103  O   UNL A   1      42.076  42.061  34.239  1.00  0.00    -0.237 OA
ATOM    104  O   UNL A   1      44.464  42.179  34.868  1.00  0.00    -0.237 OA
ATOM    105  O   UNL A   1      43.701  43.159  32.740  1.00  0.00    -0.744 OA
ENDBRANCH 101 102
ENDBRANCH  69  94
ENDBRANCH  43  44
ENDBRANCH  36  38
ENDBRANCH  35  36
ENDBRANCH  34  35
ENDBRANCH  33  34
ENDBRANCH  32  33
ENDBRANCH  31  32
ENDBRANCH  30  31
ENDBRANCH   1  30
TORSDOF 26
ENDMDL
