MODEL 1
REMARK VINA RESULT:      -9.9      0.000      0.000
REMARK SMILES COC(=O)[C@@H]1CN(C(=O)OC(C)(C)C)C[C@@H]1C(=O)OCCOCCOC(=O)c1ccc(-c2c3nc(c(-c4c(F)cc(S(=O)(=O)[O-])cc4F)c4ccc([nH]4)c(-c4c(F)cc(S(=O)(=O)[O-])cc4F)c4nc(c(-c5c(F)cc(S(=O)(=O)[O-])cc5F)c5ccc2[nH]5)C=C4)C=C3)cc1
REMARK SMILES IDX 22 1 21 2 20 3 19 4 17 5 18 6 16 7 5 8 6 9 7 10 15 11 3 12
REMARK SMILES IDX 4 13 2 14 1 15 8 16 9 17 10 18 11 19 12 20 13 21 14 22 23 23
REMARK SMILES IDX 24 24 25 25 26 26 27 27 28 28 29 29 93 30 30 31 92 32 31 33
REMARK SMILES IDX 32 34 33 35 86 36 34 37 91 38 85 39 87 40 35 41 90 42 84 43
REMARK SMILES IDX 83 44 36 46 70 47 49 48 69 49 50 50 53 51 68 52 88 53 51 54
REMARK SMILES IDX 52 55 67 57 89 58 54 59 37 60 38 61 47 62 39 63 40 64 46 65
REMARK SMILES IDX 48 66 41 67 42 68 43 69 44 70 45 71 71 72 72 73 81 74 73 75
REMARK SMILES IDX 74 76 80 77 82 78 75 79 76 80 77 81 78 82 79 83 55 84 56 85
REMARK SMILES IDX 65 86 57 87 58 88 64 89 66 90 59 91 60 92 61 93 62 94 63 95
REMARK H PARENT 87 45 53 56
REMARK Flexibility Score: inf
ROOT
ATOM      1  O   UNL A   1      37.899  22.268  25.117  1.00  0.00    -0.374 OA
ENDROOT
BRANCH   1   2
ATOM      2  C   UNL A   1      37.326  23.563  25.291  1.00  0.00     0.202 C 
BRANCH   2   3
ATOM      3  C   UNL A   1      35.816  23.683  25.520  1.00  0.00     0.261 C 
BRANCH   3   4
ATOM      4  O   UNL A   1      35.426  22.958  26.691  1.00  0.00    -0.463 OA
BRANCH   4   5
ATOM      5  C   UNL A   1      34.370  22.117  26.522  1.00  0.00     0.311 C 
ATOM      6  O   UNL A   1      33.604  21.745  27.399  1.00  0.00    -0.252 OA
BRANCH   5   7
ATOM      7  C   UNL A   1      34.261  21.729  25.062  1.00  0.00     0.135 C 
ATOM      8  C   UNL A   1      32.874  22.003  24.455  1.00  0.00     0.135 C 
ATOM      9  C   UNL A   1      32.060  20.812  24.935  1.00  0.00     0.139 C 
ATOM     10  N   UNL A   1      33.044  19.737  24.985  1.00  0.00    -0.306 N 
ATOM     11  C   UNL A   1      34.405  20.228  24.949  1.00  0.00     0.139 C 
BRANCH   8  12
ATOM     12  C   UNL A   1      32.273  23.344  24.793  1.00  0.00     0.311 C 
ATOM     13  O   UNL A   1      32.756  24.422  24.484  1.00  0.00    -0.252 OA
BRANCH  12  14
ATOM     14  O   UNL A   1      31.034  23.202  25.343  1.00  0.00    -0.469 OA
ATOM     15  C   UNL A   1      30.688  24.285  26.213  1.00  0.00     0.282 C 
ENDBRANCH  12  14
ENDBRANCH   8  12
BRANCH  10  16
ATOM     16  C   UNL A   1      32.797  18.396  25.081  1.00  0.00     0.410 C 
ATOM     17  O   UNL A   1      31.686  17.916  24.927  1.00  0.00    -0.224 OA
BRANCH  16  18
ATOM     18  O   UNL A   1      33.921  17.702  25.385  1.00  0.00    -0.444 OA
BRANCH  18  19
ATOM     19  C   UNL A   1      34.120  16.393  24.802  1.00  0.00     0.106 C 
ATOM     20  C   UNL A   1      33.075  15.402  25.330  1.00  0.00     0.056 C 
ATOM     21  C   UNL A   1      34.149  16.450  23.269  1.00  0.00     0.056 C 
ATOM     22  C   UNL A   1      35.506  15.957  25.299  1.00  0.00     0.056 C 
ENDBRANCH  18  19
ENDBRANCH  16  18
ENDBRANCH  10  16
ENDBRANCH   5   7
ENDBRANCH   4   5
ENDBRANCH   3   4
ENDBRANCH   2   3
ENDBRANCH   1   2
BRANCH   1  23
ATOM     23  C   UNL A   1      38.852  21.812  26.073  1.00  0.00     0.202 C 
BRANCH  23  24
ATOM     24  C   UNL A   1      39.491  20.429  25.902  1.00  0.00     0.261 C 
BRANCH  24  25
ATOM     25  O   UNL A   1      40.584  20.192  26.793  1.00  0.00    -0.460 OA
BRANCH  25  26
ATOM     26  C   UNL A   1      41.774  20.036  26.163  1.00  0.00     0.338 C 
ATOM     27  O   UNL A   1      42.088  19.156  25.380  1.00  0.00    -0.246 OA
BRANCH  26  28
ATOM     28  C   UNL A   1      42.609  21.221  26.412  1.00  0.00     0.060 A 
ATOM     29  C   UNL A   1      42.743  21.651  27.738  1.00  0.00     0.016 A 
ATOM     30  C   UNL A   1      43.199  21.923  25.361  1.00  0.00     0.016 A 
ATOM     31  C   UNL A   1      43.437  22.821  28.017  1.00  0.00     0.010 A 
ATOM     32  C   UNL A   1      43.882  23.106  25.642  1.00  0.00     0.010 A 
ATOM     33  C   UNL A   1      43.967  23.575  26.966  1.00  0.00    -0.014 A 
BRANCH  33  34
ATOM     34  C   UNL A   1      44.463  24.942  27.235  1.00  0.00     0.031 A 
ATOM     35  C   UNL A   1      43.475  25.995  27.645  1.00  0.00     0.074 A 
ATOM     36  C   UNL A   1      45.770  25.225  27.125  1.00  0.00     0.049 A 
ATOM     37  N   UNL A   1      43.666  27.266  27.877  1.00  0.00    -0.248 NA
ATOM     38  C   UNL A   1      42.079  25.555  27.805  1.00  0.00     0.031 C 
ATOM     39  C   UNL A   1      46.812  24.265  26.765  1.00  0.00     0.029 A 
ATOM     40  N   UNL A   1      46.439  26.408  27.292  1.00  0.00    -0.354 N 
ATOM     41  C   UNL A   1      42.415  27.784  28.191  1.00  0.00     0.074 A 
ATOM     42  C   UNL A   1      41.469  26.695  28.088  1.00  0.00     0.031 C 
ATOM     43  C   UNL A   1      47.992  24.905  26.716  1.00  0.00     0.029 A 
ATOM     44  C   UNL A   1      47.780  26.322  27.005  1.00  0.00     0.049 A 
ATOM     45  H   UNL A   1      46.003  27.239  27.589  1.00  0.00     0.167 HD
ATOM     46  C   UNL A   1      42.092  29.052  28.538  1.00  0.00     0.037 A 
ATOM     47  C   UNL A   1      48.719  27.285  26.951  1.00  0.00     0.037 A 
ATOM     48  C   UNL A   1      43.053  30.121  28.627  1.00  0.00     0.049 A 
ATOM     49  C   UNL A   1      48.333  28.699  27.289  1.00  0.00     0.074 A 
ATOM     50  C   UNL A   1      42.846  31.437  29.002  1.00  0.00     0.029 A 
ATOM     51  N   UNL A   1      44.402  30.001  28.320  1.00  0.00    -0.354 N 
ATOM     52  N   UNL A   1      47.157  29.176  27.622  1.00  0.00    -0.248 NA
ATOM     53  C   UNL A   1      49.402  29.706  27.255  1.00  0.00     0.031 C 
ATOM     54  C   UNL A   1      44.053  32.126  28.855  1.00  0.00     0.029 A 
ATOM     55  C   UNL A   1      45.032  31.226  28.459  1.00  0.00     0.049 A 
ATOM     56  H   UNL A   1      44.846  29.167  28.042  1.00  0.00     0.167 HD
ATOM     57  C   UNL A   1      47.345  30.534  27.858  1.00  0.00     0.074 A 
ATOM     58  C   UNL A   1      48.754  30.798  27.638  1.00  0.00     0.031 C 
ATOM     59  C   UNL A   1      46.438  31.473  28.229  1.00  0.00     0.037 A 
BRANCH  46  60
ATOM     60  C   UNL A   1      40.638  29.351  28.790  1.00  0.00     0.058 A 
ATOM     61  C   UNL A   1      40.103  29.436  30.086  1.00  0.00     0.135 A 
ATOM     62  C   UNL A   1      39.759  29.538  27.711  1.00  0.00     0.135 A 
ATOM     63  F   UNL A   1      40.892  29.252  31.157  1.00  0.00    -0.206 F 
ATOM     64  C   UNL A   1      38.743  29.643  30.302  1.00  0.00     0.059 A 
ATOM     65  C   UNL A   1      38.402  29.780  27.903  1.00  0.00     0.059 A 
ATOM     66  F   UNL A   1      40.211  29.468  26.448  1.00  0.00    -0.206 F 
ATOM     67  C   UNL A   1      37.900  29.806  29.202  1.00  0.00     0.060 A 
BRANCH  67  68
ATOM     68  S   UNL A   1      36.133  30.033  29.496  1.00  0.00     0.124 S 
ATOM     69  O   UNL A   1      35.554  29.243  28.413  1.00  0.00    -0.237 OA
ATOM     70  O   UNL A   1      35.967  29.485  30.838  1.00  0.00    -0.237 OA
ATOM     71  O   UNL A   1      35.951  31.477  29.383  1.00  0.00    -0.744 OA
ENDBRANCH  67  68
ENDBRANCH  46  60
BRANCH  47  72
ATOM     72  C   UNL A   1      50.103  26.924  26.551  1.00  0.00     0.058 A 
ATOM     73  C   UNL A   1      50.999  26.356  27.465  1.00  0.00     0.135 A 
ATOM     74  C   UNL A   1      50.531  27.073  25.221  1.00  0.00     0.135 A 
ATOM     75  F   UNL A   1      50.641  26.204  28.750  1.00  0.00    -0.206 F 
ATOM     76  C   UNL A   1      52.267  25.936  27.076  1.00  0.00     0.059 A 
ATOM     77  C   UNL A   1      51.782  26.638  24.802  1.00  0.00     0.059 A 
ATOM     78  F   UNL A   1      49.704  27.601  24.304  1.00  0.00    -0.206 F 
ATOM     79  C   UNL A   1      52.644  26.068  25.738  1.00  0.00     0.060 A 
BRANCH  79  80
ATOM     80  S   UNL A   1      54.252  25.425  25.226  1.00  0.00     0.124 S 
ATOM     81  O   UNL A   1      54.266  25.759  23.807  1.00  0.00    -0.237 OA
ATOM     82  O   UNL A   1      55.165  26.188  26.071  1.00  0.00    -0.237 OA
ATOM     83  O   UNL A   1      54.161  24.002  25.539  1.00  0.00    -0.744 OA
ENDBRANCH  79  80
ENDBRANCH  47  72
BRANCH  59  84
ATOM     84  C   UNL A   1      46.940  32.875  28.450  1.00  0.00     0.058 A 
ATOM     85  C   UNL A   1      46.920  33.841  27.433  1.00  0.00     0.135 A 
ATOM     86  C   UNL A   1      47.391  33.273  29.721  1.00  0.00     0.135 A 
ATOM     87  F   UNL A   1      46.504  33.516  26.198  1.00  0.00    -0.206 F 
ATOM     88  C   UNL A   1      47.348  35.146  27.661  1.00  0.00     0.059 A 
ATOM     89  C   UNL A   1      47.793  34.579  29.979  1.00  0.00     0.059 A 
ATOM     90  F   UNL A   1      47.422  32.392  30.733  1.00  0.00    -0.206 F 
ATOM     91  C   UNL A   1      47.779  35.507  28.939  1.00  0.00     0.060 A 
BRANCH  91  92
ATOM     92  S   UNL A   1      48.295  37.211  29.229  1.00  0.00     0.124 S 
ATOM     93  O   UNL A   1      49.564  37.020  29.923  1.00  0.00    -0.237 OA
ATOM     94  O   UNL A   1      48.388  37.743  27.873  1.00  0.00    -0.237 OA
ATOM     95  O   UNL A   1      47.213  37.762  30.039  1.00  0.00    -0.744 OA
ENDBRANCH  91  92
ENDBRANCH  59  84
ENDBRANCH  33  34
ENDBRANCH  26  28
ENDBRANCH  25  26
ENDBRANCH  24  25
ENDBRANCH  23  24
ENDBRANCH   1  23
TORSDOF 22
ENDMDL
MODEL 2
REMARK VINA RESULT:      -9.7      6.557     11.663
REMARK SMILES COC(=O)[C@@H]1CN(C(=O)OC(C)(C)C)C[C@@H]1C(=O)OCCOCCOC(=O)c1ccc(-c2c3nc(c(-c4c(F)cc(S(=O)(=O)[O-])cc4F)c4ccc([nH]4)c(-c4c(F)cc(S(=O)(=O)[O-])cc4F)c4nc(c(-c5c(F)cc(S(=O)(=O)[O-])cc5F)c5ccc2[nH]5)C=C4)C=C3)cc1
REMARK SMILES IDX 22 1 21 2 20 3 19 4 17 5 18 6 16 7 5 8 6 9 7 10 15 11 3 12
REMARK SMILES IDX 4 13 2 14 1 15 8 16 9 17 10 18 11 19 12 20 13 21 14 22 23 23
REMARK SMILES IDX 24 24 25 25 26 26 27 27 28 28 29 29 93 30 30 31 92 32 31 33
REMARK SMILES IDX 32 34 33 35 86 36 34 37 91 38 85 39 87 40 35 41 90 42 84 43
REMARK SMILES IDX 83 44 36 46 70 47 49 48 69 49 50 50 53 51 68 52 88 53 51 54
REMARK SMILES IDX 52 55 67 57 89 58 54 59 37 60 38 61 47 62 39 63 40 64 46 65
REMARK SMILES IDX 48 66 41 67 42 68 43 69 44 70 45 71 71 72 72 73 81 74 73 75
REMARK SMILES IDX 74 76 80 77 82 78 75 79 76 80 77 81 78 82 79 83 55 84 56 85
REMARK SMILES IDX 65 86 57 87 58 88 64 89 66 90 59 91 60 92 61 93 62 94 63 95
REMARK H PARENT 87 45 53 56
REMARK Flexibility Score: inf
ROOT
ATOM      1  O   UNL A   1      33.785  29.651  27.265  1.00  0.00    -0.374 OA
ENDROOT
BRANCH   1   2
ATOM      2  C   UNL A   1      32.390  29.377  27.139  1.00  0.00     0.202 C 
BRANCH   2   3
ATOM      3  C   UNL A   1      31.899  27.936  27.309  1.00  0.00     0.261 C 
BRANCH   3   4
ATOM      4  O   UNL A   1      31.240  27.486  26.120  1.00  0.00    -0.463 OA
BRANCH   4   5
ATOM      5  C   UNL A   1      31.836  26.436  25.494  1.00  0.00     0.311 C 
ATOM      6  O   UNL A   1      31.378  25.308  25.395  1.00  0.00    -0.252 OA
BRANCH   5   7
ATOM      7  C   UNL A   1      33.155  26.886  24.897  1.00  0.00     0.135 C 
ATOM      8  C   UNL A   1      33.133  26.983  23.362  1.00  0.00     0.135 C 
ATOM      9  C   UNL A   1      33.319  25.535  22.935  1.00  0.00     0.139 C 
ATOM     10  N   UNL A   1      34.163  24.985  23.989  1.00  0.00    -0.306 N 
ATOM     11  C   UNL A   1      34.194  25.821  25.169  1.00  0.00     0.139 C 
BRANCH   8  12
ATOM     12  C   UNL A   1      31.919  27.655  22.772  1.00  0.00     0.311 C 
ATOM     13  O   UNL A   1      31.035  27.081  22.156  1.00  0.00    -0.252 OA
BRANCH  12  14
ATOM     14  O   UNL A   1      31.845  28.960  23.158  1.00  0.00    -0.469 OA
ATOM     15  C   UNL A   1      30.499  29.393  23.387  1.00  0.00     0.282 C 
ENDBRANCH  12  14
ENDBRANCH   8  12
BRANCH  10  16
ATOM     16  C   UNL A   1      34.858  23.809  23.959  1.00  0.00     0.410 C 
ATOM     17  O   UNL A   1      35.355  23.360  22.939  1.00  0.00    -0.224 OA
BRANCH  16  18
ATOM     18  O   UNL A   1      34.897  23.221  25.179  1.00  0.00    -0.444 OA
BRANCH  18  19
ATOM     19  C   UNL A   1      34.356  21.888  25.338  1.00  0.00     0.106 C 
ATOM     20  C   UNL A   1      33.967  21.633  26.800  1.00  0.00     0.056 C 
ATOM     21  C   UNL A   1      33.194  21.627  24.371  1.00  0.00     0.056 C 
ATOM     22  C   UNL A   1      35.517  20.954  24.968  1.00  0.00     0.056 C 
ENDBRANCH  18  19
ENDBRANCH  16  18
ENDBRANCH  10  16
ENDBRANCH   5   7
ENDBRANCH   4   5
ENDBRANCH   3   4
ENDBRANCH   2   3
ENDBRANCH   1   2
BRANCH   1  23
ATOM     23  C   UNL A   1      34.202  31.008  27.402  1.00  0.00     0.202 C 
BRANCH  23  24
ATOM     24  C   UNL A   1      33.149  32.105  27.591  1.00  0.00     0.261 C 
BRANCH  24  25
ATOM     25  O   UNL A   1      33.659  33.426  27.384  1.00  0.00    -0.460 OA
BRANCH  25  26
ATOM     26  C   UNL A   1      33.521  34.236  28.462  1.00  0.00     0.338 C 
ATOM     27  O   UNL A   1      32.570  34.947  28.738  1.00  0.00    -0.246 OA
BRANCH  26  28
ATOM     28  C   UNL A   1      34.634  33.993  29.392  1.00  0.00     0.060 A 
ATOM     29  C   UNL A   1      35.935  34.182  28.909  1.00  0.00     0.016 A 
ATOM     30  C   UNL A   1      34.405  33.537  30.690  1.00  0.00     0.016 A 
ATOM     31  C   UNL A   1      37.023  33.870  29.713  1.00  0.00     0.010 A 
ATOM     32  C   UNL A   1      35.499  33.209  31.491  1.00  0.00     0.010 A 
ATOM     33  C   UNL A   1      36.807  33.339  30.989  1.00  0.00    -0.014 A 
BRANCH  33  34
ATOM     34  C   UNL A   1      37.945  32.759  31.733  1.00  0.00     0.031 A 
ATOM     35  C   UNL A   1      38.618  31.538  31.176  1.00  0.00     0.074 A 
ATOM     36  C   UNL A   1      38.370  33.324  32.873  1.00  0.00     0.049 A 
ATOM     37  N   UNL A   1      39.592  30.827  31.678  1.00  0.00    -0.248 NA
ATOM     38  C   UNL A   1      38.116  31.047  29.882  1.00  0.00     0.031 C 
ATOM     39  C   UNL A   1      37.805  34.529  33.478  1.00  0.00     0.029 A 
ATOM     40  N   UNL A   1      39.368  32.948  33.732  1.00  0.00    -0.354 N 
ATOM     41  C   UNL A   1      39.808  29.794  30.773  1.00  0.00     0.074 A 
ATOM     42  C   UNL A   1      38.842  29.954  29.709  1.00  0.00     0.031 C 
ATOM     43  C   UNL A   1      38.453  34.781  34.627  1.00  0.00     0.029 A 
ATOM     44  C   UNL A   1      39.450  33.737  34.853  1.00  0.00     0.049 A 
ATOM     45  H   UNL A   1      39.969  32.186  33.563  1.00  0.00     0.167 HD
ATOM     46  C   UNL A   1      40.733  28.807  30.829  1.00  0.00     0.037 A 
ATOM     47  C   UNL A   1      40.220  33.609  35.950  1.00  0.00     0.037 A 
ATOM     48  C   UNL A   1      41.681  28.665  31.903  1.00  0.00     0.049 A 
ATOM     49  C   UNL A   1      41.208  32.477  36.019  1.00  0.00     0.074 A 
ATOM     50  C   UNL A   1      42.686  27.725  32.047  1.00  0.00     0.029 A 
ATOM     51  N   UNL A   1      41.730  29.476  33.029  1.00  0.00    -0.354 N 
ATOM     52  N   UNL A   1      41.435  31.525  35.144  1.00  0.00    -0.248 NA
ATOM     53  C   UNL A   1      42.053  32.404  37.218  1.00  0.00     0.031 C 
ATOM     54  C   UNL A   1      43.295  27.926  33.290  1.00  0.00     0.029 A 
ATOM     55  C   UNL A   1      42.721  29.037  33.890  1.00  0.00     0.049 A 
ATOM     56  H   UNL A   1      41.144  30.251  33.192  1.00  0.00     0.167 HD
ATOM     57  C   UNL A   1      42.461  30.751  35.674  1.00  0.00     0.074 A 
ATOM     58  C   UNL A   1      42.818  31.355  36.943  1.00  0.00     0.031 C 
ATOM     59  C   UNL A   1      43.059  29.648  35.156  1.00  0.00     0.037 A 
BRANCH  46  60
ATOM     60  C   UNL A   1      40.720  27.784  29.724  1.00  0.00     0.058 A 
ATOM     61  C   UNL A   1      41.683  27.772  28.701  1.00  0.00     0.135 A 
ATOM     62  C   UNL A   1      39.711  26.808  29.678  1.00  0.00     0.135 A 
ATOM     63  F   UNL A   1      42.663  28.689  28.683  1.00  0.00    -0.206 F 
ATOM     64  C   UNL A   1      41.616  26.864  27.647  1.00  0.00     0.059 A 
ATOM     65  C   UNL A   1      39.644  25.868  28.653  1.00  0.00     0.059 A 
ATOM     66  F   UNL A   1      38.763  26.769  30.627  1.00  0.00    -0.206 F 
ATOM     67  C   UNL A   1      40.588  25.921  27.629  1.00  0.00     0.060 A 
BRANCH  67  68
ATOM     68  S   UNL A   1      40.491  24.776  26.236  1.00  0.00     0.124 S 
ATOM     69  O   UNL A   1      41.307  23.665  26.716  1.00  0.00    -0.237 OA
ATOM     70  O   UNL A   1      39.058  24.517  26.146  1.00  0.00    -0.237 OA
ATOM     71  O   UNL A   1      41.058  25.538  25.128  1.00  0.00    -0.744 OA
ENDBRANCH  67  68
ENDBRANCH  46  60
BRANCH  47  72
ATOM     72  C   UNL A   1      40.066  34.583  37.061  1.00  0.00     0.058 A 
ATOM     73  C   UNL A   1      40.790  35.782  37.082  1.00  0.00     0.135 A 
ATOM     74  C   UNL A   1      39.130  34.365  38.085  1.00  0.00     0.135 A 
ATOM     75  F   UNL A   1      41.703  36.031  36.131  1.00  0.00    -0.206 F 
ATOM     76  C   UNL A   1      40.586  36.737  38.073  1.00  0.00     0.059 A 
ATOM     77  C   UNL A   1      38.889  35.314  39.071  1.00  0.00     0.059 A 
ATOM     78  F   UNL A   1      38.402  33.236  38.102  1.00  0.00    -0.206 F 
ATOM     79  C   UNL A   1      39.622  36.500  39.056  1.00  0.00     0.060 A 
BRANCH  79  80
ATOM     80  S   UNL A   1      39.296  37.792  40.274  1.00  0.00     0.124 S 
ATOM     81  O   UNL A   1      38.933  37.007  41.448  1.00  0.00    -0.237 OA
ATOM     82  O   UNL A   1      40.582  38.480  40.338  1.00  0.00    -0.237 OA
ATOM     83  O   UNL A   1      38.211  38.560  39.669  1.00  0.00    -0.744 OA
ENDBRANCH  79  80
ENDBRANCH  47  72
BRANCH  59  84
ATOM     84  C   UNL A   1      44.183  29.031  35.945  1.00  0.00     0.058 A 
ATOM     85  C   UNL A   1      45.498  29.512  35.865  1.00  0.00     0.135 A 
ATOM     86  C   UNL A   1      43.923  27.982  36.844  1.00  0.00     0.135 A 
ATOM     87  F   UNL A   1      45.804  30.509  35.019  1.00  0.00    -0.206 F 
ATOM     88  C   UNL A   1      46.522  28.961  36.631  1.00  0.00     0.059 A 
ATOM     89  C   UNL A   1      44.924  27.439  37.643  1.00  0.00     0.059 A 
ATOM     90  F   UNL A   1      42.681  27.490  36.969  1.00  0.00    -0.206 F 
ATOM     91  C   UNL A   1      46.224  27.928  37.521  1.00  0.00     0.060 A 
BRANCH  91  92
ATOM     92  S   UNL A   1      47.553  27.249  38.535  1.00  0.00     0.124 S 
ATOM     93  O   UNL A   1      48.332  28.444  38.838  1.00  0.00    -0.237 OA
ATOM     94  O   UNL A   1      46.822  26.666  39.656  1.00  0.00    -0.237 OA
ATOM     95  O   UNL A   1      48.200  26.286  37.649  1.00  0.00    -0.744 OA
ENDBRANCH  91  92
ENDBRANCH  59  84
ENDBRANCH  33  34
ENDBRANCH  26  28
ENDBRANCH  25  26
ENDBRANCH  24  25
ENDBRANCH  23  24
ENDBRANCH   1  23
TORSDOF 22
ENDMDL
MODEL 3
REMARK VINA RESULT:      -9.7      0.919      1.850
REMARK SMILES COC(=O)[C@@H]1CN(C(=O)OC(C)(C)C)C[C@@H]1C(=O)OCCOCCOC(=O)c1ccc(-c2c3nc(c(-c4c(F)cc(S(=O)(=O)[O-])cc4F)c4ccc([nH]4)c(-c4c(F)cc(S(=O)(=O)[O-])cc4F)c4nc(c(-c5c(F)cc(S(=O)(=O)[O-])cc5F)c5ccc2[nH]5)C=C4)C=C3)cc1
REMARK SMILES IDX 22 1 21 2 20 3 19 4 17 5 18 6 16 7 5 8 6 9 7 10 15 11 3 12
REMARK SMILES IDX 4 13 2 14 1 15 8 16 9 17 10 18 11 19 12 20 13 21 14 22 23 23
REMARK SMILES IDX 24 24 25 25 26 26 27 27 28 28 29 29 93 30 30 31 92 32 31 33
REMARK SMILES IDX 32 34 33 35 86 36 34 37 91 38 85 39 87 40 35 41 90 42 84 43
REMARK SMILES IDX 83 44 36 46 70 47 49 48 69 49 50 50 53 51 68 52 88 53 51 54
REMARK SMILES IDX 52 55 67 57 89 58 54 59 37 60 38 61 47 62 39 63 40 64 46 65
REMARK SMILES IDX 48 66 41 67 42 68 43 69 44 70 45 71 71 72 72 73 81 74 73 75
REMARK SMILES IDX 74 76 80 77 82 78 75 79 76 80 77 81 78 82 79 83 55 84 56 85
REMARK SMILES IDX 65 86 57 87 58 88 64 89 66 90 59 91 60 92 61 93 62 94 63 95
REMARK H PARENT 87 45 53 56
REMARK Flexibility Score: inf
ROOT
ATOM      1  O   UNL A   1      38.510  21.592  26.137  1.00  0.00    -0.374 OA
ENDROOT
BRANCH   1   2
ATOM      2  C   UNL A   1      37.914  22.764  25.582  1.00  0.00     0.202 C 
BRANCH   2   3
ATOM      3  C   UNL A   1      36.854  23.515  26.395  1.00  0.00     0.261 C 
BRANCH   3   4
ATOM      4  O   UNL A   1      35.555  23.323  25.825  1.00  0.00    -0.463 OA
BRANCH   4   5
ATOM      5  C   UNL A   1      35.044  22.071  25.964  1.00  0.00     0.311 C 
ATOM      6  O   UNL A   1      34.708  21.548  27.017  1.00  0.00    -0.252 OA
BRANCH   5   7
ATOM      7  C   UNL A   1      34.918  21.422  24.601  1.00  0.00     0.135 C 
ATOM      8  C   UNL A   1      33.597  21.749  23.884  1.00  0.00     0.135 C 
ATOM      9  C   UNL A   1      32.615  20.792  24.542  1.00  0.00     0.139 C 
ATOM     10  N   UNL A   1      33.441  19.629  24.846  1.00  0.00    -0.306 N 
ATOM     11  C   UNL A   1      34.857  19.922  24.786  1.00  0.00     0.139 C 
BRANCH   8  12
ATOM     12  C   UNL A   1      33.178  23.197  23.929  1.00  0.00     0.311 C 
ATOM     13  O   UNL A   1      33.614  24.072  23.197  1.00  0.00    -0.252 OA
BRANCH  12  14
ATOM     14  O   UNL A   1      32.126  23.378  24.777  1.00  0.00    -0.469 OA
ATOM     15  C   UNL A   1      31.373  24.560  24.479  1.00  0.00     0.282 C 
ENDBRANCH  12  14
ENDBRANCH   8  12
BRANCH  10  16
ATOM     16  C   UNL A   1      33.010  18.377  25.184  1.00  0.00     0.410 C 
ATOM     17  O   UNL A   1      31.831  18.063  25.189  1.00  0.00    -0.224 OA
BRANCH  16  18
ATOM     18  O   UNL A   1      34.043  17.568  25.523  1.00  0.00    -0.444 OA
BRANCH  18  19
ATOM     19  C   UNL A   1      34.162  16.272  24.890  1.00  0.00     0.106 C 
ATOM     20  C   UNL A   1      35.515  15.631  25.220  1.00  0.00     0.056 C 
ATOM     21  C   UNL A   1      32.981  15.357  25.241  1.00  0.00     0.056 C 
ATOM     22  C   UNL A   1      34.114  16.573  23.385  1.00  0.00     0.056 C 
ENDBRANCH  18  19
ENDBRANCH  16  18
ENDBRANCH  10  16
ENDBRANCH   5   7
ENDBRANCH   4   5
ENDBRANCH   3   4
ENDBRANCH   2   3
ENDBRANCH   1   2
BRANCH   1  23
ATOM     23  C   UNL A   1      38.563  20.413  25.338  1.00  0.00     0.202 C 
BRANCH  23  24
ATOM     24  C   UNL A   1      39.601  19.332  25.655  1.00  0.00     0.261 C 
BRANCH  24  25
ATOM     25  O   UNL A   1      40.950  19.754  25.432  1.00  0.00    -0.460 OA
BRANCH  25  26
ATOM     26  C   UNL A   1      41.712  19.751  26.553  1.00  0.00     0.338 C 
ATOM     27  O   UNL A   1      42.209  18.787  27.109  1.00  0.00    -0.246 OA
BRANCH  26  28
ATOM     28  C   UNL A   1      42.033  21.138  26.919  1.00  0.00     0.060 A 
ATOM     29  C   UNL A   1      41.986  22.103  25.905  1.00  0.00     0.016 A 
ATOM     30  C   UNL A   1      42.424  21.472  28.215  1.00  0.00     0.016 A 
ATOM     31  C   UNL A   1      42.376  23.409  26.174  1.00  0.00     0.010 A 
ATOM     32  C   UNL A   1      42.830  22.780  28.480  1.00  0.00     0.010 A 
ATOM     33  C   UNL A   1      42.843  23.738  27.450  1.00  0.00    -0.014 A 
BRANCH  33  34
ATOM     34  C   UNL A   1      43.507  25.042  27.662  1.00  0.00     0.031 A 
ATOM     35  C   UNL A   1      42.674  26.207  28.111  1.00  0.00     0.074 A 
ATOM     36  C   UNL A   1      44.829  25.171  27.467  1.00  0.00     0.049 A 
ATOM     37  N   UNL A   1      43.023  27.450  28.306  1.00  0.00    -0.248 NA
ATOM     38  C   UNL A   1      41.250  25.932  28.365  1.00  0.00     0.031 C 
ATOM     39  C   UNL A   1      45.729  24.094  27.062  1.00  0.00     0.029 A 
ATOM     40  N   UNL A   1      45.638  26.272  27.569  1.00  0.00    -0.354 N 
ATOM     41  C   UNL A   1      41.862  28.112  28.686  1.00  0.00     0.074 A 
ATOM     42  C   UNL A   1      40.793  27.138  28.663  1.00  0.00     0.031 C 
ATOM     43  C   UNL A   1      46.969  24.593  26.928  1.00  0.00     0.029 A 
ATOM     44  C   UNL A   1      46.939  26.028  27.202  1.00  0.00     0.049 A 
ATOM     45  H   UNL A   1      45.319  27.151  27.876  1.00  0.00     0.167 HD
ATOM     46  C   UNL A   1      41.708  29.413  29.028  1.00  0.00     0.037 A 
ATOM     47  C   UNL A   1      47.976  26.877  27.072  1.00  0.00     0.037 A 
ATOM     48  C   UNL A   1      42.788  30.365  29.037  1.00  0.00     0.049 A 
ATOM     49  C   UNL A   1      47.777  28.330  27.406  1.00  0.00     0.074 A 
ATOM     50  C   UNL A   1      42.756  31.701  29.398  1.00  0.00     0.029 A 
ATOM     51  N   UNL A   1      44.092  30.088  28.650  1.00  0.00    -0.354 N 
ATOM     52  N   UNL A   1      46.685  28.943  27.801  1.00  0.00    -0.248 NA
ATOM     53  C   UNL A   1      48.948  29.207  27.286  1.00  0.00     0.031 C 
ATOM     54  C   UNL A   1      44.022  32.245  29.163  1.00  0.00     0.029 A 
ATOM     55  C   UNL A   1      44.866  31.234  28.726  1.00  0.00     0.049 A 
ATOM     56  H   UNL A   1      44.420  29.205  28.362  1.00  0.00     0.167 HD
ATOM     57  C   UNL A   1      47.042  30.273  27.998  1.00  0.00     0.074 A 
ATOM     58  C   UNL A   1      48.455  30.370  27.687  1.00  0.00     0.031 C 
ATOM     59  C   UNL A   1      46.273  31.315  28.406  1.00  0.00     0.037 A 
BRANCH  46  60
ATOM     60  C   UNL A   1      40.316  29.880  29.362  1.00  0.00     0.058 A 
ATOM     61  C   UNL A   1      39.314  30.011  28.387  1.00  0.00     0.135 A 
ATOM     62  C   UNL A   1      39.985  30.223  30.683  1.00  0.00     0.135 A 
ATOM     63  F   UNL A   1      39.574  29.713  27.103  1.00  0.00    -0.206 F 
ATOM     64  C   UNL A   1      38.053  30.512  28.699  1.00  0.00     0.059 A 
ATOM     65  C   UNL A   1      38.720  30.692  31.026  1.00  0.00     0.059 A 
ATOM     66  F   UNL A   1      40.901  30.119  31.660  1.00  0.00    -0.206 F 
ATOM     67  C   UNL A   1      37.769  30.857  30.021  1.00  0.00     0.060 A 
BRANCH  67  68
ATOM     68  S   UNL A   1      36.143  31.543  30.404  1.00  0.00     0.124 S 
ATOM     69  O   UNL A   1      35.786  30.790  31.603  1.00  0.00    -0.237 OA
ATOM     70  O   UNL A   1      36.442  32.956  30.609  1.00  0.00    -0.237 OA
ATOM     71  O   UNL A   1      35.355  31.236  29.215  1.00  0.00    -0.744 OA
ENDBRANCH  67  68
ENDBRANCH  46  60
BRANCH  47  72
ATOM     72  C   UNL A   1      49.282  26.354  26.595  1.00  0.00     0.058 A 
ATOM     73  C   UNL A   1      49.631  26.399  25.239  1.00  0.00     0.135 A 
ATOM     74  C   UNL A   1      50.238  25.868  27.502  1.00  0.00     0.135 A 
ATOM     75  F   UNL A   1      48.748  26.845  24.333  1.00  0.00    -0.206 F 
ATOM     76  C   UNL A   1      50.886  25.991  24.797  1.00  0.00     0.059 A 
ATOM     77  C   UNL A   1      51.507  25.479  27.089  1.00  0.00     0.059 A 
ATOM     78  F   UNL A   1      49.956  25.816  28.814  1.00  0.00    -0.206 F 
ATOM     79  C   UNL A   1      51.823  25.546  25.732  1.00  0.00     0.060 A 
BRANCH  79  80
ATOM     80  S   UNL A   1      53.480  25.118  25.158  1.00  0.00     0.124 S 
ATOM     81  O   UNL A   1      53.487  23.670  25.327  1.00  0.00    -0.237 OA
ATOM     82  O   UNL A   1      53.457  25.601  23.781  1.00  0.00    -0.237 OA
ATOM     83  O   UNL A   1      54.353  25.863  26.061  1.00  0.00    -0.744 OA
ENDBRANCH  79  80
ENDBRANCH  47  72
BRANCH  59  84
ATOM     84  C   UNL A   1      46.945  32.652  28.568  1.00  0.00     0.058 A 
ATOM     85  C   UNL A   1      46.987  33.594  27.529  1.00  0.00     0.135 A 
ATOM     86  C   UNL A   1      47.500  33.019  29.806  1.00  0.00     0.135 A 
ATOM     87  F   UNL A   1      46.477  33.295  26.323  1.00  0.00    -0.206 F 
ATOM     88  C   UNL A   1      47.574  34.844  27.704  1.00  0.00     0.059 A 
ATOM     89  C   UNL A   1      48.062  34.274  30.013  1.00  0.00     0.059 A 
ATOM     90  F   UNL A   1      47.478  32.160  30.838  1.00  0.00    -0.206 F 
ATOM     91  C   UNL A   1      48.106  35.176  28.952  1.00  0.00     0.060 A 
BRANCH  91  92
ATOM     92  S   UNL A   1      48.830  36.814  29.175  1.00  0.00     0.124 S 
ATOM     93  O   UNL A   1      47.648  37.625  29.441  1.00  0.00    -0.237 OA
ATOM     94  O   UNL A   1      49.726  36.605  30.309  1.00  0.00    -0.237 OA
ATOM     95  O   UNL A   1      49.493  37.070  27.900  1.00  0.00    -0.744 OA
ENDBRANCH  91  92
ENDBRANCH  59  84
ENDBRANCH  33  34
ENDBRANCH  26  28
ENDBRANCH  25  26
ENDBRANCH  24  25
ENDBRANCH  23  24
ENDBRANCH   1  23
TORSDOF 22
ENDMDL
