MODEL 1
REMARK VINA RESULT:     -10.9      0.000      0.000
REMARK SMILES O=C(OCCOCCOC(=O)c1ccc(-c2c3nc(c(-c4c(F)cc(S(=O)(=O)[O-])cc4F)c4ccc([nH]4)c(-c4c(F)cc(S(=O)(=O)[O-])cc4F)c4nc(c(-c5c(F)cc(S(=O)(=O)[O-])cc5F)c5ccc2[nH]5)C=C4)C=C3)cc1)c1ccc(-c2ccc(=O)[nH]c2)cc1
REMARK SMILES IDX 7 1 6 2 5 3 4 4 3 5 2 6 1 7 78 8 79 9 90 10 80 11 89 12
REMARK SMILES IDX 81 13 82 14 83 15 88 16 84 17 87 18 85 19 86 21 8 22 9 23
REMARK SMILES IDX 10 24 11 25 12 26 13 27 77 28 14 29 76 30 15 31 16 32 17 33
REMARK SMILES IDX 70 34 18 35 75 36 69 37 71 38 19 39 74 40 68 41 67 42 20 44
REMARK SMILES IDX 54 45 33 46 53 47 34 48 37 49 52 50 72 51 35 52 36 53 51 55
REMARK SMILES IDX 73 56 38 57 21 58 22 59 31 60 23 61 24 62 30 63 32 64 25 65
REMARK SMILES IDX 26 66 27 67 28 68 29 69 55 70 56 71 65 72 57 73 58 74 64 75
REMARK SMILES IDX 66 76 59 77 60 78 61 79 62 80 63 81 39 82 40 83 49 84 41 85
REMARK SMILES IDX 42 86 48 87 50 88 43 89 44 90 45 91 46 92 47 93
REMARK H PARENT 87 20 71 43 37 54
REMARK Flexibility Score: inf
ROOT
ATOM      1  C   UNL A   1      32.022  29.639  27.219  1.00  0.00     0.202 C 
ENDROOT
BRANCH   1   2
ATOM      2  O   UNL A   1      31.753  30.403  26.035  1.00  0.00    -0.374 OA
BRANCH   2   3
ATOM      3  C   UNL A   1      31.926  29.705  24.801  1.00  0.00     0.202 C 
BRANCH   3   4
ATOM      4  C   UNL A   1      30.610  29.385  24.092  1.00  0.00     0.261 C 
BRANCH   4   5
ATOM      5  O   UNL A   1      30.435  27.958  23.989  1.00  0.00    -0.460 OA
BRANCH   5   6
ATOM      6  C   UNL A   1      31.019  27.128  23.094  1.00  0.00     0.338 C 
ATOM      7  O   UNL A   1      30.661  27.133  21.920  1.00  0.00    -0.246 OA
BRANCH   6   8
ATOM      8  C   UNL A   1      32.116  26.203  23.483  1.00  0.00     0.060 A 
ATOM      9  C   UNL A   1      33.013  25.659  22.566  1.00  0.00     0.016 A 
ATOM     10  C   UNL A   1      32.327  25.962  24.847  1.00  0.00     0.016 A 
ATOM     11  C   UNL A   1      34.045  24.825  22.977  1.00  0.00     0.009 A 
ATOM     12  C   UNL A   1      33.391  25.152  25.272  1.00  0.00     0.009 A 
ATOM     13  C   UNL A   1      34.256  24.573  24.335  1.00  0.00    -0.017 A 
BRANCH  13  14
ATOM     14  C   UNL A   1      35.367  23.683  24.720  1.00  0.00    -0.002 A 
ATOM     15  C   UNL A   1      36.046  22.803  23.782  1.00  0.00     0.016 A 
ATOM     16  C   UNL A   1      35.845  23.762  25.978  1.00  0.00     0.094 A 
ATOM     17  C   UNL A   1      37.148  22.127  24.135  1.00  0.00     0.072 A 
ATOM     18  N   UNL A   1      36.967  23.069  26.355  1.00  0.00    -0.328 N 
ATOM     19  C   UNL A   1      37.685  22.259  25.513  1.00  0.00     0.247 A 
ATOM     20  H   UNL A   1      37.274  23.158  27.287  1.00  0.00     0.169 HD
ATOM     21  O   UNL A   1      38.705  21.674  25.858  1.00  0.00    -0.270 OA
ENDBRANCH  13  14
ENDBRANCH   6   8
ENDBRANCH   5   6
ENDBRANCH   4   5
ENDBRANCH   3   4
ENDBRANCH   2   3
ENDBRANCH   1   2
BRANCH   1  22
ATOM     22  C   UNL A   1      33.532  29.406  27.334  1.00  0.00     0.261 C 
BRANCH  22  23
ATOM     23  O   UNL A   1      34.192  30.660  27.115  1.00  0.00    -0.460 OA
BRANCH  23  24
ATOM     24  C   UNL A   1      34.742  31.205  28.230  1.00  0.00     0.338 C 
ATOM     25  O   UNL A   1      34.211  31.979  29.011  1.00  0.00    -0.246 OA
BRANCH  24  26
ATOM     26  C   UNL A   1      36.030  30.517  28.473  1.00  0.00     0.060 A 
ATOM     27  C   UNL A   1      36.286  30.000  29.752  1.00  0.00     0.016 A 
ATOM     28  C   UNL A   1      36.949  30.328  27.438  1.00  0.00     0.016 A 
ATOM     29  C   UNL A   1      37.480  29.326  30.008  1.00  0.00     0.010 A 
ATOM     30  C   UNL A   1      38.137  29.656  27.690  1.00  0.00     0.010 A 
ATOM     31  C   UNL A   1      38.423  29.190  28.983  1.00  0.00    -0.014 A 
BRANCH  31  32
ATOM     32  C   UNL A   1      39.817  28.794  29.263  1.00  0.00     0.031 A 
ATOM     33  C   UNL A   1      40.761  29.880  29.686  1.00  0.00     0.074 A 
ATOM     34  C   UNL A   1      40.250  27.549  29.009  1.00  0.00     0.049 A 
ATOM     35  N   UNL A   1      42.064  29.876  29.742  1.00  0.00    -0.248 NA
ATOM     36  C   UNL A   1      40.141  31.165  30.058  1.00  0.00     0.031 C 
ATOM     37  C   UNL A   1      39.408  26.428  28.597  1.00  0.00     0.029 A 
ATOM     38  N   UNL A   1      41.522  27.039  29.008  1.00  0.00    -0.354 N 
ATOM     39  C   UNL A   1      42.423  31.166  30.117  1.00  0.00     0.074 A 
ATOM     40  C   UNL A   1      41.203  31.928  30.254  1.00  0.00     0.031 C 
ATOM     41  C   UNL A   1      40.193  25.368  28.338  1.00  0.00     0.029 A 
ATOM     42  C   UNL A   1      41.592  25.755  28.524  1.00  0.00     0.049 A 
ATOM     43  H   UNL A   1      42.308  27.543  29.323  1.00  0.00     0.167 HD
ATOM     44  C   UNL A   1      43.663  31.667  30.319  1.00  0.00     0.037 A 
ATOM     45  C   UNL A   1      42.667  25.000  28.223  1.00  0.00     0.037 A 
ATOM     46  C   UNL A   1      44.861  30.888  30.166  1.00  0.00     0.049 A 
ATOM     47  C   UNL A   1      44.043  25.572  28.445  1.00  0.00     0.074 A 
ATOM     48  C   UNL A   1      46.171  31.267  30.385  1.00  0.00     0.029 A 
ATOM     49  N   UNL A   1      44.889  29.567  29.739  1.00  0.00    -0.354 N 
ATOM     50  N   UNL A   1      44.379  26.777  28.844  1.00  0.00    -0.248 NA
ATOM     51  C   UNL A   1      45.185  24.686  28.182  1.00  0.00     0.031 C 
ATOM     52  C   UNL A   1      46.996  30.189  30.045  1.00  0.00     0.029 A 
ATOM     53  C   UNL A   1      46.196  29.120  29.668  1.00  0.00     0.049 A 
ATOM     54  H   UNL A   1      44.096  29.027  29.517  1.00  0.00     0.167 HD
ATOM     55  C   UNL A   1      45.768  26.787  28.907  1.00  0.00     0.074 A 
ATOM     56  C   UNL A   1      46.210  25.466  28.503  1.00  0.00     0.031 C 
ATOM     57  C   UNL A   1      46.603  27.792  29.274  1.00  0.00     0.037 A 
BRANCH  44  58
ATOM     58  C   UNL A   1      43.765  33.124  30.677  1.00  0.00     0.058 A 
ATOM     59  C   UNL A   1      43.852  34.126  29.697  1.00  0.00     0.135 A 
ATOM     60  C   UNL A   1      43.820  33.521  32.024  1.00  0.00     0.135 A 
ATOM     61  F   UNL A   1      43.827  33.801  28.394  1.00  0.00    -0.206 F 
ATOM     62  C   UNL A   1      44.043  35.461  30.036  1.00  0.00     0.059 A 
ATOM     63  C   UNL A   1      43.978  34.855  32.386  1.00  0.00     0.059 A 
ATOM     64  F   UNL A   1      43.746  32.606  33.003  1.00  0.00    -0.206 F 
ATOM     65  C   UNL A   1      44.115  35.815  31.384  1.00  0.00     0.060 A 
BRANCH  65  66
ATOM     66  S   UNL A   1      44.407  37.544  31.810  1.00  0.00     0.124 S 
ATOM     67  O   UNL A   1      45.843  37.538  32.075  1.00  0.00    -0.237 OA
ATOM     68  O   UNL A   1      43.992  38.240  30.597  1.00  0.00    -0.237 OA
ATOM     69  O   UNL A   1      43.555  37.756  32.975  1.00  0.00    -0.744 OA
ENDBRANCH  65  66
ENDBRANCH  44  58
BRANCH  45  70
ATOM     70  C   UNL A   1      42.466  23.632  27.679  1.00  0.00     0.058 A 
ATOM     71  C   UNL A   1      42.368  23.415  26.298  1.00  0.00     0.135 A 
ATOM     72  C   UNL A   1      42.451  22.508  28.521  1.00  0.00     0.135 A 
ATOM     73  F   UNL A   1      42.368  24.456  25.453  1.00  0.00    -0.206 F 
ATOM     74  C   UNL A   1      42.278  22.131  25.767  1.00  0.00     0.059 A 
ATOM     75  C   UNL A   1      42.382  21.214  28.014  1.00  0.00     0.059 A 
ATOM     76  F   UNL A   1      42.555  22.664  29.851  1.00  0.00    -0.206 F 
ATOM     77  C   UNL A   1      42.300  21.036  26.634  1.00  0.00     0.060 A 
BRANCH  77  78
ATOM     78  S   UNL A   1      42.300  19.374  25.925  1.00  0.00     0.124 S 
ATOM     79  O   UNL A   1      42.767  18.572  27.050  1.00  0.00    -0.237 OA
ATOM     80  O   UNL A   1      40.898  19.201  25.557  1.00  0.00    -0.237 OA
ATOM     81  O   UNL A   1      43.225  19.487  24.802  1.00  0.00    -0.744 OA
ENDBRANCH  77  78
ENDBRANCH  45  70
BRANCH  57  82
ATOM     82  C   UNL A   1      48.077  27.498  29.308  1.00  0.00     0.058 A 
ATOM     83  C   UNL A   1      48.893  27.675  28.181  1.00  0.00     0.135 A 
ATOM     84  C   UNL A   1      48.692  27.136  30.518  1.00  0.00     0.135 A 
ATOM     85  F   UNL A   1      48.352  28.016  27.001  1.00  0.00    -0.206 F 
ATOM     86  C   UNL A   1      50.271  27.500  28.251  1.00  0.00     0.059 A 
ATOM     87  C   UNL A   1      50.070  26.980  30.617  1.00  0.00     0.059 A 
ATOM     88  F   UNL A   1      47.954  26.966  31.626  1.00  0.00    -0.206 F 
ATOM     89  C   UNL A   1      50.851  27.161  29.476  1.00  0.00     0.060 A 
BRANCH  89  90
ATOM     90  S   UNL A   1      52.647  27.002  29.571  1.00  0.00     0.124 S 
ATOM     91  O   UNL A   1      52.798  25.964  30.585  1.00  0.00    -0.237 OA
ATOM     92  O   UNL A   1      52.998  26.613  28.208  1.00  0.00    -0.237 OA
ATOM     93  O   UNL A   1      53.086  28.337  29.967  1.00  0.00    -0.744 OA
ENDBRANCH  89  90
ENDBRANCH  57  82
ENDBRANCH  31  32
ENDBRANCH  24  26
ENDBRANCH  23  24
ENDBRANCH  22  23
ENDBRANCH   1  22
TORSDOF 18
ENDMDL
MODEL 2
REMARK VINA RESULT:     -10.8      2.194      2.736
REMARK SMILES O=C(OCCOCCOC(=O)c1ccc(-c2c3nc(c(-c4c(F)cc(S(=O)(=O)[O-])cc4F)c4ccc([nH]4)c(-c4c(F)cc(S(=O)(=O)[O-])cc4F)c4nc(c(-c5c(F)cc(S(=O)(=O)[O-])cc5F)c5ccc2[nH]5)C=C4)C=C3)cc1)c1ccc(-c2ccc(=O)[nH]c2)cc1
REMARK SMILES IDX 7 1 6 2 5 3 4 4 3 5 2 6 1 7 78 8 79 9 90 10 80 11 89 12
REMARK SMILES IDX 81 13 82 14 83 15 88 16 84 17 87 18 85 19 86 21 8 22 9 23
REMARK SMILES IDX 10 24 11 25 12 26 13 27 77 28 14 29 76 30 15 31 16 32 17 33
REMARK SMILES IDX 70 34 18 35 75 36 69 37 71 38 19 39 74 40 68 41 67 42 20 44
REMARK SMILES IDX 54 45 33 46 53 47 34 48 37 49 52 50 72 51 35 52 36 53 51 55
REMARK SMILES IDX 73 56 38 57 21 58 22 59 31 60 23 61 24 62 30 63 32 64 25 65
REMARK SMILES IDX 26 66 27 67 28 68 29 69 55 70 56 71 65 72 57 73 58 74 64 75
REMARK SMILES IDX 66 76 59 77 60 78 61 79 62 80 63 81 39 82 40 83 49 84 41 85
REMARK SMILES IDX 42 86 48 87 50 88 43 89 44 90 45 91 46 92 47 93
REMARK H PARENT 87 20 71 43 37 54
REMARK Flexibility Score: inf
ROOT
ATOM      1  C   UNL A   1      32.704  29.450  25.818  1.00  0.00     0.202 C 
ENDROOT
BRANCH   1   2
ATOM      2  O   UNL A   1      31.583  28.566  25.953  1.00  0.00    -0.374 OA
BRANCH   2   3
ATOM      3  C   UNL A   1      31.855  27.320  26.596  1.00  0.00     0.202 C 
BRANCH   3   4
ATOM      4  C   UNL A   1      33.127  26.639  26.091  1.00  0.00     0.261 C 
BRANCH   4   5
ATOM      5  O   UNL A   1      32.880  25.237  25.857  1.00  0.00    -0.460 OA
BRANCH   5   6
ATOM      6  C   UNL A   1      33.306  24.500  24.805  1.00  0.00     0.338 C 
ATOM      7  O   UNL A   1      33.690  25.052  23.778  1.00  0.00    -0.246 OA
BRANCH   6   8
ATOM      8  C   UNL A   1      33.345  23.015  24.855  1.00  0.00     0.060 A 
ATOM      9  C   UNL A   1      32.201  22.228  24.974  1.00  0.00     0.016 A 
ATOM     10  C   UNL A   1      34.577  22.378  24.656  1.00  0.00     0.016 A 
ATOM     11  C   UNL A   1      32.281  20.841  24.982  1.00  0.00     0.009 A 
ATOM     12  C   UNL A   1      34.659  20.978  24.626  1.00  0.00     0.009 A 
ATOM     13  C   UNL A   1      33.507  20.198  24.794  1.00  0.00    -0.017 A 
BRANCH  13  14
ATOM     14  C   UNL A   1      33.538  18.724  24.809  1.00  0.00    -0.002 A 
ATOM     15  C   UNL A   1      34.653  17.945  24.293  1.00  0.00     0.016 A 
ATOM     16  C   UNL A   1      32.533  18.068  25.421  1.00  0.00     0.094 A 
ATOM     17  C   UNL A   1      34.711  16.617  24.465  1.00  0.00     0.072 A 
ATOM     18  N   UNL A   1      32.576  16.709  25.597  1.00  0.00    -0.328 N 
ATOM     19  C   UNL A   1      33.614  15.916  25.180  1.00  0.00     0.247 A 
ATOM     20  H   UNL A   1      31.815  16.276  26.048  1.00  0.00     0.169 HD
ATOM     21  O   UNL A   1      33.652  14.707  25.376  1.00  0.00    -0.270 OA
ENDBRANCH  13  14
ENDBRANCH   6   8
ENDBRANCH   5   6
ENDBRANCH   4   5
ENDBRANCH   3   4
ENDBRANCH   2   3
ENDBRANCH   1   2
BRANCH   1  22
ATOM     22  C   UNL A   1      32.798  30.335  27.065  1.00  0.00     0.261 C 
BRANCH  22  23
ATOM     23  O   UNL A   1      33.877  29.850  27.873  1.00  0.00    -0.460 OA
BRANCH  23  24
ATOM     24  C   UNL A   1      34.700  30.818  28.351  1.00  0.00     0.338 C 
ATOM     25  O   UNL A   1      34.379  31.928  28.745  1.00  0.00    -0.246 OA
BRANCH  24  26
ATOM     26  C   UNL A   1      36.039  30.215  28.535  1.00  0.00     0.060 A 
ATOM     27  C   UNL A   1      36.389  29.726  29.803  1.00  0.00     0.016 A 
ATOM     28  C   UNL A   1      36.917  30.074  27.457  1.00  0.00     0.016 A 
ATOM     29  C   UNL A   1      37.634  29.131  30.005  1.00  0.00     0.010 A 
ATOM     30  C   UNL A   1      38.156  29.480  27.656  1.00  0.00     0.010 A 
ATOM     31  C   UNL A   1      38.532  29.045  28.936  1.00  0.00    -0.014 A 
BRANCH  31  32
ATOM     32  C   UNL A   1      39.961  28.740  29.149  1.00  0.00     0.031 A 
ATOM     33  C   UNL A   1      40.860  29.893  29.484  1.00  0.00     0.074 A 
ATOM     34  C   UNL A   1      40.453  27.513  28.912  1.00  0.00     0.049 A 
ATOM     35  N   UNL A   1      42.162  29.966  29.467  1.00  0.00    -0.248 NA
ATOM     36  C   UNL A   1      40.186  31.152  29.848  1.00  0.00     0.031 C 
ATOM     37  C   UNL A   1      39.657  26.332  28.584  1.00  0.00     0.029 A 
ATOM     38  N   UNL A   1      41.750  27.077  28.856  1.00  0.00    -0.354 N 
ATOM     39  C   UNL A   1      42.464  31.286  29.779  1.00  0.00     0.074 A 
ATOM     40  C   UNL A   1      41.210  31.982  29.960  1.00  0.00     0.031 C 
ATOM     41  C   UNL A   1      40.489  25.311  28.316  1.00  0.00     0.029 A 
ATOM     42  C   UNL A   1      41.870  25.783  28.410  1.00  0.00     0.049 A 
ATOM     43  H   UNL A   1      42.521  27.636  29.110  1.00  0.00     0.167 HD
ATOM     44  C   UNL A   1      43.681  31.864  29.895  1.00  0.00     0.037 A 
ATOM     45  C   UNL A   1      42.970  25.081  28.074  1.00  0.00     0.037 A 
ATOM     46  C   UNL A   1      44.914  31.150  29.700  1.00  0.00     0.049 A 
ATOM     47  C   UNL A   1      44.320  25.738  28.200  1.00  0.00     0.074 A 
ATOM     48  C   UNL A   1      46.209  31.612  29.833  1.00  0.00     0.029 A 
ATOM     49  N   UNL A   1      44.997  29.819  29.315  1.00  0.00    -0.354 N 
ATOM     50  N   UNL A   1      44.605  26.975  28.540  1.00  0.00    -0.248 NA
ATOM     51  C   UNL A   1      45.496  24.911  27.902  1.00  0.00     0.031 C 
ATOM     52  C   UNL A   1      47.076  30.571  29.482  1.00  0.00     0.029 A 
ATOM     53  C   UNL A   1      46.322  29.445  29.185  1.00  0.00     0.049 A 
ATOM     54  H   UNL A   1      44.226  29.227  29.156  1.00  0.00     0.167 HD
ATOM     55  C   UNL A   1      45.992  27.066  28.525  1.00  0.00     0.074 A 
ATOM     56  C   UNL A   1      46.489  25.759  28.140  1.00  0.00     0.031 C 
ATOM     57  C   UNL A   1      46.785  28.130  28.812  1.00  0.00     0.037 A 
BRANCH  44  58
ATOM     58  C   UNL A   1      43.716  33.336  30.200  1.00  0.00     0.058 A 
ATOM     59  C   UNL A   1      43.783  34.304  29.185  1.00  0.00     0.135 A 
ATOM     60  C   UNL A   1      43.726  33.785  31.531  1.00  0.00     0.135 A 
ATOM     61  F   UNL A   1      43.798  33.931  27.895  1.00  0.00    -0.206 F 
ATOM     62  C   UNL A   1      43.912  35.658  29.476  1.00  0.00     0.059 A 
ATOM     63  C   UNL A   1      43.822  35.137  31.846  1.00  0.00     0.059 A 
ATOM     64  F   UNL A   1      43.669  32.904  32.542  1.00  0.00    -0.206 F 
ATOM     65  C   UNL A   1      43.941  36.064  30.811  1.00  0.00     0.060 A 
BRANCH  65  66
ATOM     66  S   UNL A   1      44.153  37.818  31.178  1.00  0.00     0.124 S 
ATOM     67  O   UNL A   1      43.520  38.435  30.015  1.00  0.00    -0.237 OA
ATOM     68  O   UNL A   1      43.434  37.964  32.439  1.00  0.00    -0.237 OA
ATOM     69  O   UNL A   1      45.600  37.976  31.262  1.00  0.00    -0.744 OA
ENDBRANCH  65  66
ENDBRANCH  44  58
BRANCH  45  70
ATOM     70  C   UNL A   1      42.821  23.686  27.586  1.00  0.00     0.058 A 
ATOM     71  C   UNL A   1      42.707  22.617  28.486  1.00  0.00     0.135 A 
ATOM     72  C   UNL A   1      42.706  23.403  26.215  1.00  0.00     0.135 A 
ATOM     73  F   UNL A   1      42.819  22.835  29.804  1.00  0.00    -0.206 F 
ATOM     74  C   UNL A   1      42.469  21.318  28.047  1.00  0.00     0.059 A 
ATOM     75  C   UNL A   1      42.448  22.116  25.753  1.00  0.00     0.059 A 
ATOM     76  F   UNL A   1      42.796  24.394  25.315  1.00  0.00    -0.206 F 
ATOM     77  C   UNL A   1      42.326  21.080  26.677  1.00  0.00     0.060 A 
BRANCH  77  78
ATOM     78  S   UNL A   1      41.903  19.411  26.131  1.00  0.00     0.124 S 
ATOM     79  O   UNL A   1      40.471  19.534  25.885  1.00  0.00    -0.237 OA
ATOM     80  O   UNL A   1      42.743  19.255  24.948  1.00  0.00    -0.237 OA
ATOM     81  O   UNL A   1      42.278  18.579  27.270  1.00  0.00    -0.744 OA
ENDBRANCH  77  78
ENDBRANCH  45  70
BRANCH  57  82
ATOM     82  C   UNL A   1      48.273  27.923  28.772  1.00  0.00     0.058 A 
ATOM     83  C   UNL A   1      49.024  28.167  27.613  1.00  0.00     0.135 A 
ATOM     84  C   UNL A   1      48.964  27.576  29.945  1.00  0.00     0.135 A 
ATOM     85  F   UNL A   1      48.409  28.495  26.467  1.00  0.00    -0.206 F 
ATOM     86  C   UNL A   1      50.412  28.071  27.617  1.00  0.00     0.059 A 
ATOM     87  C   UNL A   1      50.352  27.499  29.978  1.00  0.00     0.059 A 
ATOM     88  F   UNL A   1      48.290  27.344  31.083  1.00  0.00    -0.206 F 
ATOM     89  C   UNL A   1      51.067  27.746  28.807  1.00  0.00     0.060 A 
BRANCH  89  90
ATOM     90  S   UNL A   1      52.872  27.691  28.816  1.00  0.00     0.124 S 
ATOM     91  O   UNL A   1      53.204  28.817  27.949  1.00  0.00    -0.237 OA
ATOM     92  O   UNL A   1      53.182  27.868  30.231  1.00  0.00    -0.237 OA
ATOM     93  O   UNL A   1      53.175  26.369  28.274  1.00  0.00    -0.744 OA
ENDBRANCH  89  90
ENDBRANCH  57  82
ENDBRANCH  31  32
ENDBRANCH  24  26
ENDBRANCH  23  24
ENDBRANCH  22  23
ENDBRANCH   1  22
TORSDOF 18
ENDMDL
MODEL 3
REMARK VINA RESULT:     -10.7      5.470     11.212
REMARK SMILES O=C(OCCOCCOC(=O)c1ccc(-c2c3nc(c(-c4c(F)cc(S(=O)(=O)[O-])cc4F)c4ccc([nH]4)c(-c4c(F)cc(S(=O)(=O)[O-])cc4F)c4nc(c(-c5c(F)cc(S(=O)(=O)[O-])cc5F)c5ccc2[nH]5)C=C4)C=C3)cc1)c1ccc(-c2ccc(=O)[nH]c2)cc1
REMARK SMILES IDX 7 1 6 2 5 3 4 4 3 5 2 6 1 7 78 8 79 9 90 10 80 11 89 12
REMARK SMILES IDX 81 13 82 14 83 15 88 16 84 17 87 18 85 19 86 21 8 22 9 23
REMARK SMILES IDX 10 24 11 25 12 26 13 27 77 28 14 29 76 30 15 31 16 32 17 33
REMARK SMILES IDX 70 34 18 35 75 36 69 37 71 38 19 39 74 40 68 41 67 42 20 44
REMARK SMILES IDX 54 45 33 46 53 47 34 48 37 49 52 50 72 51 35 52 36 53 51 55
REMARK SMILES IDX 73 56 38 57 21 58 22 59 31 60 23 61 24 62 30 63 32 64 25 65
REMARK SMILES IDX 26 66 27 67 28 68 29 69 55 70 56 71 65 72 57 73 58 74 64 75
REMARK SMILES IDX 66 76 59 77 60 78 61 79 62 80 63 81 39 82 40 83 49 84 41 85
REMARK SMILES IDX 42 86 48 87 50 88 43 89 44 90 45 91 46 92 47 93
REMARK H PARENT 87 20 71 43 37 54
REMARK Flexibility Score: inf
ROOT
ATOM      1  C   UNL A   1      36.793  23.704  25.306  1.00  0.00     0.202 C 
ENDROOT
BRANCH   1   2
ATOM      2  O   UNL A   1      35.683  23.198  26.060  1.00  0.00    -0.374 OA
BRANCH   2   3
ATOM      3  C   UNL A   1      34.487  23.977  25.993  1.00  0.00     0.202 C 
BRANCH   3   4
ATOM      4  C   UNL A   1      33.649  23.698  24.745  1.00  0.00     0.261 C 
BRANCH   4   5
ATOM      5  O   UNL A   1      32.373  24.362  24.845  1.00  0.00    -0.460 OA
BRANCH   5   6
ATOM      6  C   UNL A   1      31.467  24.540  23.856  1.00  0.00     0.338 C 
ATOM      7  O   UNL A   1      31.095  23.585  23.179  1.00  0.00    -0.246 OA
BRANCH   6   8
ATOM      8  C   UNL A   1      30.878  25.873  23.564  1.00  0.00     0.060 A 
ATOM      9  C   UNL A   1      31.549  26.860  22.844  1.00  0.00     0.016 A 
ATOM     10  C   UNL A   1      29.546  26.103  23.930  1.00  0.00     0.016 A 
ATOM     11  C   UNL A   1      30.947  28.080  22.564  1.00  0.00     0.009 A 
ATOM     12  C   UNL A   1      28.919  27.318  23.617  1.00  0.00     0.009 A 
ATOM     13  C   UNL A   1      29.621  28.320  22.934  1.00  0.00    -0.017 A 
BRANCH  13  14
ATOM     14  C   UNL A   1      29.028  29.631  22.612  1.00  0.00    -0.002 A 
ATOM     15  C   UNL A   1      27.996  30.260  23.422  1.00  0.00     0.016 A 
ATOM     16  C   UNL A   1      29.536  30.328  21.577  1.00  0.00     0.094 A 
ATOM     17  C   UNL A   1      27.594  31.516  23.184  1.00  0.00     0.072 A 
ATOM     18  N   UNL A   1      29.129  31.611  21.317  1.00  0.00    -0.328 N 
ATOM     19  C   UNL A   1      28.196  32.284  22.065  1.00  0.00     0.247 A 
ATOM     20  H   UNL A   1      29.528  32.077  20.547  1.00  0.00     0.169 HD
ATOM     21  O   UNL A   1      27.869  33.443  21.838  1.00  0.00    -0.270 OA
ENDBRANCH  13  14
ENDBRANCH   6   8
ENDBRANCH   5   6
ENDBRANCH   4   5
ENDBRANCH   3   4
ENDBRANCH   2   3
ENDBRANCH   1   2
BRANCH   1  22
ATOM     22  C   UNL A   1      38.096  23.338  26.025  1.00  0.00     0.261 C 
BRANCH  22  23
ATOM     23  O   UNL A   1      38.435  24.418  26.903  1.00  0.00    -0.460 OA
BRANCH  23  24
ATOM     24  C   UNL A   1      39.751  24.754  26.896  1.00  0.00     0.338 C 
ATOM     25  O   UNL A   1      40.585  24.445  26.061  1.00  0.00    -0.246 OA
BRANCH  24  26
ATOM     26  C   UNL A   1      39.958  25.764  27.959  1.00  0.00     0.060 A 
ATOM     27  C   UNL A   1      39.085  25.775  29.057  1.00  0.00     0.016 A 
ATOM     28  C   UNL A   1      41.038  26.649  27.906  1.00  0.00     0.016 A 
ATOM     29  C   UNL A   1      39.267  26.699  30.086  1.00  0.00     0.010 A 
ATOM     30  C   UNL A   1      41.222  27.568  28.930  1.00  0.00     0.010 A 
ATOM     31  C   UNL A   1      40.316  27.621  30.001  1.00  0.00    -0.014 A 
BRANCH  31  32
ATOM     32  C   UNL A   1      40.366  28.816  30.866  1.00  0.00     0.031 A 
ATOM     33  C   UNL A   1      41.258  28.747  32.070  1.00  0.00     0.074 A 
ATOM     34  C   UNL A   1      39.543  29.857  30.662  1.00  0.00     0.049 A 
ATOM     35  N   UNL A   1      41.302  29.520  33.120  1.00  0.00    -0.248 NA
ATOM     36  C   UNL A   1      42.204  27.617  32.108  1.00  0.00     0.031 C 
ATOM     37  C   UNL A   1      38.644  30.014  29.520  1.00  0.00     0.029 A 
ATOM     38  N   UNL A   1      39.293  30.953  31.447  1.00  0.00    -0.354 N 
ATOM     39  C   UNL A   1      42.250  28.950  33.961  1.00  0.00     0.074 A 
ATOM     40  C   UNL A   1      42.741  27.757  33.309  1.00  0.00     0.031 C 
ATOM     41  C   UNL A   1      37.905  31.122  29.701  1.00  0.00     0.029 A 
ATOM     42  C   UNL A   1      38.251  31.721  30.990  1.00  0.00     0.049 A 
ATOM     43  H   UNL A   1      39.810  31.167  32.257  1.00  0.00     0.167 HD
ATOM     44  C   UNL A   1      42.666  29.383  35.173  1.00  0.00     0.037 A 
ATOM     45  C   UNL A   1      37.621  32.761  31.572  1.00  0.00     0.037 A 
ATOM     46  C   UNL A   1      42.153  30.569  35.803  1.00  0.00     0.049 A 
ATOM     47  C   UNL A   1      38.087  33.229  32.926  1.00  0.00     0.074 A 
ATOM     48  C   UNL A   1      42.526  31.136  37.007  1.00  0.00     0.029 A 
ATOM     49  N   UNL A   1      41.143  31.363  35.277  1.00  0.00    -0.354 N 
ATOM     50  N   UNL A   1      39.016  32.716  33.699  1.00  0.00    -0.248 NA
ATOM     51  C   UNL A   1      37.427  34.415  33.486  1.00  0.00     0.031 C 
ATOM     52  C   UNL A   1      41.706  32.248  37.232  1.00  0.00     0.029 A 
ATOM     53  C   UNL A   1      40.863  32.406  36.141  1.00  0.00     0.049 A 
ATOM     54  H   UNL A   1      40.691  31.207  34.417  1.00  0.00     0.167 HD
ATOM     55  C   UNL A   1      39.073  33.532  34.824  1.00  0.00     0.074 A 
ATOM     56  C   UNL A   1      38.082  34.572  34.630  1.00  0.00     0.031 C 
ATOM     57  C   UNL A   1      39.876  33.436  35.913  1.00  0.00     0.037 A 
BRANCH  44  58
ATOM     58  C   UNL A   1      43.681  28.539  35.892  1.00  0.00     0.058 A 
ATOM     59  C   UNL A   1      45.061  28.775  35.776  1.00  0.00     0.135 A 
ATOM     60  C   UNL A   1      43.270  27.450  36.678  1.00  0.00     0.135 A 
ATOM     61  F   UNL A   1      45.512  29.790  35.020  1.00  0.00    -0.206 F 
ATOM     62  C   UNL A   1      45.996  27.933  36.366  1.00  0.00     0.059 A 
ATOM     63  C   UNL A   1      44.188  26.613  37.305  1.00  0.00     0.059 A 
ATOM     64  F   UNL A   1      41.964  27.175  36.822  1.00  0.00    -0.206 F 
ATOM     65  C   UNL A   1      45.550  26.847  37.121  1.00  0.00     0.060 A 
BRANCH  65  66
ATOM     66  S   UNL A   1      46.772  25.735  37.846  1.00  0.00     0.124 S 
ATOM     67  O   UNL A   1      47.015  26.374  39.136  1.00  0.00    -0.237 OA
ATOM     68  O   UNL A   1      46.052  24.467  37.895  1.00  0.00    -0.237 OA
ATOM     69  O   UNL A   1      47.882  25.786  36.901  1.00  0.00    -0.744 OA
ENDBRANCH  65  66
ENDBRANCH  44  58
BRANCH  45  70
ATOM     70  C   UNL A   1      36.485  33.410  30.867  1.00  0.00     0.058 A 
ATOM     71  C   UNL A   1      35.173  33.274  31.339  1.00  0.00     0.135 A 
ATOM     72  C   UNL A   1      36.699  34.247  29.759  1.00  0.00     0.135 A 
ATOM     73  F   UNL A   1      34.916  32.480  32.389  1.00  0.00    -0.206 F 
ATOM     74  C   UNL A   1      34.112  33.955  30.748  1.00  0.00     0.059 A 
ATOM     75  C   UNL A   1      35.659  34.953  29.164  1.00  0.00     0.059 A 
ATOM     76  F   UNL A   1      37.940  34.420  29.278  1.00  0.00    -0.206 F 
ATOM     77  C   UNL A   1      34.368  34.804  29.669  1.00  0.00     0.060 A 
BRANCH  77  78
ATOM     78  S   UNL A   1      33.002  35.769  28.987  1.00  0.00     0.124 S 
ATOM     79  O   UNL A   1      33.709  36.857  28.323  1.00  0.00    -0.237 OA
ATOM     80  O   UNL A   1      32.353  34.800  28.110  1.00  0.00    -0.237 OA
ATOM     81  O   UNL A   1      32.233  36.145  30.170  1.00  0.00    -0.744 OA
ENDBRANCH  77  78
ENDBRANCH  45  70
BRANCH  57  82
ATOM     82  C   UNL A   1      39.761  34.505  36.963  1.00  0.00     0.058 A 
ATOM     83  C   UNL A   1      38.908  34.370  38.067  1.00  0.00     0.135 A 
ATOM     84  C   UNL A   1      40.598  35.633  36.909  1.00  0.00     0.135 A 
ATOM     85  F   UNL A   1      38.086  33.314  38.161  1.00  0.00    -0.206 F 
ATOM     86  C   UNL A   1      38.885  35.319  39.085  1.00  0.00     0.059 A 
ATOM     87  C   UNL A   1      40.610  36.580  37.927  1.00  0.00     0.059 A 
ATOM     88  F   UNL A   1      41.440  35.801  35.878  1.00  0.00    -0.206 F 
ATOM     89  C   UNL A   1      39.747  36.416  39.010  1.00  0.00     0.060 A 
BRANCH  89  90
ATOM     90  S   UNL A   1      39.757  37.605  40.368  1.00  0.00     0.124 S 
ATOM     91  O   UNL A   1      38.774  38.581  39.911  1.00  0.00    -0.237 OA
ATOM     92  O   UNL A   1      39.353  36.783  41.505  1.00  0.00    -0.237 OA
ATOM     93  O   UNL A   1      41.140  38.072  40.401  1.00  0.00    -0.744 OA
ENDBRANCH  89  90
ENDBRANCH  57  82
ENDBRANCH  31  32
ENDBRANCH  24  26
ENDBRANCH  23  24
ENDBRANCH  22  23
ENDBRANCH   1  22
TORSDOF 18
ENDMDL
