MODEL 1
REMARK VINA RESULT:     -15.1      0.000      0.000
REMARK SMILES CCc1cccc(C)c1Nc1ccccc1CC(=O)OCCOCCOC(=O)c1ccc(-c2c3nc(c(-c4c(F)cc(S(=O)(=O)[O-])cc4F)c4ccc([nH]4)c(-c4c(F)cc(S(=O)(=O)[O-])cc4F)c4nc(c(-c5c(F)cc(S(=O)(=O)[O-])cc5F)c5ccc2[nH]5)C=C4)C=C3)cc1
REMARK SMILES IDX 22 1 21 2 20 3 18 4 19 5 17 6 16 7 11 8 12 9 13 10 15 11
REMARK SMILES IDX 14 12 10 13 9 15 3 16 4 17 5 18 7 19 6 20 8 21 2 22 1 23
REMARK SMILES IDX 23 24 24 25 25 26 26 27 27 28 28 29 29 30 30 31 94 32 31 33
REMARK SMILES IDX 93 34 32 35 33 36 34 37 87 38 35 39 92 40 86 41 88 42 36 43
REMARK SMILES IDX 91 44 85 45 84 46 37 48 71 49 50 50 70 51 51 52 54 53 69 54
REMARK SMILES IDX 89 55 52 56 53 57 68 59 90 60 55 61 38 62 39 63 48 64 40 65
REMARK SMILES IDX 41 66 47 67 49 68 42 69 43 70 44 71 45 72 46 73 72 74 73 75
REMARK SMILES IDX 82 76 74 77 75 78 81 79 83 80 76 81 77 82 78 83 79 84 80 85
REMARK SMILES IDX 56 86 57 87 66 88 58 89 59 90 65 91 67 92 60 93 61 94 62 95
REMARK SMILES IDX 63 96 64 97
REMARK H PARENT 10 14 88 47 54 58
REMARK Flexibility Score: inf
ROOT
ATOM      1  C   UNL A   1      38.224  23.680  26.142  1.00  0.00     0.202 C 
ENDROOT
BRANCH   1   2
ATOM      2  C   UNL A   1      36.115  23.115  26.043  1.00  0.00     0.261 C 
BRANCH   2   3
ATOM      3  O   UNL A   1      34.886  24.554  25.697  1.00  0.00    -0.463 OA
BRANCH   3   4
ATOM      4  C   UNL A   1      34.238  25.142  24.492  1.00  0.00     0.310 C 
ATOM      5  O   UNL A   1      33.624  24.470  23.648  1.00  0.00    -0.252 OA
BRANCH   4   6
ATOM      6  C   UNL A   1      34.063  26.661  24.171  1.00  0.00     0.160 C 
BRANCH   6   7
ATOM      7  C   UNL A   1      33.404  27.817  24.986  1.00  0.00    -0.013 A 
ATOM      8  C   UNL A   1      32.675  29.127  24.629  1.00  0.00     0.042 A 
ATOM      9  C   UNL A   1      32.611  30.063  25.696  1.00  0.00     0.026 A 
ATOM     10  C   UNL A   1      33.086  29.753  26.998  1.00  0.00     0.002 A 
ATOM     11  C   UNL A   1      33.863  27.601  26.325  1.00  0.00     0.006 A 
ATOM     12  C   UNL A   1      33.690  28.541  27.314  1.00  0.00     0.000 A 
BRANCH   8  13
ATOM     13  N   UNL A   1      31.481  29.524  23.492  1.00  0.00    -0.355 N 
ATOM     14  H   UNL A   1      31.840  30.142  22.815  1.00  0.00     0.167 HD
BRANCH  13  15
ATOM     15  C   UNL A   1      29.727  29.146  23.151  1.00  0.00     0.045 A 
ATOM     16  C   UNL A   1      29.347  27.831  23.428  1.00  0.00    -0.024 A 
ATOM     17  C   UNL A   1      27.939  27.631  23.406  1.00  0.00     0.006 A 
ATOM     18  C   UNL A   1      26.943  28.623  23.200  1.00  0.00     0.001 A 
ATOM     19  C   UNL A   1      28.525  30.474  23.279  1.00  0.00    -0.027 A 
ATOM     20  C   UNL A   1      27.191  29.999  23.142  1.00  0.00     0.005 A 
ATOM     21  C   UNL A   1      29.192  32.432  23.532  1.00  0.00     0.046 C 
BRANCH  16  22
ATOM     22  C   UNL A   1      30.100  26.808  24.244  1.00  0.00     0.034 C 
ATOM     23  C   UNL A   1      30.327  25.412  23.710  1.00  0.00     0.009 C 
ENDBRANCH  16  22
ENDBRANCH  13  15
ENDBRANCH   8  13
ENDBRANCH   6   7
ENDBRANCH   4   6
ENDBRANCH   3   4
ENDBRANCH   2   3
ENDBRANCH   1   2
BRANCH   1  24
ATOM     24  O   UNL A   1      39.431  22.241  25.914  1.00  0.00    -0.374 OA
BRANCH  24  25
ATOM     25  C   UNL A   1      40.343  21.399  27.323  1.00  0.00     0.202 C 
BRANCH  25  26
ATOM     26  C   UNL A   1      42.443  21.410  27.759  1.00  0.00     0.261 C 
BRANCH  26  27
ATOM     27  O   UNL A   1      43.320  23.103  27.452  1.00  0.00    -0.460 OA
BRANCH  27  28
ATOM     28  C   UNL A   1      42.663  24.410  26.542  1.00  0.00     0.338 C 
ATOM     29  O   UNL A   1      42.243  24.226  25.403  1.00  0.00    -0.246 OA
BRANCH  28  30
ATOM     30  C   UNL A   1      42.199  25.997  27.349  1.00  0.00     0.060 A 
ATOM     31  C   UNL A   1      41.188  27.219  26.656  1.00  0.00     0.016 A 
ATOM     32  C   UNL A   1      42.840  26.470  29.028  1.00  0.00     0.016 A 
ATOM     33  C   UNL A   1      40.810  28.706  27.521  1.00  0.00     0.010 A 
ATOM     34  C   UNL A   1      42.307  27.931  29.987  1.00  0.00     0.010 A 
ATOM     35  C   UNL A   1      41.454  29.081  29.105  1.00  0.00    -0.014 A 
BRANCH  35  36
ATOM     36  C   UNL A   1      42.037  30.355  29.633  1.00  0.00     0.031 A 
ATOM     37  C   UNL A   1      40.843  30.884  30.311  1.00  0.00     0.074 A 
ATOM     38  C   UNL A   1      43.430  30.515  29.617  1.00  0.00     0.049 A 
ATOM     39  N   UNL A   1      40.168  31.936  29.929  1.00  0.00    -0.248 NA
ATOM     40  C   UNL A   1      40.001  29.988  31.186  1.00  0.00     0.031 C 
ATOM     41  C   UNL A   1      44.544  31.119  30.392  1.00  0.00     0.029 A 
ATOM     42  N   UNL A   1      44.265  29.914  28.685  1.00  0.00    -0.354 N 
ATOM     43  C   UNL A   1      39.346  32.105  31.023  1.00  0.00     0.074 A 
ATOM     44  C   UNL A   1      38.918  30.756  31.284  1.00  0.00     0.031 C 
ATOM     45  C   UNL A   1      45.761  30.990  29.774  1.00  0.00     0.029 A 
ATOM     46  C   UNL A   1      45.620  30.154  28.597  1.00  0.00     0.049 A 
ATOM     47  H   UNL A   1      43.865  29.279  28.049  1.00  0.00     0.167 HD
ATOM     48  C   UNL A   1      39.832  32.881  32.059  1.00  0.00     0.037 A 
ATOM     49  C   UNL A   1      45.982  30.186  27.282  1.00  0.00     0.037 A 
ATOM     50  C   UNL A   1      41.252  33.309  31.782  1.00  0.00     0.049 A 
ATOM     51  C   UNL A   1      45.347  31.597  27.007  1.00  0.00     0.074 A 
ATOM     52  C   UNL A   1      42.463  33.111  32.422  1.00  0.00     0.029 A 
ATOM     53  N   UNL A   1      41.623  33.732  30.482  1.00  0.00    -0.354 N 
ATOM     54  N   UNL A   1      44.164  32.026  27.443  1.00  0.00    -0.248 NA
ATOM     55  C   UNL A   1      46.298  32.700  26.848  1.00  0.00     0.031 C 
ATOM     56  C   UNL A   1      43.513  33.486  31.508  1.00  0.00     0.029 A 
ATOM     57  C   UNL A   1      42.992  33.626  30.213  1.00  0.00     0.049 A 
ATOM     58  H   UNL A   1      40.973  34.071  29.825  1.00  0.00     0.167 HD
ATOM     59  C   UNL A   1      44.342  33.290  28.009  1.00  0.00     0.074 A 
ATOM     60  C   UNL A   1      45.666  33.687  27.502  1.00  0.00     0.031 C 
ATOM     61  C   UNL A   1      43.549  34.031  28.879  1.00  0.00     0.037 A 
BRANCH  48  62
ATOM     62  C   UNL A   1      39.133  32.881  33.436  1.00  0.00     0.058 A 
ATOM     63  C   UNL A   1      39.573  32.012  34.451  1.00  0.00     0.135 A 
ATOM     64  C   UNL A   1      38.091  33.763  33.858  1.00  0.00     0.135 A 
ATOM     65  F   UNL A   1      40.565  31.141  34.226  1.00  0.00    -0.206 F 
ATOM     66  C   UNL A   1      39.057  32.032  35.756  1.00  0.00     0.059 A 
ATOM     67  C   UNL A   1      37.527  33.766  35.138  1.00  0.00     0.059 A 
ATOM     68  F   UNL A   1      37.596  34.729  33.078  1.00  0.00    -0.206 F 
ATOM     69  C   UNL A   1      38.045  32.922  36.097  1.00  0.00     0.060 A 
BRANCH  69  70
ATOM     70  S   UNL A   1      37.511  33.054  37.815  1.00  0.00     0.124 S 
ATOM     71  O   UNL A   1      38.332  34.155  38.307  1.00  0.00    -0.237 OA
ATOM     72  O   UNL A   1      36.088  33.336  37.666  1.00  0.00    -0.237 OA
ATOM     73  O   UNL A   1      37.827  31.743  38.377  1.00  0.00    -0.744 OA
ENDBRANCH  69  70
ENDBRANCH  48  62
BRANCH  49  74
ATOM     74  C   UNL A   1      45.914  28.740  26.552  1.00  0.00     0.058 A 
ATOM     75  C   UNL A   1      47.058  27.871  26.636  1.00  0.00     0.135 A 
ATOM     76  C   UNL A   1      44.838  28.086  25.897  1.00  0.00     0.135 A 
ATOM     77  F   UNL A   1      48.171  28.304  27.251  1.00  0.00    -0.206 F 
ATOM     78  C   UNL A   1      47.133  26.530  26.137  1.00  0.00     0.059 A 
ATOM     79  C   UNL A   1      44.882  26.715  25.396  1.00  0.00     0.059 A 
ATOM     80  F   UNL A   1      43.660  28.717  25.785  1.00  0.00    -0.206 F 
ATOM     81  C   UNL A   1      46.051  25.952  25.487  1.00  0.00     0.060 A 
BRANCH  81  82
ATOM     82  S   UNL A   1      46.218  24.207  24.860  1.00  0.00     0.124 S 
ATOM     83  O   UNL A   1      47.320  24.320  23.912  1.00  0.00    -0.237 OA
ATOM     84  O   UNL A   1      46.529  23.455  26.073  1.00  0.00    -0.237 OA
ATOM     85  O   UNL A   1      44.926  23.930  24.258  1.00  0.00    -0.744 OA
ENDBRANCH  81  82
ENDBRANCH  49  74
BRANCH  61  86
ATOM     86  C   UNL A   1      43.286  35.451  28.451  1.00  0.00     0.058 A 
ATOM     87  C   UNL A   1      42.583  35.757  27.272  1.00  0.00     0.135 A 
ATOM     88  C   UNL A   1      43.601  36.545  29.288  1.00  0.00     0.135 A 
ATOM     89  F   UNL A   1      42.076  34.814  26.464  1.00  0.00    -0.206 F 
ATOM     90  C   UNL A   1      42.356  37.057  26.876  1.00  0.00     0.059 A 
ATOM     91  C   UNL A   1      43.259  37.843  28.971  1.00  0.00     0.059 A 
ATOM     92  F   UNL A   1      44.249  36.415  30.453  1.00  0.00    -0.206 F 
ATOM     93  C   UNL A   1      42.696  38.090  27.734  1.00  0.00     0.060 A 
BRANCH  93  94
ATOM     94  S   UNL A   1      42.393  39.765  27.206  1.00  0.00     0.124 S 
ATOM     95  O   UNL A   1      43.671  40.095  26.582  1.00  0.00    -0.237 OA
ATOM     96  O   UNL A   1      41.265  39.601  26.294  1.00  0.00    -0.237 OA
ATOM     97  O   UNL A   1      42.095  40.463  28.450  1.00  0.00    -0.744 OA
ENDBRANCH  93  94
ENDBRANCH  61  86
ENDBRANCH  35  36
ENDBRANCH  28  30
ENDBRANCH  27  28
ENDBRANCH  26  27
ENDBRANCH  25  26
ENDBRANCH  24  25
ENDBRANCH   1  24
TORSDOF 21
ENDMDL
MODEL 2
REMARK VINA RESULT:     -14.2      5.302     13.879
REMARK SMILES CCc1cccc(C)c1Nc1ccccc1CC(=O)OCCOCCOC(=O)c1ccc(-c2c3nc(c(-c4c(F)cc(S(=O)(=O)[O-])cc4F)c4ccc([nH]4)c(-c4c(F)cc(S(=O)(=O)[O-])cc4F)c4nc(c(-c5c(F)cc(S(=O)(=O)[O-])cc5F)c5ccc2[nH]5)C=C4)C=C3)cc1
REMARK SMILES IDX 22 1 21 2 20 3 18 4 19 5 17 6 16 7 11 8 12 9 13 10 15 11
REMARK SMILES IDX 14 12 10 13 9 15 3 16 4 17 5 18 7 19 6 20 8 21 2 22 1 23
REMARK SMILES IDX 23 24 24 25 25 26 26 27 27 28 28 29 29 30 30 31 94 32 31 33
REMARK SMILES IDX 93 34 32 35 33 36 34 37 87 38 35 39 92 40 86 41 88 42 36 43
REMARK SMILES IDX 91 44 85 45 84 46 37 48 71 49 50 50 70 51 51 52 54 53 69 54
REMARK SMILES IDX 89 55 52 56 53 57 68 59 90 60 55 61 38 62 39 63 48 64 40 65
REMARK SMILES IDX 41 66 47 67 49 68 42 69 43 70 44 71 45 72 46 73 72 74 73 75
REMARK SMILES IDX 82 76 74 77 75 78 81 79 83 80 76 81 77 82 78 83 79 84 80 85
REMARK SMILES IDX 56 86 57 87 66 88 58 89 59 90 65 91 67 92 60 93 61 94 62 95
REMARK SMILES IDX 63 96 64 97
REMARK H PARENT 10 14 88 47 54 58
REMARK Flexibility Score: inf
ROOT
ATOM      1  C   UNL A   1      46.819  43.627  32.753  1.00  0.00     0.202 C 
ENDROOT
BRANCH   1   2
ATOM      2  C   UNL A   1      45.683  44.533  34.386  1.00  0.00     0.261 C 
BRANCH   2   3
ATOM      3  O   UNL A   1      43.776  44.301  34.298  1.00  0.00    -0.463 OA
BRANCH   3   4
ATOM      4  C   UNL A   1      42.846  43.274  33.751  1.00  0.00     0.310 C 
ATOM      5  O   UNL A   1      42.254  42.441  34.456  1.00  0.00    -0.252 OA
BRANCH   4   6
ATOM      6  C   UNL A   1      42.328  43.170  32.282  1.00  0.00     0.160 C 
BRANCH   6   7
ATOM      7  C   UNL A   1      43.090  43.048  30.926  1.00  0.00    -0.013 A 
ATOM      8  C   UNL A   1      43.428  41.893  29.963  1.00  0.00     0.042 A 
ATOM      9  C   UNL A   1      44.489  42.181  29.063  1.00  0.00     0.026 A 
ATOM     10  C   UNL A   1      45.094  43.464  29.001  1.00  0.00     0.002 A 
ATOM     11  C   UNL A   1      43.766  44.302  30.795  1.00  0.00     0.006 A 
ATOM     12  C   UNL A   1      44.734  44.513  29.841  1.00  0.00     0.000 A 
BRANCH   8  13
ATOM     13  N   UNL A   1      42.534  40.593  29.342  1.00  0.00    -0.355 N 
ATOM     14  H   UNL A   1      41.569  40.777  29.402  1.00  0.00     0.167 HD
BRANCH  13  15
ATOM     15  C   UNL A   1      42.829  38.953  28.594  1.00  0.00     0.045 A 
ATOM     16  C   UNL A   1      42.094  38.697  27.435  1.00  0.00    -0.024 A 
ATOM     17  C   UNL A   1      42.528  37.539  26.732  1.00  0.00     0.006 A 
ATOM     18  C   UNL A   1      43.630  36.706  27.065  1.00  0.00     0.001 A 
ATOM     19  C   UNL A   1      44.435  38.183  28.828  1.00  0.00    -0.027 A 
ATOM     20  C   UNL A   1      44.569  36.992  28.062  1.00  0.00     0.005 A 
ATOM     21  C   UNL A   1      45.792  39.039  30.157  1.00  0.00     0.046 C 
BRANCH  16  22
ATOM     22  C   UNL A   1      41.352  39.693  26.577  1.00  0.00     0.034 C 
ATOM     23  C   UNL A   1      42.085  40.838  25.916  1.00  0.00     0.009 C 
ENDBRANCH  16  22
ENDBRANCH  13  15
ENDBRANCH   8  13
ENDBRANCH   6   7
ENDBRANCH   4   6
ENDBRANCH   3   4
ENDBRANCH   2   3
ENDBRANCH   1   2
BRANCH   1  24
ATOM     24  O   UNL A   1      46.196  41.923  32.216  1.00  0.00    -0.374 OA
BRANCH  24  25
ATOM     25  C   UNL A   1      45.295  40.726  33.350  1.00  0.00     0.202 C 
BRANCH  25  26
ATOM     26  C   UNL A   1      43.579  39.513  32.928  1.00  0.00     0.261 C 
BRANCH  26  27
ATOM     27  O   UNL A   1      42.643  38.870  34.490  1.00  0.00    -0.460 OA
BRANCH  27  28
ATOM     28  C   UNL A   1      42.913  37.348  35.251  1.00  0.00     0.338 C 
ATOM     29  O   UNL A   1      43.618  37.271  36.253  1.00  0.00    -0.246 OA
BRANCH  28  30
ATOM     30  C   UNL A   1      41.870  35.885  34.859  1.00  0.00     0.060 A 
ATOM     31  C   UNL A   1      40.879  35.024  35.988  1.00  0.00     0.016 A 
ATOM     32  C   UNL A   1      41.822  35.139  33.158  1.00  0.00     0.016 A 
ATOM     33  C   UNL A   1      39.919  33.631  35.501  1.00  0.00     0.010 A 
ATOM     34  C   UNL A   1      40.695  33.804  32.623  1.00  0.00     0.010 A 
ATOM     35  C   UNL A   1      39.926  32.985  33.874  1.00  0.00    -0.014 A 
BRANCH  35  36
ATOM     36  C   UNL A   1      40.006  31.569  33.398  1.00  0.00     0.031 A 
ATOM     37  C   UNL A   1      41.420  31.307  33.710  1.00  0.00     0.074 A 
ATOM     38  C   UNL A   1      38.813  30.882  33.127  1.00  0.00     0.049 A 
ATOM     39  N   UNL A   1      42.363  31.133  32.823  1.00  0.00    -0.248 NA
ATOM     40  C   UNL A   1      41.997  31.716  35.042  1.00  0.00     0.031 C 
ATOM     41  C   UNL A   1      38.202  29.529  33.206  1.00  0.00     0.029 A 
ATOM     42  N   UNL A   1      37.644  31.501  32.707  1.00  0.00    -0.354 N 
ATOM     43  C   UNL A   1      43.384  30.693  33.640  1.00  0.00     0.074 A 
ATOM     44  C   UNL A   1      43.291  31.608  34.748  1.00  0.00     0.031 C 
ATOM     45  C   UNL A   1      36.937  29.481  32.681  1.00  0.00     0.029 A 
ATOM     46  C   UNL A   1      36.504  30.821  32.335  1.00  0.00     0.049 A 
ATOM     47  H   UNL A   1      37.629  32.484  32.673  1.00  0.00     0.167 HD
ATOM     48  C   UNL A   1      43.456  29.333  33.878  1.00  0.00     0.037 A 
ATOM     49  C   UNL A   1      35.932  31.459  31.273  1.00  0.00     0.037 A 
ATOM     50  C   UNL A   1      42.293  28.619  33.234  1.00  0.00     0.049 A 
ATOM     51  C   UNL A   1      37.002  30.965  30.233  1.00  0.00     0.074 A 
ATOM     52  C   UNL A   1      41.253  27.841  33.712  1.00  0.00     0.029 A 
ATOM     53  N   UNL A   1      41.871  28.985  31.932  1.00  0.00    -0.354 N 
ATOM     54  N   UNL A   1      38.320  30.914  30.424  1.00  0.00    -0.248 NA
ATOM     55  C   UNL A   1      36.549  29.929  29.301  1.00  0.00     0.031 C 
ATOM     56  C   UNL A   1      40.278  27.712  32.658  1.00  0.00     0.029 A 
ATOM     57  C   UNL A   1      40.545  28.640  31.643  1.00  0.00     0.049 A 
ATOM     58  H   UNL A   1      42.458  29.442  31.289  1.00  0.00     0.167 HD
ATOM     59  C   UNL A   1      38.767  29.652  30.028  1.00  0.00     0.074 A 
ATOM     60  C   UNL A   1      37.634  29.140  29.240  1.00  0.00     0.031 C 
ATOM     61  C   UNL A   1      39.942  28.960  30.305  1.00  0.00     0.037 A 
BRANCH  48  62
ATOM     62  C   UNL A   1      44.355  28.779  35.005  1.00  0.00     0.058 A 
ATOM     63  C   UNL A   1      45.746  28.692  34.820  1.00  0.00     0.135 A 
ATOM     64  C   UNL A   1      43.933  28.403  36.317  1.00  0.00     0.135 A 
ATOM     65  F   UNL A   1      46.307  29.038  33.654  1.00  0.00    -0.206 F 
ATOM     66  C   UNL A   1      46.633  28.301  35.836  1.00  0.00     0.059 A 
ATOM     67  C   UNL A   1      44.792  27.961  37.328  1.00  0.00     0.059 A 
ATOM     68  F   UNL A   1      42.665  28.502  36.730  1.00  0.00    -0.206 F 
ATOM     69  C   UNL A   1      46.151  27.952  37.092  1.00  0.00     0.060 A 
BRANCH  69  70
ATOM     70  S   UNL A   1      47.309  27.616  38.433  1.00  0.00     0.124 S 
ATOM     71  O   UNL A   1      48.575  27.489  37.719  1.00  0.00    -0.237 OA
ATOM     72  O   UNL A   1      47.160  28.807  39.262  1.00  0.00    -0.237 OA
ATOM     73  O   UNL A   1      46.803  26.381  39.026  1.00  0.00    -0.744 OA
ENDBRANCH  69  70
ENDBRANCH  48  62
BRANCH  49  74
ATOM     74  C   UNL A   1      35.282  32.896  31.649  1.00  0.00     0.058 A 
ATOM     75  C   UNL A   1      34.737  33.704  30.591  1.00  0.00     0.135 A 
ATOM     76  C   UNL A   1      35.039  33.497  32.911  1.00  0.00     0.135 A 
ATOM     77  F   UNL A   1      34.844  33.284  29.318  1.00  0.00    -0.206 F 
ATOM     78  C   UNL A   1      34.042  34.946  30.754  1.00  0.00     0.059 A 
ATOM     79  C   UNL A   1      34.316  34.751  33.107  1.00  0.00     0.059 A 
ATOM     80  F   UNL A   1      35.415  32.854  34.026  1.00  0.00    -0.206 F 
ATOM     81  C   UNL A   1      33.852  35.493  32.016  1.00  0.00     0.060 A 
BRANCH  81  82
ATOM     82  S   UNL A   1      32.943  37.112  32.156  1.00  0.00     0.124 S 
ATOM     83  O   UNL A   1      32.875  37.553  30.768  1.00  0.00    -0.237 OA
ATOM     84  O   UNL A   1      31.661  36.716  32.735  1.00  0.00    -0.237 OA
ATOM     85  O   UNL A   1      33.800  37.918  33.007  1.00  0.00    -0.744 OA
ENDBRANCH  81  82
ENDBRANCH  49  74
BRANCH  61  86
ATOM     86  C   UNL A   1      40.650  28.397  29.102  1.00  0.00     0.058 A 
ATOM     87  C   UNL A   1      40.363  27.114  28.600  1.00  0.00     0.135 A 
ATOM     88  C   UNL A   1      41.529  29.185  28.326  1.00  0.00     0.135 A 
ATOM     89  F   UNL A   1      39.428  26.318  29.136  1.00  0.00    -0.206 F 
ATOM     90  C   UNL A   1      41.023  26.597  27.507  1.00  0.00     0.059 A 
ATOM     91  C   UNL A   1      42.093  28.730  27.153  1.00  0.00     0.059 A 
ATOM     92  F   UNL A   1      41.884  30.434  28.659  1.00  0.00    -0.206 F 
ATOM     93  C   UNL A   1      41.882  27.414  26.791  1.00  0.00     0.060 A 
BRANCH  93  94
ATOM     94  S   UNL A   1      42.725  26.727  25.377  1.00  0.00     0.124 S 
ATOM     95  O   UNL A   1      44.043  26.459  25.944  1.00  0.00    -0.237 OA
ATOM     96  O   UNL A   1      41.912  25.553  25.075  1.00  0.00    -0.237 OA
ATOM     97  O   UNL A   1      42.663  27.801  24.393  1.00  0.00    -0.744 OA
ENDBRANCH  93  94
ENDBRANCH  61  86
ENDBRANCH  35  36
ENDBRANCH  28  30
ENDBRANCH  27  28
ENDBRANCH  26  27
ENDBRANCH  25  26
ENDBRANCH  24  25
ENDBRANCH   1  24
TORSDOF 21
ENDMDL
MODEL 3
REMARK VINA RESULT:     -14.1      4.186     11.316
REMARK SMILES CCc1cccc(C)c1Nc1ccccc1CC(=O)OCCOCCOC(=O)c1ccc(-c2c3nc(c(-c4c(F)cc(S(=O)(=O)[O-])cc4F)c4ccc([nH]4)c(-c4c(F)cc(S(=O)(=O)[O-])cc4F)c4nc(c(-c5c(F)cc(S(=O)(=O)[O-])cc5F)c5ccc2[nH]5)C=C4)C=C3)cc1
REMARK SMILES IDX 22 1 21 2 20 3 18 4 19 5 17 6 16 7 11 8 12 9 13 10 15 11
REMARK SMILES IDX 14 12 10 13 9 15 3 16 4 17 5 18 7 19 6 20 8 21 2 22 1 23
REMARK SMILES IDX 23 24 24 25 25 26 26 27 27 28 28 29 29 30 30 31 94 32 31 33
REMARK SMILES IDX 93 34 32 35 33 36 34 37 87 38 35 39 92 40 86 41 88 42 36 43
REMARK SMILES IDX 91 44 85 45 84 46 37 48 71 49 50 50 70 51 51 52 54 53 69 54
REMARK SMILES IDX 89 55 52 56 53 57 68 59 90 60 55 61 38 62 39 63 48 64 40 65
REMARK SMILES IDX 41 66 47 67 49 68 42 69 43 70 44 71 45 72 46 73 72 74 73 75
REMARK SMILES IDX 82 76 74 77 75 78 81 79 83 80 76 81 77 82 78 83 79 84 80 85
REMARK SMILES IDX 56 86 57 87 66 88 58 89 59 90 65 91 67 92 60 93 61 94 62 95
REMARK SMILES IDX 63 96 64 97
REMARK H PARENT 10 14 88 47 54 58
REMARK Flexibility Score: inf
ROOT
ATOM      1  C   UNL A   1      33.078  31.455  27.217  1.00  0.00     0.202 C 
ENDROOT
BRANCH   1   2
ATOM      2  C   UNL A   1      34.523  29.821  27.346  1.00  0.00     0.261 C 
BRANCH   2   3
ATOM      3  O   UNL A   1      34.204  28.337  26.165  1.00  0.00    -0.463 OA
BRANCH   3   4
ATOM      4  C   UNL A   1      33.648  28.160  24.795  1.00  0.00     0.310 C 
ATOM      5  O   UNL A   1      33.868  27.163  24.089  1.00  0.00    -0.252 OA
BRANCH   4   6
ATOM      6  C   UNL A   1      32.589  29.068  24.091  1.00  0.00     0.160 C 
BRANCH   6   7
ATOM      7  C   UNL A   1      31.058  28.878  23.862  1.00  0.00    -0.013 A 
ATOM      8  C   UNL A   1      30.161  27.721  23.378  1.00  0.00     0.042 A 
ATOM      9  C   UNL A   1      28.874  28.132  22.938  1.00  0.00     0.026 A 
ATOM     10  C   UNL A   1      28.437  29.479  23.049  1.00  0.00     0.002 A 
ATOM     11  C   UNL A   1      30.532  30.207  23.924  1.00  0.00     0.006 A 
ATOM     12  C   UNL A   1      29.242  30.499  23.543  1.00  0.00     0.000 A 
BRANCH   8  13
ATOM     13  N   UNL A   1      30.106  26.063  23.728  1.00  0.00    -0.355 N 
ATOM     14  H   UNL A   1      29.375  25.629  23.232  1.00  0.00     0.167 HD
BRANCH  13  15
ATOM     15  C   UNL A   1      31.000  24.844  24.752  1.00  0.00     0.045 A 
ATOM     16  C   UNL A   1      31.666  23.850  24.032  1.00  0.00    -0.024 A 
ATOM     17  C   UNL A   1      32.560  23.077  24.824  1.00  0.00     0.006 A 
ATOM     18  C   UNL A   1      32.857  23.269  26.201  1.00  0.00     0.001 A 
ATOM     19  C   UNL A   1      31.626  25.365  26.353  1.00  0.00    -0.027 A 
ATOM     20  C   UNL A   1      32.431  24.362  26.961  1.00  0.00     0.005 A 
ATOM     21  C   UNL A   1      31.080  27.232  27.102  1.00  0.00     0.046 C 
BRANCH  16  22
ATOM     22  C   UNL A   1      31.991  23.843  22.558  1.00  0.00     0.034 C 
ATOM     23  C   UNL A   1      33.049  22.916  22.006  1.00  0.00     0.009 C 
ENDBRANCH  16  22
ENDBRANCH  13  15
ENDBRANCH   8  13
ENDBRANCH   6   7
ENDBRANCH   4   6
ENDBRANCH   3   4
ENDBRANCH   2   3
ENDBRANCH   1   2
BRANCH   1  24
ATOM     24  O   UNL A   1      33.381  32.868  28.438  1.00  0.00    -0.374 OA
BRANCH  24  25
ATOM     25  C   UNL A   1      34.607  34.262  28.151  1.00  0.00     0.202 C 
BRANCH  25  26
ATOM     26  C   UNL A   1      36.596  34.478  28.921  1.00  0.00     0.261 C 
BRANCH  26  27
ATOM     27  O   UNL A   1      36.894  33.633  30.633  1.00  0.00    -0.460 OA
BRANCH  27  28
ATOM     28  C   UNL A   1      36.717  31.949  30.951  1.00  0.00     0.338 C 
ATOM     29  O   UNL A   1      35.600  31.456  31.083  1.00  0.00    -0.246 OA
BRANCH  28  30
ATOM     30  C   UNL A   1      38.115  30.779  30.713  1.00  0.00     0.060 A 
ATOM     31  C   UNL A   1      38.001  29.053  30.759  1.00  0.00     0.016 A 
ATOM     32  C   UNL A   1      39.856  31.370  30.438  1.00  0.00     0.016 A 
ATOM     33  C   UNL A   1      39.411  28.026  30.517  1.00  0.00     0.010 A 
ATOM     34  C   UNL A   1      41.278  30.303  30.019  1.00  0.00     0.010 A 
ATOM     35  C   UNL A   1      41.023  28.659  30.263  1.00  0.00    -0.014 A 
BRANCH  35  36
ATOM     36  C   UNL A   1      42.331  28.240  30.861  1.00  0.00     0.031 A 
ATOM     37  C   UNL A   1      42.820  27.397  29.759  1.00  0.00     0.074 A 
ATOM     38  C   UNL A   1      42.802  28.921  31.993  1.00  0.00     0.049 A 
ATOM     39  N   UNL A   1      42.951  26.098  29.809  1.00  0.00    -0.248 NA
ATOM     40  C   UNL A   1      42.732  27.878  28.331  1.00  0.00     0.031 C 
ATOM     41  C   UNL A   1      44.059  29.388  32.634  1.00  0.00     0.029 A 
ATOM     42  N   UNL A   1      41.976  29.521  32.933  1.00  0.00    -0.354 N 
ATOM     43  C   UNL A   1      43.654  25.881  28.643  1.00  0.00     0.074 A 
ATOM     44  C   UNL A   1      42.948  26.720  27.711  1.00  0.00     0.031 C 
ATOM     45  C   UNL A   1      43.852  29.970  33.857  1.00  0.00     0.029 A 
ATOM     46  C   UNL A   1      42.429  30.095  34.102  1.00  0.00     0.049 A 
ATOM     47  H   UNL A   1      41.008  29.537  32.754  1.00  0.00     0.167 HD
ATOM     48  C   UNL A   1      45.033  25.949  28.720  1.00  0.00     0.037 A 
ATOM     49  C   UNL A   1      41.544  29.821  35.103  1.00  0.00     0.037 A 
ATOM     50  C   UNL A   1      45.468  26.357  30.106  1.00  0.00     0.049 A 
ATOM     51  C   UNL A   1      41.975  28.317  35.250  1.00  0.00     0.074 A 
ATOM     52  C   UNL A   1      46.181  27.426  30.619  1.00  0.00     0.029 A 
ATOM     53  N   UNL A   1      44.825  25.804  31.241  1.00  0.00    -0.354 N 
ATOM     54  N   UNL A   1      42.225  27.469  34.253  1.00  0.00    -0.248 NA
ATOM     55  C   UNL A   1      42.762  27.996  36.444  1.00  0.00     0.031 C 
ATOM     56  C   UNL A   1      45.996  27.435  32.049  1.00  0.00     0.029 A 
ATOM     57  C   UNL A   1      44.942  26.580  32.400  1.00  0.00     0.049 A 
ATOM     58  H   UNL A   1      44.337  24.950  31.216  1.00  0.00     0.167 HD
ATOM     59  C   UNL A   1      43.442  26.837  34.516  1.00  0.00     0.074 A 
ATOM     60  C   UNL A   1      43.657  27.131  35.942  1.00  0.00     0.031 C 
ATOM     61  C   UNL A   1      44.315  26.136  33.690  1.00  0.00     0.037 A 
BRANCH  48  62
ATOM     62  C   UNL A   1      45.888  26.027  27.436  1.00  0.00     0.058 A 
ATOM     63  C   UNL A   1      46.216  27.278  26.882  1.00  0.00     0.135 A 
ATOM     64  C   UNL A   1      46.493  24.928  26.753  1.00  0.00     0.135 A 
ATOM     65  F   UNL A   1      45.754  28.412  27.423  1.00  0.00    -0.206 F 
ATOM     66  C   UNL A   1      47.076  27.428  25.782  1.00  0.00     0.059 A 
ATOM     67  C   UNL A   1      47.310  25.050  25.625  1.00  0.00     0.059 A 
ATOM     68  F   UNL A   1      46.386  23.663  27.173  1.00  0.00    -0.206 F 
ATOM     69  C   UNL A   1      47.632  26.311  25.168  1.00  0.00     0.060 A 
BRANCH  69  70
ATOM     70  S   UNL A   1      48.864  26.525  23.869  1.00  0.00     0.124 S 
ATOM     71  O   UNL A   1      50.072  26.010  24.504  1.00  0.00    -0.237 OA
ATOM     72  O   UNL A   1      48.311  25.710  22.793  1.00  0.00    -0.237 OA
ATOM     73  O   UNL A   1      48.858  27.965  23.620  1.00  0.00    -0.744 OA
ENDBRANCH  69  70
ENDBRANCH  48  62
BRANCH  49  74
ATOM     74  C   UNL A   1      40.127  30.594  34.952  1.00  0.00     0.058 A 
ATOM     75  C   UNL A   1      40.002  31.919  35.500  1.00  0.00     0.135 A 
ATOM     76  C   UNL A   1      38.950  30.234  34.246  1.00  0.00     0.135 A 
ATOM     77  F   UNL A   1      41.031  32.450  36.182  1.00  0.00    -0.206 F 
ATOM     78  C   UNL A   1      38.863  32.778  35.372  1.00  0.00     0.059 A 
ATOM     79  C   UNL A   1      37.783  31.097  34.083  1.00  0.00     0.059 A 
ATOM     80  F   UNL A   1      38.906  29.057  33.605  1.00  0.00    -0.206 F 
ATOM     81  C   UNL A   1      37.732  32.359  34.684  1.00  0.00     0.060 A 
BRANCH  81  82
ATOM     82  S   UNL A   1      36.285  33.525  34.559  1.00  0.00     0.124 S 
ATOM     83  O   UNL A   1      35.973  33.787  35.959  1.00  0.00    -0.237 OA
ATOM     84  O   UNL A   1      36.847  34.662  33.834  1.00  0.00    -0.237 OA
ATOM     85  O   UNL A   1      35.280  32.755  33.847  1.00  0.00    -0.744 OA
ENDBRANCH  81  82
ENDBRANCH  49  74
BRANCH  61  86
ATOM     86  C   UNL A   1      44.739  24.787  34.208  1.00  0.00     0.058 A 
ATOM     87  C   UNL A   1      43.807  23.778  34.513  1.00  0.00     0.135 A 
ATOM     88  C   UNL A   1      46.100  24.414  34.269  1.00  0.00     0.135 A 
ATOM     89  F   UNL A   1      42.486  23.935  34.342  1.00  0.00    -0.206 F 
ATOM     90  C   UNL A   1      44.197  22.550  35.000  1.00  0.00     0.059 A 
ATOM     91  C   UNL A   1      46.505  23.144  34.624  1.00  0.00     0.059 A 
ATOM     92  F   UNL A   1      47.105  25.254  33.987  1.00  0.00    -0.206 F 
ATOM     93  C   UNL A   1      45.548  22.244  35.048  1.00  0.00     0.060 A 
BRANCH  93  94
ATOM     94  S   UNL A   1      46.034  20.649  35.678  1.00  0.00     0.124 S 
ATOM     95  O   UNL A   1      45.053  19.784  35.028  1.00  0.00    -0.237 OA
ATOM     96  O   UNL A   1      47.405  20.531  35.193  1.00  0.00    -0.237 OA
ATOM     97  O   UNL A   1      45.891  20.798  37.121  1.00  0.00    -0.744 OA
ENDBRANCH  93  94
ENDBRANCH  61  86
ENDBRANCH  35  36
ENDBRANCH  28  30
ENDBRANCH  27  28
ENDBRANCH  26  27
ENDBRANCH  25  26
ENDBRANCH  24  25
ENDBRANCH   1  24
TORSDOF 21
ENDMDL
