MODEL 1
REMARK VINA RESULT:     -12.1      0.000      0.000
REMARK SMILES Cc1ccc(N2C(=O)N[C@@H]3CCN(C(=O)CC4(CC(=O)OCCOCCOC(=O)c5ccc(-c6c7nc(c(-c8c(F)cc(S(=O)(=O)[O-])cc8F)c8ccc([nH]8)c(-c8c(F)cc(S(=O)(=O)[O-])cc8F)c8nc(c(-c9c(F)cc(S(=O)(=O)[O-])cc9F)c9ccc6[nH]9)C=C8)C=C7)cc5)CCCC4)[C@@H]3C2=O)cc1
REMARK SMILES IDX 23 1 22 2 21 3 19 4 20 5 18 6 17 7 96 8 99 9 97 10 98 11
REMARK SMILES IDX 16 12 14 13 15 14 13 15 6 16 7 17 101 18 8 19 9 20 100 21
REMARK SMILES IDX 102 22 10 23 11 25 12 26 5 27 1 28 2 29 3 30 104 31 4 32
REMARK SMILES IDX 103 33 24 34 25 35 26 36 27 37 28 38 29 39 30 40 31 41 95 42
REMARK SMILES IDX 32 43 94 44 33 45 34 46 35 47 88 48 36 49 93 50 87 51 89 52
REMARK SMILES IDX 37 53 92 54 86 55 85 56 38 58 72 59 51 60 71 61 52 62 55 63
REMARK SMILES IDX 70 64 90 65 53 66 54 67 69 69 91 70 56 71 39 72 40 73 49 74
REMARK SMILES IDX 41 75 42 76 48 77 50 78 43 79 44 80 45 81 46 82 47 83 73 84
REMARK SMILES IDX 74 85 83 86 75 87 76 88 82 89 84 90 77 91 78 92 79 93 80 94
REMARK SMILES IDX 81 95 57 96 58 97 67 98 59 99 60 100 66 101 68 102 61 103
REMARK SMILES IDX 62 104 63 105 64 106 65 107
REMARK H PARENT 9 24 89 57 55 68
REMARK Flexibility Score: inf
ROOT
ATOM      1  C   UNL A   1      33.249  31.239  26.828  1.00  0.00     0.202 C 
ENDROOT
BRANCH   1   2
ATOM      2  C   UNL A   1      31.846  30.862  26.520  1.00  0.00     0.261 C 
BRANCH   2   3
ATOM      3  O   UNL A   1      31.605  29.450  26.559  1.00  0.00    -0.463 OA
BRANCH   3   4
ATOM      4  C   UNL A   1      32.379  28.459  26.036  1.00  0.00     0.306 C 
ATOM      5  O   UNL A   1      32.710  27.420  26.557  1.00  0.00    -0.252 OA
BRANCH   4   6
ATOM      6  C   UNL A   1      32.763  28.901  24.619  1.00  0.00     0.130 C 
BRANCH   6   7
ATOM      7  C   UNL A   1      32.002  28.040  23.542  1.00  0.00    -0.011 C 
ATOM      8  C   UNL A   1      31.520  28.921  22.379  1.00  0.00     0.008 C 
ATOM      9  C   UNL A   1      30.640  27.552  24.179  1.00  0.00     0.008 C 
ATOM     10  C   UNL A   1      30.162  29.458  22.827  1.00  0.00     0.001 C 
ATOM     11  C   UNL A   1      29.500  28.254  23.464  1.00  0.00     0.001 C 
BRANCH   7  12
ATOM     12  C   UNL A   1      32.991  26.887  23.147  1.00  0.00     0.107 C 
BRANCH  12  13
ATOM     13  C   UNL A   1      32.548  25.515  22.705  1.00  0.00     0.223 C 
ATOM     14  O   UNL A   1      32.698  25.141  21.541  1.00  0.00    -0.275 OA
BRANCH  13  15
ATOM     15  N   UNL A   1      32.045  24.677  23.663  1.00  0.00    -0.328 N 
ATOM     16  N   UNL A   1      34.447  22.877  25.686  1.00  0.00    -0.230 N 
ATOM     17  C   UNL A   1      33.602  22.297  26.619  1.00  0.00     0.329 C 
ATOM     18  C   UNL A   1      34.044  23.771  24.701  1.00  0.00     0.260 C 
ATOM     19  O   UNL A   1      33.896  21.392  27.399  1.00  0.00    -0.248 OA
ATOM     20  N   UNL A   1      32.344  22.812  26.713  1.00  0.00    -0.332 N 
ATOM     21  C   UNL A   1      32.730  24.519  24.938  1.00  0.00     0.197 C 
ATOM     22  O   UNL A   1      34.729  23.974  23.690  1.00  0.00    -0.271 OA
ATOM     23  C   UNL A   1      31.747  23.731  25.790  1.00  0.00     0.118 C 
ATOM     24  H   UNL A   1      31.799  22.527  27.483  1.00  0.00     0.165 HD
ATOM     25  C   UNL A   1      30.875  22.992  24.778  1.00  0.00     0.049 C 
ATOM     26  C   UNL A   1      30.788  23.964  23.628  1.00  0.00     0.122 C 
BRANCH  16  27
ATOM     27  C   UNL A   1      35.825  22.509  25.670  1.00  0.00     0.054 A 
ATOM     28  C   UNL A   1      40.004  21.487  25.822  1.00  0.00     0.044 C 
ATOM     29  C   UNL A   1      38.553  21.854  25.752  1.00  0.00    -0.051 A 
ATOM     30  C   UNL A   1      37.616  20.942  25.247  1.00  0.00     0.005 A 
ATOM     31  C   UNL A   1      38.123  23.114  26.173  1.00  0.00     0.005 A 
ATOM     32  C   UNL A   1      36.254  21.258  25.224  1.00  0.00     0.027 A 
ATOM     33  C   UNL A   1      36.773  23.444  26.116  1.00  0.00     0.027 A 
ENDBRANCH  16  27
ENDBRANCH  13  15
ENDBRANCH  12  13
ENDBRANCH   7  12
ENDBRANCH   6   7
ENDBRANCH   4   6
ENDBRANCH   3   4
ENDBRANCH   2   3
ENDBRANCH   1   2
BRANCH   1  34
ATOM     34  O   UNL A   1      33.122  32.226  27.836  1.00  0.00    -0.374 OA
BRANCH  34  35
ATOM     35  C   UNL A   1      34.273  32.616  28.537  1.00  0.00     0.202 C 
BRANCH  35  36
ATOM     36  C   UNL A   1      35.583  31.952  28.113  1.00  0.00     0.261 C 
BRANCH  36  37
ATOM     37  O   UNL A   1      35.868  30.635  28.655  1.00  0.00    -0.460 OA
BRANCH  37  38
ATOM     38  C   UNL A   1      36.381  29.633  27.906  1.00  0.00     0.338 C 
ATOM     39  O   UNL A   1      35.749  28.947  27.121  1.00  0.00    -0.246 OA
BRANCH  38  40
ATOM     40  C   UNL A   1      37.809  29.425  28.227  1.00  0.00     0.060 A 
ATOM     41  C   UNL A   1      38.813  29.283  27.251  1.00  0.00     0.016 A 
ATOM     42  C   UNL A   1      38.097  29.211  29.564  1.00  0.00     0.016 A 
ATOM     43  C   UNL A   1      40.090  28.809  27.609  1.00  0.00     0.010 A 
ATOM     44  C   UNL A   1      39.306  28.631  29.893  1.00  0.00     0.010 A 
ATOM     45  C   UNL A   1      40.314  28.415  28.925  1.00  0.00    -0.014 A 
BRANCH  45  46
ATOM     46  C   UNL A   1      41.518  27.780  29.484  1.00  0.00     0.031 A 
ATOM     47  C   UNL A   1      41.699  26.365  29.099  1.00  0.00     0.074 A 
ATOM     48  C   UNL A   1      42.571  28.494  29.959  1.00  0.00     0.049 A 
ATOM     49  N   UNL A   1      42.732  25.659  29.371  1.00  0.00    -0.248 NA
ATOM     50  C   UNL A   1      40.686  25.619  28.358  1.00  0.00     0.031 C 
ATOM     51  C   UNL A   1      44.002  28.172  29.907  1.00  0.00     0.029 A 
ATOM     52  N   UNL A   1      42.579  29.718  30.636  1.00  0.00    -0.354 N 
ATOM     53  C   UNL A   1      42.697  24.537  28.576  1.00  0.00     0.074 A 
ATOM     54  C   UNL A   1      41.355  24.505  28.056  1.00  0.00     0.031 C 
ATOM     55  C   UNL A   1      44.676  28.984  30.746  1.00  0.00     0.029 A 
ATOM     56  C   UNL A   1      43.685  29.736  31.498  1.00  0.00     0.049 A 
ATOM     57  H   UNL A   1      41.921  30.442  30.527  1.00  0.00     0.167 HD
ATOM     58  C   UNL A   1      43.872  23.871  28.385  1.00  0.00     0.037 A 
ATOM     59  C   UNL A   1      43.451  29.749  32.839  1.00  0.00     0.037 A 
ATOM     60  C   UNL A   1      44.888  24.382  29.337  1.00  0.00     0.049 A 
ATOM     61  C   UNL A   1      43.862  28.418  33.422  1.00  0.00     0.074 A 
ATOM     62  C   UNL A   1      46.014  25.185  29.264  1.00  0.00     0.029 A 
ATOM     63  N   UNL A   1      44.567  24.344  30.689  1.00  0.00    -0.354 N 
ATOM     64  N   UNL A   1      44.373  27.454  32.703  1.00  0.00    -0.248 NA
ATOM     65  C   UNL A   1      43.725  28.035  34.819  1.00  0.00     0.031 C 
ATOM     66  C   UNL A   1      46.310  25.665  30.590  1.00  0.00     0.029 A 
ATOM     67  C   UNL A   1      45.388  25.130  31.476  1.00  0.00     0.049 A 
ATOM     68  H   UNL A   1      43.825  23.808  31.052  1.00  0.00     0.167 HD
ATOM     69  C   UNL A   1      44.594  26.348  33.450  1.00  0.00     0.074 A 
ATOM     70  C   UNL A   1      44.148  26.756  34.781  1.00  0.00     0.031 C 
ATOM     71  C   UNL A   1      45.110  25.198  32.916  1.00  0.00     0.037 A 
BRANCH  58  72
ATOM     72  C   UNL A   1      44.151  22.875  27.262  1.00  0.00     0.058 A 
ATOM     73  C   UNL A   1      43.376  21.700  27.147  1.00  0.00     0.135 A 
ATOM     74  C   UNL A   1      45.185  22.964  26.299  1.00  0.00     0.135 A 
ATOM     75  F   UNL A   1      42.353  21.458  27.979  1.00  0.00    -0.206 F 
ATOM     76  C   UNL A   1      43.617  20.707  26.186  1.00  0.00     0.059 A 
ATOM     77  C   UNL A   1      45.449  21.986  25.335  1.00  0.00     0.059 A 
ATOM     78  F   UNL A   1      46.012  24.003  26.212  1.00  0.00    -0.206 F 
ATOM     79  C   UNL A   1      44.658  20.858  25.281  1.00  0.00     0.060 A 
BRANCH  79  80
ATOM     80  S   UNL A   1      44.958  19.592  24.036  1.00  0.00     0.124 S 
ATOM     81  O   UNL A   1      44.123  18.492  24.508  1.00  0.00    -0.237 OA
ATOM     82  O   UNL A   1      44.510  20.254  22.815  1.00  0.00    -0.237 OA
ATOM     83  O   UNL A   1      46.398  19.358  24.122  1.00  0.00    -0.744 OA
ENDBRANCH  79  80
ENDBRANCH  58  72
BRANCH  59  84
ATOM     84  C   UNL A   1      42.256  30.616  33.159  1.00  0.00     0.058 A 
ATOM     85  C   UNL A   1      42.400  32.014  32.975  1.00  0.00     0.135 A 
ATOM     86  C   UNL A   1      40.946  30.113  33.093  1.00  0.00     0.135 A 
ATOM     87  F   UNL A   1      43.625  32.569  32.992  1.00  0.00    -0.206 F 
ATOM     88  C   UNL A   1      41.334  32.838  32.599  1.00  0.00     0.059 A 
ATOM     89  C   UNL A   1      39.863  30.922  32.706  1.00  0.00     0.059 A 
ATOM     90  F   UNL A   1      40.725  28.799  33.239  1.00  0.00    -0.206 F 
ATOM     91  C   UNL A   1      40.077  32.270  32.407  1.00  0.00     0.060 A 
BRANCH  91  92
ATOM     92  S   UNL A   1      38.820  33.229  31.502  1.00  0.00     0.124 S 
ATOM     93  O   UNL A   1      38.641  32.434  30.295  1.00  0.00    -0.237 OA
ATOM     94  O   UNL A   1      37.689  33.229  32.431  1.00  0.00    -0.237 OA
ATOM     95  O   UNL A   1      39.457  34.527  31.322  1.00  0.00    -0.744 OA
ENDBRANCH  91  92
ENDBRANCH  59  84
BRANCH  71  96
ATOM     96  C   UNL A   1      45.327  23.983  33.771  1.00  0.00     0.058 A 
ATOM     97  C   UNL A   1      44.291  23.082  34.056  1.00  0.00     0.135 A 
ATOM     98  C   UNL A   1      46.577  23.698  34.364  1.00  0.00     0.135 A 
ATOM     99  F   UNL A   1      43.028  23.339  33.678  1.00  0.00    -0.206 F 
ATOM    100  C   UNL A   1      44.519  21.891  34.734  1.00  0.00     0.059 A 
ATOM    101  C   UNL A   1      46.808  22.556  35.110  1.00  0.00     0.059 A 
ATOM    102  F   UNL A   1      47.644  24.491  34.214  1.00  0.00    -0.206 F 
ATOM    103  C   UNL A   1      45.789  21.629  35.238  1.00  0.00     0.060 A 
BRANCH 103 104
ATOM    104  S   UNL A   1      46.105  20.071  36.067  1.00  0.00     0.124 S 
ATOM    105  O   UNL A   1      45.287  19.137  35.299  1.00  0.00    -0.237 OA
ATOM    106  O   UNL A   1      47.549  19.941  35.893  1.00  0.00    -0.237 OA
ATOM    107  O   UNL A   1      45.655  20.315  37.434  1.00  0.00    -0.744 OA
ENDBRANCH 103 104
ENDBRANCH  71  96
ENDBRANCH  45  46
ENDBRANCH  38  40
ENDBRANCH  37  38
ENDBRANCH  36  37
ENDBRANCH  35  36
ENDBRANCH  34  35
ENDBRANCH   1  34
TORSDOF 22
ENDMDL
MODEL 2
REMARK VINA RESULT:     -11.2      4.358     10.839
REMARK SMILES Cc1ccc(N2C(=O)N[C@@H]3CCN(C(=O)CC4(CC(=O)OCCOCCOC(=O)c5ccc(-c6c7nc(c(-c8c(F)cc(S(=O)(=O)[O-])cc8F)c8ccc([nH]8)c(-c8c(F)cc(S(=O)(=O)[O-])cc8F)c8nc(c(-c9c(F)cc(S(=O)(=O)[O-])cc9F)c9ccc6[nH]9)C=C8)C=C7)cc5)CCCC4)[C@@H]3C2=O)cc1
REMARK SMILES IDX 23 1 22 2 21 3 19 4 20 5 18 6 17 7 96 8 99 9 97 10 98 11
REMARK SMILES IDX 16 12 14 13 15 14 13 15 6 16 7 17 101 18 8 19 9 20 100 21
REMARK SMILES IDX 102 22 10 23 11 25 12 26 5 27 1 28 2 29 3 30 104 31 4 32
REMARK SMILES IDX 103 33 24 34 25 35 26 36 27 37 28 38 29 39 30 40 31 41 95 42
REMARK SMILES IDX 32 43 94 44 33 45 34 46 35 47 88 48 36 49 93 50 87 51 89 52
REMARK SMILES IDX 37 53 92 54 86 55 85 56 38 58 72 59 51 60 71 61 52 62 55 63
REMARK SMILES IDX 70 64 90 65 53 66 54 67 69 69 91 70 56 71 39 72 40 73 49 74
REMARK SMILES IDX 41 75 42 76 48 77 50 78 43 79 44 80 45 81 46 82 47 83 73 84
REMARK SMILES IDX 74 85 83 86 75 87 76 88 82 89 84 90 77 91 78 92 79 93 80 94
REMARK SMILES IDX 81 95 57 96 58 97 67 98 59 99 60 100 66 101 68 102 61 103
REMARK SMILES IDX 62 104 63 105 64 106 65 107
REMARK H PARENT 9 24 89 57 55 68
REMARK Flexibility Score: inf
ROOT
ATOM      1  C   UNL A   1      38.570  21.180  25.378  1.00  0.00     0.202 C 
ENDROOT
BRANCH   1   2
ATOM      2  C   UNL A   1      37.239  20.713  24.914  1.00  0.00     0.261 C 
BRANCH   2   3
ATOM      3  O   UNL A   1      36.382  21.768  24.462  1.00  0.00    -0.463 OA
BRANCH   3   4
ATOM      4  C   UNL A   1      35.543  22.537  25.211  1.00  0.00     0.306 C 
ATOM      5  O   UNL A   1      35.532  23.742  25.314  1.00  0.00    -0.252 OA
BRANCH   4   6
ATOM      6  C   UNL A   1      34.578  21.579  25.917  1.00  0.00     0.130 C 
BRANCH   6   7
ATOM      7  C   UNL A   1      33.108  21.784  25.395  1.00  0.00    -0.011 C 
ATOM      8  C   UNL A   1      32.279  20.502  25.572  1.00  0.00     0.008 C 
ATOM      9  C   UNL A   1      33.163  21.932  23.821  1.00  0.00     0.008 C 
ATOM     10  C   UNL A   1      32.551  19.680  24.314  1.00  0.00     0.001 C 
ATOM     11  C   UNL A   1      32.509  20.710  23.204  1.00  0.00     0.001 C 
BRANCH   7  12
ATOM     12  C   UNL A   1      32.561  23.047  26.153  1.00  0.00     0.107 C 
BRANCH  12  13
ATOM     13  C   UNL A   1      31.426  23.901  25.651  1.00  0.00     0.223 C 
ATOM     14  O   UNL A   1      30.385  24.023  26.299  1.00  0.00    -0.275 OA
BRANCH  13  15
ATOM     15  N   UNL A   1      31.626  24.596  24.488  1.00  0.00    -0.328 N 
ATOM     16  N   UNL A   1      33.180  27.852  24.776  1.00  0.00    -0.230 N 
ATOM     17  C   UNL A   1      33.373  28.155  23.438  1.00  0.00     0.329 C 
ATOM     18  C   UNL A   1      32.685  26.642  25.251  1.00  0.00     0.260 C 
ATOM     19  O   UNL A   1      33.659  29.261  22.980  1.00  0.00    -0.248 OA
ATOM     20  N   UNL A   1      33.283  27.122  22.554  1.00  0.00    -0.332 N 
ATOM     21  C   UNL A   1      32.806  25.432  24.323  1.00  0.00     0.197 C 
ATOM     22  O   UNL A   1      32.193  26.543  26.382  1.00  0.00    -0.271 OA
ATOM     23  C   UNL A   1      32.786  25.811  22.850  1.00  0.00     0.118 C 
ATOM     24  H   UNL A   1      33.586  27.293  21.632  1.00  0.00     0.165 HD
ATOM     25  C   UNL A   1      31.320  25.683  22.445  1.00  0.00     0.049 C 
ATOM     26  C   UNL A   1      30.834  24.525  23.281  1.00  0.00     0.122 C 
BRANCH  16  27
ATOM     27  C   UNL A   1      33.443  28.849  25.762  1.00  0.00     0.054 A 
ATOM     28  C   UNL A   1      34.443  31.874  28.656  1.00  0.00     0.044 C 
ATOM     29  C   UNL A   1      34.091  30.809  27.664  1.00  0.00    -0.051 A 
ATOM     30  C   UNL A   1      32.850  30.831  27.011  1.00  0.00     0.005 A 
ATOM     31  C   UNL A   1      34.987  29.772  27.394  1.00  0.00     0.005 A 
ATOM     32  C   UNL A   1      32.534  29.868  26.048  1.00  0.00     0.027 A 
ATOM     33  C   UNL A   1      34.659  28.792  26.463  1.00  0.00     0.027 A 
ENDBRANCH  16  27
ENDBRANCH  13  15
ENDBRANCH  12  13
ENDBRANCH   7  12
ENDBRANCH   6   7
ENDBRANCH   4   6
ENDBRANCH   3   4
ENDBRANCH   2   3
ENDBRANCH   1   2
BRANCH   1  34
ATOM     34  O   UNL A   1      39.213  19.994  25.812  1.00  0.00    -0.374 OA
BRANCH  34  35
ATOM     35  C   UNL A   1      40.551  20.075  26.227  1.00  0.00     0.202 C 
BRANCH  35  36
ATOM     36  C   UNL A   1      40.815  20.855  27.516  1.00  0.00     0.261 C 
BRANCH  36  37
ATOM     37  O   UNL A   1      40.643  22.296  27.468  1.00  0.00    -0.460 OA
BRANCH  37  38
ATOM     38  C   UNL A   1      41.372  23.091  26.652  1.00  0.00     0.338 C 
ATOM     39  O   UNL A   1      42.060  22.703  25.725  1.00  0.00    -0.246 OA
BRANCH  38  40
ATOM     40  C   UNL A   1      41.283  24.501  27.089  1.00  0.00     0.060 A 
ATOM     41  C   UNL A   1      40.924  25.559  26.233  1.00  0.00     0.016 A 
ATOM     42  C   UNL A   1      41.738  24.760  28.371  1.00  0.00     0.016 A 
ATOM     43  C   UNL A   1      41.133  26.894  26.628  1.00  0.00     0.010 A 
ATOM     44  C   UNL A   1      42.056  26.061  28.706  1.00  0.00     0.010 A 
ATOM     45  C   UNL A   1      41.767  27.143  27.842  1.00  0.00    -0.014 A 
BRANCH  45  46
ATOM     46  C   UNL A   1      42.193  28.441  28.388  1.00  0.00     0.031 A 
ATOM     47  C   UNL A   1      41.095  29.408  28.594  1.00  0.00     0.074 A 
ATOM     48  C   UNL A   1      43.381  28.617  29.022  1.00  0.00     0.049 A 
ATOM     49  N   UNL A   1      41.220  30.546  29.167  1.00  0.00    -0.248 NA
ATOM     50  C   UNL A   1      39.729  29.150  28.147  1.00  0.00     0.031 C 
ATOM     51  C   UNL A   1      43.702  29.501  30.149  1.00  0.00     0.029 A 
ATOM     52  N   UNL A   1      44.620  28.019  28.768  1.00  0.00    -0.354 N 
ATOM     53  C   UNL A   1      39.961  31.001  29.482  1.00  0.00     0.074 A 
ATOM     54  C   UNL A   1      39.073  30.156  28.726  1.00  0.00     0.031 C 
ATOM     55  C   UNL A   1      45.040  29.598  30.277  1.00  0.00     0.029 A 
ATOM     56  C   UNL A   1      45.627  28.924  29.131  1.00  0.00     0.049 A 
ATOM     57  H   UNL A   1      44.759  27.118  28.397  1.00  0.00     0.167 HD
ATOM     58  C   UNL A   1      39.867  31.958  30.450  1.00  0.00     0.037 A 
ATOM     59  C   UNL A   1      46.415  29.433  28.145  1.00  0.00     0.037 A 
ATOM     60  C   UNL A   1      41.219  32.493  30.746  1.00  0.00     0.049 A 
ATOM     61  C   UNL A   1      46.092  30.898  27.965  1.00  0.00     0.074 A 
ATOM     62  C   UNL A   1      42.136  32.379  31.776  1.00  0.00     0.029 A 
ATOM     63  N   UNL A   1      41.946  33.005  29.678  1.00  0.00    -0.354 N 
ATOM     64  N   UNL A   1      45.200  31.522  28.687  1.00  0.00    -0.248 NA
ATOM     65  C   UNL A   1      46.697  31.775  26.975  1.00  0.00     0.031 C 
ATOM     66  C   UNL A   1      43.427  32.777  31.275  1.00  0.00     0.029 A 
ATOM     67  C   UNL A   1      43.292  33.166  29.951  1.00  0.00     0.049 A 
ATOM     68  H   UNL A   1      41.542  33.233  28.810  1.00  0.00     0.167 HD
ATOM     69  C   UNL A   1      45.054  32.806  28.284  1.00  0.00     0.074 A 
ATOM     70  C   UNL A   1      46.009  32.915  27.182  1.00  0.00     0.031 C 
ATOM     71  C   UNL A   1      44.163  33.660  28.877  1.00  0.00     0.037 A 
BRANCH  58  72
ATOM     72  C   UNL A   1      38.600  32.310  31.226  1.00  0.00     0.058 A 
ATOM     73  C   UNL A   1      37.562  33.032  30.597  1.00  0.00     0.135 A 
ATOM     74  C   UNL A   1      38.347  32.033  32.590  1.00  0.00     0.135 A 
ATOM     75  F   UNL A   1      37.638  33.375  29.304  1.00  0.00    -0.206 F 
ATOM     76  C   UNL A   1      36.400  33.451  31.263  1.00  0.00     0.059 A 
ATOM     77  C   UNL A   1      37.201  32.444  33.278  1.00  0.00     0.059 A 
ATOM     78  F   UNL A   1      39.183  31.339  33.360  1.00  0.00    -0.206 F 
ATOM     79  C   UNL A   1      36.226  33.152  32.607  1.00  0.00     0.060 A 
BRANCH  79  80
ATOM     80  S   UNL A   1      34.728  33.674  33.458  1.00  0.00     0.124 S 
ATOM     81  O   UNL A   1      33.723  32.784  32.888  1.00  0.00    -0.237 OA
ATOM     82  O   UNL A   1      35.074  33.435  34.856  1.00  0.00    -0.237 OA
ATOM     83  O   UNL A   1      34.593  35.082  33.085  1.00  0.00    -0.744 OA
ENDBRANCH  79  80
ENDBRANCH  58  72
BRANCH  59  84
ATOM     84  C   UNL A   1      46.716  28.376  27.109  1.00  0.00     0.058 A 
ATOM     85  C   UNL A   1      45.917  28.367  25.938  1.00  0.00     0.135 A 
ATOM     86  C   UNL A   1      47.996  27.807  26.991  1.00  0.00     0.135 A 
ATOM     87  F   UNL A   1      44.692  28.921  25.960  1.00  0.00    -0.206 F 
ATOM     88  C   UNL A   1      46.409  27.960  24.694  1.00  0.00     0.059 A 
ATOM     89  C   UNL A   1      48.512  27.403  25.748  1.00  0.00     0.059 A 
ATOM     90  F   UNL A   1      48.821  27.791  28.048  1.00  0.00    -0.206 F 
ATOM     91  C   UNL A   1      47.732  27.535  24.597  1.00  0.00     0.060 A 
BRANCH  91  92
ATOM     92  S   UNL A   1      48.493  27.437  22.945  1.00  0.00     0.124 S 
ATOM     93  O   UNL A   1      47.537  28.167  22.124  1.00  0.00    -0.237 OA
ATOM     94  O   UNL A   1      49.783  28.098  23.148  1.00  0.00    -0.237 OA
ATOM     95  O   UNL A   1      48.578  26.003  22.701  1.00  0.00    -0.744 OA
ENDBRANCH  91  92
ENDBRANCH  59  84
BRANCH  71  96
ATOM     96  C   UNL A   1      44.016  35.073  28.394  1.00  0.00     0.058 A 
ATOM     97  C   UNL A   1      43.348  35.383  27.200  1.00  0.00     0.135 A 
ATOM     98  C   UNL A   1      44.570  36.166  29.096  1.00  0.00     0.135 A 
ATOM     99  F   UNL A   1      42.923  34.414  26.374  1.00  0.00    -0.206 F 
ATOM    100  C   UNL A   1      43.095  36.695  26.820  1.00  0.00     0.059 A 
ATOM    101  C   UNL A   1      44.397  37.479  28.694  1.00  0.00     0.059 A 
ATOM    102  F   UNL A   1      45.268  36.018  30.227  1.00  0.00    -0.206 F 
ATOM    103  C   UNL A   1      43.606  37.737  27.589  1.00  0.00     0.060 A 
BRANCH 103 104
ATOM    104  S   UNL A   1      43.239  39.432  27.134  1.00  0.00     0.124 S 
ATOM    105  O   UNL A   1      41.957  39.301  26.451  1.00  0.00    -0.237 OA
ATOM    106  O   UNL A   1      43.198  40.076  28.444  1.00  0.00    -0.237 OA
ATOM    107  O   UNL A   1      44.363  39.807  26.283  1.00  0.00    -0.744 OA
ENDBRANCH 103 104
ENDBRANCH  71  96
ENDBRANCH  45  46
ENDBRANCH  38  40
ENDBRANCH  37  38
ENDBRANCH  36  37
ENDBRANCH  35  36
ENDBRANCH  34  35
ENDBRANCH   1  34
TORSDOF 22
ENDMDL
MODEL 3
REMARK VINA RESULT:     -10.5      1.557      2.108
REMARK SMILES Cc1ccc(N2C(=O)N[C@@H]3CCN(C(=O)CC4(CC(=O)OCCOCCOC(=O)c5ccc(-c6c7nc(c(-c8c(F)cc(S(=O)(=O)[O-])cc8F)c8ccc([nH]8)c(-c8c(F)cc(S(=O)(=O)[O-])cc8F)c8nc(c(-c9c(F)cc(S(=O)(=O)[O-])cc9F)c9ccc6[nH]9)C=C8)C=C7)cc5)CCCC4)[C@@H]3C2=O)cc1
REMARK SMILES IDX 23 1 22 2 21 3 19 4 20 5 18 6 17 7 96 8 99 9 97 10 98 11
REMARK SMILES IDX 16 12 14 13 15 14 13 15 6 16 7 17 101 18 8 19 9 20 100 21
REMARK SMILES IDX 102 22 10 23 11 25 12 26 5 27 1 28 2 29 3 30 104 31 4 32
REMARK SMILES IDX 103 33 24 34 25 35 26 36 27 37 28 38 29 39 30 40 31 41 95 42
REMARK SMILES IDX 32 43 94 44 33 45 34 46 35 47 88 48 36 49 93 50 87 51 89 52
REMARK SMILES IDX 37 53 92 54 86 55 85 56 38 58 72 59 51 60 71 61 52 62 55 63
REMARK SMILES IDX 70 64 90 65 53 66 54 67 69 69 91 70 56 71 39 72 40 73 49 74
REMARK SMILES IDX 41 75 42 76 48 77 50 78 43 79 44 80 45 81 46 82 47 83 73 84
REMARK SMILES IDX 74 85 83 86 75 87 76 88 82 89 84 90 77 91 78 92 79 93 80 94
REMARK SMILES IDX 81 95 57 96 58 97 67 98 59 99 60 100 66 101 68 102 61 103
REMARK SMILES IDX 62 104 63 105 64 106 65 107
REMARK H PARENT 9 24 89 57 55 68
REMARK Flexibility Score: inf
ROOT
ATOM      1  C   UNL A   1      32.809  31.636  26.883  1.00  0.00     0.202 C 
ENDROOT
BRANCH   1   2
ATOM      2  C   UNL A   1      31.473  31.234  26.374  1.00  0.00     0.261 C 
BRANCH   2   3
ATOM      3  O   UNL A   1      31.315  29.818  26.220  1.00  0.00    -0.463 OA
BRANCH   3   4
ATOM      4  C   UNL A   1      32.255  28.915  25.823  1.00  0.00     0.306 C 
ATOM      5  O   UNL A   1      32.739  28.015  26.468  1.00  0.00    -0.252 OA
BRANCH   4   6
ATOM      6  C   UNL A   1      32.595  29.243  24.365  1.00  0.00     0.130 C 
BRANCH   6   7
ATOM      7  C   UNL A   1      31.987  28.164  23.395  1.00  0.00    -0.011 C 
ATOM      8  C   UNL A   1      31.396  28.826  22.140  1.00  0.00     0.008 C 
ATOM      9  C   UNL A   1      30.702  27.552  24.085  1.00  0.00     0.008 C 
ATOM     10  C   UNL A   1      29.968  29.201  22.526  1.00  0.00     0.001 C 
ATOM     11  C   UNL A   1      29.482  27.991  23.297  1.00  0.00     0.001 C 
BRANCH   7  12
ATOM     12  C   UNL A   1      33.142  27.133  23.130  1.00  0.00     0.107 C 
BRANCH  12  13
ATOM     13  C   UNL A   1      32.912  25.691  22.757  1.00  0.00     0.223 C 
ATOM     14  O   UNL A   1      33.216  25.266  21.641  1.00  0.00    -0.275 OA
BRANCH  13  15
ATOM     15  N   UNL A   1      32.426  24.859  23.728  1.00  0.00    -0.328 N 
ATOM     16  N   UNL A   1      34.858  23.281  25.896  1.00  0.00    -0.230 N 
ATOM     17  C   UNL A   1      34.017  22.684  26.821  1.00  0.00     0.329 C 
ATOM     18  C   UNL A   1      34.437  24.114  24.865  1.00  0.00     0.260 C 
ATOM     19  O   UNL A   1      34.336  21.826  27.643  1.00  0.00    -0.248 OA
ATOM     20  N   UNL A   1      32.727  23.124  26.854  1.00  0.00    -0.332 N 
ATOM     21  C   UNL A   1      33.074  24.788  25.030  1.00  0.00     0.197 C 
ATOM     22  O   UNL A   1      35.144  24.321  23.871  1.00  0.00    -0.271 OA
ATOM     23  C   UNL A   1      32.110  23.972  25.878  1.00  0.00     0.118 C 
ATOM     24  H   UNL A   1      32.173  22.834  27.615  1.00  0.00     0.165 HD
ATOM     25  C   UNL A   1      31.319  23.146  24.866  1.00  0.00     0.049 C 
ATOM     26  C   UNL A   1      31.216  24.069  23.677  1.00  0.00     0.122 C 
BRANCH  16  27
ATOM     27  C   UNL A   1      36.255  22.997  25.939  1.00  0.00     0.054 A 
ATOM     28  C   UNL A   1      40.479  22.235  26.269  1.00  0.00     0.044 C 
ATOM     29  C   UNL A   1      39.012  22.511  26.137  1.00  0.00    -0.051 A 
ATOM     30  C   UNL A   1      38.151  21.532  25.621  1.00  0.00     0.005 A 
ATOM     31  C   UNL A   1      38.492  23.753  26.510  1.00  0.00     0.005 A 
ATOM     32  C   UNL A   1      36.775  21.765  25.541  1.00  0.00     0.027 A 
ATOM     33  C   UNL A   1      37.127  23.999  26.396  1.00  0.00     0.027 A 
ENDBRANCH  16  27
ENDBRANCH  13  15
ENDBRANCH  12  13
ENDBRANCH   7  12
ENDBRANCH   6   7
ENDBRANCH   4   6
ENDBRANCH   3   4
ENDBRANCH   2   3
ENDBRANCH   1   2
BRANCH   1  34
ATOM     34  O   UNL A   1      32.518  32.626  27.855  1.00  0.00    -0.374 OA
BRANCH  34  35
ATOM     35  C   UNL A   1      33.446  33.659  28.052  1.00  0.00     0.202 C 
BRANCH  35  36
ATOM     36  C   UNL A   1      34.919  33.251  28.084  1.00  0.00     0.261 C 
BRANCH  36  37
ATOM     37  O   UNL A   1      35.242  31.974  28.695  1.00  0.00    -0.460 OA
BRANCH  37  38
ATOM     38  C   UNL A   1      35.529  30.869  27.969  1.00  0.00     0.338 C 
ATOM     39  O   UNL A   1      34.950  30.526  26.953  1.00  0.00    -0.246 OA
BRANCH  38  40
ATOM     40  C   UNL A   1      36.600  30.085  28.621  1.00  0.00     0.060 A 
ATOM     41  C   UNL A   1      36.537  29.644  29.956  1.00  0.00     0.016 A 
ATOM     42  C   UNL A   1      37.767  29.940  27.890  1.00  0.00     0.016 A 
ATOM     43  C   UNL A   1      37.692  29.156  30.598  1.00  0.00     0.010 A 
ATOM     44  C   UNL A   1      38.921  29.580  28.555  1.00  0.00     0.010 A 
ATOM     45  C   UNL A   1      38.904  29.191  29.915  1.00  0.00    -0.014 A 
BRANCH  45  46
ATOM     46  C   UNL A   1      40.240  28.854  30.431  1.00  0.00     0.031 A 
ATOM     47  C   UNL A   1      40.797  27.589  29.908  1.00  0.00     0.074 A 
ATOM     48  C   UNL A   1      41.062  29.774  30.999  1.00  0.00     0.049 A 
ATOM     49  N   UNL A   1      41.985  27.166  30.128  1.00  0.00    -0.248 NA
ATOM     50  C   UNL A   1      40.020  26.677  29.074  1.00  0.00     0.031 C 
ATOM     51  C   UNL A   1      42.526  29.861  30.945  1.00  0.00     0.029 A 
ATOM     52  N   UNL A   1      40.741  30.877  31.798  1.00  0.00    -0.354 N 
ATOM     53  C   UNL A   1      42.251  26.166  29.223  1.00  0.00     0.074 A 
ATOM     54  C   UNL A   1      40.964  25.825  28.674  1.00  0.00     0.031 C 
ATOM     55  C   UNL A   1      42.959  30.733  31.876  1.00  0.00     0.029 A 
ATOM     56  C   UNL A   1      41.807  31.105  32.680  1.00  0.00     0.049 A 
ATOM     57  H   UNL A   1      39.910  31.401  31.749  1.00  0.00     0.167 HD
ATOM     58  C   UNL A   1      43.562  25.868  28.989  1.00  0.00     0.037 A 
ATOM     59  C   UNL A   1      41.588  30.915  34.010  1.00  0.00     0.037 A 
ATOM     60  C   UNL A   1      44.407  26.534  30.010  1.00  0.00     0.049 A 
ATOM     61  C   UNL A   1      42.351  29.693  34.463  1.00  0.00     0.074 A 
ATOM     62  C   UNL A   1      45.271  27.616  30.042  1.00  0.00     0.029 A 
ATOM     63  N   UNL A   1      44.119  26.270  31.344  1.00  0.00    -0.354 N 
ATOM     64  N   UNL A   1      43.100  28.984  33.659  1.00  0.00    -0.248 NA
ATOM     65  C   UNL A   1      42.334  29.144  35.810  1.00  0.00     0.031 C 
ATOM     66  C   UNL A   1      45.435  28.019  31.416  1.00  0.00     0.029 A 
ATOM     67  C   UNL A   1      44.701  27.164  32.224  1.00  0.00     0.049 A 
ATOM     68  H   UNL A   1      43.554  25.518  31.635  1.00  0.00     0.167 HD
ATOM     69  C   UNL A   1      43.619  27.908  34.295  1.00  0.00     0.074 A 
ATOM     70  C   UNL A   1      43.089  28.039  35.651  1.00  0.00     0.031 C 
ATOM     71  C   UNL A   1      44.426  27.003  33.658  1.00  0.00     0.037 A 
BRANCH  58  72
ATOM     72  C   UNL A   1      44.093  25.108  27.777  1.00  0.00     0.058 A 
ATOM     73  C   UNL A   1      44.042  23.697  27.746  1.00  0.00     0.135 A 
ATOM     74  C   UNL A   1      44.716  25.673  26.638  1.00  0.00     0.135 A 
ATOM     75  F   UNL A   1      43.483  23.000  28.745  1.00  0.00    -0.206 F 
ATOM     76  C   UNL A   1      44.572  22.927  26.700  1.00  0.00     0.059 A 
ATOM     77  C   UNL A   1      45.256  24.929  25.585  1.00  0.00     0.059 A 
ATOM     78  F   UNL A   1      44.842  26.985  26.453  1.00  0.00    -0.206 F 
ATOM     79  C   UNL A   1      45.179  23.553  25.620  1.00  0.00     0.060 A 
BRANCH  79  80
ATOM     80  S   UNL A   1      45.845  22.567  24.268  1.00  0.00     0.124 S 
ATOM     81  O   UNL A   1      46.770  23.500  23.633  1.00  0.00    -0.237 OA
ATOM     82  O   UNL A   1      46.455  21.448  24.980  1.00  0.00    -0.237 OA
ATOM     83  O   UNL A   1      44.665  22.228  23.474  1.00  0.00    -0.744 OA
ENDBRANCH  79  80
ENDBRANCH  58  72
BRANCH  59  84
ATOM     84  C   UNL A   1      40.205  31.386  34.391  1.00  0.00     0.058 A 
ATOM     85  C   UNL A   1      40.022  32.779  34.577  1.00  0.00     0.135 A 
ATOM     86  C   UNL A   1      39.059  30.649  34.049  1.00  0.00     0.135 A 
ATOM     87  F   UNL A   1      41.076  33.559  34.875  1.00  0.00    -0.206 F 
ATOM     88  C   UNL A   1      38.814  33.424  34.294  1.00  0.00     0.059 A 
ATOM     89  C   UNL A   1      37.838  31.280  33.749  1.00  0.00     0.059 A 
ATOM     90  F   UNL A   1      39.149  29.329  33.838  1.00  0.00    -0.206 F 
ATOM     91  C   UNL A   1      37.742  32.672  33.821  1.00  0.00     0.060 A 
BRANCH  91  92
ATOM     92  S   UNL A   1      36.346  33.545  33.039  1.00  0.00     0.124 S 
ATOM     93  O   UNL A   1      35.520  32.441  32.569  1.00  0.00    -0.237 OA
ATOM     94  O   UNL A   1      35.791  34.319  34.151  1.00  0.00    -0.237 OA
ATOM     95  O   UNL A   1      36.990  34.345  32.005  1.00  0.00    -0.744 OA
ENDBRANCH  91  92
ENDBRANCH  59  84
BRANCH  71  96
ATOM     96  C   UNL A   1      44.972  25.812  34.388  1.00  0.00     0.058 A 
ATOM     97  C   UNL A   1      44.229  24.633  34.544  1.00  0.00     0.135 A 
ATOM     98  C   UNL A   1      46.250  25.823  34.990  1.00  0.00     0.135 A 
ATOM     99  F   UNL A   1      42.946  24.567  34.153  1.00  0.00    -0.206 F 
ATOM    100  C   UNL A   1      44.779  23.485  35.102  1.00  0.00     0.059 A 
ATOM    101  C   UNL A   1      46.790  24.716  35.620  1.00  0.00     0.059 A 
ATOM    102  F   UNL A   1      47.053  26.893  34.958  1.00  0.00    -0.206 F 
ATOM    103  C   UNL A   1      46.071  23.534  35.617  1.00  0.00     0.060 A 
BRANCH 103 104
ATOM    104  S   UNL A   1      46.809  22.044  36.291  1.00  0.00     0.124 S 
ATOM    105  O   UNL A   1      48.169  22.480  36.592  1.00  0.00    -0.237 OA
ATOM    106  O   UNL A   1      45.951  21.798  37.446  1.00  0.00    -0.237 OA
ATOM    107  O   UNL A   1      46.690  21.082  35.200  1.00  0.00    -0.744 OA
ENDBRANCH 103 104
ENDBRANCH  71  96
ENDBRANCH  45  46
ENDBRANCH  38  40
ENDBRANCH  37  38
ENDBRANCH  36  37
ENDBRANCH  35  36
ENDBRANCH  34  35
ENDBRANCH   1  34
TORSDOF 22
ENDMDL
