MODEL 1
REMARK VINA RESULT:     -11.4      0.000      0.000
REMARK SMILES O=C(OCCOCCOC(=O)[C@@]1(Cc2ccnc3ccccc23)CCC[NH2+]C1)c1ccc(-c2c3nc(c(-c4c(F)cc(S(=O)(=O)[O-])cc4F)c4ccc([nH]4)c(-c4c(F)cc(S(=O)(=O)[O-])cc4F)c4nc(c(-c5c(F)cc(S(=O)(=O)[O-])cc5F)c5ccc2[nH]5)C=C4)C=C3)cc1
REMARK SMILES IDX 5 1 4 2 3 3 2 4 1 5 29 6 30 7 94 8 31 9 93 10 32 11 33 12
REMARK SMILES IDX 34 13 87 14 35 15 92 16 86 17 88 18 36 19 91 20 85 21 84 22
REMARK SMILES IDX 37 24 71 25 50 26 70 27 51 28 54 29 69 30 89 31 52 32 53 33
REMARK SMILES IDX 68 35 90 36 55 37 38 38 39 39 48 40 40 41 41 42 47 43 49 44
REMARK SMILES IDX 42 45 43 46 44 47 45 48 46 49 72 50 73 51 82 52 74 53 75 54
REMARK SMILES IDX 81 55 83 56 76 57 77 58 78 59 79 60 80 61 56 62 57 63 66 64
REMARK SMILES IDX 58 65 59 66 65 67 67 68 60 69 61 70 62 71 63 72 64 73 6 74
REMARK SMILES IDX 7 75 8 76 9 77 10 78 11 79 12 80 24 81 28 82 25 83 27 84
REMARK SMILES IDX 26 85 13 88 14 89 15 90 23 91 16 92 18 93 22 94 17 95 19 96
REMARK SMILES IDX 21 97 20 98
REMARK H PARENT 88 23 54 34 27 86 27 87
REMARK Flexibility Score: inf
ROOT
ATOM      1  C   UNL A   1      31.874  28.881  25.560  1.00  0.00     0.202 C 
ENDROOT
BRANCH   1   2
ATOM      2  C   UNL A   1      32.047  29.008  27.078  1.00  0.00     0.261 C 
BRANCH   2   3
ATOM      3  O   UNL A   1      33.429  28.925  27.448  1.00  0.00    -0.460 OA
BRANCH   3   4
ATOM      4  C   UNL A   1      34.234  29.963  27.790  1.00  0.00     0.338 C 
ATOM      5  O   UNL A   1      33.751  31.088  27.878  1.00  0.00    -0.246 OA
BRANCH   4   6
ATOM      6  C   UNL A   1      35.689  29.785  28.066  1.00  0.00     0.060 A 
ATOM      7  C   UNL A   1      36.692  30.003  27.124  1.00  0.00     0.016 A 
ATOM      8  C   UNL A   1      36.079  29.442  29.367  1.00  0.00     0.016 A 
ATOM      9  C   UNL A   1      38.021  29.847  27.405  1.00  0.00     0.010 A 
ATOM     10  C   UNL A   1      37.435  29.310  29.683  1.00  0.00     0.010 A 
ATOM     11  C   UNL A   1      38.399  29.512  28.690  1.00  0.00    -0.014 A 
BRANCH  11  12
ATOM     12  C   UNL A   1      39.825  29.236  28.843  1.00  0.00     0.031 A 
ATOM     13  C   UNL A   1      40.643  30.264  29.550  1.00  0.00     0.074 A 
ATOM     14  C   UNL A   1      40.266  27.990  28.596  1.00  0.00     0.049 A 
ATOM     15  N   UNL A   1      41.917  30.263  29.806  1.00  0.00    -0.248 NA
ATOM     16  C   UNL A   1      39.920  31.444  30.063  1.00  0.00     0.031 C 
ATOM     17  C   UNL A   1      39.431  26.877  28.120  1.00  0.00     0.029 A 
ATOM     18  N   UNL A   1      41.496  27.429  28.767  1.00  0.00    -0.354 N 
ATOM     19  C   UNL A   1      42.163  31.461  30.460  1.00  0.00     0.074 A 
ATOM     20  C   UNL A   1      40.905  32.160  30.582  1.00  0.00     0.031 C 
ATOM     21  C   UNL A   1      40.177  25.763  28.056  1.00  0.00     0.029 A 
ATOM     22  C   UNL A   1      41.549  26.107  28.394  1.00  0.00     0.049 A 
ATOM     23  H   UNL A   1      42.270  27.921  29.124  1.00  0.00     0.167 HD
ATOM     24  C   UNL A   1      43.353  31.927  30.895  1.00  0.00     0.037 A 
ATOM     25  C   UNL A   1      42.616  25.296  28.288  1.00  0.00     0.037 A 
ATOM     26  C   UNL A   1      44.568  31.175  30.745  1.00  0.00     0.049 A 
ATOM     27  C   UNL A   1      43.951  25.886  28.652  1.00  0.00     0.074 A 
ATOM     28  C   UNL A   1      45.861  31.548  31.044  1.00  0.00     0.029 A 
ATOM     29  N   UNL A   1      44.623  29.875  30.248  1.00  0.00    -0.354 N 
ATOM     30  N   UNL A   1      44.216  27.074  29.149  1.00  0.00    -0.248 NA
ATOM     31  C   UNL A   1      45.131  25.049  28.423  1.00  0.00     0.031 C 
ATOM     32  C   UNL A   1      46.705  30.493  30.677  1.00  0.00     0.029 A 
ATOM     33  C   UNL A   1      45.933  29.437  30.211  1.00  0.00     0.049 A 
ATOM     34  H   UNL A   1      43.843  29.346  29.964  1.00  0.00     0.167 HD
ATOM     35  C   UNL A   1      45.592  27.124  29.311  1.00  0.00     0.074 A 
ATOM     36  C   UNL A   1      46.099  25.834  28.875  1.00  0.00     0.031 C 
ATOM     37  C   UNL A   1      46.372  28.133  29.773  1.00  0.00     0.037 A 
BRANCH  24  38
ATOM     38  C   UNL A   1      43.382  33.323  31.443  1.00  0.00     0.058 A 
ATOM     39  C   UNL A   1      43.544  34.453  30.625  1.00  0.00     0.135 A 
ATOM     40  C   UNL A   1      43.308  33.527  32.831  1.00  0.00     0.135 A 
ATOM     41  F   UNL A   1      43.667  34.314  29.295  1.00  0.00    -0.206 F 
ATOM     42  C   UNL A   1      43.660  35.731  31.166  1.00  0.00     0.059 A 
ATOM     43  C   UNL A   1      43.394  34.796  33.391  1.00  0.00     0.059 A 
ATOM     44  F   UNL A   1      43.180  32.479  33.661  1.00  0.00    -0.206 F 
ATOM     45  C   UNL A   1      43.586  35.891  32.551  1.00  0.00     0.060 A 
BRANCH  45  46
ATOM     46  S   UNL A   1      43.753  37.552  33.239  1.00  0.00     0.124 S 
ATOM     47  O   UNL A   1      42.574  37.631  34.097  1.00  0.00    -0.237 OA
ATOM     48  O   UNL A   1      45.035  37.473  33.931  1.00  0.00    -0.237 OA
ATOM     49  O   UNL A   1      43.729  38.413  32.061  1.00  0.00    -0.744 OA
ENDBRANCH  45  46
ENDBRANCH  24  38
BRANCH  25  50
ATOM     50  C   UNL A   1      42.474  23.916  27.750  1.00  0.00     0.058 A 
ATOM     51  C   UNL A   1      42.439  22.798  28.596  1.00  0.00     0.135 A 
ATOM     52  C   UNL A   1      42.370  23.683  26.367  1.00  0.00     0.135 A 
ATOM     53  F   UNL A   1      42.536  22.960  29.925  1.00  0.00    -0.206 F 
ATOM     54  C   UNL A   1      42.330  21.504  28.093  1.00  0.00     0.059 A 
ATOM     55  C   UNL A   1      42.229  22.403  25.843  1.00  0.00     0.059 A 
ATOM     56  F   UNL A   1      42.387  24.714  25.507  1.00  0.00    -0.206 F 
ATOM     57  C   UNL A   1      42.226  21.316  26.713  1.00  0.00     0.060 A 
BRANCH  57  58
ATOM     58  S   UNL A   1      42.070  19.635  26.072  1.00  0.00     0.124 S 
ATOM     59  O   UNL A   1      43.009  19.660  24.956  1.00  0.00    -0.237 OA
ATOM     60  O   UNL A   1      42.467  18.830  27.222  1.00  0.00    -0.237 OA
ATOM     61  O   UNL A   1      40.659  19.544  25.707  1.00  0.00    -0.744 OA
ENDBRANCH  57  58
ENDBRANCH  25  50
BRANCH  37  62
ATOM     62  C   UNL A   1      47.841  27.853  29.870  1.00  0.00     0.058 A 
ATOM     63  C   UNL A   1      48.417  27.336  31.040  1.00  0.00     0.135 A 
ATOM     64  C   UNL A   1      48.666  28.049  28.753  1.00  0.00     0.135 A 
ATOM     65  F   UNL A   1      47.667  27.140  32.137  1.00  0.00    -0.206 F 
ATOM     66  C   UNL A   1      49.773  27.046  31.106  1.00  0.00     0.059 A 
ATOM     67  C   UNL A   1      50.016  27.733  28.785  1.00  0.00     0.059 A 
ATOM     68  F   UNL A   1      48.154  28.529  27.609  1.00  0.00    -0.206 F 
ATOM     69  C   UNL A   1      50.562  27.244  29.971  1.00  0.00     0.060 A 
BRANCH  69  70
ATOM     70  S   UNL A   1      52.314  26.822  30.056  1.00  0.00     0.124 S 
ATOM     71  O   UNL A   1      52.305  25.736  31.029  1.00  0.00    -0.237 OA
ATOM     72  O   UNL A   1      52.609  26.440  28.679  1.00  0.00    -0.237 OA
ATOM     73  O   UNL A   1      52.939  28.062  30.504  1.00  0.00    -0.744 OA
ENDBRANCH  69  70
ENDBRANCH  37  62
ENDBRANCH  11  12
ENDBRANCH   4   6
ENDBRANCH   3   4
ENDBRANCH   2   3
ENDBRANCH   1   2
BRANCH   1  74
ATOM     74  O   UNL A   1      32.938  28.319  24.793  1.00  0.00    -0.374 OA
BRANCH  74  75
ATOM     75  C   UNL A   1      33.335  29.014  23.609  1.00  0.00     0.202 C 
BRANCH  75  76
ATOM     76  C   UNL A   1      33.488  28.023  22.459  1.00  0.00     0.261 C 
BRANCH  76  77
ATOM     77  O   UNL A   1      32.528  26.981  22.678  1.00  0.00    -0.463 OA
BRANCH  77  78
ATOM     78  C   UNL A   1      32.942  25.744  22.297  1.00  0.00     0.318 C 
ATOM     79  O   UNL A   1      33.482  25.499  21.221  1.00  0.00    -0.251 OA
BRANCH  78  80
ATOM     80  C   UNL A   1      32.582  24.680  23.342  1.00  0.00     0.121 C 
ATOM     81  C   UNL A   1      33.108  25.015  24.774  1.00  0.00     0.031 C 
ATOM     82  C   UNL A   1      31.041  24.780  23.348  1.00  0.00     0.279 C 
ATOM     83  C   UNL A   1      32.306  24.412  25.921  1.00  0.00     0.063 C 
ATOM     84  N   UNL A   1      30.384  24.078  24.446  1.00  0.00    -0.345 N 
ATOM     85  C   UNL A   1      30.811  24.581  25.743  1.00  0.00     0.260 C 
ATOM     86  H   UNL A   1      29.375  24.202  24.361  1.00  0.00     0.346 HD
ATOM     87  H   UNL A   1      30.639  23.092  24.390  1.00  0.00     0.346 HD
BRANCH  80  88
ATOM     88  C   UNL A   1      33.258  23.355  22.802  1.00  0.00     0.061 C 
BRANCH  88  89
ATOM     89  C   UNL A   1      33.478  22.231  23.784  1.00  0.00    -0.036 A 
ATOM     90  C   UNL A   1      32.432  21.355  24.086  1.00  0.00     0.024 A 
ATOM     91  C   UNL A   1      34.768  21.957  24.278  1.00  0.00     0.003 A 
ATOM     92  C   UNL A   1      32.742  20.170  24.724  1.00  0.00     0.112 A 
ATOM     93  C   UNL A   1      35.000  20.664  24.778  1.00  0.00     0.070 A 
ATOM     94  C   UNL A   1      35.834  22.883  24.212  1.00  0.00     0.010 A 
ATOM     95  N   UNL A   1      34.003  19.788  25.019  1.00  0.00    -0.256 NA
ATOM     96  C   UNL A   1      36.321  20.282  24.972  1.00  0.00     0.029 A 
ATOM     97  C   UNL A   1      37.144  22.482  24.428  1.00  0.00     0.001 A 
ATOM     98  C   UNL A   1      37.392  21.160  24.762  1.00  0.00     0.002 A 
ENDBRANCH  88  89
ENDBRANCH  80  88
ENDBRANCH  78  80
ENDBRANCH  77  78
ENDBRANCH  76  77
ENDBRANCH  75  76
ENDBRANCH  74  75
ENDBRANCH   1  74
TORSDOF 19
ENDMDL
MODEL 2
REMARK VINA RESULT:     -10.8      2.624      3.637
REMARK SMILES O=C(OCCOCCOC(=O)[C@@]1(Cc2ccnc3ccccc23)CCC[NH2+]C1)c1ccc(-c2c3nc(c(-c4c(F)cc(S(=O)(=O)[O-])cc4F)c4ccc([nH]4)c(-c4c(F)cc(S(=O)(=O)[O-])cc4F)c4nc(c(-c5c(F)cc(S(=O)(=O)[O-])cc5F)c5ccc2[nH]5)C=C4)C=C3)cc1
REMARK SMILES IDX 5 1 4 2 3 3 2 4 1 5 29 6 30 7 94 8 31 9 93 10 32 11 33 12
REMARK SMILES IDX 34 13 87 14 35 15 92 16 86 17 88 18 36 19 91 20 85 21 84 22
REMARK SMILES IDX 37 24 71 25 50 26 70 27 51 28 54 29 69 30 89 31 52 32 53 33
REMARK SMILES IDX 68 35 90 36 55 37 38 38 39 39 48 40 40 41 41 42 47 43 49 44
REMARK SMILES IDX 42 45 43 46 44 47 45 48 46 49 72 50 73 51 82 52 74 53 75 54
REMARK SMILES IDX 81 55 83 56 76 57 77 58 78 59 79 60 80 61 56 62 57 63 66 64
REMARK SMILES IDX 58 65 59 66 65 67 67 68 60 69 61 70 62 71 63 72 64 73 6 74
REMARK SMILES IDX 7 75 8 76 9 77 10 78 11 79 12 80 24 81 28 82 25 83 27 84
REMARK SMILES IDX 26 85 13 88 14 89 15 90 23 91 16 92 18 93 22 94 17 95 19 96
REMARK SMILES IDX 21 97 20 98
REMARK H PARENT 88 23 54 34 27 86 27 87
REMARK Flexibility Score: inf
ROOT
ATOM      1  C   UNL A   1      34.886  29.289  27.508  1.00  0.00     0.202 C 
ENDROOT
BRANCH   1   2
ATOM      2  C   UNL A   1      34.758  30.749  27.959  1.00  0.00     0.261 C 
BRANCH   2   3
ATOM      3  O   UNL A   1      35.742  31.069  28.951  1.00  0.00    -0.460 OA
BRANCH   3   4
ATOM      4  C   UNL A   1      36.492  30.184  29.654  1.00  0.00     0.338 C 
ATOM      5  O   UNL A   1      35.991  29.608  30.614  1.00  0.00    -0.246 OA
BRANCH   4   6
ATOM      6  C   UNL A   1      37.910  29.883  29.299  1.00  0.00     0.060 A 
ATOM      7  C   UNL A   1      38.372  29.744  27.992  1.00  0.00     0.016 A 
ATOM      8  C   UNL A   1      38.848  29.797  30.335  1.00  0.00     0.016 A 
ATOM      9  C   UNL A   1      39.679  29.481  27.691  1.00  0.00     0.010 A 
ATOM     10  C   UNL A   1      40.196  29.562  30.047  1.00  0.00     0.010 A 
ATOM     11  C   UNL A   1      40.600  29.401  28.717  1.00  0.00    -0.014 A 
BRANCH  11  12
ATOM     12  C   UNL A   1      41.933  28.981  28.295  1.00  0.00     0.031 A 
ATOM     13  C   UNL A   1      43.039  29.969  28.455  1.00  0.00     0.074 A 
ATOM     14  C   UNL A   1      42.146  27.675  28.052  1.00  0.00     0.049 A 
ATOM     15  N   UNL A   1      44.297  29.847  28.152  1.00  0.00    -0.248 NA
ATOM     16  C   UNL A   1      42.683  31.266  29.063  1.00  0.00     0.031 C 
ATOM     17  C   UNL A   1      41.118  26.625  28.119  1.00  0.00     0.029 A 
ATOM     18  N   UNL A   1      43.292  26.996  27.766  1.00  0.00    -0.354 N 
ATOM     19  C   UNL A   1      44.875  31.065  28.481  1.00  0.00     0.074 A 
ATOM     20  C   UNL A   1      43.838  31.910  29.024  1.00  0.00     0.031 C 
ATOM     21  C   UNL A   1      41.692  25.433  27.896  1.00  0.00     0.029 A 
ATOM     22  C   UNL A   1      43.096  25.648  27.581  1.00  0.00     0.049 A 
ATOM     23  H   UNL A   1      44.174  27.428  27.698  1.00  0.00     0.167 HD
ATOM     24  C   UNL A   1      46.164  31.430  28.313  1.00  0.00     0.037 A 
ATOM     25  C   UNL A   1      43.961  24.715  27.147  1.00  0.00     0.037 A 
ATOM     26  C   UNL A   1      47.147  30.535  27.770  1.00  0.00     0.049 A 
ATOM     27  C   UNL A   1      45.358  25.181  26.839  1.00  0.00     0.074 A 
ATOM     28  C   UNL A   1      48.465  30.785  27.449  1.00  0.00     0.029 A 
ATOM     29  N   UNL A   1      46.901  29.197  27.471  1.00  0.00    -0.354 N 
ATOM     30  N   UNL A   1      45.885  26.372  27.020  1.00  0.00    -0.248 NA
ATOM     31  C   UNL A   1      46.270  24.198  26.250  1.00  0.00     0.031 C 
ATOM     32  C   UNL A   1      49.001  29.611  26.906  1.00  0.00     0.029 A 
ATOM     33  C   UNL A   1      48.038  28.612  26.947  1.00  0.00     0.049 A 
ATOM     34  H   UNL A   1      46.043  28.736  27.611  1.00  0.00     0.167 HD
ATOM     35  C   UNL A   1      47.198  26.279  26.584  1.00  0.00     0.074 A 
ATOM     36  C   UNL A   1      47.386  24.906  26.149  1.00  0.00     0.031 C 
ATOM     37  C   UNL A   1      48.163  27.232  26.541  1.00  0.00     0.037 A 
BRANCH  24  38
ATOM     38  C   UNL A   1      46.513  32.858  28.611  1.00  0.00     0.058 A 
ATOM     39  C   UNL A   1      46.941  33.283  29.879  1.00  0.00     0.135 A 
ATOM     40  C   UNL A   1      46.353  33.836  27.615  1.00  0.00     0.135 A 
ATOM     41  F   UNL A   1      47.068  32.400  30.882  1.00  0.00    -0.206 F 
ATOM     42  C   UNL A   1      47.171  34.629  30.156  1.00  0.00     0.059 A 
ATOM     43  C   UNL A   1      46.603  35.181  27.861  1.00  0.00     0.059 A 
ATOM     44  F   UNL A   1      45.920  33.489  26.393  1.00  0.00    -0.206 F 
ATOM     45  C   UNL A   1      46.997  35.570  29.139  1.00  0.00     0.060 A 
BRANCH  45  46
ATOM     46  S   UNL A   1      47.283  37.312  29.516  1.00  0.00     0.124 S 
ATOM     47  O   UNL A   1      48.387  37.627  28.614  1.00  0.00    -0.237 OA
ATOM     48  O   UNL A   1      45.999  37.917  29.181  1.00  0.00    -0.237 OA
ATOM     49  O   UNL A   1      47.619  37.303  30.937  1.00  0.00    -0.744 OA
ENDBRANCH  45  46
ENDBRANCH  24  38
BRANCH  25  50
ATOM     50  C   UNL A   1      43.514  23.316  26.904  1.00  0.00     0.058 A 
ATOM     51  C   UNL A   1      43.236  22.441  27.962  1.00  0.00     0.135 A 
ATOM     52  C   UNL A   1      43.356  22.822  25.597  1.00  0.00     0.135 A 
ATOM     53  F   UNL A   1      43.371  22.857  29.231  1.00  0.00    -0.206 F 
ATOM     54  C   UNL A   1      42.842  21.124  27.737  1.00  0.00     0.059 A 
ATOM     55  C   UNL A   1      42.933  21.522  25.346  1.00  0.00     0.059 A 
ATOM     56  F   UNL A   1      43.597  23.617  24.541  1.00  0.00    -0.206 F 
ATOM     57  C   UNL A   1      42.693  20.673  26.423  1.00  0.00     0.060 A 
BRANCH  57  58
ATOM     58  S   UNL A   1      42.166  18.969  26.141  1.00  0.00     0.124 S 
ATOM     59  O   UNL A   1      43.014  18.583  25.019  1.00  0.00    -0.237 OA
ATOM     60  O   UNL A   1      42.473  18.338  27.420  1.00  0.00    -0.237 OA
ATOM     61  O   UNL A   1      40.743  19.102  25.841  1.00  0.00    -0.744 OA
ENDBRANCH  57  58
ENDBRANCH  25  50
BRANCH  37  62
ATOM     62  C   UNL A   1      49.511  26.797  26.052  1.00  0.00     0.058 A 
ATOM     63  C   UNL A   1      49.910  26.988  24.721  1.00  0.00     0.135 A 
ATOM     64  C   UNL A   1      50.433  26.236  26.948  1.00  0.00     0.135 A 
ATOM     65  F   UNL A   1      49.056  27.514  23.826  1.00  0.00    -0.206 F 
ATOM     66  C   UNL A   1      51.174  26.614  24.288  1.00  0.00     0.059 A 
ATOM     67  C   UNL A   1      51.715  25.888  26.545  1.00  0.00     0.059 A 
ATOM     68  F   UNL A   1      50.099  26.047  28.234  1.00  0.00    -0.206 F 
ATOM     69  C   UNL A   1      52.071  26.070  25.210  1.00  0.00     0.060 A 
BRANCH  69  70
ATOM     70  S   UNL A   1      53.725  25.628  24.645  1.00  0.00     0.124 S 
ATOM     71  O   UNL A   1      53.700  26.107  23.267  1.00  0.00    -0.237 OA
ATOM     72  O   UNL A   1      54.577  26.377  25.562  1.00  0.00    -0.237 OA
ATOM     73  O   UNL A   1      53.762  24.178  24.806  1.00  0.00    -0.744 OA
ENDBRANCH  69  70
ENDBRANCH  37  62
ENDBRANCH  11  12
ENDBRANCH   4   6
ENDBRANCH   3   4
ENDBRANCH   2   3
ENDBRANCH   1   2
BRANCH   1  74
ATOM     74  O   UNL A   1      34.550  28.955  26.162  1.00  0.00    -0.374 OA
BRANCH  74  75
ATOM     75  C   UNL A   1      33.186  29.111  25.766  1.00  0.00     0.202 C 
BRANCH  75  76
ATOM     76  C   UNL A   1      32.554  27.738  25.549  1.00  0.00     0.261 C 
BRANCH  76  77
ATOM     77  O   UNL A   1      33.624  26.784  25.556  1.00  0.00    -0.463 OA
BRANCH  77  78
ATOM     78  C   UNL A   1      33.692  26.006  24.444  1.00  0.00     0.318 C 
ATOM     79  O   UNL A   1      33.701  26.444  23.296  1.00  0.00    -0.251 OA
BRANCH  78  80
ATOM     80  C   UNL A   1      33.681  24.513  24.798  1.00  0.00     0.121 C 
ATOM     81  C   UNL A   1      33.701  24.240  26.335  1.00  0.00     0.031 C 
ATOM     82  C   UNL A   1      32.306  24.086  24.239  1.00  0.00     0.279 C 
ATOM     83  C   UNL A   1      33.074  22.921  26.771  1.00  0.00     0.063 C 
ATOM     84  N   UNL A   1      31.859  22.761  24.655  1.00  0.00    -0.345 N 
ATOM     85  C   UNL A   1      31.741  22.657  26.101  1.00  0.00     0.260 C 
ATOM     86  H   UNL A   1      30.949  22.573  24.235  1.00  0.00     0.346 HD
ATOM     87  H   UNL A   1      32.553  22.081  24.345  1.00  0.00     0.346 HD
BRANCH  80  88
ATOM     88  C   UNL A   1      34.991  23.939  24.118  1.00  0.00     0.061 C 
BRANCH  88  89
ATOM     89  C   UNL A   1      35.633  22.728  24.748  1.00  0.00    -0.036 A 
ATOM     90  C   UNL A   1      35.134  21.453  24.472  1.00  0.00     0.024 A 
ATOM     91  C   UNL A   1      36.828  22.854  25.483  1.00  0.00     0.003 A 
ATOM     92  C   UNL A   1      35.920  20.365  24.795  1.00  0.00     0.112 A 
ATOM     93  C   UNL A   1      37.615  21.698  25.626  1.00  0.00     0.070 A 
ATOM     94  C   UNL A   1      37.294  24.087  25.995  1.00  0.00     0.010 A 
ATOM     95  N   UNL A   1      37.165  20.468  25.308  1.00  0.00    -0.256 NA
ATOM     96  C   UNL A   1      38.923  21.867  26.064  1.00  0.00     0.029 A 
ATOM     97  C   UNL A   1      38.599  24.226  26.445  1.00  0.00     0.001 A 
ATOM     98  C   UNL A   1      39.432  23.119  26.432  1.00  0.00     0.002 A 
ENDBRANCH  88  89
ENDBRANCH  80  88
ENDBRANCH  78  80
ENDBRANCH  77  78
ENDBRANCH  76  77
ENDBRANCH  75  76
ENDBRANCH  74  75
ENDBRANCH   1  74
TORSDOF 19
ENDMDL
MODEL 3
REMARK VINA RESULT:     -10.8      2.748      8.974
REMARK SMILES O=C(OCCOCCOC(=O)[C@@]1(Cc2ccnc3ccccc23)CCC[NH2+]C1)c1ccc(-c2c3nc(c(-c4c(F)cc(S(=O)(=O)[O-])cc4F)c4ccc([nH]4)c(-c4c(F)cc(S(=O)(=O)[O-])cc4F)c4nc(c(-c5c(F)cc(S(=O)(=O)[O-])cc5F)c5ccc2[nH]5)C=C4)C=C3)cc1
REMARK SMILES IDX 5 1 4 2 3 3 2 4 1 5 29 6 30 7 94 8 31 9 93 10 32 11 33 12
REMARK SMILES IDX 34 13 87 14 35 15 92 16 86 17 88 18 36 19 91 20 85 21 84 22
REMARK SMILES IDX 37 24 71 25 50 26 70 27 51 28 54 29 69 30 89 31 52 32 53 33
REMARK SMILES IDX 68 35 90 36 55 37 38 38 39 39 48 40 40 41 41 42 47 43 49 44
REMARK SMILES IDX 42 45 43 46 44 47 45 48 46 49 72 50 73 51 82 52 74 53 75 54
REMARK SMILES IDX 81 55 83 56 76 57 77 58 78 59 79 60 80 61 56 62 57 63 66 64
REMARK SMILES IDX 58 65 59 66 65 67 67 68 60 69 61 70 62 71 63 72 64 73 6 74
REMARK SMILES IDX 7 75 8 76 9 77 10 78 11 79 12 80 24 81 28 82 25 83 27 84
REMARK SMILES IDX 26 85 13 88 14 89 15 90 23 91 16 92 18 93 22 94 17 95 19 96
REMARK SMILES IDX 21 97 20 98
REMARK H PARENT 88 23 54 34 27 86 27 87
REMARK Flexibility Score: inf
ROOT
ATOM      1  C   UNL A   1      34.697  28.789  26.569  1.00  0.00     0.202 C 
ENDROOT
BRANCH   1   2
ATOM      2  C   UNL A   1      34.476  29.706  27.778  1.00  0.00     0.261 C 
BRANCH   2   3
ATOM      3  O   UNL A   1      35.718  30.241  28.252  1.00  0.00    -0.460 OA
BRANCH   3   4
ATOM      4  C   UNL A   1      36.519  29.693  29.201  1.00  0.00     0.338 C 
ATOM      5  O   UNL A   1      36.027  29.350  30.271  1.00  0.00    -0.246 OA
BRANCH   4   6
ATOM      6  C   UNL A   1      37.982  29.490  28.988  1.00  0.00     0.060 A 
ATOM      7  C   UNL A   1      38.591  29.475  27.736  1.00  0.00     0.016 A 
ATOM      8  C   UNL A   1      38.804  29.371  30.116  1.00  0.00     0.016 A 
ATOM      9  C   UNL A   1      39.937  29.300  27.567  1.00  0.00     0.010 A 
ATOM     10  C   UNL A   1      40.187  29.225  29.966  1.00  0.00     0.010 A 
ATOM     11  C   UNL A   1      40.743  29.187  28.683  1.00  0.00    -0.014 A 
BRANCH  11  12
ATOM     12  C   UNL A   1      42.136  28.867  28.386  1.00  0.00     0.031 A 
ATOM     13  C   UNL A   1      42.430  27.479  27.924  1.00  0.00     0.074 A 
ATOM     14  C   UNL A   1      43.016  29.878  28.277  1.00  0.00     0.049 A 
ATOM     15  N   UNL A   1      43.573  26.946  27.607  1.00  0.00    -0.248 NA
ATOM     16  C   UNL A   1      41.274  26.574  27.774  1.00  0.00     0.031 C 
ATOM     17  C   UNL A   1      42.702  31.298  28.494  1.00  0.00     0.029 A 
ATOM     18  N   UNL A   1      44.326  29.885  27.899  1.00  0.00    -0.354 N 
ATOM     19  C   UNL A   1      43.285  25.631  27.273  1.00  0.00     0.074 A 
ATOM     20  C   UNL A   1      41.859  25.446  27.405  1.00  0.00     0.031 C 
ATOM     21  C   UNL A   1      43.791  32.036  28.227  1.00  0.00     0.029 A 
ATOM     22  C   UNL A   1      44.892  31.137  27.915  1.00  0.00     0.049 A 
ATOM     23  H   UNL A   1      44.818  29.072  27.640  1.00  0.00     0.167 HD
ATOM     24  C   UNL A   1      44.160  24.669  26.909  1.00  0.00     0.037 A 
ATOM     25  C   UNL A   1      46.178  31.490  27.748  1.00  0.00     0.037 A 
ATOM     26  C   UNL A   1      45.569  24.924  26.792  1.00  0.00     0.049 A 
ATOM     27  C   UNL A   1      47.154  30.378  27.477  1.00  0.00     0.074 A 
ATOM     28  C   UNL A   1      46.592  24.037  26.529  1.00  0.00     0.029 A 
ATOM     29  N   UNL A   1      46.148  26.183  26.932  1.00  0.00    -0.354 N 
ATOM     30  N   UNL A   1      46.910  29.100  27.290  1.00  0.00    -0.248 NA
ATOM     31  C   UNL A   1      48.572  30.740  27.416  1.00  0.00     0.031 C 
ATOM     32  C   UNL A   1      47.795  24.751  26.563  1.00  0.00     0.029 A 
ATOM     33  C   UNL A   1      47.518  26.094  26.783  1.00  0.00     0.049 A 
ATOM     34  H   UNL A   1      45.652  27.015  27.111  1.00  0.00     0.167 HD
ATOM     35  C   UNL A   1      48.143  28.504  27.071  1.00  0.00     0.074 A 
ATOM     36  C   UNL A   1      49.127  29.571  27.130  1.00  0.00     0.031 C 
ATOM     37  C   UNL A   1      48.444  27.200  26.843  1.00  0.00     0.037 A 
BRANCH  24  38
ATOM     38  C   UNL A   1      43.618  23.281  26.739  1.00  0.00     0.058 A 
ATOM     39  C   UNL A   1      43.197  22.496  27.825  1.00  0.00     0.135 A 
ATOM     40  C   UNL A   1      43.582  22.699  25.461  1.00  0.00     0.135 A 
ATOM     41  F   UNL A   1      43.254  22.984  29.075  1.00  0.00    -0.206 F 
ATOM     42  C   UNL A   1      42.784  21.178  27.652  1.00  0.00     0.059 A 
ATOM     43  C   UNL A   1      43.148  21.394  25.261  1.00  0.00     0.059 A 
ATOM     44  F   UNL A   1      43.999  23.395  24.391  1.00  0.00    -0.206 F 
ATOM     45  C   UNL A   1      42.766  20.635  26.366  1.00  0.00     0.060 A 
BRANCH  45  46
ATOM     46  S   UNL A   1      42.243  18.920  26.158  1.00  0.00     0.124 S 
ATOM     47  O   UNL A   1      42.457  18.386  27.500  1.00  0.00    -0.237 OA
ATOM     48  O   UNL A   1      40.851  19.066  25.749  1.00  0.00    -0.237 OA
ATOM     49  O   UNL A   1      43.147  18.411  25.130  1.00  0.00    -0.744 OA
ENDBRANCH  45  46
ENDBRANCH  24  38
BRANCH  25  50
ATOM     50  C   UNL A   1      46.607  32.905  27.918  1.00  0.00     0.058 A 
ATOM     51  C   UNL A   1      46.538  33.825  26.862  1.00  0.00     0.135 A 
ATOM     52  C   UNL A   1      47.101  33.371  29.150  1.00  0.00     0.135 A 
ATOM     53  F   UNL A   1      46.077  33.436  25.663  1.00  0.00    -0.206 F 
ATOM     54  C   UNL A   1      46.963  35.143  27.012  1.00  0.00     0.059 A 
ATOM     55  C   UNL A   1      47.501  34.690  29.333  1.00  0.00     0.059 A 
ATOM     56  F   UNL A   1      47.181  32.540  30.202  1.00  0.00    -0.206 F 
ATOM     57  C   UNL A   1      47.443  35.566  28.253  1.00  0.00     0.060 A 
BRANCH  57  58
ATOM     58  S   UNL A   1      47.977  37.282  28.442  1.00  0.00     0.124 S 
ATOM     59  O   UNL A   1      47.788  37.797  27.091  1.00  0.00    -0.237 OA
ATOM     60  O   UNL A   1      47.050  37.782  29.451  1.00  0.00    -0.237 OA
ATOM     61  O   UNL A   1      49.364  37.156  28.881  1.00  0.00    -0.744 OA
ENDBRANCH  57  58
ENDBRANCH  25  50
BRANCH  37  62
ATOM     62  C   UNL A   1      49.888  26.881  26.596  1.00  0.00     0.058 A 
ATOM     63  C   UNL A   1      50.777  26.625  27.651  1.00  0.00     0.135 A 
ATOM     64  C   UNL A   1      50.364  26.771  25.282  1.00  0.00     0.135 A 
ATOM     65  F   UNL A   1      50.365  26.727  28.925  1.00  0.00    -0.206 F 
ATOM     66  C   UNL A   1      52.103  26.294  27.407  1.00  0.00     0.059 A 
ATOM     67  C   UNL A   1      51.677  26.407  25.016  1.00  0.00     0.059 A 
ATOM     68  F   UNL A   1      49.545  26.995  24.243  1.00  0.00    -0.206 F 
ATOM     69  C   UNL A   1      52.541  26.183  26.086  1.00  0.00     0.060 A 
BRANCH  69  70
ATOM     70  S   UNL A   1      54.254  25.710  25.784  1.00  0.00     0.124 S 
ATOM     71  O   UNL A   1      54.959  26.519  26.773  1.00  0.00    -0.237 OA
ATOM     72  O   UNL A   1      54.230  24.274  26.040  1.00  0.00    -0.237 OA
ATOM     73  O   UNL A   1      54.471  26.089  24.392  1.00  0.00    -0.744 OA
ENDBRANCH  69  70
ENDBRANCH  37  62
ENDBRANCH  11  12
ENDBRANCH   4   6
ENDBRANCH   3   4
ENDBRANCH   2   3
ENDBRANCH   1   2
BRANCH   1  74
ATOM     74  O   UNL A   1      33.847  27.655  26.402  1.00  0.00    -0.374 OA
BRANCH  74  75
ATOM     75  C   UNL A   1      32.906  27.690  25.326  1.00  0.00     0.202 C 
BRANCH  75  76
ATOM     76  C   UNL A   1      33.556  27.139  24.059  1.00  0.00     0.261 C 
BRANCH  76  77
ATOM     77  O   UNL A   1      34.307  25.981  24.449  1.00  0.00    -0.463 OA
BRANCH  77  78
ATOM     78  C   UNL A   1      34.396  25.020  23.493  1.00  0.00     0.318 C 
ATOM     79  O   UNL A   1      34.072  25.183  22.319  1.00  0.00    -0.251 OA
BRANCH  78  80
ATOM     80  C   UNL A   1      34.879  23.686  24.076  1.00  0.00     0.121 C 
ATOM     81  C   UNL A   1      36.044  23.039  23.261  1.00  0.00     0.031 C 
ATOM     82  C   UNL A   1      35.430  24.143  25.444  1.00  0.00     0.279 C 
ATOM     83  C   UNL A   1      36.969  22.125  24.058  1.00  0.00     0.063 C 
ATOM     84  N   UNL A   1      36.222  23.143  26.153  1.00  0.00    -0.345 N 
ATOM     85  C   UNL A   1      37.385  22.728  25.385  1.00  0.00     0.260 C 
ATOM     86  H   UNL A   1      36.536  23.537  27.039  1.00  0.00     0.346 HD
ATOM     87  H   UNL A   1      35.635  22.323  26.304  1.00  0.00     0.346 HD
BRANCH  80  88
ATOM     88  C   UNL A   1      33.599  22.756  24.041  1.00  0.00     0.061 C 
BRANCH  88  89
ATOM     89  C   UNL A   1      32.574  22.935  25.134  1.00  0.00    -0.036 A 
ATOM     90  C   UNL A   1      32.787  22.361  26.389  1.00  0.00     0.024 A 
ATOM     91  C   UNL A   1      31.483  23.807  24.952  1.00  0.00     0.003 A 
ATOM     92  C   UNL A   1      32.010  22.800  27.443  1.00  0.00     0.112 A 
ATOM     93  C   UNL A   1      30.858  24.298  26.112  1.00  0.00     0.070 A 
ATOM     94  C   UNL A   1      31.059  24.262  23.683  1.00  0.00     0.010 A 
ATOM     95  N   UNL A   1      31.099  23.791  27.338  1.00  0.00    -0.256 NA
ATOM     96  C   UNL A   1      30.003  25.383  25.966  1.00  0.00     0.029 A 
ATOM     97  C   UNL A   1      30.190  25.336  23.562  1.00  0.00     0.001 A 
ATOM     98  C   UNL A   1      29.699  25.931  24.713  1.00  0.00     0.002 A 
ENDBRANCH  88  89
ENDBRANCH  80  88
ENDBRANCH  78  80
ENDBRANCH  77  78
ENDBRANCH  76  77
ENDBRANCH  75  76
ENDBRANCH  74  75
ENDBRANCH   1  74
TORSDOF 19
ENDMDL
