MODEL 1
REMARK VINA RESULT:     -11.5      0.000      0.000
REMARK SMILES COc1ccc(-c2cnc(N)c(C(=O)OCCOCCOC(=O)c3ccc(-c4c5nc(c(-c6c(F)cc(S(=O)(=O)[O-])cc6F)c6ccc([nH]6)c(-c6c(F)cc(S(=O)(=O)[O-])cc6F)c6nc(c(-c7c(F)cc(S(=O)(=O)[O-])cc7F)c7ccc4[nH]7)C=C6)C=C5)cc3)c2)c(C)c1
REMARK SMILES IDX 19 1 18 2 17 3 16 4 15 5 13 6 14 7 12 8 7 9 8 10 90 11 9 12
REMARK SMILES IDX 10 13 6 14 3 15 4 16 93 17 5 18 91 19 92 20 2 21 1 22 11 23
REMARK SMILES IDX 20 26 21 27 22 28 23 29 24 30 25 31 89 32 26 33 88 34 27 35
REMARK SMILES IDX 28 36 29 37 82 38 30 39 87 40 81 41 83 42 31 43 86 44 80 45
REMARK SMILES IDX 79 46 32 48 66 49 45 50 65 51 46 52 49 53 64 54 84 55 47 56
REMARK SMILES IDX 48 57 63 59 85 60 50 61 33 62 34 63 43 64 35 65 36 66 42 67
REMARK SMILES IDX 44 68 37 69 38 70 39 71 40 72 41 73 67 74 68 75 77 76 69 77
REMARK SMILES IDX 70 78 76 79 78 80 71 81 72 82 73 83 74 84 75 85 51 86 52 87
REMARK SMILES IDX 61 88 53 89 54 90 60 91 62 92 55 93 56 94 57 95 58 96 59 97
REMARK H PARENT 11 24 11 25 83 47 49 58
REMARK Flexibility Score: inf
ROOT
ATOM      1  C   UNL A   1      36.360  21.308  25.210  1.00  0.00     0.202 C 
ENDROOT
BRANCH   1   2
ATOM      2  O   UNL A   1      35.000  21.646  25.043  1.00  0.00    -0.374 OA
BRANCH   2   3
ATOM      3  C   UNL A   1      34.054  20.666  25.461  1.00  0.00     0.202 C 
BRANCH   3   4
ATOM      4  C   UNL A   1      33.018  21.399  26.261  1.00  0.00     0.261 C 
BRANCH   4   5
ATOM      5  O   UNL A   1      33.378  22.782  26.439  1.00  0.00    -0.460 OA
BRANCH   5   6
ATOM      6  C   UNL A   1      32.403  23.717  26.530  1.00  0.00     0.342 C 
ATOM      7  O   UNL A   1      31.482  23.770  27.336  1.00  0.00    -0.246 OA
BRANCH   6   8
ATOM      8  C   UNL A   1      32.754  24.851  25.662  1.00  0.00     0.102 A 
ATOM      9  C   UNL A   1      33.383  27.179  25.582  1.00  0.00     0.001 A 
ATOM     10  C   UNL A   1      33.834  26.915  24.289  1.00  0.00     0.122 A 
ATOM     11  C   UNL A   1      32.821  26.112  26.272  1.00  0.00     0.030 A 
ATOM     12  N   UNL A   1      33.726  25.725  23.652  1.00  0.00    -0.238 NA
ATOM     13  C   UNL A   1      33.180  24.703  24.339  1.00  0.00     0.138 A 
BRANCH   9  14
ATOM     14  C   UNL A   1      33.456  28.527  26.147  1.00  0.00    -0.014 A 
ATOM     15  C   UNL A   1      33.731  31.032  27.408  1.00  0.00     0.119 A 
ATOM     16  C   UNL A   1      34.690  30.048  27.611  1.00  0.00     0.047 A 
ATOM     17  C   UNL A   1      32.636  30.770  26.583  1.00  0.00     0.050 A 
ATOM     18  C   UNL A   1      34.554  28.813  26.981  1.00  0.00     0.013 A 
ATOM     19  C   UNL A   1      32.490  29.530  25.930  1.00  0.00    -0.040 A 
ATOM     20  C   UNL A   1      31.297  29.365  25.024  1.00  0.00     0.045 C 
BRANCH  15  21
ATOM     21  O   UNL A   1      33.751  32.257  28.019  1.00  0.00    -0.497 OA
ATOM     22  C   UNL A   1      34.824  32.423  28.943  1.00  0.00     0.278 C 
ENDBRANCH  15  21
ENDBRANCH   9  14
BRANCH  13  23
ATOM     23  N   UNL A   1      33.012  23.546  23.605  1.00  0.00    -0.383 N 
ATOM     24  H   UNL A   1      33.767  22.927  23.481  1.00  0.00     0.158 HD
ATOM     25  H   UNL A   1      32.136  23.339  23.207  1.00  0.00     0.158 HD
ENDBRANCH  13  23
ENDBRANCH   6   8
ENDBRANCH   5   6
ENDBRANCH   4   5
ENDBRANCH   3   4
ENDBRANCH   2   3
ENDBRANCH   1   2
BRANCH   1  26
ATOM     26  C   UNL A   1      37.227  22.453  25.750  1.00  0.00     0.261 C 
BRANCH  26  27
ATOM     27  O   UNL A   1      38.634  22.170  25.581  1.00  0.00    -0.460 OA
BRANCH  27  28
ATOM     28  C   UNL A   1      39.439  22.413  26.660  1.00  0.00     0.338 C 
ATOM     29  O   UNL A   1      39.959  21.536  27.326  1.00  0.00    -0.246 OA
BRANCH  28  30
ATOM     30  C   UNL A   1      39.611  23.882  26.860  1.00  0.00     0.060 A 
ATOM     31  C   UNL A   1      40.160  24.713  25.866  1.00  0.00     0.016 A 
ATOM     32  C   UNL A   1      39.387  24.396  28.129  1.00  0.00     0.016 A 
ATOM     33  C   UNL A   1      40.621  26.006  26.190  1.00  0.00     0.010 A 
ATOM     34  C   UNL A   1      39.939  25.610  28.466  1.00  0.00     0.010 A 
ATOM     35  C   UNL A   1      40.580  26.427  27.516  1.00  0.00    -0.014 A 
BRANCH  35  36
ATOM     36  C   UNL A   1      41.196  27.626  28.108  1.00  0.00     0.031 A 
ATOM     37  C   UNL A   1      40.297  28.773  28.412  1.00  0.00     0.074 A 
ATOM     38  C   UNL A   1      42.398  27.548  28.739  1.00  0.00     0.049 A 
ATOM     39  N   UNL A   1      40.673  29.865  28.976  1.00  0.00    -0.248 NA
ATOM     40  C   UNL A   1      38.869  28.794  28.092  1.00  0.00     0.031 C 
ATOM     41  C   UNL A   1      42.831  28.297  29.924  1.00  0.00     0.029 A 
ATOM     42  N   UNL A   1      43.506  26.732  28.487  1.00  0.00    -0.354 N 
ATOM     43  C   UNL A   1      39.552  30.514  29.443  1.00  0.00     0.074 A 
ATOM     44  C   UNL A   1      38.461  29.885  28.747  1.00  0.00     0.031 C 
ATOM     45  C   UNL A   1      44.153  28.133  30.113  1.00  0.00     0.029 A 
ATOM     46  C   UNL A   1      44.649  27.387  28.974  1.00  0.00     0.049 A 
ATOM     47  H   UNL A   1      43.488  25.851  28.044  1.00  0.00     0.167 HD
ATOM     48  C   UNL A   1      39.714  31.407  30.465  1.00  0.00     0.037 A 
ATOM     49  C   UNL A   1      45.660  27.730  28.131  1.00  0.00     0.037 A 
ATOM     50  C   UNL A   1      41.152  31.628  30.707  1.00  0.00     0.049 A 
ATOM     51  C   UNL A   1      45.748  29.228  28.095  1.00  0.00     0.074 A 
ATOM     52  C   UNL A   1      42.022  31.264  31.720  1.00  0.00     0.029 A 
ATOM     53  N   UNL A   1      41.952  32.060  29.647  1.00  0.00    -0.354 N 
ATOM     54  N   UNL A   1      44.735  29.990  28.411  1.00  0.00    -0.248 NA
ATOM     55  C   UNL A   1      46.964  29.993  27.848  1.00  0.00     0.031 C 
ATOM     56  C   UNL A   1      43.351  31.405  31.225  1.00  0.00     0.029 A 
ATOM     57  C   UNL A   1      43.292  31.874  29.920  1.00  0.00     0.049 A 
ATOM     58  H   UNL A   1      41.604  32.447  28.812  1.00  0.00     0.167 HD
ATOM     59  C   UNL A   1      45.146  31.281  28.512  1.00  0.00     0.074 A 
ATOM     60  C   UNL A   1      46.538  31.245  28.100  1.00  0.00     0.031 C 
ATOM     61  C   UNL A   1      44.316  32.269  28.955  1.00  0.00     0.037 A 
BRANCH  48  62
ATOM     62  C   UNL A   1      38.625  31.957  31.385  1.00  0.00     0.058 A 
ATOM     63  C   UNL A   1      37.856  33.077  30.984  1.00  0.00     0.135 A 
ATOM     64  C   UNL A   1      38.315  31.497  32.686  1.00  0.00     0.135 A 
ATOM     65  F   UNL A   1      38.012  33.637  29.776  1.00  0.00    -0.206 F 
ATOM     66  C   UNL A   1      36.894  33.689  31.796  1.00  0.00     0.059 A 
ATOM     67  C   UNL A   1      37.345  32.082  33.510  1.00  0.00     0.059 A 
ATOM     68  F   UNL A   1      38.935  30.461  33.251  1.00  0.00    -0.206 F 
ATOM     69  C   UNL A   1      36.642  33.184  33.063  1.00  0.00     0.060 A 
BRANCH  69  70
ATOM     70  S   UNL A   1      35.394  33.969  34.098  1.00  0.00     0.124 S 
ATOM     71  O   UNL A   1      35.832  33.599  35.439  1.00  0.00    -0.237 OA
ATOM     72  O   UNL A   1      35.544  35.377  33.745  1.00  0.00    -0.237 OA
ATOM     73  O   UNL A   1      34.145  33.349  33.660  1.00  0.00    -0.744 OA
ENDBRANCH  69  70
ENDBRANCH  48  62
BRANCH  49  74
ATOM     74  C   UNL A   1      45.825  26.713  27.044  1.00  0.00     0.058 A 
ATOM     75  C   UNL A   1      46.381  25.473  27.440  1.00  0.00     0.135 A 
ATOM     76  C   UNL A   1      44.974  26.696  25.927  1.00  0.00     0.135 A 
ATOM     77  F   UNL A   1      47.202  25.418  28.502  1.00  0.00    -0.206 F 
ATOM     78  C   UNL A   1      45.968  24.261  26.883  1.00  0.00     0.059 A 
ATOM     79  C   UNL A   1      44.546  25.488  25.355  1.00  0.00     0.059 A 
ATOM     80  F   UNL A   1      44.407  27.832  25.496  1.00  0.00    -0.206 F 
ATOM     81  C   UNL A   1      44.996  24.277  25.887  1.00  0.00     0.060 A 
BRANCH  81  82
ATOM     82  S   UNL A   1      44.192  22.707  25.454  1.00  0.00     0.124 S 
ATOM     83  O   UNL A   1      45.279  21.751  25.628  1.00  0.00    -0.237 OA
ATOM     84  O   UNL A   1      43.120  22.627  26.446  1.00  0.00    -0.237 OA
ATOM     85  O   UNL A   1      43.749  22.922  24.082  1.00  0.00    -0.744 OA
ENDBRANCH  81  82
ENDBRANCH  49  74
BRANCH  61  86
ATOM     86  C   UNL A   1      44.471  33.715  28.573  1.00  0.00     0.058 A 
ATOM     87  C   UNL A   1      44.217  34.199  27.277  1.00  0.00     0.135 A 
ATOM     88  C   UNL A   1      44.714  34.702  29.558  1.00  0.00     0.135 A 
ATOM     89  F   UNL A   1      43.827  33.390  26.282  1.00  0.00    -0.206 F 
ATOM     90  C   UNL A   1      44.310  35.548  26.956  1.00  0.00     0.059 A 
ATOM     91  C   UNL A   1      44.736  36.061  29.272  1.00  0.00     0.059 A 
ATOM     92  F   UNL A   1      44.920  34.386  30.845  1.00  0.00    -0.206 F 
ATOM     93  C   UNL A   1      44.579  36.470  27.959  1.00  0.00     0.060 A 
BRANCH  93  94
ATOM     94  S   UNL A   1      44.708  38.208  27.530  1.00  0.00     0.124 S 
ATOM     95  O   UNL A   1      45.796  38.178  26.556  1.00  0.00    -0.237 OA
ATOM     96  O   UNL A   1      43.384  38.501  26.989  1.00  0.00    -0.237 OA
ATOM     97  O   UNL A   1      45.014  38.851  28.803  1.00  0.00    -0.744 OA
ENDBRANCH  93  94
ENDBRANCH  61  86
ENDBRANCH  35  36
ENDBRANCH  28  30
ENDBRANCH  27  28
ENDBRANCH  26  27
ENDBRANCH   1  26
TORSDOF 20
ENDMDL
MODEL 2
REMARK VINA RESULT:     -11.2      3.398      9.920
REMARK SMILES COc1ccc(-c2cnc(N)c(C(=O)OCCOCCOC(=O)c3ccc(-c4c5nc(c(-c6c(F)cc(S(=O)(=O)[O-])cc6F)c6ccc([nH]6)c(-c6c(F)cc(S(=O)(=O)[O-])cc6F)c6nc(c(-c7c(F)cc(S(=O)(=O)[O-])cc7F)c7ccc4[nH]7)C=C6)C=C5)cc3)c2)c(C)c1
REMARK SMILES IDX 19 1 18 2 17 3 16 4 15 5 13 6 14 7 12 8 7 9 8 10 90 11 9 12
REMARK SMILES IDX 10 13 6 14 3 15 4 16 93 17 5 18 91 19 92 20 2 21 1 22 11 23
REMARK SMILES IDX 20 26 21 27 22 28 23 29 24 30 25 31 89 32 26 33 88 34 27 35
REMARK SMILES IDX 28 36 29 37 82 38 30 39 87 40 81 41 83 42 31 43 86 44 80 45
REMARK SMILES IDX 79 46 32 48 66 49 45 50 65 51 46 52 49 53 64 54 84 55 47 56
REMARK SMILES IDX 48 57 63 59 85 60 50 61 33 62 34 63 43 64 35 65 36 66 42 67
REMARK SMILES IDX 44 68 37 69 38 70 39 71 40 72 41 73 67 74 68 75 77 76 69 77
REMARK SMILES IDX 70 78 76 79 78 80 71 81 72 82 73 83 74 84 75 85 51 86 52 87
REMARK SMILES IDX 61 88 53 89 54 90 60 91 62 92 55 93 56 94 57 95 58 96 59 97
REMARK H PARENT 11 24 11 25 83 47 49 58
REMARK Flexibility Score: inf
ROOT
ATOM      1  C   UNL A   1      33.346  26.808  25.517  1.00  0.00     0.202 C 
ENDROOT
BRANCH   1   2
ATOM      2  O   UNL A   1      32.256  25.943  25.284  1.00  0.00    -0.374 OA
BRANCH   2   3
ATOM      3  C   UNL A   1      31.895  25.084  26.362  1.00  0.00     0.202 C 
BRANCH   3   4
ATOM      4  C   UNL A   1      30.722  24.280  25.883  1.00  0.00     0.261 C 
BRANCH   4   5
ATOM      5  O   UNL A   1      31.098  23.403  24.804  1.00  0.00    -0.460 OA
BRANCH   5   6
ATOM      6  C   UNL A   1      32.027  22.440  25.023  1.00  0.00     0.342 C 
ATOM      7  O   UNL A   1      31.855  21.317  25.478  1.00  0.00    -0.246 OA
BRANCH   6   8
ATOM      8  C   UNL A   1      33.284  22.842  24.374  1.00  0.00     0.102 A 
ATOM      9  C   UNL A   1      35.692  22.795  24.496  1.00  0.00     0.001 A 
ATOM     10  C   UNL A   1      35.673  23.099  23.135  1.00  0.00     0.122 A 
ATOM     11  C   UNL A   1      34.458  22.676  25.121  1.00  0.00     0.030 A 
ATOM     12  N   UNL A   1      34.558  23.326  22.401  1.00  0.00    -0.238 NA
ATOM     13  C   UNL A   1      33.371  23.203  23.026  1.00  0.00     0.138 A 
BRANCH   9  14
ATOM     14  C   UNL A   1      36.956  22.665  25.222  1.00  0.00    -0.014 A 
ATOM     15  C   UNL A   1      39.418  22.647  26.594  1.00  0.00     0.119 A 
ATOM     16  C   UNL A   1      38.667  23.815  26.538  1.00  0.00     0.047 A 
ATOM     17  C   UNL A   1      38.948  21.493  25.965  1.00  0.00     0.050 A 
ATOM     18  C   UNL A   1      37.448  23.818  25.865  1.00  0.00     0.013 A 
ATOM     19  C   UNL A   1      37.712  21.477  25.290  1.00  0.00    -0.040 A 
ATOM     20  C   UNL A   1      37.273  20.168  24.686  1.00  0.00     0.045 C 
BRANCH  15  21
ATOM     21  O   UNL A   1      40.648  22.557  27.188  1.00  0.00    -0.497 OA
ATOM     22  C   UNL A   1      41.291  21.298  26.998  1.00  0.00     0.278 C 
ENDBRANCH  15  21
ENDBRANCH   9  14
BRANCH  13  23
ATOM     23  N   UNL A   1      32.279  23.539  22.251  1.00  0.00    -0.383 N 
ATOM     24  H   UNL A   1      31.402  23.681  22.672  1.00  0.00     0.158 HD
ATOM     25  H   UNL A   1      32.379  23.636  21.276  1.00  0.00     0.158 HD
ENDBRANCH  13  23
ENDBRANCH   6   8
ENDBRANCH   5   6
ENDBRANCH   4   5
ENDBRANCH   3   4
ENDBRANCH   2   3
ENDBRANCH   1   2
BRANCH   1  26
ATOM     26  C   UNL A   1      33.004  28.297  25.372  1.00  0.00     0.261 C 
BRANCH  26  27
ATOM     27  O   UNL A   1      34.046  29.130  25.928  1.00  0.00    -0.460 OA
BRANCH  27  28
ATOM     28  C   UNL A   1      33.950  29.418  27.263  1.00  0.00     0.338 C 
ATOM     29  O   UNL A   1      32.911  29.353  27.894  1.00  0.00    -0.246 OA
BRANCH  28  30
ATOM     30  C   UNL A   1      35.290  29.771  27.816  1.00  0.00     0.060 A 
ATOM     31  C   UNL A   1      36.359  30.169  26.992  1.00  0.00     0.016 A 
ATOM     32  C   UNL A   1      35.525  29.519  29.160  1.00  0.00     0.016 A 
ATOM     33  C   UNL A   1      37.680  30.167  27.484  1.00  0.00     0.010 A 
ATOM     34  C   UNL A   1      36.823  29.408  29.603  1.00  0.00     0.010 A 
ATOM     35  C   UNL A   1      37.921  29.710  28.775  1.00  0.00    -0.014 A 
BRANCH  35  36
ATOM     36  C   UNL A   1      39.218  29.417  29.409  1.00  0.00     0.031 A 
ATOM     37  C   UNL A   1      39.880  28.136  29.040  1.00  0.00     0.074 A 
ATOM     38  C   UNL A   1      39.970  30.416  29.942  1.00  0.00     0.049 A 
ATOM     39  N   UNL A   1      41.035  27.763  29.466  1.00  0.00    -0.248 NA
ATOM     40  C   UNL A   1      39.284  27.138  28.151  1.00  0.00     0.031 C 
ATOM     41  C   UNL A   1      41.434  30.525  29.944  1.00  0.00     0.029 A 
ATOM     42  N   UNL A   1      39.588  31.605  30.573  1.00  0.00    -0.354 N 
ATOM     43  C   UNL A   1      41.488  26.755  28.644  1.00  0.00     0.074 A 
ATOM     44  C   UNL A   1      40.314  26.312  27.942  1.00  0.00     0.031 C 
ATOM     45  C   UNL A   1      41.820  31.517  30.765  1.00  0.00     0.029 A 
ATOM     46  C   UNL A   1      40.626  31.994  31.435  1.00  0.00     0.049 A 
ATOM     47  H   UNL A   1      38.738  32.085  30.437  1.00  0.00     0.167 HD
ATOM     48  C   UNL A   1      42.837  26.541  28.587  1.00  0.00     0.037 A 
ATOM     49  C   UNL A   1      40.409  32.099  32.774  1.00  0.00     0.037 A 
ATOM     50  C   UNL A   1      43.511  27.345  29.623  1.00  0.00     0.049 A 
ATOM     51  C   UNL A   1      41.248  31.063  33.464  1.00  0.00     0.074 A 
ATOM     52  C   UNL A   1      44.320  28.467  29.592  1.00  0.00     0.029 A 
ATOM     53  N   UNL A   1      43.121  27.187  30.954  1.00  0.00    -0.354 N 
ATOM     54  N   UNL A   1      41.675  29.993  32.849  1.00  0.00    -0.248 NA
ATOM     55  C   UNL A   1      41.790  31.183  34.813  1.00  0.00     0.031 C 
ATOM     56  C   UNL A   1      44.342  29.026  30.903  1.00  0.00     0.029 A 
ATOM     57  C   UNL A   1      43.565  28.234  31.737  1.00  0.00     0.049 A 
ATOM     58  H   UNL A   1      42.596  26.425  31.292  1.00  0.00     0.167 HD
ATOM     59  C   UNL A   1      42.585  29.350  33.625  1.00  0.00     0.074 A 
ATOM     60  C   UNL A   1      42.589  30.101  34.868  1.00  0.00     0.031 C 
ATOM     61  C   UNL A   1      43.284  28.271  33.171  1.00  0.00     0.037 A 
BRANCH  48  62
ATOM     62  C   UNL A   1      43.600  25.769  27.510  1.00  0.00     0.058 A 
ATOM     63  C   UNL A   1      43.765  24.367  27.625  1.00  0.00     0.135 A 
ATOM     64  C   UNL A   1      44.248  26.323  26.383  1.00  0.00     0.135 A 
ATOM     65  F   UNL A   1      43.210  23.676  28.631  1.00  0.00    -0.206 F 
ATOM     66  C   UNL A   1      44.514  23.598  26.725  1.00  0.00     0.059 A 
ATOM     67  C   UNL A   1      44.987  25.573  25.460  1.00  0.00     0.059 A 
ATOM     68  F   UNL A   1      44.221  27.627  26.103  1.00  0.00    -0.206 F 
ATOM     69  C   UNL A   1      45.123  24.209  25.641  1.00  0.00     0.060 A 
BRANCH  69  70
ATOM     70  S   UNL A   1      46.074  23.212  24.480  1.00  0.00     0.124 S 
ATOM     71  O   UNL A   1      45.073  22.877  23.473  1.00  0.00    -0.237 OA
ATOM     72  O   UNL A   1      47.116  24.142  24.058  1.00  0.00    -0.237 OA
ATOM     73  O   UNL A   1      46.536  22.088  25.292  1.00  0.00    -0.744 OA
ENDBRANCH  69  70
ENDBRANCH  48  62
BRANCH  49  74
ATOM     74  C   UNL A   1      39.020  32.583  33.059  1.00  0.00     0.058 A 
ATOM     75  C   UNL A   1      38.749  33.924  32.697  1.00  0.00     0.135 A 
ATOM     76  C   UNL A   1      37.929  31.699  33.073  1.00  0.00     0.135 A 
ATOM     77  F   UNL A   1      39.749  34.822  32.662  1.00  0.00    -0.206 F 
ATOM     78  C   UNL A   1      37.510  34.323  32.193  1.00  0.00     0.059 A 
ATOM     79  C   UNL A   1      36.676  32.081  32.568  1.00  0.00     0.059 A 
ATOM     80  F   UNL A   1      38.109  30.413  33.402  1.00  0.00    -0.206 F 
ATOM     81  C   UNL A   1      36.500  33.373  32.067  1.00  0.00     0.060 A 
BRANCH  81  82
ATOM     82  S   UNL A   1      35.049  33.799  31.062  1.00  0.00     0.124 S 
ATOM     83  O   UNL A   1      35.659  34.177  29.794  1.00  0.00    -0.237 OA
ATOM     84  O   UNL A   1      34.303  32.540  31.050  1.00  0.00    -0.237 OA
ATOM     85  O   UNL A   1      34.423  34.880  31.815  1.00  0.00    -0.744 OA
ENDBRANCH  81  82
ENDBRANCH  49  74
BRANCH  61  86
ATOM     86  C   UNL A   1      43.840  27.203  34.073  1.00  0.00     0.058 A 
ATOM     87  C   UNL A   1      45.206  27.101  34.391  1.00  0.00     0.135 A 
ATOM     88  C   UNL A   1      42.978  26.342  34.793  1.00  0.00     0.135 A 
ATOM     89  F   UNL A   1      46.115  27.953  33.896  1.00  0.00    -0.206 F 
ATOM     90  C   UNL A   1      45.695  26.143  35.271  1.00  0.00     0.059 A 
ATOM     91  C   UNL A   1      43.440  25.429  35.733  1.00  0.00     0.059 A 
ATOM     92  F   UNL A   1      41.648  26.368  34.629  1.00  0.00    -0.206 F 
ATOM     93  C   UNL A   1      44.804  25.305  35.930  1.00  0.00     0.060 A 
BRANCH  93  94
ATOM     94  S   UNL A   1      45.448  24.064  37.055  1.00  0.00     0.124 S 
ATOM     95  O   UNL A   1      45.003  22.835  36.404  1.00  0.00    -0.237 OA
ATOM     96  O   UNL A   1      46.885  24.314  37.016  1.00  0.00    -0.237 OA
ATOM     97  O   UNL A   1      44.796  24.381  38.321  1.00  0.00    -0.744 OA
ENDBRANCH  93  94
ENDBRANCH  61  86
ENDBRANCH  35  36
ENDBRANCH  28  30
ENDBRANCH  27  28
ENDBRANCH  26  27
ENDBRANCH   1  26
TORSDOF 20
ENDMDL
MODEL 3
REMARK VINA RESULT:     -10.8      1.653      2.685
REMARK SMILES COc1ccc(-c2cnc(N)c(C(=O)OCCOCCOC(=O)c3ccc(-c4c5nc(c(-c6c(F)cc(S(=O)(=O)[O-])cc6F)c6ccc([nH]6)c(-c6c(F)cc(S(=O)(=O)[O-])cc6F)c6nc(c(-c7c(F)cc(S(=O)(=O)[O-])cc7F)c7ccc4[nH]7)C=C6)C=C5)cc3)c2)c(C)c1
REMARK SMILES IDX 19 1 18 2 17 3 16 4 15 5 13 6 14 7 12 8 7 9 8 10 90 11 9 12
REMARK SMILES IDX 10 13 6 14 3 15 4 16 93 17 5 18 91 19 92 20 2 21 1 22 11 23
REMARK SMILES IDX 20 26 21 27 22 28 23 29 24 30 25 31 89 32 26 33 88 34 27 35
REMARK SMILES IDX 28 36 29 37 82 38 30 39 87 40 81 41 83 42 31 43 86 44 80 45
REMARK SMILES IDX 79 46 32 48 66 49 45 50 65 51 46 52 49 53 64 54 84 55 47 56
REMARK SMILES IDX 48 57 63 59 85 60 50 61 33 62 34 63 43 64 35 65 36 66 42 67
REMARK SMILES IDX 44 68 37 69 38 70 39 71 40 72 41 73 67 74 68 75 77 76 69 77
REMARK SMILES IDX 70 78 76 79 78 80 71 81 72 82 73 83 74 84 75 85 51 86 52 87
REMARK SMILES IDX 61 88 53 89 54 90 60 91 62 92 55 93 56 94 57 95 58 96 59 97
REMARK H PARENT 11 24 11 25 83 47 49 58
REMARK Flexibility Score: inf
ROOT
ATOM      1  C   UNL A   1      36.434  20.358  25.068  1.00  0.00     0.202 C 
ENDROOT
BRANCH   1   2
ATOM      2  O   UNL A   1      35.069  20.696  24.954  1.00  0.00    -0.374 OA
BRANCH   2   3
ATOM      3  C   UNL A   1      34.170  19.611  24.744  1.00  0.00     0.202 C 
BRANCH   3   4
ATOM      4  C   UNL A   1      32.801  20.134  25.065  1.00  0.00     0.261 C 
BRANCH   4   5
ATOM      5  O   UNL A   1      32.619  21.468  24.552  1.00  0.00    -0.460 OA
BRANCH   5   6
ATOM      6  C   UNL A   1      31.757  22.308  25.173  1.00  0.00     0.342 C 
ATOM      7  O   UNL A   1      30.783  22.019  25.856  1.00  0.00    -0.246 OA
BRANCH   6   8
ATOM      8  C   UNL A   1      32.313  23.669  25.134  1.00  0.00     0.102 A 
ATOM      9  C   UNL A   1      31.930  25.960  24.484  1.00  0.00     0.001 A 
ATOM     10  C   UNL A   1      32.966  26.283  25.361  1.00  0.00     0.122 A 
ATOM     11  C   UNL A   1      31.613  24.612  24.370  1.00  0.00     0.030 A 
ATOM     12  N   UNL A   1      33.700  25.389  26.065  1.00  0.00    -0.238 NA
ATOM     13  C   UNL A   1      33.375  24.088  25.941  1.00  0.00     0.138 A 
BRANCH   9  14
ATOM     14  C   UNL A   1      31.261  26.994  23.694  1.00  0.00    -0.014 A 
ATOM     15  C   UNL A   1      30.169  29.112  22.190  1.00  0.00     0.119 A 
ATOM     16  C   UNL A   1      31.546  28.942  22.243  1.00  0.00     0.047 A 
ATOM     17  C   UNL A   1      29.336  28.234  22.886  1.00  0.00     0.050 A 
ATOM     18  C   UNL A   1      32.082  27.890  22.983  1.00  0.00     0.013 A 
ATOM     19  C   UNL A   1      29.862  27.159  23.629  1.00  0.00    -0.040 A 
ATOM     20  C   UNL A   1      28.876  26.241  24.305  1.00  0.00     0.045 C 
BRANCH  15  21
ATOM     21  O   UNL A   1      29.551  30.141  21.532  1.00  0.00    -0.497 OA
ATOM     22  C   UNL A   1      28.151  30.232  21.787  1.00  0.00     0.278 C 
ENDBRANCH  15  21
ENDBRANCH   9  14
BRANCH  13  23
ATOM     23  N   UNL A   1      34.219  23.222  26.607  1.00  0.00    -0.383 N 
ATOM     24  H   UNL A   1      33.895  22.336  26.887  1.00  0.00     0.158 HD
ATOM     25  H   UNL A   1      35.147  23.490  26.801  1.00  0.00     0.158 HD
ENDBRANCH  13  23
ENDBRANCH   6   8
ENDBRANCH   5   6
ENDBRANCH   4   5
ENDBRANCH   3   4
ENDBRANCH   2   3
ENDBRANCH   1   2
BRANCH   1  26
ATOM     26  C   UNL A   1      37.393  21.464  24.606  1.00  0.00     0.261 C 
BRANCH  26  27
ATOM     27  O   UNL A   1      37.910  22.213  25.728  1.00  0.00    -0.460 OA
BRANCH  27  28
ATOM     28  C   UNL A   1      37.710  23.567  25.703  1.00  0.00     0.338 C 
ATOM     29  O   UNL A   1      36.800  24.103  25.099  1.00  0.00    -0.246 OA
BRANCH  28  30
ATOM     30  C   UNL A   1      38.731  24.258  26.544  1.00  0.00     0.060 A 
ATOM     31  C   UNL A   1      38.606  24.357  27.942  1.00  0.00     0.016 A 
ATOM     32  C   UNL A   1      39.730  24.972  25.897  1.00  0.00     0.016 A 
ATOM     33  C   UNL A   1      39.383  25.286  28.664  1.00  0.00     0.010 A 
ATOM     34  C   UNL A   1      40.403  25.954  26.588  1.00  0.00     0.010 A 
ATOM     35  C   UNL A   1      40.232  26.143  27.972  1.00  0.00    -0.014 A 
BRANCH  35  36
ATOM     36  C   UNL A   1      40.958  27.317  28.488  1.00  0.00     0.031 A 
ATOM     37  C   UNL A   1      40.165  28.554  28.728  1.00  0.00     0.074 A 
ATOM     38  C   UNL A   1      42.154  27.170  29.115  1.00  0.00     0.049 A 
ATOM     39  N   UNL A   1      40.643  29.640  29.224  1.00  0.00    -0.248 NA
ATOM     40  C   UNL A   1      38.742  28.682  28.415  1.00  0.00     0.031 C 
ATOM     41  C   UNL A   1      42.665  27.947  30.251  1.00  0.00     0.029 A 
ATOM     42  N   UNL A   1      43.184  26.246  28.906  1.00  0.00    -0.354 N 
ATOM     43  C   UNL A   1      39.587  30.412  29.657  1.00  0.00     0.074 A 
ATOM     44  C   UNL A   1      38.439  29.841  29.006  1.00  0.00     0.031 C 
ATOM     45  C   UNL A   1      43.969  27.678  30.442  1.00  0.00     0.029 A 
ATOM     46  C   UNL A   1      44.386  26.825  29.347  1.00  0.00     0.049 A 
ATOM     47  H   UNL A   1      43.084  25.346  28.517  1.00  0.00     0.167 HD
ATOM     48  C   UNL A   1      39.838  31.345  30.623  1.00  0.00     0.037 A 
ATOM     49  C   UNL A   1      45.413  27.028  28.479  1.00  0.00     0.037 A 
ATOM     50  C   UNL A   1      41.293  31.453  30.843  1.00  0.00     0.049 A 
ATOM     51  C   UNL A   1      45.632  28.507  28.353  1.00  0.00     0.074 A 
ATOM     52  C   UNL A   1      42.138  31.074  31.871  1.00  0.00     0.029 A 
ATOM     53  N   UNL A   1      42.116  31.749  29.755  1.00  0.00    -0.354 N 
ATOM     54  N   UNL A   1      44.693  29.373  28.629  1.00  0.00    -0.248 NA
ATOM     55  C   UNL A   1      46.908  29.146  28.054  1.00  0.00     0.031 C 
ATOM     56  C   UNL A   1      43.470  31.068  31.361  1.00  0.00     0.029 A 
ATOM     57  C   UNL A   1      43.438  31.462  30.030  1.00  0.00     0.049 A 
ATOM     58  H   UNL A   1      41.794  32.116  28.900  1.00  0.00     0.167 HD
ATOM     59  C   UNL A   1      45.217  30.626  28.650  1.00  0.00     0.074 A 
ATOM     60  C   UNL A   1      46.596  30.443  28.233  1.00  0.00     0.031 C 
ATOM     61  C   UNL A   1      44.482  31.707  29.038  1.00  0.00     0.037 A 
BRANCH  48  62
ATOM     62  C   UNL A   1      38.812  32.043  31.515  1.00  0.00     0.058 A 
ATOM     63  C   UNL A   1      38.203  31.338  32.582  1.00  0.00     0.135 A 
ATOM     64  C   UNL A   1      38.325  33.361  31.359  1.00  0.00     0.135 A 
ATOM     65  F   UNL A   1      38.551  30.078  32.878  1.00  0.00    -0.206 F 
ATOM     66  C   UNL A   1      37.200  31.878  33.396  1.00  0.00     0.059 A 
ATOM     67  C   UNL A   1      37.335  33.929  32.171  1.00  0.00     0.059 A 
ATOM     68  F   UNL A   1      38.763  34.184  30.406  1.00  0.00    -0.206 F 
ATOM     69  C   UNL A   1      36.770  33.179  33.185  1.00  0.00     0.060 A 
BRANCH  69  70
ATOM     70  S   UNL A   1      35.488  33.872  34.244  1.00  0.00     0.124 S 
ATOM     71  O   UNL A   1      34.300  33.152  33.797  1.00  0.00    -0.237 OA
ATOM     72  O   UNL A   1      35.974  33.532  35.577  1.00  0.00    -0.237 OA
ATOM     73  O   UNL A   1      35.508  35.297  33.921  1.00  0.00    -0.744 OA
ENDBRANCH  69  70
ENDBRANCH  48  62
BRANCH  49  74
ATOM     74  C   UNL A   1      45.476  25.938  27.453  1.00  0.00     0.058 A 
ATOM     75  C   UNL A   1      45.902  24.673  27.925  1.00  0.00     0.135 A 
ATOM     76  C   UNL A   1      44.631  25.942  26.332  1.00  0.00     0.135 A 
ATOM     77  F   UNL A   1      46.710  24.596  28.996  1.00  0.00    -0.206 F 
ATOM     78  C   UNL A   1      45.369  23.479  27.435  1.00  0.00     0.059 A 
ATOM     79  C   UNL A   1      44.084  24.753  25.827  1.00  0.00     0.059 A 
ATOM     80  F   UNL A   1      44.184  27.103  25.831  1.00  0.00    -0.206 F 
ATOM     81  C   UNL A   1      44.406  23.535  26.431  1.00  0.00     0.060 A 
BRANCH  81  82
ATOM     82  S   UNL A   1      43.448  22.033  26.083  1.00  0.00     0.124 S 
ATOM     83  O   UNL A   1      42.749  21.819  27.344  1.00  0.00    -0.237 OA
ATOM     84  O   UNL A   1      42.607  22.457  24.963  1.00  0.00    -0.237 OA
ATOM     85  O   UNL A   1      44.471  21.050  25.749  1.00  0.00    -0.744 OA
ENDBRANCH  81  82
ENDBRANCH  49  74
BRANCH  61  86
ATOM     86  C   UNL A   1      44.758  33.110  28.570  1.00  0.00     0.058 A 
ATOM     87  C   UNL A   1      45.298  34.105  29.404  1.00  0.00     0.135 A 
ATOM     88  C   UNL A   1      44.651  33.451  27.201  1.00  0.00     0.135 A 
ATOM     89  F   UNL A   1      45.593  33.869  30.690  1.00  0.00    -0.206 F 
ATOM     90  C   UNL A   1      45.600  35.380  28.941  1.00  0.00     0.059 A 
ATOM     91  C   UNL A   1      45.019  34.695  26.704  1.00  0.00     0.059 A 
ATOM     92  F   UNL A   1      44.203  32.581  26.284  1.00  0.00    -0.206 F 
ATOM     93  C   UNL A   1      45.449  35.668  27.590  1.00  0.00     0.060 A 
BRANCH  93  94
ATOM     94  S   UNL A   1      45.831  37.321  27.005  1.00  0.00     0.124 S 
ATOM     95  O   UNL A   1      46.510  37.025  25.746  1.00  0.00    -0.237 OA
ATOM     96  O   UNL A   1      44.510  37.929  26.883  1.00  0.00    -0.237 OA
ATOM     97  O   UNL A   1      46.672  37.870  28.064  1.00  0.00    -0.744 OA
ENDBRANCH  93  94
ENDBRANCH  61  86
ENDBRANCH  35  36
ENDBRANCH  28  30
ENDBRANCH  27  28
ENDBRANCH  26  27
ENDBRANCH   1  26
TORSDOF 20
ENDMDL
