MODEL 1
REMARK VINA RESULT:     -11.4      0.000      0.000
REMARK SMILES Cc1cc(Cl)c(C)c2c1O[C@H](C(F)(F)F)C(C(=O)OCCOCCOC(=O)c1ccc(-c3c4nc(c(-c5c(F)cc(S(=O)(=O)[O-])cc5F)c5ccc([nH]5)c(-c5c(F)cc(S(=O)(=O)[O-])cc5F)c5nc(c(-c6c(F)cc(S(=O)(=O)[O-])cc6F)c6ccc3[nH]6)C=C5)C=C4)cc1)=C2
REMARK SMILES IDX 23 1 22 2 21 3 20 4 19 5 17 6 18 7 16 8 1 9 2 10 3 11 9 12
REMARK SMILES IDX 4 13 8 14 10 15 5 16 6 17 94 18 11 19 7 20 12 21 13 22 14 23
REMARK SMILES IDX 15 24 24 25 25 26 26 27 27 28 28 29 29 30 93 31 30 32 92 33
REMARK SMILES IDX 31 34 32 35 33 36 86 37 34 38 91 39 85 40 87 41 35 42 90 43
REMARK SMILES IDX 84 44 83 45 36 47 70 48 49 49 69 50 50 51 53 52 68 53 88 54
REMARK SMILES IDX 51 55 52 56 67 58 89 59 54 60 37 61 38 62 47 63 39 64 40 65
REMARK SMILES IDX 46 66 48 67 41 68 42 69 43 70 44 71 45 72 71 73 72 74 81 75
REMARK SMILES IDX 73 76 74 77 80 78 82 79 75 80 76 81 77 82 78 83 79 84 55 85
REMARK SMILES IDX 56 86 65 87 57 88 58 89 64 90 66 91 59 92 60 93 61 94 62 95
REMARK SMILES IDX 63 96
REMARK H PARENT 87 46 53 57
REMARK Flexibility Score: inf
ROOT
ATOM      1  C   UNL A   1      39.071  21.449  26.024  1.00  0.00     0.202 C 
ENDROOT
BRANCH   1   2
ATOM      2  O   UNL A   1      37.774  22.012  25.818  1.00  0.00    -0.374 OA
BRANCH   2   3
ATOM      3  C   UNL A   1      37.256  22.022  24.488  1.00  0.00     0.202 C 
BRANCH   3   4
ATOM      4  C   UNL A   1      35.848  22.593  24.299  1.00  0.00     0.261 C 
BRANCH   4   5
ATOM      5  O   UNL A   1      35.689  23.853  24.968  1.00  0.00    -0.460 OA
BRANCH   5   6
ATOM      6  C   UNL A   1      34.533  23.982  25.657  1.00  0.00     0.338 C 
ATOM      7  O   UNL A   1      34.213  23.384  26.674  1.00  0.00    -0.246 OA
BRANCH   6   8
ATOM      8  C   UNL A   1      33.725  25.076  25.085  1.00  0.00     0.087 C 
ATOM      9  C   UNL A   1      30.120  27.832  22.788  1.00  0.00     0.048 C 
ATOM     10  C   UNL A   1      31.098  28.080  23.902  1.00  0.00    -0.007 A 
ATOM     11  C   UNL A   1      31.043  29.275  24.626  1.00  0.00     0.028 A 
ATOM     12  C   UNL A   1      32.062  27.123  24.245  1.00  0.00     0.131 A 
ATOM     13  C   UNL A   1      31.943  29.526  25.667  1.00  0.00     0.045 A 
ATOM     14  C   UNL A   1      32.936  27.343  25.322  1.00  0.00     0.022 A 
ATOM     15  O   UNL A   1      32.096  26.000  23.462  1.00  0.00    -0.475 OA
ATOM     16  Cl  UNL A   1      31.777  31.042  26.485  1.00  0.00    -0.084 Cl
ATOM     17  C   UNL A   1      32.911  28.573  26.028  1.00  0.00    -0.021 A 
ATOM     18  C   UNL A   1      33.808  26.246  25.729  1.00  0.00     0.027 C 
ATOM     19  C   UNL A   1      32.862  24.841  23.884  1.00  0.00     0.316 C 
ATOM     20  C   UNL A   1      33.904  28.832  27.135  1.00  0.00     0.047 C 
BRANCH  19  21
ATOM     21  C   UNL A   1      31.891  23.666  24.062  1.00  0.00     0.430 C 
ATOM     22  F   UNL A   1      31.372  23.648  25.313  1.00  0.00    -0.167 F 
ATOM     23  F   UNL A   1      30.848  23.741  23.206  1.00  0.00    -0.167 F 
ATOM     24  F   UNL A   1      32.502  22.476  23.859  1.00  0.00    -0.167 F 
ENDBRANCH  19  21
ENDBRANCH   6   8
ENDBRANCH   5   6
ENDBRANCH   4   5
ENDBRANCH   3   4
ENDBRANCH   2   3
ENDBRANCH   1   2
BRANCH   1  25
ATOM     25  C   UNL A   1      40.101  22.294  26.784  1.00  0.00     0.261 C 
BRANCH  25  26
ATOM     26  O   UNL A   1      39.966  23.700  26.507  1.00  0.00    -0.460 OA
BRANCH  26  27
ATOM     27  C   UNL A   1      41.069  24.440  26.778  1.00  0.00     0.338 C 
ATOM     28  O   UNL A   1      42.181  24.313  26.282  1.00  0.00    -0.246 OA
BRANCH  27  29
ATOM     29  C   UNL A   1      40.713  25.579  27.639  1.00  0.00     0.060 A 
ATOM     30  C   UNL A   1      41.610  26.653  27.702  1.00  0.00     0.016 A 
ATOM     31  C   UNL A   1      39.569  25.560  28.439  1.00  0.00     0.016 A 
ATOM     32  C   UNL A   1      41.389  27.695  28.598  1.00  0.00     0.010 A 
ATOM     33  C   UNL A   1      39.355  26.601  29.348  1.00  0.00     0.010 A 
ATOM     34  C   UNL A   1      40.281  27.655  29.455  1.00  0.00    -0.014 A 
BRANCH  34  35
ATOM     35  C   UNL A   1      40.186  28.636  30.562  1.00  0.00     0.031 A 
ATOM     36  C   UNL A   1      41.137  28.517  31.723  1.00  0.00     0.074 A 
ATOM     37  C   UNL A   1      39.306  29.652  30.506  1.00  0.00     0.049 A 
ATOM     38  N   UNL A   1      41.228  29.255  32.798  1.00  0.00    -0.248 NA
ATOM     39  C   UNL A   1      42.121  27.422  31.658  1.00  0.00     0.031 C 
ATOM     40  C   UNL A   1      38.375  29.904  29.407  1.00  0.00     0.029 A 
ATOM     41  N   UNL A   1      39.057  30.668  31.397  1.00  0.00    -0.354 N 
ATOM     42  C   UNL A   1      42.283  28.725  33.531  1.00  0.00     0.074 A 
ATOM     43  C   UNL A   1      42.776  27.578  32.800  1.00  0.00     0.031 C 
ATOM     44  C   UNL A   1      37.658  31.007  29.686  1.00  0.00     0.029 A 
ATOM     45  C   UNL A   1      38.058  31.522  30.995  1.00  0.00     0.049 A 
ATOM     46  H   UNL A   1      39.549  30.775  32.242  1.00  0.00     0.167 HD
ATOM     47  C   UNL A   1      42.804  29.166  34.701  1.00  0.00     0.037 A 
ATOM     48  C   UNL A   1      37.519  32.588  31.620  1.00  0.00     0.037 A 
ATOM     49  C   UNL A   1      42.308  30.304  35.427  1.00  0.00     0.049 A 
ATOM     50  C   UNL A   1      38.050  32.996  32.971  1.00  0.00     0.074 A 
ATOM     51  C   UNL A   1      42.760  30.822  36.628  1.00  0.00     0.029 A 
ATOM     52  N   UNL A   1      41.250  31.103  35.021  1.00  0.00    -0.354 N 
ATOM     53  N   UNL A   1      39.042  32.481  33.657  1.00  0.00    -0.248 NA
ATOM     54  C   UNL A   1      37.385  34.126  33.635  1.00  0.00     0.031 C 
ATOM     55  C   UNL A   1      41.948  31.908  36.970  1.00  0.00     0.029 A 
ATOM     56  C   UNL A   1      41.021  32.096  35.958  1.00  0.00     0.049 A 
ATOM     57  H   UNL A   1      40.737  30.981  34.189  1.00  0.00     0.167 HD
ATOM     58  C   UNL A   1      39.135  33.239  34.820  1.00  0.00     0.074 A 
ATOM     59  C   UNL A   1      38.106  34.254  34.740  1.00  0.00     0.031 C 
ATOM     60  C   UNL A   1      39.996  33.105  35.860  1.00  0.00     0.037 A 
BRANCH  47  61
ATOM     61  C   UNL A   1      43.973  28.414  35.273  1.00  0.00     0.058 A 
ATOM     62  C   UNL A   1      43.788  27.331  36.146  1.00  0.00     0.135 A 
ATOM     63  C   UNL A   1      45.287  28.736  34.896  1.00  0.00     0.135 A 
ATOM     64  F   UNL A   1      42.554  26.993  36.554  1.00  0.00    -0.206 F 
ATOM     65  C   UNL A   1      44.865  26.599  36.635  1.00  0.00     0.059 A 
ATOM     66  C   UNL A   1      46.377  28.003  35.354  1.00  0.00     0.059 A 
ATOM     67  F   UNL A   1      45.518  29.767  34.068  1.00  0.00    -0.206 F 
ATOM     68  C   UNL A   1      46.156  26.940  36.228  1.00  0.00     0.060 A 
BRANCH  68  69
ATOM     69  S   UNL A   1      47.539  25.959  36.850  1.00  0.00     0.124 S 
ATOM     70  O   UNL A   1      46.947  24.626  36.908  1.00  0.00    -0.237 OA
ATOM     71  O   UNL A   1      48.550  26.159  35.818  1.00  0.00    -0.237 OA
ATOM     72  O   UNL A   1      47.835  26.569  38.142  1.00  0.00    -0.744 OA
ENDBRANCH  68  69
ENDBRANCH  47  61
BRANCH  48  73
ATOM     73  C   UNL A   1      36.414  33.349  30.980  1.00  0.00     0.058 A 
ATOM     74  C   UNL A   1      36.657  34.195  29.888  1.00  0.00     0.135 A 
ATOM     75  C   UNL A   1      35.095  33.254  31.451  1.00  0.00     0.135 A 
ATOM     76  F   UNL A   1      37.904  34.329  29.409  1.00  0.00    -0.206 F 
ATOM     77  C   UNL A   1      35.636  34.929  29.293  1.00  0.00     0.059 A 
ATOM     78  C   UNL A   1      34.053  33.959  30.857  1.00  0.00     0.059 A 
ATOM     79  F   UNL A   1      34.808  32.454  32.490  1.00  0.00    -0.206 F 
ATOM     80  C   UNL A   1      34.336  34.803  29.784  1.00  0.00     0.060 A 
BRANCH  80  81
ATOM     81  S   UNL A   1      33.013  35.731  28.977  1.00  0.00     0.124 S 
ATOM     82  O   UNL A   1      32.481  34.738  28.051  1.00  0.00    -0.237 OA
ATOM     83  O   UNL A   1      32.154  36.078  30.104  1.00  0.00    -0.237 OA
ATOM     84  O   UNL A   1      33.716  36.853  28.364  1.00  0.00    -0.744 OA
ENDBRANCH  80  81
ENDBRANCH  48  73
BRANCH  60  85
ATOM     85  C   UNL A   1      39.884  34.089  36.991  1.00  0.00     0.058 A 
ATOM     86  C   UNL A   1      40.525  35.336  36.945  1.00  0.00     0.135 A 
ATOM     87  C   UNL A   1      39.058  33.816  38.094  1.00  0.00     0.135 A 
ATOM     88  F   UNL A   1      41.329  35.645  35.915  1.00  0.00    -0.206 F 
ATOM     89  C   UNL A   1      40.360  36.275  37.959  1.00  0.00     0.059 A 
ATOM     90  C   UNL A   1      38.858  34.750  39.106  1.00  0.00     0.059 A 
ATOM     91  F   UNL A   1      38.413  32.641  38.181  1.00  0.00    -0.206 F 
ATOM     92  C   UNL A   1      39.519  35.975  39.032  1.00  0.00     0.060 A 
BRANCH  92  93
ATOM     93  S   UNL A   1      39.274  37.225  40.311  1.00  0.00     0.124 S 
ATOM     94  O   UNL A   1      38.529  36.476  41.317  1.00  0.00    -0.237 OA
ATOM     95  O   UNL A   1      40.645  37.575  40.670  1.00  0.00    -0.237 OA
ATOM     96  O   UNL A   1      38.525  38.273  39.626  1.00  0.00    -0.744 OA
ENDBRANCH  92  93
ENDBRANCH  60  85
ENDBRANCH  34  35
ENDBRANCH  27  29
ENDBRANCH  26  27
ENDBRANCH  25  26
ENDBRANCH   1  25
TORSDOF 18
ENDMDL
MODEL 2
REMARK VINA RESULT:     -11.2      4.731     10.579
REMARK SMILES Cc1cc(Cl)c(C)c2c1O[C@H](C(F)(F)F)C(C(=O)OCCOCCOC(=O)c1ccc(-c3c4nc(c(-c5c(F)cc(S(=O)(=O)[O-])cc5F)c5ccc([nH]5)c(-c5c(F)cc(S(=O)(=O)[O-])cc5F)c5nc(c(-c6c(F)cc(S(=O)(=O)[O-])cc6F)c6ccc3[nH]6)C=C5)C=C4)cc1)=C2
REMARK SMILES IDX 23 1 22 2 21 3 20 4 19 5 17 6 18 7 16 8 1 9 2 10 3 11 9 12
REMARK SMILES IDX 4 13 8 14 10 15 5 16 6 17 94 18 11 19 7 20 12 21 13 22 14 23
REMARK SMILES IDX 15 24 24 25 25 26 26 27 27 28 28 29 29 30 93 31 30 32 92 33
REMARK SMILES IDX 31 34 32 35 33 36 86 37 34 38 91 39 85 40 87 41 35 42 90 43
REMARK SMILES IDX 84 44 83 45 36 47 70 48 49 49 69 50 50 51 53 52 68 53 88 54
REMARK SMILES IDX 51 55 52 56 67 58 89 59 54 60 37 61 38 62 47 63 39 64 40 65
REMARK SMILES IDX 46 66 48 67 41 68 42 69 43 70 44 71 45 72 71 73 72 74 81 75
REMARK SMILES IDX 73 76 74 77 80 78 82 79 75 80 76 81 77 82 78 83 79 84 55 85
REMARK SMILES IDX 56 86 65 87 57 88 58 89 64 90 66 91 59 92 60 93 61 94 62 95
REMARK SMILES IDX 63 96
REMARK H PARENT 87 46 53 57
REMARK Flexibility Score: inf
ROOT
ATOM      1  C   UNL A   1      32.616  29.950  25.734  1.00  0.00     0.202 C 
ENDROOT
BRANCH   1   2
ATOM      2  O   UNL A   1      31.509  29.048  25.801  1.00  0.00    -0.374 OA
BRANCH   2   3
ATOM      3  C   UNL A   1      30.933  28.609  24.572  1.00  0.00     0.202 C 
BRANCH   3   4
ATOM      4  C   UNL A   1      31.004  27.109  24.272  1.00  0.00     0.261 C 
BRANCH   4   5
ATOM      5  O   UNL A   1      31.995  26.451  25.077  1.00  0.00    -0.460 OA
BRANCH   5   6
ATOM      6  C   UNL A   1      33.161  26.201  24.440  1.00  0.00     0.338 C 
ATOM      7  O   UNL A   1      33.854  27.004  23.833  1.00  0.00    -0.246 OA
BRANCH   6   8
ATOM      8  C   UNL A   1      33.582  24.809  24.690  1.00  0.00     0.087 C 
ATOM      9  C   UNL A   1      34.181  19.760  24.546  1.00  0.00     0.048 C 
ATOM     10  C   UNL A   1      35.058  20.923  24.916  1.00  0.00    -0.007 A 
ATOM     11  C   UNL A   1      36.407  20.713  25.216  1.00  0.00     0.028 A 
ATOM     12  C   UNL A   1      34.551  22.229  24.951  1.00  0.00     0.131 A 
ATOM     13  C   UNL A   1      37.241  21.781  25.562  1.00  0.00     0.045 A 
ATOM     14  C   UNL A   1      35.392  23.315  25.246  1.00  0.00     0.022 A 
ATOM     15  O   UNL A   1      33.211  22.359  24.700  1.00  0.00    -0.475 OA
ATOM     16  Cl  UNL A   1      38.890  21.393  25.916  1.00  0.00    -0.084 Cl
ATOM     17  C   UNL A   1      36.750  23.098  25.595  1.00  0.00    -0.021 A 
ATOM     18  C   UNL A   1      34.844  24.660  25.111  1.00  0.00     0.027 C 
ATOM     19  C   UNL A   1      32.642  23.670  24.448  1.00  0.00     0.316 C 
ATOM     20  C   UNL A   1      37.628  24.262  25.984  1.00  0.00     0.047 C 
BRANCH  19  21
ATOM     21  C   UNL A   1      32.050  23.670  23.031  1.00  0.00     0.430 C 
ATOM     22  F   UNL A   1      32.036  22.420  22.510  1.00  0.00    -0.167 F 
ATOM     23  F   UNL A   1      30.774  24.114  23.019  1.00  0.00    -0.167 F 
ATOM     24  F   UNL A   1      32.763  24.452  22.190  1.00  0.00    -0.167 F 
ENDBRANCH  19  21
ENDBRANCH   6   8
ENDBRANCH   5   6
ENDBRANCH   4   5
ENDBRANCH   3   4
ENDBRANCH   2   3
ENDBRANCH   1   2
BRANCH   1  25
ATOM     25  C   UNL A   1      33.027  30.669  27.025  1.00  0.00     0.261 C 
BRANCH  25  26
ATOM     26  O   UNL A   1      34.032  29.944  27.758  1.00  0.00    -0.460 OA
BRANCH  26  27
ATOM     27  C   UNL A   1      34.931  30.723  28.409  1.00  0.00     0.338 C 
ATOM     28  O   UNL A   1      34.703  31.757  29.021  1.00  0.00    -0.246 OA
BRANCH  27  29
ATOM     29  C   UNL A   1      36.241  30.052  28.450  1.00  0.00     0.060 A 
ATOM     30  C   UNL A   1      36.651  29.498  29.669  1.00  0.00     0.016 A 
ATOM     31  C   UNL A   1      37.092  30.044  27.343  1.00  0.00     0.016 A 
ATOM     32  C   UNL A   1      37.932  28.970  29.799  1.00  0.00     0.010 A 
ATOM     33  C   UNL A   1      38.383  29.525  27.480  1.00  0.00     0.010 A 
ATOM     34  C   UNL A   1      38.820  29.016  28.716  1.00  0.00    -0.014 A 
BRANCH  34  35
ATOM     35  C   UNL A   1      40.246  28.677  28.934  1.00  0.00     0.031 A 
ATOM     36  C   UNL A   1      41.141  29.688  29.599  1.00  0.00     0.074 A 
ATOM     37  C   UNL A   1      40.723  27.464  28.598  1.00  0.00     0.049 A 
ATOM     38  N   UNL A   1      42.415  29.608  29.880  1.00  0.00    -0.248 NA
ATOM     39  C   UNL A   1      40.512  30.956  30.007  1.00  0.00     0.031 C 
ATOM     40  C   UNL A   1      39.938  26.384  28.001  1.00  0.00     0.029 A 
ATOM     41  N   UNL A   1      41.985  26.937  28.718  1.00  0.00    -0.354 N 
ATOM     42  C   UNL A   1      42.739  30.805  30.508  1.00  0.00     0.074 A 
ATOM     43  C   UNL A   1      41.539  31.612  30.530  1.00  0.00     0.031 C 
ATOM     44  C   UNL A   1      40.736  25.319  27.812  1.00  0.00     0.029 A 
ATOM     45  C   UNL A   1      42.093  25.651  28.244  1.00  0.00     0.049 A 
ATOM     46  H   UNL A   1      42.741  27.432  29.108  1.00  0.00     0.167 HD
ATOM     47  C   UNL A   1      43.927  31.190  31.032  1.00  0.00     0.037 A 
ATOM     48  C   UNL A   1      43.168  24.842  28.157  1.00  0.00     0.037 A 
ATOM     49  C   UNL A   1      45.119  30.386  31.003  1.00  0.00     0.049 A 
ATOM     50  C   UNL A   1      44.503  25.334  28.656  1.00  0.00     0.074 A 
ATOM     51  C   UNL A   1      46.376  30.693  31.496  1.00  0.00     0.029 A 
ATOM     52  N   UNL A   1      45.206  29.116  30.454  1.00  0.00    -0.354 N 
ATOM     53  N   UNL A   1      44.797  26.472  29.239  1.00  0.00    -0.248 NA
ATOM     54  C   UNL A   1      45.653  24.436  28.480  1.00  0.00     0.031 C 
ATOM     55  C   UNL A   1      47.232  29.626  31.207  1.00  0.00     0.029 A 
ATOM     56  C   UNL A   1      46.498  28.635  30.576  1.00  0.00     0.049 A 
ATOM     57  H   UNL A   1      44.458  28.629  30.037  1.00  0.00     0.167 HD
ATOM     58  C   UNL A   1      46.158  26.415  29.520  1.00  0.00     0.074 A 
ATOM     59  C   UNL A   1      46.628  25.127  29.054  1.00  0.00     0.031 C 
ATOM     60  C   UNL A   1      46.948  27.346  30.113  1.00  0.00     0.037 A 
BRANCH  47  61
ATOM     61  C   UNL A   1      43.999  32.543  31.682  1.00  0.00     0.058 A 
ATOM     62  C   UNL A   1      43.785  32.704  33.060  1.00  0.00     0.135 A 
ATOM     63  C   UNL A   1      44.348  33.679  30.934  1.00  0.00     0.135 A 
ATOM     64  F   UNL A   1      43.430  31.654  33.817  1.00  0.00    -0.206 F 
ATOM     65  C   UNL A   1      43.904  33.947  33.672  1.00  0.00     0.059 A 
ATOM     66  C   UNL A   1      44.495  34.928  31.530  1.00  0.00     0.059 A 
ATOM     67  F   UNL A   1      44.557  33.579  29.612  1.00  0.00    -0.206 F 
ATOM     68  C   UNL A   1      44.265  35.053  32.900  1.00  0.00     0.060 A 
BRANCH  68  69
ATOM     69  S   UNL A   1      44.443  36.652  33.719  1.00  0.00     0.124 S 
ATOM     70  O   UNL A   1      43.173  37.291  33.387  1.00  0.00    -0.237 OA
ATOM     71  O   UNL A   1      44.615  36.268  35.115  1.00  0.00    -0.237 OA
ATOM     72  O   UNL A   1      45.620  37.233  33.080  1.00  0.00    -0.744 OA
ENDBRANCH  68  69
ENDBRANCH  47  61
BRANCH  48  73
ATOM     73  C   UNL A   1      43.033  23.481  27.576  1.00  0.00     0.058 A 
ATOM     74  C   UNL A   1      42.505  22.422  28.329  1.00  0.00     0.135 A 
ATOM     75  C   UNL A   1      43.436  23.206  26.259  1.00  0.00     0.135 A 
ATOM     76  F   UNL A   1      42.117  22.630  29.597  1.00  0.00    -0.206 F 
ATOM     77  C   UNL A   1      42.392  21.138  27.804  1.00  0.00     0.059 A 
ATOM     78  C   UNL A   1      43.311  21.937  25.704  1.00  0.00     0.059 A 
ATOM     79  F   UNL A   1      43.942  24.187  25.493  1.00  0.00    -0.206 F 
ATOM     80  C   UNL A   1      42.796  20.906  26.489  1.00  0.00     0.060 A 
BRANCH  80  81
ATOM     81  S   UNL A   1      42.608  19.245  25.807  1.00  0.00     0.124 S 
ATOM     82  O   UNL A   1      41.157  19.128  25.716  1.00  0.00    -0.237 OA
ATOM     83  O   UNL A   1      43.320  19.354  24.538  1.00  0.00    -0.237 OA
ATOM     84  O   UNL A   1      43.248  18.396  26.807  1.00  0.00    -0.744 OA
ENDBRANCH  80  81
ENDBRANCH  48  73
BRANCH  60  85
ATOM     85  C   UNL A   1      48.399  27.007  30.313  1.00  0.00     0.058 A 
ATOM     86  C   UNL A   1      49.390  27.484  29.442  1.00  0.00     0.135 A 
ATOM     87  C   UNL A   1      48.810  26.268  31.435  1.00  0.00     0.135 A 
ATOM     88  F   UNL A   1      49.050  28.191  28.353  1.00  0.00    -0.206 F 
ATOM     89  C   UNL A   1      50.739  27.231  29.671  1.00  0.00     0.059 A 
ATOM     90  C   UNL A   1      50.155  26.025  31.697  1.00  0.00     0.059 A 
ATOM     91  F   UNL A   1      47.901  25.797  32.304  1.00  0.00    -0.206 F 
ATOM     92  C   UNL A   1      51.113  26.506  30.805  1.00  0.00     0.060 A 
BRANCH  92  93
ATOM     93  S   UNL A   1      52.870  26.234  31.115  1.00  0.00     0.124 S 
ATOM     94  O   UNL A   1      52.837  25.065  31.988  1.00  0.00    -0.237 OA
ATOM     95  O   UNL A   1      53.391  26.006  29.770  1.00  0.00    -0.237 OA
ATOM     96  O   UNL A   1      53.302  27.476  31.746  1.00  0.00    -0.744 OA
ENDBRANCH  92  93
ENDBRANCH  60  85
ENDBRANCH  34  35
ENDBRANCH  27  29
ENDBRANCH  26  27
ENDBRANCH  25  26
ENDBRANCH   1  25
TORSDOF 18
ENDMDL
MODEL 3
REMARK VINA RESULT:     -11.2      6.801     11.587
REMARK SMILES Cc1cc(Cl)c(C)c2c1O[C@H](C(F)(F)F)C(C(=O)OCCOCCOC(=O)c1ccc(-c3c4nc(c(-c5c(F)cc(S(=O)(=O)[O-])cc5F)c5ccc([nH]5)c(-c5c(F)cc(S(=O)(=O)[O-])cc5F)c5nc(c(-c6c(F)cc(S(=O)(=O)[O-])cc6F)c6ccc3[nH]6)C=C5)C=C4)cc1)=C2
REMARK SMILES IDX 23 1 22 2 21 3 20 4 19 5 17 6 18 7 16 8 1 9 2 10 3 11 9 12
REMARK SMILES IDX 4 13 8 14 10 15 5 16 6 17 94 18 11 19 7 20 12 21 13 22 14 23
REMARK SMILES IDX 15 24 24 25 25 26 26 27 27 28 28 29 29 30 93 31 30 32 92 33
REMARK SMILES IDX 31 34 32 35 33 36 86 37 34 38 91 39 85 40 87 41 35 42 90 43
REMARK SMILES IDX 84 44 83 45 36 47 70 48 49 49 69 50 50 51 53 52 68 53 88 54
REMARK SMILES IDX 51 55 52 56 67 58 89 59 54 60 37 61 38 62 47 63 39 64 40 65
REMARK SMILES IDX 46 66 48 67 41 68 42 69 43 70 44 71 45 72 71 73 72 74 81 75
REMARK SMILES IDX 73 76 74 77 80 78 82 79 75 80 76 81 77 82 78 83 79 84 55 85
REMARK SMILES IDX 56 86 65 87 57 88 58 89 64 90 66 91 59 92 60 93 61 94 62 95
REMARK SMILES IDX 63 96
REMARK H PARENT 87 46 53 57
REMARK Flexibility Score: inf
ROOT
ATOM      1  C   UNL A   1      34.048  30.951  27.657  1.00  0.00     0.202 C 
ENDROOT
BRANCH   1   2
ATOM      2  O   UNL A   1      33.730  29.672  27.106  1.00  0.00    -0.374 OA
BRANCH   2   3
ATOM      3  C   UNL A   1      32.358  29.283  27.075  1.00  0.00     0.202 C 
BRANCH   3   4
ATOM      4  C   UNL A   1      31.846  28.654  25.775  1.00  0.00     0.261 C 
BRANCH   4   5
ATOM      5  O   UNL A   1      32.026  27.230  25.765  1.00  0.00    -0.460 OA
BRANCH   5   6
ATOM      6  C   UNL A   1      32.937  26.784  24.871  1.00  0.00     0.338 C 
ATOM      7  O   UNL A   1      33.671  27.464  24.170  1.00  0.00    -0.246 OA
BRANCH   6   8
ATOM      8  C   UNL A   1      33.034  25.314  24.942  1.00  0.00     0.087 C 
ATOM      9  C   UNL A   1      32.349  20.313  24.321  1.00  0.00     0.048 C 
ATOM     10  C   UNL A   1      33.527  21.193  24.629  1.00  0.00    -0.007 A 
ATOM     11  C   UNL A   1      34.812  20.644  24.686  1.00  0.00     0.028 A 
ATOM     12  C   UNL A   1      33.367  22.568  24.844  1.00  0.00     0.131 A 
ATOM     13  C   UNL A   1      35.923  21.445  24.970  1.00  0.00     0.045 A 
ATOM     14  C   UNL A   1      34.481  23.389  25.079  1.00  0.00     0.022 A 
ATOM     15  O   UNL A   1      32.078  23.030  24.827  1.00  0.00    -0.475 OA
ATOM     16  Cl  UNL A   1      37.459  20.649  25.018  1.00  0.00    -0.084 Cl
ATOM     17  C   UNL A   1      35.780  22.827  25.182  1.00  0.00    -0.021 A 
ATOM     18  C   UNL A   1      34.268  24.831  25.138  1.00  0.00     0.027 C 
ATOM     19  C   UNL A   1      31.818  24.458  24.772  1.00  0.00     0.316 C 
ATOM     20  C   UNL A   1      36.963  23.706  25.510  1.00  0.00     0.047 C 
BRANCH  19  21
ATOM     21  C   UNL A   1      31.051  24.754  23.476  1.00  0.00     0.430 C 
ATOM     22  F   UNL A   1      31.898  24.870  22.425  1.00  0.00    -0.167 F 
ATOM     23  F   UNL A   1      30.180  23.766  23.170  1.00  0.00    -0.167 F 
ATOM     24  F   UNL A   1      30.349  25.906  23.561  1.00  0.00    -0.167 F 
ENDBRANCH  19  21
ENDBRANCH   6   8
ENDBRANCH   5   6
ENDBRANCH   4   5
ENDBRANCH   3   4
ENDBRANCH   2   3
ENDBRANCH   1   2
BRANCH   1  25
ATOM     25  C   UNL A   1      35.133  31.009  28.740  1.00  0.00     0.261 C 
BRANCH  25  26
ATOM     26  O   UNL A   1      35.906  29.797  28.806  1.00  0.00    -0.460 OA
BRANCH  26  27
ATOM     27  C   UNL A   1      36.645  29.656  29.934  1.00  0.00     0.338 C 
ATOM     28  O   UNL A   1      36.237  29.366  31.051  1.00  0.00    -0.246 OA
BRANCH  27  29
ATOM     29  C   UNL A   1      38.079  29.715  29.607  1.00  0.00     0.060 A 
ATOM     30  C   UNL A   1      38.440  29.687  28.254  1.00  0.00     0.016 A 
ATOM     31  C   UNL A   1      39.055  29.708  30.605  1.00  0.00     0.016 A 
ATOM     32  C   UNL A   1      39.782  29.608  27.892  1.00  0.00     0.010 A 
ATOM     33  C   UNL A   1      40.403  29.616  30.239  1.00  0.00     0.010 A 
ATOM     34  C   UNL A   1      40.769  29.532  28.884  1.00  0.00    -0.014 A 
BRANCH  34  35
ATOM     35  C   UNL A   1      42.162  29.206  28.496  1.00  0.00     0.031 A 
ATOM     36  C   UNL A   1      42.501  27.786  28.127  1.00  0.00     0.074 A 
ATOM     37  C   UNL A   1      43.096  30.170  28.415  1.00  0.00     0.049 A 
ATOM     38  N   UNL A   1      43.649  27.275  27.767  1.00  0.00    -0.248 NA
ATOM     39  C   UNL A   1      41.395  26.814  28.165  1.00  0.00     0.031 C 
ATOM     40  C   UNL A   1      42.871  31.589  28.690  1.00  0.00     0.029 A 
ATOM     41  N   UNL A   1      44.424  30.101  28.069  1.00  0.00    -0.354 N 
ATOM     42  C   UNL A   1      43.404  25.929  27.523  1.00  0.00     0.074 A 
ATOM     43  C   UNL A   1      42.008  25.691  27.815  1.00  0.00     0.031 C 
ATOM     44  C   UNL A   1      44.022  32.258  28.499  1.00  0.00     0.029 A 
ATOM     45  C   UNL A   1      45.070  31.312  28.117  1.00  0.00     0.049 A 
ATOM     46  H   UNL A   1      44.869  29.262  27.812  1.00  0.00     0.167 HD
ATOM     47  C   UNL A   1      44.263  24.981  27.079  1.00  0.00     0.037 A 
ATOM     48  C   UNL A   1      46.364  31.620  27.892  1.00  0.00     0.037 A 
ATOM     49  C   UNL A   1      45.652  25.222  26.794  1.00  0.00     0.049 A 
ATOM     50  C   UNL A   1      47.323  30.525  27.499  1.00  0.00     0.074 A 
ATOM     51  C   UNL A   1      46.608  24.323  26.352  1.00  0.00     0.029 A 
ATOM     52  N   UNL A   1      46.286  26.448  26.919  1.00  0.00    -0.354 N 
ATOM     53  N   UNL A   1      47.079  29.254  27.280  1.00  0.00    -0.248 NA
ATOM     54  C   UNL A   1      48.733  30.903  27.327  1.00  0.00     0.031 C 
ATOM     55  C   UNL A   1      47.829  24.996  26.252  1.00  0.00     0.029 A 
ATOM     56  C   UNL A   1      47.624  26.325  26.585  1.00  0.00     0.049 A 
ATOM     57  H   UNL A   1      45.849  27.283  27.205  1.00  0.00     0.167 HD
ATOM     58  C   UNL A   1      48.299  28.689  26.921  1.00  0.00     0.074 A 
ATOM     59  C   UNL A   1      49.277  29.757  26.942  1.00  0.00     0.031 C 
ATOM     60  C   UNL A   1      48.584  27.401  26.603  1.00  0.00     0.037 A 
BRANCH  47  61
ATOM     61  C   UNL A   1      43.727  23.592  26.875  1.00  0.00     0.058 A 
ATOM     62  C   UNL A   1      43.488  22.735  27.960  1.00  0.00     0.135 A 
ATOM     63  C   UNL A   1      43.388  23.136  25.591  1.00  0.00     0.135 A 
ATOM     64  F   UNL A   1      43.812  23.115  29.206  1.00  0.00    -0.206 F 
ATOM     65  C   UNL A   1      42.941  21.469  27.779  1.00  0.00     0.059 A 
ATOM     66  C   UNL A   1      42.819  21.883  25.389  1.00  0.00     0.059 A 
ATOM     67  F   UNL A   1      43.602  23.916  24.519  1.00  0.00    -0.206 F 
ATOM     68  C   UNL A   1      42.604  21.054  26.489  1.00  0.00     0.060 A 
BRANCH  68  69
ATOM     69  S   UNL A   1      41.868  19.419  26.278  1.00  0.00     0.124 S 
ATOM     70  O   UNL A   1      42.258  18.762  27.522  1.00  0.00    -0.237 OA
ATOM     71  O   UNL A   1      40.450  19.731  26.142  1.00  0.00    -0.237 OA
ATOM     72  O   UNL A   1      42.514  18.907  25.073  1.00  0.00    -0.744 OA
ENDBRANCH  68  69
ENDBRANCH  47  61
BRANCH  48  73
ATOM     73  C   UNL A   1      46.834  33.022  28.032  1.00  0.00     0.058 A 
ATOM     74  C   UNL A   1      46.701  33.937  26.977  1.00  0.00     0.135 A 
ATOM     75  C   UNL A   1      47.433  33.477  29.218  1.00  0.00     0.135 A 
ATOM     76  F   UNL A   1      46.145  33.549  25.819  1.00  0.00    -0.206 F 
ATOM     77  C   UNL A   1      47.155  35.248  27.087  1.00  0.00     0.059 A 
ATOM     78  C   UNL A   1      47.874  34.788  29.360  1.00  0.00     0.059 A 
ATOM     79  F   UNL A   1      47.579  32.642  30.259  1.00  0.00    -0.206 F 
ATOM     80  C   UNL A   1      47.739  35.665  28.284  1.00  0.00     0.060 A 
BRANCH  80  81
ATOM     81  S   UNL A   1      48.288  37.379  28.428  1.00  0.00     0.124 S 
ATOM     82  O   UNL A   1      48.826  37.627  27.095  1.00  0.00    -0.237 OA
ATOM     83  O   UNL A   1      47.045  38.071  28.754  1.00  0.00    -0.237 OA
ATOM     84  O   UNL A   1      49.271  37.328  29.506  1.00  0.00    -0.744 OA
ENDBRANCH  80  81
ENDBRANCH  48  73
BRANCH  60  85
ATOM     85  C   UNL A   1      50.002  27.070  26.230  1.00  0.00     0.058 A 
ATOM     86  C   UNL A   1      50.904  26.548  27.169  1.00  0.00     0.135 A 
ATOM     87  C   UNL A   1      50.437  27.195  24.900  1.00  0.00     0.135 A 
ATOM     88  F   UNL A   1      50.540  26.413  28.454  1.00  0.00    -0.206 F 
ATOM     89  C   UNL A   1      52.194  26.172  26.805  1.00  0.00     0.059 A 
ATOM     90  C   UNL A   1      51.713  26.802  24.509  1.00  0.00     0.059 A 
ATOM     91  F   UNL A   1      49.608  27.679  23.961  1.00  0.00    -0.206 F 
ATOM     92  C   UNL A   1      52.587  26.297  25.471  1.00  0.00     0.060 A 
BRANCH  92  93
ATOM     93  S   UNL A   1      54.244  25.754  25.006  1.00  0.00     0.124 S 
ATOM     94  O   UNL A   1      54.140  24.308  25.174  1.00  0.00    -0.237 OA
ATOM     95  O   UNL A   1      54.350  26.226  23.629  1.00  0.00    -0.237 OA
ATOM     96  O   UNL A   1      55.109  26.436  25.964  1.00  0.00    -0.744 OA
ENDBRANCH  92  93
ENDBRANCH  60  85
ENDBRANCH  34  35
ENDBRANCH  27  29
ENDBRANCH  26  27
ENDBRANCH  25  26
ENDBRANCH   1  25
TORSDOF 18
ENDMDL
