MODEL 1
REMARK VINA RESULT:     -10.8      0.000      0.000
REMARK SMILES O=C(C[C@H]1CN(S(=O)(=O)c2ccc(F)c(F)c2)CCO1)OCCOCCOC(=O)c1ccc(-c2c3nc(c(-c4c(F)cc(S(=O)(=O)[O-])cc4F)c4ccc([nH]4)c(-c4c(F)cc(S(=O)(=O)[O-])cc4F)c4nc(c(-c5c(F)cc(S(=O)(=O)[O-])cc5F)c5ccc2[nH]5)C=C4)C=C3)cc1
REMARK SMILES IDX 24 1 23 2 22 3 21 4 2 5 1 6 3 7 4 8 5 9 20 10 6 11 19 12
REMARK SMILES IDX 18 13 7 14 8 15 9 16 10 17 11 18 17 19 12 20 15 21 13 22
REMARK SMILES IDX 16 23 14 24 25 25 26 26 27 27 28 28 29 29 30 30 31 31 95 32
REMARK SMILES IDX 32 33 94 34 33 35 34 36 35 37 88 38 36 39 93 40 87 41 89 42
REMARK SMILES IDX 37 43 92 44 86 45 85 46 38 48 72 49 51 50 71 51 52 52 55 53
REMARK SMILES IDX 70 54 90 55 53 56 54 57 69 59 91 60 56 61 39 62 40 63 49 64
REMARK SMILES IDX 41 65 42 66 48 67 50 68 43 69 44 70 45 71 46 72 47 73 73 74
REMARK SMILES IDX 74 75 83 76 75 77 76 78 82 79 84 80 77 81 78 82 79 83 80 84
REMARK SMILES IDX 81 85 57 86 58 87 67 88 59 89 60 90 66 91 68 92 61 93 62 94
REMARK SMILES IDX 63 95 64 96 65 97
REMARK H PARENT 89 47 55 58
REMARK Flexibility Score: inf
ROOT
ATOM      1  O   UNL A   1      40.220  20.864  26.299  1.00  0.00    -0.374 OA
ENDROOT
BRANCH   1   2
ATOM      2  C   UNL A   1      39.315  21.935  26.104  1.00  0.00     0.202 C 
BRANCH   2   3
ATOM      3  C   UNL A   1      37.970  21.588  25.474  1.00  0.00     0.261 C 
BRANCH   3   4
ATOM      4  O   UNL A   1      36.942  22.566  25.650  1.00  0.00    -0.463 OA
BRANCH   4   5
ATOM      5  C   UNL A   1      36.302  23.176  24.630  1.00  0.00     0.308 C 
ATOM      6  O   UNL A   1      36.635  22.944  23.467  1.00  0.00    -0.252 OA
BRANCH   5   7
ATOM      7  C   UNL A   1      35.165  24.133  24.908  1.00  0.00     0.156 C 
BRANCH   7   8
ATOM      8  C   UNL A   1      33.747  23.549  24.791  1.00  0.00     0.144 C 
ATOM      9  C   UNL A   1      32.624  24.359  25.449  1.00  0.00     0.135 C 
ATOM     10  O   UNL A   1      33.400  23.145  23.456  1.00  0.00    -0.375 OA
ATOM     11  N   UNL A   1      32.402  25.597  24.655  1.00  0.00    -0.193 NA
ATOM     12  C   UNL A   1      32.791  24.135  22.623  1.00  0.00     0.177 C 
ATOM     13  C   UNL A   1      31.866  25.155  23.310  1.00  0.00     0.131 C 
BRANCH  11  14
ATOM     14  S   UNL A   1      31.378  26.800  25.346  1.00  0.00     0.243 S 
ATOM     15  O   UNL A   1      30.604  27.322  24.243  1.00  0.00    -0.207 OA
ATOM     16  O   UNL A   1      30.732  26.188  26.492  1.00  0.00    -0.207 OA
BRANCH  14  17
ATOM     17  C   UNL A   1      32.363  28.155  25.971  1.00  0.00     0.085 A 
ATOM     18  C   UNL A   1      33.633  27.951  26.526  1.00  0.00     0.025 A 
ATOM     19  C   UNL A   1      31.763  29.418  26.087  1.00  0.00     0.064 A 
ATOM     20  C   UNL A   1      34.336  29.011  27.106  1.00  0.00     0.044 A 
ATOM     21  C   UNL A   1      32.448  30.453  26.723  1.00  0.00     0.160 A 
ATOM     22  C   UNL A   1      33.734  30.257  27.214  1.00  0.00     0.158 A 
ATOM     23  F   UNL A   1      31.846  31.638  26.890  1.00  0.00    -0.204 F 
ATOM     24  F   UNL A   1      34.388  31.251  27.828  1.00  0.00    -0.204 F 
ENDBRANCH  14  17
ENDBRANCH  11  14
ENDBRANCH   7   8
ENDBRANCH   5   7
ENDBRANCH   4   5
ENDBRANCH   3   4
ENDBRANCH   2   3
ENDBRANCH   1   2
BRANCH   1  25
ATOM     25  C   UNL A   1      41.430  21.163  27.000  1.00  0.00     0.202 C 
BRANCH  25  26
ATOM     26  C   UNL A   1      41.372  22.265  28.068  1.00  0.00     0.261 C 
BRANCH  26  27
ATOM     27  O   UNL A   1      42.387  23.283  27.917  1.00  0.00    -0.460 OA
BRANCH  27  28
ATOM     28  C   UNL A   1      42.121  24.218  26.971  1.00  0.00     0.338 C 
ATOM     29  O   UNL A   1      42.209  24.080  25.761  1.00  0.00    -0.246 OA
BRANCH  28  30
ATOM     30  C   UNL A   1      41.625  25.472  27.562  1.00  0.00     0.060 A 
ATOM     31  C   UNL A   1      42.472  26.586  27.593  1.00  0.00     0.016 A 
ATOM     32  C   UNL A   1      40.443  25.457  28.304  1.00  0.00     0.016 A 
ATOM     33  C   UNL A   1      42.167  27.668  28.426  1.00  0.00     0.010 A 
ATOM     34  C   UNL A   1      40.143  26.540  29.137  1.00  0.00     0.010 A 
ATOM     35  C   UNL A   1      41.028  27.627  29.243  1.00  0.00    -0.014 A 
BRANCH  35  36
ATOM     36  C   UNL A   1      40.847  28.619  30.337  1.00  0.00     0.031 A 
ATOM     37  C   UNL A   1      41.709  28.512  31.572  1.00  0.00     0.074 A 
ATOM     38  C   UNL A   1      39.930  29.598  30.246  1.00  0.00     0.049 A 
ATOM     39  N   UNL A   1      41.664  29.204  32.681  1.00  0.00    -0.248 NA
ATOM     40  C   UNL A   1      42.759  27.481  31.551  1.00  0.00     0.031 C 
ATOM     41  C   UNL A   1      39.053  29.832  29.100  1.00  0.00     0.029 A 
ATOM     42  N   UNL A   1      39.570  30.569  31.150  1.00  0.00    -0.354 N 
ATOM     43  C   UNL A   1      42.674  28.694  33.490  1.00  0.00     0.074 A 
ATOM     44  C   UNL A   1      43.292  27.610  32.757  1.00  0.00     0.031 C 
ATOM     45  C   UNL A   1      38.239  30.866  29.379  1.00  0.00     0.029 A 
ATOM     46  C   UNL A   1      38.517  31.347  30.732  1.00  0.00     0.049 A 
ATOM     47  H   UNL A   1      40.025  30.695  32.014  1.00  0.00     0.167 HD
ATOM     48  C   UNL A   1      43.063  29.098  34.725  1.00  0.00     0.037 A 
ATOM     49  C   UNL A   1      37.839  32.317  31.378  1.00  0.00     0.037 A 
ATOM     50  C   UNL A   1      42.445  30.172  35.460  1.00  0.00     0.049 A 
ATOM     51  C   UNL A   1      38.245  32.706  32.779  1.00  0.00     0.074 A 
ATOM     52  C   UNL A   1      42.765  30.651  36.720  1.00  0.00     0.029 A 
ATOM     53  N   UNL A   1      41.380  30.934  35.003  1.00  0.00    -0.354 N 
ATOM     54  N   UNL A   1      39.210  32.224  33.527  1.00  0.00    -0.248 NA
ATOM     55  C   UNL A   1      37.472  33.779  33.422  1.00  0.00     0.031 C 
ATOM     56  C   UNL A   1      41.870  31.678  37.039  1.00  0.00     0.029 A 
ATOM     57  C   UNL A   1      41.023  31.871  35.960  1.00  0.00     0.049 A 
ATOM     58  H   UNL A   1      40.941  30.825  34.129  1.00  0.00     0.167 HD
ATOM     59  C   UNL A   1      39.178  32.955  34.711  1.00  0.00     0.074 A 
ATOM     60  C   UNL A   1      38.107  33.919  34.577  1.00  0.00     0.031 C 
ATOM     61  C   UNL A   1      39.964  32.838  35.810  1.00  0.00     0.037 A 
BRANCH  48  62
ATOM     62  C   UNL A   1      44.211  28.367  35.366  1.00  0.00     0.058 A 
ATOM     63  C   UNL A   1      44.007  27.208  36.132  1.00  0.00     0.135 A 
ATOM     64  C   UNL A   1      45.533  28.806  35.183  1.00  0.00     0.135 A 
ATOM     65  F   UNL A   1      42.764  26.753  36.351  1.00  0.00    -0.206 F 
ATOM     66  C   UNL A   1      45.070  26.524  36.715  1.00  0.00     0.059 A 
ATOM     67  C   UNL A   1      46.613  28.122  35.735  1.00  0.00     0.059 A 
ATOM     68  F   UNL A   1      45.786  29.907  34.459  1.00  0.00    -0.206 F 
ATOM     69  C   UNL A   1      46.370  26.990  36.511  1.00  0.00     0.060 A 
BRANCH  69  70
ATOM     70  S   UNL A   1      47.738  26.087  37.270  1.00  0.00     0.124 S 
ATOM     71  O   UNL A   1      47.216  24.724  37.281  1.00  0.00    -0.237 OA
ATOM     72  O   UNL A   1      48.833  26.338  36.337  1.00  0.00    -0.237 OA
ATOM     73  O   UNL A   1      47.877  26.717  38.579  1.00  0.00    -0.744 OA
ENDBRANCH  69  70
ENDBRANCH  48  62
BRANCH  49  74
ATOM     74  C   UNL A   1      36.685  32.987  30.720  1.00  0.00     0.058 A 
ATOM     75  C   UNL A   1      36.879  33.899  29.672  1.00  0.00     0.135 A 
ATOM     76  C   UNL A   1      35.369  32.751  31.146  1.00  0.00     0.135 A 
ATOM     77  F   UNL A   1      38.119  34.168  29.236  1.00  0.00    -0.206 F 
ATOM     78  C   UNL A   1      35.812  34.574  29.087  1.00  0.00     0.059 A 
ATOM     79  C   UNL A   1      34.283  33.393  30.558  1.00  0.00     0.059 A 
ATOM     80  F   UNL A   1      35.129  31.882  32.140  1.00  0.00    -0.206 F 
ATOM     81  C   UNL A   1      34.517  34.314  29.539  1.00  0.00     0.060 A 
BRANCH  81  82
ATOM     82  S   UNL A   1      33.136  35.178  28.757  1.00  0.00     0.124 S 
ATOM     83  O   UNL A   1      33.793  36.370  28.234  1.00  0.00    -0.237 OA
ATOM     84  O   UNL A   1      32.689  34.207  27.763  1.00  0.00    -0.237 OA
ATOM     85  O   UNL A   1      32.211  35.400  29.864  1.00  0.00    -0.744 OA
ENDBRANCH  81  82
ENDBRANCH  49  74
BRANCH  61  86
ATOM     86  C   UNL A   1      39.732  33.807  36.940  1.00  0.00     0.058 A 
ATOM     87  C   UNL A   1      38.902  33.494  38.028  1.00  0.00     0.135 A 
ATOM     88  C   UNL A   1      40.381  35.053  36.951  1.00  0.00     0.135 A 
ATOM     89  F   UNL A   1      38.255  32.319  38.067  1.00  0.00    -0.206 F 
ATOM     90  C   UNL A   1      38.699  34.393  39.070  1.00  0.00     0.059 A 
ATOM     91  C   UNL A   1      40.216  35.956  37.997  1.00  0.00     0.059 A 
ATOM     92  F   UNL A   1      41.197  35.399  35.942  1.00  0.00    -0.206 F 
ATOM     93  C   UNL A   1      39.359  35.623  39.045  1.00  0.00     0.060 A 
BRANCH  93  94
ATOM     94  S   UNL A   1      39.103  36.776  40.412  1.00  0.00     0.124 S 
ATOM     95  O   UNL A   1      40.458  36.918  40.935  1.00  0.00    -0.237 OA
ATOM     96  O   UNL A   1      38.557  37.949  39.736  1.00  0.00    -0.237 OA
ATOM     97  O   UNL A   1      38.166  36.070  41.281  1.00  0.00    -0.744 OA
ENDBRANCH  93  94
ENDBRANCH  61  86
ENDBRANCH  35  36
ENDBRANCH  28  30
ENDBRANCH  27  28
ENDBRANCH  26  27
ENDBRANCH  25  26
ENDBRANCH   1  25
TORSDOF 20
ENDMDL
MODEL 2
REMARK VINA RESULT:     -10.8      6.250     12.076
REMARK SMILES O=C(C[C@H]1CN(S(=O)(=O)c2ccc(F)c(F)c2)CCO1)OCCOCCOC(=O)c1ccc(-c2c3nc(c(-c4c(F)cc(S(=O)(=O)[O-])cc4F)c4ccc([nH]4)c(-c4c(F)cc(S(=O)(=O)[O-])cc4F)c4nc(c(-c5c(F)cc(S(=O)(=O)[O-])cc5F)c5ccc2[nH]5)C=C4)C=C3)cc1
REMARK SMILES IDX 24 1 23 2 22 3 21 4 2 5 1 6 3 7 4 8 5 9 20 10 6 11 19 12
REMARK SMILES IDX 18 13 7 14 8 15 9 16 10 17 11 18 17 19 12 20 15 21 13 22
REMARK SMILES IDX 16 23 14 24 25 25 26 26 27 27 28 28 29 29 30 30 31 31 95 32
REMARK SMILES IDX 32 33 94 34 33 35 34 36 35 37 88 38 36 39 93 40 87 41 89 42
REMARK SMILES IDX 37 43 92 44 86 45 85 46 38 48 72 49 51 50 71 51 52 52 55 53
REMARK SMILES IDX 70 54 90 55 53 56 54 57 69 59 91 60 56 61 39 62 40 63 49 64
REMARK SMILES IDX 41 65 42 66 48 67 50 68 43 69 44 70 45 71 46 72 47 73 73 74
REMARK SMILES IDX 74 75 83 76 75 77 76 78 82 79 84 80 77 81 78 82 79 83 80 84
REMARK SMILES IDX 81 85 57 86 58 87 67 88 59 89 60 90 66 91 68 92 61 93 62 94
REMARK SMILES IDX 63 95 64 96 65 97
REMARK H PARENT 89 47 55 58
REMARK Flexibility Score: inf
ROOT
ATOM      1  O   UNL A   1      33.245  30.967  27.327  1.00  0.00    -0.374 OA
ENDROOT
BRANCH   1   2
ATOM      2  C   UNL A   1      33.083  29.672  26.779  1.00  0.00     0.202 C 
BRANCH   2   3
ATOM      3  C   UNL A   1      32.310  29.576  25.467  1.00  0.00     0.261 C 
BRANCH   3   4
ATOM      4  O   UNL A   1      31.448  28.442  25.346  1.00  0.00    -0.463 OA
BRANCH   4   5
ATOM      5  C   UNL A   1      31.371  27.671  24.241  1.00  0.00     0.308 C 
ATOM      6  O   UNL A   1      30.991  28.158  23.176  1.00  0.00    -0.252 OA
BRANCH   5   7
ATOM      7  C   UNL A   1      31.765  26.212  24.300  1.00  0.00     0.156 C 
BRANCH   7   8
ATOM      8  C   UNL A   1      30.629  25.216  24.587  1.00  0.00     0.144 C 
ATOM      9  C   UNL A   1      30.799  23.808  24.005  1.00  0.00     0.135 C 
ATOM     10  O   UNL A   1      30.233  25.178  25.967  1.00  0.00    -0.375 OA
ATOM     11  N   UNL A   1      31.878  23.111  24.757  1.00  0.00    -0.193 NA
ATOM     12  C   UNL A   1      30.923  24.249  26.808  1.00  0.00     0.177 C 
ATOM     13  C   UNL A   1      31.366  22.921  26.168  1.00  0.00     0.131 C 
BRANCH  11  14
ATOM     14  S   UNL A   1      32.440  21.614  24.114  1.00  0.00     0.243 S 
ATOM     15  O   UNL A   1      31.887  20.595  24.977  1.00  0.00    -0.207 OA
ATOM     16  O   UNL A   1      32.145  21.634  22.692  1.00  0.00    -0.207 OA
BRANCH  14  17
ATOM     17  C   UNL A   1      34.218  21.511  24.268  1.00  0.00     0.085 A 
ATOM     18  C   UNL A   1      34.839  20.494  25.007  1.00  0.00     0.025 A 
ATOM     19  C   UNL A   1      34.993  22.586  23.804  1.00  0.00     0.064 A 
ATOM     20  C   UNL A   1      36.223  20.498  25.202  1.00  0.00     0.044 A 
ATOM     21  C   UNL A   1      36.364  22.611  24.058  1.00  0.00     0.160 A 
ATOM     22  C   UNL A   1      36.979  21.566  24.737  1.00  0.00     0.158 A 
ATOM     23  F   UNL A   1      37.087  23.671  23.671  1.00  0.00    -0.204 F 
ATOM     24  F   UNL A   1      38.295  21.595  24.984  1.00  0.00    -0.204 F 
ENDBRANCH  14  17
ENDBRANCH  11  14
ENDBRANCH   7   8
ENDBRANCH   5   7
ENDBRANCH   4   5
ENDBRANCH   3   4
ENDBRANCH   2   3
ENDBRANCH   1   2
BRANCH   1  25
ATOM     25  C   UNL A   1      34.575  31.349  27.692  1.00  0.00     0.202 C 
BRANCH  25  26
ATOM     26  C   UNL A   1      34.757  32.065  29.037  1.00  0.00     0.261 C 
BRANCH  26  27
ATOM     27  O   UNL A   1      35.555  31.328  29.991  1.00  0.00    -0.460 OA
BRANCH  27  28
ATOM     28  C   UNL A   1      36.808  31.810  30.181  1.00  0.00     0.338 C 
ATOM     29  O   UNL A   1      37.111  32.916  30.603  1.00  0.00    -0.246 OA
BRANCH  28  30
ATOM     30  C   UNL A   1      37.838  30.802  29.877  1.00  0.00     0.060 A 
ATOM     31  C   UNL A   1      38.733  30.425  30.885  1.00  0.00     0.016 A 
ATOM     32  C   UNL A   1      38.070  30.443  28.549  1.00  0.00     0.016 A 
ATOM     33  C   UNL A   1      39.906  29.740  30.551  1.00  0.00     0.010 A 
ATOM     34  C   UNL A   1      39.245  29.758  28.219  1.00  0.00     0.010 A 
ATOM     35  C   UNL A   1      40.194  29.449  29.210  1.00  0.00    -0.014 A 
BRANCH  35  36
ATOM     36  C   UNL A   1      41.552  28.993  28.810  1.00  0.00     0.031 A 
ATOM     37  C   UNL A   1      42.672  30.003  28.739  1.00  0.00     0.074 A 
ATOM     38  C   UNL A   1      41.794  27.705  28.508  1.00  0.00     0.049 A 
ATOM     39  N   UNL A   1      43.905  29.851  28.329  1.00  0.00    -0.248 NA
ATOM     40  C   UNL A   1      42.353  31.368  29.185  1.00  0.00     0.031 C 
ATOM     41  C   UNL A   1      40.812  26.624  28.563  1.00  0.00     0.029 A 
ATOM     42  N   UNL A   1      42.945  27.093  28.072  1.00  0.00    -0.354 N 
ATOM     43  C   UNL A   1      44.509  31.097  28.466  1.00  0.00     0.074 A 
ATOM     44  C   UNL A   1      43.495  32.002  28.962  1.00  0.00     0.031 C 
ATOM     45  C   UNL A   1      41.396  25.484  28.152  1.00  0.00     0.029 A 
ATOM     46  C   UNL A   1      42.783  25.761  27.778  1.00  0.00     0.049 A 
ATOM     47  H   UNL A   1      43.804  27.566  27.979  1.00  0.00     0.167 HD
ATOM     48  C   UNL A   1      45.792  31.455  28.214  1.00  0.00     0.037 A 
ATOM     49  C   UNL A   1      43.647  24.874  27.244  1.00  0.00     0.037 A 
ATOM     50  C   UNL A   1      46.801  30.557  27.712  1.00  0.00     0.049 A 
ATOM     51  C   UNL A   1      45.053  25.310  26.908  1.00  0.00     0.074 A 
ATOM     52  C   UNL A   1      48.128  30.828  27.420  1.00  0.00     0.029 A 
ATOM     53  N   UNL A   1      46.597  29.216  27.426  1.00  0.00    -0.354 N 
ATOM     54  N   UNL A   1      45.612  26.487  27.054  1.00  0.00    -0.248 NA
ATOM     55  C   UNL A   1      45.947  24.289  26.339  1.00  0.00     0.031 C 
ATOM     56  C   UNL A   1      48.715  29.659  26.924  1.00  0.00     0.029 A 
ATOM     57  C   UNL A   1      47.769  28.648  26.951  1.00  0.00     0.049 A 
ATOM     58  H   UNL A   1      45.745  28.737  27.542  1.00  0.00     0.167 HD
ATOM     59  C   UNL A   1      46.929  26.340  26.627  1.00  0.00     0.074 A 
ATOM     60  C   UNL A   1      47.086  24.958  26.226  1.00  0.00     0.031 C 
ATOM     61  C   UNL A   1      47.919  27.266  26.570  1.00  0.00     0.037 A 
BRANCH  48  62
ATOM     62  C   UNL A   1      46.178  32.886  28.472  1.00  0.00     0.058 A 
ATOM     63  C   UNL A   1      46.063  33.868  27.475  1.00  0.00     0.135 A 
ATOM     64  C   UNL A   1      46.633  33.290  29.738  1.00  0.00     0.135 A 
ATOM     65  F   UNL A   1      45.647  33.535  26.243  1.00  0.00    -0.206 F 
ATOM     66  C   UNL A   1      46.408  35.194  27.716  1.00  0.00     0.059 A 
ATOM     67  C   UNL A   1      46.959  34.616  30.008  1.00  0.00     0.059 A 
ATOM     68  F   UNL A   1      46.762  32.393  30.728  1.00  0.00    -0.206 F 
ATOM     69  C   UNL A   1      46.857  35.559  28.987  1.00  0.00     0.060 A 
BRANCH  69  70
ATOM     70  S   UNL A   1      47.295  37.285  29.284  1.00  0.00     0.124 S 
ATOM     71  O   UNL A   1      46.081  37.787  29.921  1.00  0.00    -0.237 OA
ATOM     72  O   UNL A   1      48.462  37.166  30.153  1.00  0.00    -0.237 OA
ATOM     73  O   UNL A   1      47.562  37.804  27.947  1.00  0.00    -0.744 OA
ENDBRANCH  69  70
ENDBRANCH  48  62
BRANCH  49  74
ATOM     74  C   UNL A   1      43.210  23.478  26.971  1.00  0.00     0.058 A 
ATOM     75  C   UNL A   1      43.058  22.549  28.011  1.00  0.00     0.135 A 
ATOM     76  C   UNL A   1      42.965  23.037  25.661  1.00  0.00     0.135 A 
ATOM     77  F   UNL A   1      43.293  22.918  29.280  1.00  0.00    -0.206 F 
ATOM     78  C   UNL A   1      42.706  21.227  27.762  1.00  0.00     0.059 A 
ATOM     79  C   UNL A   1      42.584  21.726  25.389  1.00  0.00     0.059 A 
ATOM     80  F   UNL A   1      43.089  23.888  24.630  1.00  0.00    -0.206 F 
ATOM     81  C   UNL A   1      42.472  20.825  26.446  1.00  0.00     0.060 A 
BRANCH  81  82
ATOM     82  S   UNL A   1      41.991  19.111  26.134  1.00  0.00     0.124 S 
ATOM     83  O   UNL A   1      42.854  18.763  25.012  1.00  0.00    -0.237 OA
ATOM     84  O   UNL A   1      42.308  18.467  27.406  1.00  0.00    -0.237 OA
ATOM     85  O   UNL A   1      40.567  19.213  25.830  1.00  0.00    -0.744 OA
ENDBRANCH  81  82
ENDBRANCH  49  74
BRANCH  61  86
ATOM     86  C   UNL A   1      49.276  26.808  26.104  1.00  0.00     0.058 A 
ATOM     87  C   UNL A   1      49.729  27.041  24.796  1.00  0.00     0.135 A 
ATOM     88  C   UNL A   1      50.150  26.161  26.992  1.00  0.00     0.135 A 
ATOM     89  F   UNL A   1      48.934  27.653  23.904  1.00  0.00    -0.206 F 
ATOM     90  C   UNL A   1      50.988  26.621  24.376  1.00  0.00     0.059 A 
ATOM     91  C   UNL A   1      51.424  25.757  26.603  1.00  0.00     0.059 A 
ATOM     92  F   UNL A   1      49.774  25.924  28.259  1.00  0.00    -0.206 F 
ATOM     93  C   UNL A   1      51.828  25.977  25.287  1.00  0.00     0.060 A 
BRANCH  93  94
ATOM     94  S   UNL A   1      53.467  25.452  24.737  1.00  0.00     0.124 S 
ATOM     95  O   UNL A   1      54.327  26.419  25.410  1.00  0.00    -0.237 OA
ATOM     96  O   UNL A   1      53.541  24.082  25.236  1.00  0.00    -0.237 OA
ATOM     97  O   UNL A   1      53.395  25.579  23.285  1.00  0.00    -0.744 OA
ENDBRANCH  93  94
ENDBRANCH  61  86
ENDBRANCH  35  36
ENDBRANCH  28  30
ENDBRANCH  27  28
ENDBRANCH  26  27
ENDBRANCH  25  26
ENDBRANCH   1  25
TORSDOF 20
ENDMDL
MODEL 3
REMARK VINA RESULT:     -10.3      1.763      2.431
REMARK SMILES O=C(C[C@H]1CN(S(=O)(=O)c2ccc(F)c(F)c2)CCO1)OCCOCCOC(=O)c1ccc(-c2c3nc(c(-c4c(F)cc(S(=O)(=O)[O-])cc4F)c4ccc([nH]4)c(-c4c(F)cc(S(=O)(=O)[O-])cc4F)c4nc(c(-c5c(F)cc(S(=O)(=O)[O-])cc5F)c5ccc2[nH]5)C=C4)C=C3)cc1
REMARK SMILES IDX 24 1 23 2 22 3 21 4 2 5 1 6 3 7 4 8 5 9 20 10 6 11 19 12
REMARK SMILES IDX 18 13 7 14 8 15 9 16 10 17 11 18 17 19 12 20 15 21 13 22
REMARK SMILES IDX 16 23 14 24 25 25 26 26 27 27 28 28 29 29 30 30 31 31 95 32
REMARK SMILES IDX 32 33 94 34 33 35 34 36 35 37 88 38 36 39 93 40 87 41 89 42
REMARK SMILES IDX 37 43 92 44 86 45 85 46 38 48 72 49 51 50 71 51 52 52 55 53
REMARK SMILES IDX 70 54 90 55 53 56 54 57 69 59 91 60 56 61 39 62 40 63 49 64
REMARK SMILES IDX 41 65 42 66 48 67 50 68 43 69 44 70 45 71 46 72 47 73 73 74
REMARK SMILES IDX 74 75 83 76 75 77 76 78 82 79 84 80 77 81 78 82 79 83 80 84
REMARK SMILES IDX 81 85 57 86 58 87 67 88 59 89 60 90 66 91 68 92 61 93 62 94
REMARK SMILES IDX 63 95 64 96 65 97
REMARK H PARENT 89 47 55 58
REMARK Flexibility Score: inf
ROOT
ATOM      1  O   UNL A   1      40.552  20.740  26.197  1.00  0.00    -0.374 OA
ENDROOT
BRANCH   1   2
ATOM      2  C   UNL A   1      39.441  21.590  26.414  1.00  0.00     0.202 C 
BRANCH   2   3
ATOM      3  C   UNL A   1      38.301  21.495  25.404  1.00  0.00     0.261 C 
BRANCH   3   4
ATOM      4  O   UNL A   1      37.039  21.990  25.860  1.00  0.00    -0.463 OA
BRANCH   4   5
ATOM      5  C   UNL A   1      35.880  21.306  25.751  1.00  0.00     0.308 C 
ATOM      6  O   UNL A   1      35.700  20.547  24.798  1.00  0.00    -0.252 OA
BRANCH   5   7
ATOM      7  C   UNL A   1      34.805  21.457  26.803  1.00  0.00     0.156 C 
BRANCH   7   8
ATOM      8  C   UNL A   1      34.147  22.844  26.903  1.00  0.00     0.144 C 
ATOM      9  C   UNL A   1      34.161  23.694  25.628  1.00  0.00     0.135 C 
ATOM     10  O   UNL A   1      32.846  22.820  27.513  1.00  0.00    -0.375 OA
ATOM     11  N   UNL A   1      33.222  23.092  24.645  1.00  0.00    -0.193 NA
ATOM     12  C   UNL A   1      31.730  22.629  26.638  1.00  0.00     0.177 C 
ATOM     13  C   UNL A   1      31.833  23.239  25.229  1.00  0.00     0.131 C 
BRANCH  11  14
ATOM     14  S   UNL A   1      33.266  23.711  23.036  1.00  0.00     0.243 S 
ATOM     15  O   UNL A   1      34.667  23.757  22.683  1.00  0.00    -0.207 OA
ATOM     16  O   UNL A   1      32.323  22.926  22.261  1.00  0.00    -0.207 OA
BRANCH  14  17
ATOM     17  C   UNL A   1      32.673  25.397  23.013  1.00  0.00     0.085 A 
ATOM     18  C   UNL A   1      31.438  25.739  22.446  1.00  0.00     0.025 A 
ATOM     19  C   UNL A   1      33.554  26.421  23.395  1.00  0.00     0.064 A 
ATOM     20  C   UNL A   1      31.046  27.077  22.344  1.00  0.00     0.044 A 
ATOM     21  C   UNL A   1      33.178  27.754  23.232  1.00  0.00     0.160 A 
ATOM     22  C   UNL A   1      31.926  28.081  22.726  1.00  0.00     0.158 A 
ATOM     23  F   UNL A   1      34.049  28.727  23.535  1.00  0.00    -0.204 F 
ATOM     24  F   UNL A   1      31.569  29.362  22.566  1.00  0.00    -0.204 F 
ENDBRANCH  14  17
ENDBRANCH  11  14
ENDBRANCH   7   8
ENDBRANCH   5   7
ENDBRANCH   4   5
ENDBRANCH   3   4
ENDBRANCH   2   3
ENDBRANCH   1   2
BRANCH   1  25
ATOM     25  C   UNL A   1      41.806  21.171  26.733  1.00  0.00     0.202 C 
BRANCH  25  26
ATOM     26  C   UNL A   1      42.654  22.115  25.870  1.00  0.00     0.261 C 
BRANCH  26  27
ATOM     27  O   UNL A   1      41.969  23.327  25.479  1.00  0.00    -0.460 OA
BRANCH  27  28
ATOM     28  C   UNL A   1      42.711  24.459  25.579  1.00  0.00     0.338 C 
ATOM     29  O   UNL A   1      43.789  24.676  25.047  1.00  0.00    -0.246 OA
BRANCH  28  30
ATOM     30  C   UNL A   1      42.034  25.492  26.380  1.00  0.00     0.060 A 
ATOM     31  C   UNL A   1      42.480  26.816  26.292  1.00  0.00     0.016 A 
ATOM     32  C   UNL A   1      41.153  25.104  27.390  1.00  0.00     0.016 A 
ATOM     33  C   UNL A   1      42.095  27.745  27.265  1.00  0.00     0.010 A 
ATOM     34  C   UNL A   1      40.771  26.036  28.362  1.00  0.00     0.010 A 
ATOM     35  C   UNL A   1      41.281  27.346  28.335  1.00  0.00    -0.014 A 
BRANCH  35  36
ATOM     36  C   UNL A   1      41.105  28.228  29.520  1.00  0.00     0.031 A 
ATOM     37  C   UNL A   1      41.988  28.019  30.726  1.00  0.00     0.074 A 
ATOM     38  C   UNL A   1      40.173  29.198  29.534  1.00  0.00     0.049 A 
ATOM     39  N   UNL A   1      41.952  28.603  31.896  1.00  0.00    -0.248 NA
ATOM     40  C   UNL A   1      43.051  27.009  30.592  1.00  0.00     0.031 C 
ATOM     41  C   UNL A   1      39.275  29.526  28.429  1.00  0.00     0.029 A 
ATOM     42  N   UNL A   1      39.816  30.075  30.531  1.00  0.00    -0.354 N 
ATOM     43  C   UNL A   1      42.982  28.034  32.638  1.00  0.00     0.074 A 
ATOM     44  C   UNL A   1      43.602  27.032  31.797  1.00  0.00     0.031 C 
ATOM     45  C   UNL A   1      38.452  30.517  28.817  1.00  0.00     0.029 A 
ATOM     46  C   UNL A   1      38.746  30.873  30.205  1.00  0.00     0.049 A 
ATOM     47  H   UNL A   1      40.282  30.126  31.396  1.00  0.00     0.167 HD
ATOM     48  C   UNL A   1      43.385  28.326  33.899  1.00  0.00     0.037 A 
ATOM     49  C   UNL A   1      38.066  31.768  30.949  1.00  0.00     0.037 A 
ATOM     50  C   UNL A   1      42.766  29.317  34.741  1.00  0.00     0.049 A 
ATOM     51  C   UNL A   1      38.490  32.030  32.374  1.00  0.00     0.074 A 
ATOM     52  C   UNL A   1      43.100  29.680  36.035  1.00  0.00     0.029 A 
ATOM     53  N   UNL A   1      41.684  30.103  34.374  1.00  0.00    -0.354 N 
ATOM     54  N   UNL A   1      39.473  31.494  33.058  1.00  0.00    -0.248 NA
ATOM     55  C   UNL A   1      37.713  33.027  33.127  1.00  0.00     0.031 C 
ATOM     56  C   UNL A   1      42.197  30.659  36.463  1.00  0.00     0.029 A 
ATOM     57  C   UNL A   1      41.330  30.941  35.420  1.00  0.00     0.049 A 
ATOM     58  H   UNL A   1      41.232  30.070  33.500  1.00  0.00     0.167 HD
ATOM     59  C   UNL A   1      39.451  32.110  34.307  1.00  0.00     0.074 A 
ATOM     60  C   UNL A   1      38.365  33.066  34.280  1.00  0.00     0.031 C 
ATOM     61  C   UNL A   1      40.256  31.902  35.378  1.00  0.00     0.037 A 
BRANCH  48  62
ATOM     62  C   UNL A   1      44.554  27.555  34.451  1.00  0.00     0.058 A 
ATOM     63  C   UNL A   1      45.852  28.091  34.453  1.00  0.00     0.135 A 
ATOM     64  C   UNL A   1      44.371  26.282  35.017  1.00  0.00     0.135 A 
ATOM     65  F   UNL A   1      46.086  29.296  33.911  1.00  0.00    -0.206 F 
ATOM     66  C   UNL A   1      46.931  27.383  34.974  1.00  0.00     0.059 A 
ATOM     67  C   UNL A   1      45.432  25.568  35.568  1.00  0.00     0.059 A 
ATOM     68  F   UNL A   1      43.152  25.722  35.043  1.00  0.00    -0.206 F 
ATOM     69  C   UNL A   1      46.711  26.121  35.528  1.00  0.00     0.060 A 
BRANCH  69  70
ATOM     70  S   UNL A   1      48.121  25.219  36.205  1.00  0.00     0.124 S 
ATOM     71  O   UNL A   1      47.477  24.015  36.719  1.00  0.00    -0.237 OA
ATOM     72  O   UNL A   1      48.965  25.032  35.029  1.00  0.00    -0.237 OA
ATOM     73  O   UNL A   1      48.653  26.127  37.216  1.00  0.00    -0.744 OA
ENDBRANCH  69  70
ENDBRANCH  48  62
BRANCH  49  74
ATOM     74  C   UNL A   1      36.892  32.480  30.374  1.00  0.00     0.058 A 
ATOM     75  C   UNL A   1      37.057  33.490  29.414  1.00  0.00     0.135 A 
ATOM     76  C   UNL A   1      35.587  32.185  30.796  1.00  0.00     0.135 A 
ATOM     77  F   UNL A   1      38.286  33.818  28.988  1.00  0.00    -0.206 F 
ATOM     78  C   UNL A   1      35.972  34.201  28.912  1.00  0.00     0.059 A 
ATOM     79  C   UNL A   1      34.483  32.864  30.287  1.00  0.00     0.059 A 
ATOM     80  F   UNL A   1      35.374  31.222  31.706  1.00  0.00    -0.206 F 
ATOM     81  C   UNL A   1      34.688  33.881  29.356  1.00  0.00     0.060 A 
BRANCH  81  82
ATOM     82  S   UNL A   1      33.283  34.794  28.680  1.00  0.00     0.124 S 
ATOM     83  O   UNL A   1      33.940  35.961  28.104  1.00  0.00    -0.237 OA
ATOM     84  O   UNL A   1      32.726  33.839  27.726  1.00  0.00    -0.237 OA
ATOM     85  O   UNL A   1      32.454  35.050  29.854  1.00  0.00    -0.744 OA
ENDBRANCH  81  82
ENDBRANCH  49  74
BRANCH  61  86
ATOM     86  C   UNL A   1      40.030  32.758  36.597  1.00  0.00     0.058 A 
ATOM     87  C   UNL A   1      39.015  32.474  37.525  1.00  0.00     0.135 A 
ATOM     88  C   UNL A   1      40.867  33.854  36.859  1.00  0.00     0.135 A 
ATOM     89  F   UNL A   1      38.185  31.439  37.322  1.00  0.00    -0.206 F 
ATOM     90  C   UNL A   1      38.818  33.266  38.652  1.00  0.00     0.059 A 
ATOM     91  C   UNL A   1      40.706  34.643  37.995  1.00  0.00     0.059 A 
ATOM     92  F   UNL A   1      41.862  34.164  36.013  1.00  0.00    -0.206 F 
ATOM     93  C   UNL A   1      39.668  34.350  38.877  1.00  0.00     0.060 A 
BRANCH  93  94
ATOM     94  S   UNL A   1      39.415  35.361  40.353  1.00  0.00     0.124 S 
ATOM     95  O   UNL A   1      38.446  34.561  41.095  1.00  0.00    -0.237 OA
ATOM     96  O   UNL A   1      40.757  35.423  40.926  1.00  0.00    -0.237 OA
ATOM     97  O   UNL A   1      38.911  36.622  39.819  1.00  0.00    -0.744 OA
ENDBRANCH  93  94
ENDBRANCH  61  86
ENDBRANCH  35  36
ENDBRANCH  28  30
ENDBRANCH  27  28
ENDBRANCH  26  27
ENDBRANCH  25  26
ENDBRANCH   1  25
TORSDOF 20
ENDMDL
