MODEL 1
REMARK VINA RESULT:     -11.2      0.000      0.000
REMARK SMILES CC[C@H]1CCCCN1S(=O)(=O)c1ccc2oc(C(=O)OCCOCCOC(=O)c3ccc(-c4c5nc(c(-c6c(F)cc(S(=O)(=O)[O-])cc6F)c6ccc([nH]6)c(-c6c(F)cc(S(=O)(=O)[O-])cc6F)c6nc(c(-c7c(F)cc(S(=O)(=O)[O-])cc7F)c7ccc4[nH]7)C=C6)C=C5)cc3)c(C)c2c1
REMARK SMILES IDX 23 1 22 2 21 3 20 4 18 5 19 6 17 7 12 8 13 9 98 10 14 11
REMARK SMILES IDX 97 12 15 13 95 14 16 15 96 16 9 17 10 18 11 19 8 20 3 21
REMARK SMILES IDX 4 22 5 23 7 24 6 25 2 26 1 27 24 28 25 29 26 30 27 31 28 32
REMARK SMILES IDX 29 33 30 34 94 35 31 36 93 37 32 38 33 39 34 40 87 41 35 42
REMARK SMILES IDX 92 43 86 44 88 45 36 46 91 47 85 48 84 49 37 51 71 52 50 53
REMARK SMILES IDX 70 54 51 55 54 56 69 57 89 58 52 59 53 60 68 62 90 63 55 64
REMARK SMILES IDX 38 65 39 66 48 67 40 68 41 69 47 70 49 71 42 72 43 73 44 74
REMARK SMILES IDX 45 75 46 76 72 77 73 78 82 79 74 80 75 81 81 82 83 83 76 84
REMARK SMILES IDX 77 85 78 86 79 87 80 88 56 89 57 90 66 91 58 92 59 93 65 94
REMARK SMILES IDX 67 95 60 96 61 97 62 98 63 99 64 100
REMARK H PARENT 88 50 54 61
REMARK Flexibility Score: inf
ROOT
ATOM      1  O   UNL A   1      35.246  33.528  29.243  1.00  0.00    -0.374 OA
ENDROOT
BRANCH   1   2
ATOM      2  C   UNL A   1      34.196  33.111  28.366  1.00  0.00     0.202 C 
BRANCH   2   3
ATOM      3  C   UNL A   1      34.422  31.739  27.726  1.00  0.00     0.261 C 
BRANCH   3   4
ATOM      4  O   UNL A   1      33.257  30.919  27.911  1.00  0.00    -0.457 OA
BRANCH   4   5
ATOM      5  C   UNL A   1      32.369  30.892  26.879  1.00  0.00     0.374 C 
ATOM      6  O   UNL A   1      31.597  31.802  26.603  1.00  0.00    -0.242 OA
BRANCH   5   7
ATOM      7  C   UNL A   1      32.538  29.675  26.109  1.00  0.00     0.215 A 
ATOM      8  C   UNL A   1      33.028  26.032  23.387  1.00  0.00     0.083 A 
ATOM      9  C   UNL A   1      33.620  27.012  22.582  1.00  0.00     0.025 A 
ATOM     10  C   UNL A   1      32.645  26.312  24.709  1.00  0.00     0.034 A 
ATOM     11  C   UNL A   1      33.765  28.324  23.053  1.00  0.00     0.049 A 
ATOM     12  C   UNL A   1      32.676  27.643  25.149  1.00  0.00     0.025 A 
ATOM     13  C   UNL A   1      33.237  28.595  24.315  1.00  0.00     0.135 A 
ATOM     14  C   UNL A   1      32.219  28.333  26.315  1.00  0.00     0.010 A 
ATOM     15  O   UNL A   1      33.181  29.812  24.902  1.00  0.00    -0.449 OA
ATOM     16  C   UNL A   1      31.489  27.691  27.443  1.00  0.00     0.049 C 
BRANCH   8  17
ATOM     17  S   UNL A   1      32.840  24.358  22.807  1.00  0.00     0.243 S 
ATOM     18  O   UNL A   1      33.320  24.362  21.443  1.00  0.00    -0.207 OA
ATOM     19  O   UNL A   1      31.488  23.941  23.124  1.00  0.00    -0.207 OA
BRANCH  17  20
ATOM     20  N   UNL A   1      33.911  23.415  23.764  1.00  0.00    -0.195 NA
ATOM     21  C   UNL A   1      33.272  22.295  24.547  1.00  0.00     0.073 C 
ATOM     22  C   UNL A   1      34.260  21.882  25.661  1.00  0.00     0.020 C 
ATOM     23  C   UNL A   1      35.609  21.442  25.099  1.00  0.00     0.003 C 
ATOM     24  C   UNL A   1      35.219  23.035  23.167  1.00  0.00     0.103 C 
ATOM     25  C   UNL A   1      36.194  22.547  24.235  1.00  0.00     0.017 C 
BRANCH  21  26
ATOM     26  C   UNL A   1      32.874  21.052  23.720  1.00  0.00     0.017 C 
ATOM     27  C   UNL A   1      32.491  19.813  24.516  1.00  0.00     0.005 C 
ENDBRANCH  21  26
ENDBRANCH  17  20
ENDBRANCH   8  17
ENDBRANCH   5   7
ENDBRANCH   4   5
ENDBRANCH   3   4
ENDBRANCH   2   3
ENDBRANCH   1   2
BRANCH   1  28
ATOM     28  C   UNL A   1      35.171  33.055  30.590  1.00  0.00     0.202 C 
BRANCH  28  29
ATOM     29  C   UNL A   1      36.521  32.766  31.253  1.00  0.00     0.261 C 
BRANCH  29  30
ATOM     30  O   UNL A   1      36.508  31.491  31.922  1.00  0.00    -0.460 OA
BRANCH  30  31
ATOM     31  C   UNL A   1      36.650  30.421  31.102  1.00  0.00     0.338 C 
ATOM     32  O   UNL A   1      35.762  29.713  30.659  1.00  0.00    -0.246 OA
BRANCH  31  33
ATOM     33  C   UNL A   1      38.053  30.312  30.651  1.00  0.00     0.060 A 
ATOM     34  C   UNL A   1      38.277  30.281  29.269  1.00  0.00     0.016 A 
ATOM     35  C   UNL A   1      39.119  30.176  31.545  1.00  0.00     0.016 A 
ATOM     36  C   UNL A   1      39.559  30.052  28.775  1.00  0.00     0.010 A 
ATOM     37  C   UNL A   1      40.406  29.942  31.046  1.00  0.00     0.010 A 
ATOM     38  C   UNL A   1      40.624  29.838  29.660  1.00  0.00    -0.014 A 
BRANCH  38  39
ATOM     39  C   UNL A   1      41.920  29.353  29.126  1.00  0.00     0.031 A 
ATOM     40  C   UNL A   1      43.083  30.307  29.058  1.00  0.00     0.074 A 
ATOM     41  C   UNL A   1      42.077  28.068  28.759  1.00  0.00     0.049 A 
ATOM     42  N   UNL A   1      44.306  30.095  28.648  1.00  0.00    -0.248 NA
ATOM     43  C   UNL A   1      42.830  31.685  29.512  1.00  0.00     0.031 C 
ATOM     44  C   UNL A   1      41.036  27.042  28.807  1.00  0.00     0.029 A 
ATOM     45  N   UNL A   1      43.178  27.409  28.274  1.00  0.00    -0.354 N 
ATOM     46  C   UNL A   1      44.970  31.309  28.792  1.00  0.00     0.074 A 
ATOM     47  C   UNL A   1      44.004  32.261  29.297  1.00  0.00     0.031 C 
ATOM     48  C   UNL A   1      41.547  25.882  28.361  1.00  0.00     0.029 A 
ATOM     49  C   UNL A   1      42.945  26.087  27.980  1.00  0.00     0.049 A 
ATOM     50  H   UNL A   1      44.054  27.841  28.148  1.00  0.00     0.167 HD
ATOM     51  C   UNL A   1      46.268  31.601  28.538  1.00  0.00     0.037 A 
ATOM     52  C   UNL A   1      43.762  25.153  27.456  1.00  0.00     0.037 A 
ATOM     53  C   UNL A   1      47.228  30.651  28.041  1.00  0.00     0.049 A 
ATOM     54  C   UNL A   1      45.192  25.511  27.147  1.00  0.00     0.074 A 
ATOM     55  C   UNL A   1      48.570  30.848  27.765  1.00  0.00     0.029 A 
ATOM     56  N   UNL A   1      46.949  29.326  27.743  1.00  0.00    -0.354 N 
ATOM     57  N   UNL A   1      45.810  26.656  27.310  1.00  0.00    -0.248 NA
ATOM     58  C   UNL A   1      46.040  24.445  26.594  1.00  0.00     0.031 C 
ATOM     59  C   UNL A   1      49.094  29.650  27.264  1.00  0.00     0.029 A 
ATOM     60  C   UNL A   1      48.089  28.696  27.271  1.00  0.00     0.049 A 
ATOM     61  H   UNL A   1      46.070  28.896  27.850  1.00  0.00     0.167 HD
ATOM     62  C   UNL A   1      47.124  26.441  26.905  1.00  0.00     0.074 A 
ATOM     63  C   UNL A   1      47.214  25.053  26.500  1.00  0.00     0.031 C 
ATOM     64  C   UNL A   1      48.164  27.312  26.877  1.00  0.00     0.037 A 
BRANCH  51  65
ATOM     65  C   UNL A   1      46.719  33.014  28.778  1.00  0.00     0.058 A 
ATOM     66  C   UNL A   1      46.647  33.993  27.774  1.00  0.00     0.135 A 
ATOM     67  C   UNL A   1      47.207  33.400  30.037  1.00  0.00     0.135 A 
ATOM     68  F   UNL A   1      46.206  33.672  26.548  1.00  0.00    -0.206 F 
ATOM     69  C   UNL A   1      47.063  35.301  28.003  1.00  0.00     0.059 A 
ATOM     70  C   UNL A   1      47.607  34.708  30.295  1.00  0.00     0.059 A 
ATOM     71  F   UNL A   1      47.301  32.502  31.030  1.00  0.00    -0.206 F 
ATOM     72  C   UNL A   1      47.544  35.648  29.267  1.00  0.00     0.060 A 
BRANCH  72  73
ATOM     73  S   UNL A   1      48.079  37.349  29.552  1.00  0.00     0.124 S 
ATOM     74  O   UNL A   1      48.224  37.367  31.004  1.00  0.00    -0.237 OA
ATOM     75  O   UNL A   1      49.321  37.420  28.790  1.00  0.00    -0.237 OA
ATOM     76  O   UNL A   1      46.975  38.144  29.023  1.00  0.00    -0.744 OA
ENDBRANCH  72  73
ENDBRANCH  51  65
BRANCH  52  77
ATOM     77  C   UNL A   1      43.247  23.785  27.186  1.00  0.00     0.058 A 
ATOM     78  C   UNL A   1      42.799  23.414  25.910  1.00  0.00     0.135 A 
ATOM     79  C   UNL A   1      43.195  22.820  28.204  1.00  0.00     0.135 A 
ATOM     80  F   UNL A   1      42.820  24.305  24.907  1.00  0.00    -0.206 F 
ATOM     81  C   UNL A   1      42.301  22.141  25.654  1.00  0.00     0.059 A 
ATOM     82  C   UNL A   1      42.723  21.533  27.968  1.00  0.00     0.059 A 
ATOM     83  F   UNL A   1      43.624  23.121  29.439  1.00  0.00    -0.206 F 
ATOM     84  C   UNL A   1      42.270  21.205  26.691  1.00  0.00     0.060 A 
BRANCH  84  85
ATOM     85  S   UNL A   1      41.673  19.537  26.339  1.00  0.00     0.124 S 
ATOM     86  O   UNL A   1      41.969  18.850  27.590  1.00  0.00    -0.237 OA
ATOM     87  O   UNL A   1      40.260  19.770  26.055  1.00  0.00    -0.237 OA
ATOM     88  O   UNL A   1      42.475  19.133  25.189  1.00  0.00    -0.744 OA
ENDBRANCH  84  85
ENDBRANCH  52  77
BRANCH  64  89
ATOM     89  C   UNL A   1      49.497  26.781  26.428  1.00  0.00     0.058 A 
ATOM     90  C   UNL A   1      49.921  26.879  25.094  1.00  0.00     0.135 A 
ATOM     91  C   UNL A   1      50.375  26.195  27.354  1.00  0.00     0.135 A 
ATOM     92  F   UNL A   1      49.118  27.427  24.169  1.00  0.00    -0.206 F 
ATOM     93  C   UNL A   1      51.157  26.386  24.686  1.00  0.00     0.059 A 
ATOM     94  C   UNL A   1      51.626  25.717  26.974  1.00  0.00     0.059 A 
ATOM     95  F   UNL A   1      50.024  26.088  28.646  1.00  0.00    -0.206 F 
ATOM     96  C   UNL A   1      52.001  25.803  25.633  1.00  0.00     0.060 A 
BRANCH  96  97
ATOM     97  S   UNL A   1      53.607  25.176  25.098  1.00  0.00     0.124 S 
ATOM     98  O   UNL A   1      54.494  25.740  26.110  1.00  0.00    -0.237 OA
ATOM     99  O   UNL A   1      53.416  23.729  25.156  1.00  0.00    -0.237 OA
ATOM    100  O   UNL A   1      53.755  25.727  23.754  1.00  0.00    -0.744 OA
ENDBRANCH  96  97
ENDBRANCH  64  89
ENDBRANCH  38  39
ENDBRANCH  31  33
ENDBRANCH  30  31
ENDBRANCH  29  30
ENDBRANCH  28  29
ENDBRANCH   1  28
TORSDOF 20
ENDMDL
MODEL 2
REMARK VINA RESULT:     -11.1      1.408      2.348
REMARK SMILES CC[C@H]1CCCCN1S(=O)(=O)c1ccc2oc(C(=O)OCCOCCOC(=O)c3ccc(-c4c5nc(c(-c6c(F)cc(S(=O)(=O)[O-])cc6F)c6ccc([nH]6)c(-c6c(F)cc(S(=O)(=O)[O-])cc6F)c6nc(c(-c7c(F)cc(S(=O)(=O)[O-])cc7F)c7ccc4[nH]7)C=C6)C=C5)cc3)c(C)c2c1
REMARK SMILES IDX 23 1 22 2 21 3 20 4 18 5 19 6 17 7 12 8 13 9 98 10 14 11
REMARK SMILES IDX 97 12 15 13 95 14 16 15 96 16 9 17 10 18 11 19 8 20 3 21
REMARK SMILES IDX 4 22 5 23 7 24 6 25 2 26 1 27 24 28 25 29 26 30 27 31 28 32
REMARK SMILES IDX 29 33 30 34 94 35 31 36 93 37 32 38 33 39 34 40 87 41 35 42
REMARK SMILES IDX 92 43 86 44 88 45 36 46 91 47 85 48 84 49 37 51 71 52 50 53
REMARK SMILES IDX 70 54 51 55 54 56 69 57 89 58 52 59 53 60 68 62 90 63 55 64
REMARK SMILES IDX 38 65 39 66 48 67 40 68 41 69 47 70 49 71 42 72 43 73 44 74
REMARK SMILES IDX 45 75 46 76 72 77 73 78 82 79 74 80 75 81 81 82 83 83 76 84
REMARK SMILES IDX 77 85 78 86 79 87 80 88 56 89 57 90 66 91 58 92 59 93 65 94
REMARK SMILES IDX 67 95 60 96 61 97 62 98 63 99 64 100
REMARK H PARENT 88 50 54 61
REMARK Flexibility Score: inf
ROOT
ATOM      1  O   UNL A   1      33.592  34.230  31.388  1.00  0.00    -0.374 OA
ENDROOT
BRANCH   1   2
ATOM      2  C   UNL A   1      33.691  35.487  30.714  1.00  0.00     0.202 C 
BRANCH   2   3
ATOM      3  C   UNL A   1      32.955  35.538  29.373  1.00  0.00     0.261 C 
BRANCH   3   4
ATOM      4  O   UNL A   1      32.783  34.206  28.863  1.00  0.00    -0.457 OA
BRANCH   4   5
ATOM      5  C   UNL A   1      33.666  33.807  27.907  1.00  0.00     0.374 C 
ATOM      6  O   UNL A   1      34.569  34.505  27.461  1.00  0.00    -0.242 OA
BRANCH   5   7
ATOM      7  C   UNL A   1      33.437  32.417  27.567  1.00  0.00     0.215 A 
ATOM      8  C   UNL A   1      33.055  28.012  26.393  1.00  0.00     0.083 A 
ATOM      9  C   UNL A   1      34.376  28.021  26.855  1.00  0.00     0.025 A 
ATOM     10  C   UNL A   1      32.225  29.136  26.542  1.00  0.00     0.034 A 
ATOM     11  C   UNL A   1      34.928  29.189  27.402  1.00  0.00     0.049 A 
ATOM     12  C   UNL A   1      32.798  30.339  26.977  1.00  0.00     0.025 A 
ATOM     13  C   UNL A   1      34.117  30.323  27.395  1.00  0.00     0.135 A 
ATOM     14  C   UNL A   1      32.347  31.692  27.084  1.00  0.00     0.010 A 
ATOM     15  O   UNL A   1      34.495  31.565  27.777  1.00  0.00    -0.449 OA
ATOM     16  C   UNL A   1      30.998  32.167  26.669  1.00  0.00     0.049 C 
BRANCH   8  17
ATOM     17  S   UNL A   1      32.336  26.537  25.700  1.00  0.00     0.243 S 
ATOM     18  O   UNL A   1      32.218  26.790  24.281  1.00  0.00    -0.207 OA
ATOM     19  O   UNL A   1      31.173  26.206  26.500  1.00  0.00    -0.207 OA
BRANCH  17  20
ATOM     20  N   UNL A   1      33.501  25.298  25.942  1.00  0.00    -0.195 NA
ATOM     21  C   UNL A   1      32.957  23.975  26.422  1.00  0.00     0.073 C 
ATOM     22  C   UNL A   1      34.137  23.172  27.013  1.00  0.00     0.020 C 
ATOM     23  C   UNL A   1      35.253  22.956  25.995  1.00  0.00     0.003 C 
ATOM     24  C   UNL A   1      34.575  25.150  24.923  1.00  0.00     0.103 C 
ATOM     25  C   UNL A   1      35.724  24.294  25.452  1.00  0.00     0.017 C 
BRANCH  21  26
ATOM     26  C   UNL A   1      32.239  23.126  25.350  1.00  0.00     0.017 C 
ATOM     27  C   UNL A   1      30.722  23.245  25.308  1.00  0.00     0.005 C 
ENDBRANCH  21  26
ENDBRANCH  17  20
ENDBRANCH   8  17
ENDBRANCH   5   7
ENDBRANCH   4   5
ENDBRANCH   3   4
ENDBRANCH   2   3
ENDBRANCH   1   2
BRANCH   1  28
ATOM     28  C   UNL A   1      34.823  33.628  31.792  1.00  0.00     0.202 C 
BRANCH  28  29
ATOM     29  C   UNL A   1      35.349  32.535  30.857  1.00  0.00     0.261 C 
BRANCH  29  30
ATOM     30  O   UNL A   1      36.718  32.206  31.161  1.00  0.00    -0.460 OA
BRANCH  30  31
ATOM     31  C   UNL A   1      36.904  30.953  31.643  1.00  0.00     0.338 C 
ATOM     32  O   UNL A   1      36.205  30.366  32.451  1.00  0.00    -0.246 OA
BRANCH  31  33
ATOM     33  C   UNL A   1      38.005  30.289  30.915  1.00  0.00     0.060 A 
ATOM     34  C   UNL A   1      38.955  29.604  31.682  1.00  0.00     0.016 A 
ATOM     35  C   UNL A   1      38.149  30.384  29.527  1.00  0.00     0.016 A 
ATOM     36  C   UNL A   1      40.086  29.065  31.073  1.00  0.00     0.010 A 
ATOM     37  C   UNL A   1      39.288  29.844  28.918  1.00  0.00     0.010 A 
ATOM     38  C   UNL A   1      40.282  29.219  29.695  1.00  0.00    -0.014 A 
BRANCH  38  39
ATOM     39  C   UNL A   1      41.596  28.861  29.108  1.00  0.00     0.031 A 
ATOM     40  C   UNL A   1      42.666  29.917  29.019  1.00  0.00     0.074 A 
ATOM     41  C   UNL A   1      41.854  27.602  28.711  1.00  0.00     0.049 A 
ATOM     42  N   UNL A   1      43.888  29.822  28.565  1.00  0.00    -0.248 NA
ATOM     43  C   UNL A   1      42.308  31.259  29.508  1.00  0.00     0.031 C 
ATOM     44  C   UNL A   1      40.911  26.486  28.774  1.00  0.00     0.029 A 
ATOM     45  N   UNL A   1      42.992  27.052  28.177  1.00  0.00    -0.354 N 
ATOM     46  C   UNL A   1      44.446  31.088  28.710  1.00  0.00     0.074 A 
ATOM     47  C   UNL A   1      43.418  31.941  29.265  1.00  0.00     0.031 C 
ATOM     48  C   UNL A   1      41.508  25.384  28.289  1.00  0.00     0.029 A 
ATOM     49  C   UNL A   1      42.867  25.719  27.866  1.00  0.00     0.049 A 
ATOM     50  H   UNL A   1      43.821  27.563  28.030  1.00  0.00     0.167 HD
ATOM     51  C   UNL A   1      45.703  31.499  28.418  1.00  0.00     0.037 A 
ATOM     52  C   UNL A   1      43.745  24.871  27.296  1.00  0.00     0.037 A 
ATOM     53  C   UNL A   1      46.727  30.648  27.871  1.00  0.00     0.049 A 
ATOM     54  C   UNL A   1      45.127  25.360  26.946  1.00  0.00     0.074 A 
ATOM     55  C   UNL A   1      48.036  30.968  27.554  1.00  0.00     0.029 A 
ATOM     56  N   UNL A   1      46.557  29.307  27.557  1.00  0.00    -0.354 N 
ATOM     57  N   UNL A   1      45.645  26.554  27.111  1.00  0.00    -0.248 NA
ATOM     58  C   UNL A   1      46.046  24.384  26.345  1.00  0.00     0.031 C 
ATOM     59  C   UNL A   1      48.645  29.831  27.013  1.00  0.00     0.029 A 
ATOM     60  C   UNL A   1      47.730  28.791  27.035  1.00  0.00     0.049 A 
ATOM     61  H   UNL A   1      45.724  28.799  27.685  1.00  0.00     0.167 HD
ATOM     62  C   UNL A   1      46.958  26.464  26.659  1.00  0.00     0.074 A 
ATOM     63  C   UNL A   1      47.157  25.097  26.224  1.00  0.00     0.031 C 
ATOM     64  C   UNL A   1      47.915  27.425  26.612  1.00  0.00     0.037 A 
BRANCH  51  65
ATOM     65  C   UNL A   1      46.036  32.943  28.671  1.00  0.00     0.058 A 
ATOM     66  C   UNL A   1      45.850  33.926  27.686  1.00  0.00     0.135 A 
ATOM     67  C   UNL A   1      46.522  33.352  29.923  1.00  0.00     0.135 A 
ATOM     68  F   UNL A   1      45.406  33.585  26.466  1.00  0.00    -0.206 F 
ATOM     69  C   UNL A   1      46.156  35.262  27.925  1.00  0.00     0.059 A 
ATOM     70  C   UNL A   1      46.812  34.687  30.193  1.00  0.00     0.059 A 
ATOM     71  F   UNL A   1      46.721  32.452  30.898  1.00  0.00    -0.206 F 
ATOM     72  C   UNL A   1      46.639  35.632  29.183  1.00  0.00     0.060 A 
BRANCH  72  73
ATOM     73  S   UNL A   1      47.029  37.369  29.482  1.00  0.00     0.124 S 
ATOM     74  O   UNL A   1      47.278  37.366  30.920  1.00  0.00    -0.237 OA
ATOM     75  O   UNL A   1      48.200  37.578  28.637  1.00  0.00    -0.237 OA
ATOM     76  O   UNL A   1      45.820  38.067  29.056  1.00  0.00    -0.744 OA
ENDBRANCH  72  73
ENDBRANCH  51  65
BRANCH  52  77
ATOM     77  C   UNL A   1      43.345  23.467  27.017  1.00  0.00     0.058 A 
ATOM     78  C   UNL A   1      43.230  22.524  28.050  1.00  0.00     0.135 A 
ATOM     79  C   UNL A   1      43.071  23.041  25.708  1.00  0.00     0.135 A 
ATOM     80  F   UNL A   1      43.493  22.882  29.316  1.00  0.00    -0.206 F 
ATOM     81  C   UNL A   1      42.873  21.204  27.794  1.00  0.00     0.059 A 
ATOM     82  C   UNL A   1      42.689  21.732  25.431  1.00  0.00     0.059 A 
ATOM     83  F   UNL A   1      43.155  23.907  24.687  1.00  0.00    -0.206 F 
ATOM     84  C   UNL A   1      42.601  20.819  26.480  1.00  0.00     0.060 A 
BRANCH  84  85
ATOM     85  S   UNL A   1      42.085  19.117  26.161  1.00  0.00     0.124 S 
ATOM     86  O   UNL A   1      42.991  18.732  25.086  1.00  0.00    -0.237 OA
ATOM     87  O   UNL A   1      42.316  18.479  27.453  1.00  0.00    -0.237 OA
ATOM     88  O   UNL A   1      40.682  19.261  25.786  1.00  0.00    -0.744 OA
ENDBRANCH  84  85
ENDBRANCH  52  77
BRANCH  64  89
ATOM     89  C   UNL A   1      49.273  27.023  26.109  1.00  0.00     0.058 A 
ATOM     90  C   UNL A   1      50.216  26.402  26.941  1.00  0.00     0.135 A 
ATOM     91  C   UNL A   1      49.623  27.234  24.765  1.00  0.00     0.135 A 
ATOM     92  F   UNL A   1      49.933  26.181  28.235  1.00  0.00    -0.206 F 
ATOM     93  C   UNL A   1      51.472  26.032  26.468  1.00  0.00     0.059 A 
ATOM     94  C   UNL A   1      50.863  26.850  24.264  1.00  0.00     0.059 A 
ATOM     95  F   UNL A   1      48.752  27.813  23.922  1.00  0.00    -0.206 F 
ATOM     96  C   UNL A   1      51.787  26.264  25.128  1.00  0.00     0.060 A 
BRANCH  96  97
ATOM     97  S   UNL A   1      53.414  25.771  24.519  1.00  0.00     0.124 S 
ATOM     98  O   UNL A   1      54.240  26.892  24.954  1.00  0.00    -0.237 OA
ATOM     99  O   UNL A   1      53.641  24.508  25.213  1.00  0.00    -0.237 OA
ATOM    100  O   UNL A   1      53.215  25.658  23.077  1.00  0.00    -0.744 OA
ENDBRANCH  96  97
ENDBRANCH  64  89
ENDBRANCH  38  39
ENDBRANCH  31  33
ENDBRANCH  30  31
ENDBRANCH  29  30
ENDBRANCH  28  29
ENDBRANCH   1  28
TORSDOF 20
ENDMDL
MODEL 3
REMARK VINA RESULT:     -10.9      5.833     11.881
REMARK SMILES CC[C@H]1CCCCN1S(=O)(=O)c1ccc2oc(C(=O)OCCOCCOC(=O)c3ccc(-c4c5nc(c(-c6c(F)cc(S(=O)(=O)[O-])cc6F)c6ccc([nH]6)c(-c6c(F)cc(S(=O)(=O)[O-])cc6F)c6nc(c(-c7c(F)cc(S(=O)(=O)[O-])cc7F)c7ccc4[nH]7)C=C6)C=C5)cc3)c(C)c2c1
REMARK SMILES IDX 23 1 22 2 21 3 20 4 18 5 19 6 17 7 12 8 13 9 98 10 14 11
REMARK SMILES IDX 97 12 15 13 95 14 16 15 96 16 9 17 10 18 11 19 8 20 3 21
REMARK SMILES IDX 4 22 5 23 7 24 6 25 2 26 1 27 24 28 25 29 26 30 27 31 28 32
REMARK SMILES IDX 29 33 30 34 94 35 31 36 93 37 32 38 33 39 34 40 87 41 35 42
REMARK SMILES IDX 92 43 86 44 88 45 36 46 91 47 85 48 84 49 37 51 71 52 50 53
REMARK SMILES IDX 70 54 51 55 54 56 69 57 89 58 52 59 53 60 68 62 90 63 55 64
REMARK SMILES IDX 38 65 39 66 48 67 40 68 41 69 47 70 49 71 42 72 43 73 44 74
REMARK SMILES IDX 45 75 46 76 72 77 73 78 82 79 74 80 75 81 81 82 83 83 76 84
REMARK SMILES IDX 77 85 78 86 79 87 80 88 56 89 57 90 66 91 58 92 59 93 65 94
REMARK SMILES IDX 67 95 60 96 61 97 62 98 63 99 64 100
REMARK H PARENT 88 50 54 61
REMARK Flexibility Score: inf
ROOT
ATOM      1  O   UNL A   1      42.448  20.298  26.532  1.00  0.00    -0.374 OA
ENDROOT
BRANCH   1   2
ATOM      2  C   UNL A   1      41.158  19.987  25.997  1.00  0.00     0.202 C 
BRANCH   2   3
ATOM      3  C   UNL A   1      40.013  20.792  26.617  1.00  0.00     0.261 C 
BRANCH   3   4
ATOM      4  O   UNL A   1      39.162  21.303  25.578  1.00  0.00    -0.457 OA
BRANCH   4   5
ATOM      5  C   UNL A   1      38.131  20.500  25.195  1.00  0.00     0.374 C 
ATOM      6  O   UNL A   1      38.240  19.308  24.933  1.00  0.00    -0.242 OA
BRANCH   5   7
ATOM      7  C   UNL A   1      36.885  21.238  25.232  1.00  0.00     0.215 A 
ATOM      8  C   UNL A   1      33.094  23.772  25.603  1.00  0.00     0.083 A 
ATOM      9  C   UNL A   1      34.060  24.750  25.864  1.00  0.00     0.025 A 
ATOM     10  C   UNL A   1      33.460  22.485  25.176  1.00  0.00     0.034 A 
ATOM     11  C   UNL A   1      35.424  24.437  25.787  1.00  0.00     0.049 A 
ATOM     12  C   UNL A   1      34.815  22.127  25.210  1.00  0.00     0.025 A 
ATOM     13  C   UNL A   1      35.744  23.110  25.505  1.00  0.00     0.135 A 
ATOM     14  C   UNL A   1      35.544  20.910  25.031  1.00  0.00     0.010 A 
ATOM     15  O   UNL A   1      36.991  22.584  25.490  1.00  0.00    -0.449 OA
ATOM     16  C   UNL A   1      34.920  19.584  24.765  1.00  0.00     0.049 C 
BRANCH   8  17
ATOM     17  S   UNL A   1      31.356  24.152  25.691  1.00  0.00     0.243 S 
ATOM     18  O   UNL A   1      31.154  24.759  26.988  1.00  0.00    -0.207 OA
ATOM     19  O   UNL A   1      30.632  22.958  25.303  1.00  0.00    -0.207 OA
BRANCH  17  20
ATOM     20  N   UNL A   1      31.082  25.340  24.480  1.00  0.00    -0.195 NA
ATOM     21  C   UNL A   1      30.709  26.712  24.985  1.00  0.00     0.073 C 
ATOM     22  C   UNL A   1      30.066  27.483  23.810  1.00  0.00     0.020 C 
ATOM     23  C   UNL A   1      31.003  27.589  22.611  1.00  0.00     0.003 C 
ATOM     24  C   UNL A   1      32.019  25.380  23.325  1.00  0.00     0.103 C 
ATOM     25  C   UNL A   1      31.444  26.201  22.175  1.00  0.00     0.017 C 
BRANCH  21  26
ATOM     26  C   UNL A   1      31.874  27.541  25.572  1.00  0.00     0.017 C 
ATOM     27  C   UNL A   1      31.661  28.095  26.973  1.00  0.00     0.005 C 
ENDBRANCH  21  26
ENDBRANCH  17  20
ENDBRANCH   8  17
ENDBRANCH   5   7
ENDBRANCH   4   5
ENDBRANCH   3   4
ENDBRANCH   2   3
ENDBRANCH   1   2
BRANCH   1  28
ATOM     28  C   UNL A   1      42.657  21.653  26.935  1.00  0.00     0.202 C 
BRANCH  28  29
ATOM     29  C   UNL A   1      42.865  22.648  25.788  1.00  0.00     0.261 C 
BRANCH  29  30
ATOM     30  O   UNL A   1      42.011  23.797  25.938  1.00  0.00    -0.460 OA
BRANCH  30  31
ATOM     31  C   UNL A   1      42.653  24.989  25.882  1.00  0.00     0.338 C 
ATOM     32  O   UNL A   1      43.486  25.337  25.063  1.00  0.00    -0.246 OA
BRANCH  31  33
ATOM     33  C   UNL A   1      42.075  25.921  26.873  1.00  0.00     0.060 A 
ATOM     34  C   UNL A   1      42.647  27.197  26.957  1.00  0.00     0.016 A 
ATOM     35  C   UNL A   1      41.048  25.547  27.744  1.00  0.00     0.016 A 
ATOM     36  C   UNL A   1      42.238  28.081  27.953  1.00  0.00     0.010 A 
ATOM     37  C   UNL A   1      40.641  26.436  28.746  1.00  0.00     0.010 A 
ATOM     38  C   UNL A   1      41.263  27.690  28.880  1.00  0.00    -0.014 A 
BRANCH  38  39
ATOM     39  C   UNL A   1      41.020  28.539  30.072  1.00  0.00     0.031 A 
ATOM     40  C   UNL A   1      41.901  28.368  31.281  1.00  0.00     0.074 A 
ATOM     41  C   UNL A   1      40.065  29.487  30.060  1.00  0.00     0.049 A 
ATOM     42  N   UNL A   1      41.882  29.012  32.418  1.00  0.00    -0.248 NA
ATOM     43  C   UNL A   1      42.942  27.331  31.194  1.00  0.00     0.031 C 
ATOM     44  C   UNL A   1      39.169  29.769  28.939  1.00  0.00     0.029 A 
ATOM     45  N   UNL A   1      39.695  30.390  31.023  1.00  0.00    -0.354 N 
ATOM     46  C   UNL A   1      42.903  28.460  33.184  1.00  0.00     0.074 A 
ATOM     47  C   UNL A   1      43.501  27.406  32.393  1.00  0.00     0.031 C 
ATOM     48  C   UNL A   1      38.345  30.774  29.283  1.00  0.00     0.029 A 
ATOM     49  C   UNL A   1      38.643  31.193  30.652  1.00  0.00     0.049 A 
ATOM     50  H   UNL A   1      40.139  30.457  31.899  1.00  0.00     0.167 HD
ATOM     51  C   UNL A   1      43.314  28.807  34.427  1.00  0.00     0.037 A 
ATOM     52  C   UNL A   1      37.991  32.150  31.341  1.00  0.00     0.037 A 
ATOM     53  C   UNL A   1      42.721  29.860  35.211  1.00  0.00     0.049 A 
ATOM     54  C   UNL A   1      38.441  32.494  32.737  1.00  0.00     0.074 A 
ATOM     55  C   UNL A   1      43.075  30.296  36.476  1.00  0.00     0.029 A 
ATOM     56  N   UNL A   1      41.649  30.641  34.804  1.00  0.00    -0.354 N 
ATOM     57  N   UNL A   1      39.423  31.978  33.438  1.00  0.00    -0.248 NA
ATOM     58  C   UNL A   1      37.703  33.558  33.431  1.00  0.00     0.031 C 
ATOM     59  C   UNL A   1      42.192  31.315  36.850  1.00  0.00     0.029 A 
ATOM     60  C   UNL A   1      41.318  31.545  35.800  1.00  0.00     0.049 A 
ATOM     61  H   UNL A   1      41.191  30.563  33.937  1.00  0.00     0.167 HD
ATOM     62  C   UNL A   1      39.437  32.673  34.643  1.00  0.00     0.074 A 
ATOM     63  C   UNL A   1      38.372  33.653  34.572  1.00  0.00     0.031 C 
ATOM     64  C   UNL A   1      40.259  32.518  35.711  1.00  0.00     0.037 A 
BRANCH  51  65
ATOM     65  C   UNL A   1      44.450  28.026  35.025  1.00  0.00     0.058 A 
ATOM     66  C   UNL A   1      45.778  28.473  34.939  1.00  0.00     0.135 A 
ATOM     67  C   UNL A   1      44.205  26.828  35.715  1.00  0.00     0.135 A 
ATOM     68  F   UNL A   1      46.069  29.603  34.274  1.00  0.00    -0.206 F 
ATOM     69  C   UNL A   1      46.827  27.749  35.497  1.00  0.00     0.059 A 
ATOM     70  C   UNL A   1      45.235  26.099  36.301  1.00  0.00     0.059 A 
ATOM     71  F   UNL A   1      42.954  26.354  35.822  1.00  0.00    -0.206 F 
ATOM     72  C   UNL A   1      46.545  26.561  36.174  1.00  0.00     0.060 A 
BRANCH  72  73
ATOM     73  S   UNL A   1      47.914  25.631  36.897  1.00  0.00     0.124 S 
ATOM     74  O   UNL A   1      47.302  24.320  37.091  1.00  0.00    -0.237 OA
ATOM     75  O   UNL A   1      48.931  25.708  35.853  1.00  0.00    -0.237 OA
ATOM     76  O   UNL A   1      48.217  26.369  38.119  1.00  0.00    -0.744 OA
ENDBRANCH  72  73
ENDBRANCH  51  65
BRANCH  52  77
ATOM     77  C   UNL A   1      36.837  32.853  30.722  1.00  0.00     0.058 A 
ATOM     78  C   UNL A   1      35.517  32.532  31.070  1.00  0.00     0.135 A 
ATOM     79  C   UNL A   1      37.036  33.863  29.767  1.00  0.00     0.135 A 
ATOM     80  F   UNL A   1      35.277  31.567  31.970  1.00  0.00    -0.206 F 
ATOM     81  C   UNL A   1      34.432  33.175  30.483  1.00  0.00     0.059 A 
ATOM     82  C   UNL A   1      35.968  34.537  29.183  1.00  0.00     0.059 A 
ATOM     83  F   UNL A   1      38.280  34.216  29.410  1.00  0.00    -0.206 F 
ATOM     84  C   UNL A   1      34.669  34.179  29.541  1.00  0.00     0.060 A 
BRANCH  84  85
ATOM     85  S   UNL A   1      33.257  35.048  28.822  1.00  0.00     0.124 S 
ATOM     86  O   UNL A   1      32.514  35.437  30.014  1.00  0.00    -0.237 OA
ATOM     87  O   UNL A   1      33.905  36.131  28.088  1.00  0.00    -0.237 OA
ATOM     88  O   UNL A   1      32.629  34.027  27.989  1.00  0.00    -0.744 OA
ENDBRANCH  84  85
ENDBRANCH  52  77
BRANCH  64  89
ATOM     89  C   UNL A   1      40.066  33.453  36.872  1.00  0.00     0.058 A 
ATOM     90  C   UNL A   1      40.836  34.616  37.022  1.00  0.00     0.135 A 
ATOM     91  C   UNL A   1      39.073  33.197  37.832  1.00  0.00     0.135 A 
ATOM     92  F   UNL A   1      41.801  34.906  36.134  1.00  0.00    -0.206 F 
ATOM     93  C   UNL A   1      40.651  35.478  38.099  1.00  0.00     0.059 A 
ATOM     94  C   UNL A   1      38.853  34.056  38.904  1.00  0.00     0.059 A 
ATOM     95  F   UNL A   1      38.299  32.104  37.729  1.00  0.00    -0.206 F 
ATOM     96  C   UNL A   1      39.659  35.187  39.037  1.00  0.00     0.060 A 
BRANCH  96  97
ATOM     97  S   UNL A   1      39.418  36.315  40.427  1.00  0.00     0.124 S 
ATOM     98  O   UNL A   1      38.723  37.425  39.785  1.00  0.00    -0.237 OA
ATOM     99  O   UNL A   1      38.619  35.514  41.349  1.00  0.00    -0.237 OA
ATOM    100  O   UNL A   1      40.779  36.598  40.873  1.00  0.00    -0.744 OA
ENDBRANCH  96  97
ENDBRANCH  64  89
ENDBRANCH  38  39
ENDBRANCH  31  33
ENDBRANCH  30  31
ENDBRANCH  29  30
ENDBRANCH  28  29
ENDBRANCH   1  28
TORSDOF 20
ENDMDL
