MODEL 1
REMARK VINA RESULT:     -10.1      0.000      0.000
REMARK SMILES C[C@H]([C@@H](C)O)[N@H+]1CC[C@@](C)(C(=O)OCCOCCOC(=O)c2ccc(-c3c4nc(c(-c5c(F)cc(S(=O)(=O)[O-])cc5F)c5ccc([nH]5)c(-c5c(F)cc(S(=O)(=O)[O-])cc5F)c5nc(c(-c6c(F)cc(S(=O)(=O)[O-])cc6F)c6ccc3[nH]6)C=C5)C=C4)cc2)C1
REMARK SMILES IDX 16 1 15 2 14 3 13 4 11 5 12 6 9 7 6 8 7 9 88 10 8 12 10 13
REMARK SMILES IDX 2 14 1 15 3 16 4 17 5 18 17 20 18 21 19 22 20 23 21 24 22 25
REMARK SMILES IDX 23 26 87 27 24 28 86 29 25 30 26 31 27 32 80 33 28 34 85 35
REMARK SMILES IDX 79 36 81 37 29 38 84 39 78 40 77 41 30 43 64 44 43 45 63 46
REMARK SMILES IDX 44 47 47 48 62 49 82 50 45 51 46 52 61 54 83 55 48 56 31 57
REMARK SMILES IDX 32 58 41 59 33 60 34 61 40 62 42 63 35 64 36 65 37 66 38 67
REMARK SMILES IDX 39 68 65 69 66 70 75 71 67 72 68 73 74 74 76 75 69 76 70 77
REMARK SMILES IDX 71 78 72 79 73 80 49 81 50 82 59 83 51 84 52 85 58 86 60 87
REMARK SMILES IDX 53 88 54 89 55 90 56 91 57 92
REMARK H PARENT 6 11 5 19 81 42 47 53
REMARK Flexibility Score: inf
ROOT
ATOM      1  O   UNL A   1      39.285  22.349  26.063  1.00  0.00    -0.374 OA
ENDROOT
BRANCH   1   2
ATOM      2  C   UNL A   1      38.067  21.698  25.690  1.00  0.00     0.202 C 
BRANCH   2   3
ATOM      3  C   UNL A   1      36.974  22.615  25.134  1.00  0.00     0.261 C 
BRANCH   3   4
ATOM      4  O   UNL A   1      35.663  22.043  25.309  1.00  0.00    -0.463 OA
BRANCH   4   5
ATOM      5  C   UNL A   1      34.772  22.250  24.305  1.00  0.00     0.317 C 
ATOM      6  O   UNL A   1      35.077  22.619  23.175  1.00  0.00    -0.251 OA
BRANCH   5   7
ATOM      7  C   UNL A   1      33.326  21.949  24.699  1.00  0.00     0.119 C 
ATOM      8  N   UNL A   1      32.270  19.766  24.859  1.00  0.00    -0.330 N 
ATOM      9  C   UNL A   1      32.930  20.036  26.136  1.00  0.00     0.263 C 
ATOM     10  C   UNL A   1      32.886  20.708  23.898  1.00  0.00     0.281 C 
ATOM     11  H   UNL A   1      31.265  19.901  24.971  1.00  0.00     0.348 HD
ATOM     12  C   UNL A   1      33.070  21.552  26.160  1.00  0.00     0.086 C 
ATOM     13  C   UNL A   1      32.508  23.194  24.336  1.00  0.00     0.030 C 
BRANCH   8  14
ATOM     14  C   UNL A   1      32.340  18.358  24.373  1.00  0.00     0.209 C 
ATOM     15  C   UNL A   1      33.189  17.586  25.404  1.00  0.00     0.078 C 
BRANCH  14  16
ATOM     16  C   UNL A   1      32.905  18.089  22.927  1.00  0.00     0.169 C 
ATOM     17  C   UNL A   1      34.004  17.016  22.933  1.00  0.00     0.045 C 
BRANCH  16  18
ATOM     18  O   UNL A   1      31.873  17.617  22.051  1.00  0.00    -0.387 OA
ATOM     19  H   UNL A   1      31.539  18.357  21.518  1.00  0.00     0.211 HD
ENDBRANCH  16  18
ENDBRANCH  14  16
ENDBRANCH   8  14
ENDBRANCH   5   7
ENDBRANCH   4   5
ENDBRANCH   3   4
ENDBRANCH   2   3
ENDBRANCH   1   2
BRANCH   1  20
ATOM     20  C   UNL A   1      40.367  21.508  26.457  1.00  0.00     0.202 C 
BRANCH  20  21
ATOM     21  C   UNL A   1      41.691  22.224  26.738  1.00  0.00     0.261 C 
BRANCH  21  22
ATOM     22  O   UNL A   1      41.650  23.599  26.314  1.00  0.00    -0.460 OA
BRANCH  22  23
ATOM     23  C   UNL A   1      42.627  24.374  26.838  1.00  0.00     0.338 C 
ATOM     24  O   UNL A   1      43.829  24.293  26.619  1.00  0.00    -0.246 OA
BRANCH  23  25
ATOM     25  C   UNL A   1      42.050  25.488  27.611  1.00  0.00     0.060 A 
ATOM     26  C   UNL A   1      42.865  26.608  27.814  1.00  0.00     0.016 A 
ATOM     27  C   UNL A   1      40.799  25.400  28.225  1.00  0.00     0.016 A 
ATOM     28  C   UNL A   1      42.465  27.611  28.692  1.00  0.00     0.010 A 
ATOM     29  C   UNL A   1      40.401  26.409  29.114  1.00  0.00     0.010 A 
ATOM     30  C   UNL A   1      41.254  27.492  29.388  1.00  0.00    -0.014 A 
BRANCH  30  31
ATOM     31  C   UNL A   1      40.992  28.415  30.521  1.00  0.00     0.031 A 
ATOM     32  C   UNL A   1      41.868  28.334  31.745  1.00  0.00     0.074 A 
ATOM     33  C   UNL A   1      40.043  29.365  30.433  1.00  0.00     0.049 A 
ATOM     34  N   UNL A   1      41.852  29.069  32.826  1.00  0.00    -0.248 NA
ATOM     35  C   UNL A   1      42.902  27.285  31.747  1.00  0.00     0.031 C 
ATOM     36  C   UNL A   1      39.156  29.569  29.289  1.00  0.00     0.029 A 
ATOM     37  N   UNL A   1      39.673  30.342  31.323  1.00  0.00    -0.354 N 
ATOM     38  C   UNL A   1      42.870  28.576  33.636  1.00  0.00     0.074 A 
ATOM     39  C   UNL A   1      43.464  27.457  32.935  1.00  0.00     0.031 C 
ATOM     40  C   UNL A   1      38.342  30.607  29.548  1.00  0.00     0.029 A 
ATOM     41  C   UNL A   1      38.635  31.128  30.882  1.00  0.00     0.049 A 
ATOM     42  H   UNL A   1      40.112  30.469  32.196  1.00  0.00     0.167 HD
ATOM     43  C   UNL A   1      43.284  29.022  34.846  1.00  0.00     0.037 A 
ATOM     44  C   UNL A   1      37.992  32.144  31.489  1.00  0.00     0.037 A 
ATOM     45  C   UNL A   1      42.699  30.140  35.538  1.00  0.00     0.049 A 
ATOM     46  C   UNL A   1      38.435  32.589  32.858  1.00  0.00     0.074 A 
ATOM     47  C   UNL A   1      43.062  30.679  36.761  1.00  0.00     0.029 A 
ATOM     48  N   UNL A   1      41.629  30.887  35.073  1.00  0.00    -0.354 N 
ATOM     49  N   UNL A   1      39.419  32.130  33.597  1.00  0.00    -0.248 NA
ATOM     50  C   UNL A   1      37.688  33.696  33.474  1.00  0.00     0.031 C 
ATOM     51  C   UNL A   1      42.182  31.728  37.053  1.00  0.00     0.029 A 
ATOM     52  C   UNL A   1      41.302  31.869  35.993  1.00  0.00     0.049 A 
ATOM     53  H   UNL A   1      41.168  30.742  34.214  1.00  0.00     0.167 HD
ATOM     54  C   UNL A   1      39.421  32.906  34.752  1.00  0.00     0.074 A 
ATOM     55  C   UNL A   1      38.351  33.872  34.609  1.00  0.00     0.031 C 
ATOM     56  C   UNL A   1      40.237  32.828  35.833  1.00  0.00     0.037 A 
BRANCH  43  57
ATOM     57  C   UNL A   1      44.416  28.288  35.508  1.00  0.00     0.058 A 
ATOM     58  C   UNL A   1      45.744  28.730  35.402  1.00  0.00     0.135 A 
ATOM     59  C   UNL A   1      44.164  27.151  36.292  1.00  0.00     0.135 A 
ATOM     60  F   UNL A   1      46.041  29.801  34.649  1.00  0.00    -0.206 F 
ATOM     61  C   UNL A   1      46.786  28.058  36.033  1.00  0.00     0.059 A 
ATOM     62  C   UNL A   1      45.187  26.476  36.951  1.00  0.00     0.059 A 
ATOM     63  F   UNL A   1      42.912  26.684  36.424  1.00  0.00    -0.206 F 
ATOM     64  C   UNL A   1      46.498  26.931  36.805  1.00  0.00     0.060 A 
BRANCH  64  65
ATOM     65  S   UNL A   1      47.858  26.074  37.626  1.00  0.00     0.124 S 
ATOM     66  O   UNL A   1      48.932  27.055  37.510  1.00  0.00    -0.237 OA
ATOM     67  O   UNL A   1      47.333  25.869  38.972  1.00  0.00    -0.237 OA
ATOM     68  O   UNL A   1      48.027  24.862  36.830  1.00  0.00    -0.744 OA
ENDBRANCH  64  65
ENDBRANCH  43  57
BRANCH  44  69
ATOM     69  C   UNL A   1      36.846  32.808  30.812  1.00  0.00     0.058 A 
ATOM     70  C   UNL A   1      35.523  32.558  31.205  1.00  0.00     0.135 A 
ATOM     71  C   UNL A   1      37.055  33.700  29.748  1.00  0.00     0.135 A 
ATOM     72  F   UNL A   1      35.272  31.706  32.211  1.00  0.00    -0.206 F 
ATOM     73  C   UNL A   1      34.446  33.154  30.558  1.00  0.00     0.059 A 
ATOM     74  C   UNL A   1      35.995  34.327  29.100  1.00  0.00     0.059 A 
ATOM     75  F   UNL A   1      38.302  33.979  29.340  1.00  0.00    -0.206 F 
ATOM     76  C   UNL A   1      34.693  34.037  29.505  1.00  0.00     0.060 A 
BRANCH  76  77
ATOM     77  S   UNL A   1      33.291  34.841  28.695  1.00  0.00     0.124 S 
ATOM     78  O   UNL A   1      32.780  33.762  27.858  1.00  0.00    -0.237 OA
ATOM     79  O   UNL A   1      32.456  35.221  29.830  1.00  0.00    -0.237 OA
ATOM     80  O   UNL A   1      33.912  35.954  27.984  1.00  0.00    -0.744 OA
ENDBRANCH  76  77
ENDBRANCH  44  69
BRANCH  56  81
ATOM     81  C   UNL A   1      40.026  33.828  36.935  1.00  0.00     0.058 A 
ATOM     82  C   UNL A   1      40.679  35.070  36.938  1.00  0.00     0.135 A 
ATOM     83  C   UNL A   1      39.121  33.561  37.975  1.00  0.00     0.135 A 
ATOM     84  F   UNL A   1      41.559  35.373  35.969  1.00  0.00    -0.206 F 
ATOM     85  C   UNL A   1      40.460  36.004  37.945  1.00  0.00     0.059 A 
ATOM     86  C   UNL A   1      38.866  34.491  38.979  1.00  0.00     0.059 A 
ATOM     87  F   UNL A   1      38.460  32.393  38.012  1.00  0.00    -0.206 F 
ATOM     88  C   UNL A   1      39.551  35.706  38.962  1.00  0.00     0.060 A 
BRANCH  88  89
ATOM     89  S   UNL A   1      39.249  36.937  40.248  1.00  0.00     0.124 S 
ATOM     90  O   UNL A   1      38.703  38.045  39.471  1.00  0.00    -0.237 OA
ATOM     91  O   UNL A   1      38.303  36.251  41.124  1.00  0.00    -0.237 OA
ATOM     92  O   UNL A   1      40.573  37.162  40.820  1.00  0.00    -0.744 OA
ENDBRANCH  88  89
ENDBRANCH  56  81
ENDBRANCH  30  31
ENDBRANCH  23  25
ENDBRANCH  22  23
ENDBRANCH  21  22
ENDBRANCH  20  21
ENDBRANCH   1  20
TORSDOF 20
ENDMDL
MODEL 2
REMARK VINA RESULT:     -10.1      7.221     12.207
REMARK SMILES C[C@H]([C@@H](C)O)[N@H+]1CC[C@@](C)(C(=O)OCCOCCOC(=O)c2ccc(-c3c4nc(c(-c5c(F)cc(S(=O)(=O)[O-])cc5F)c5ccc([nH]5)c(-c5c(F)cc(S(=O)(=O)[O-])cc5F)c5nc(c(-c6c(F)cc(S(=O)(=O)[O-])cc6F)c6ccc3[nH]6)C=C5)C=C4)cc2)C1
REMARK SMILES IDX 16 1 15 2 14 3 13 4 11 5 12 6 9 7 6 8 7 9 88 10 8 12 10 13
REMARK SMILES IDX 2 14 1 15 3 16 4 17 5 18 17 20 18 21 19 22 20 23 21 24 22 25
REMARK SMILES IDX 23 26 87 27 24 28 86 29 25 30 26 31 27 32 80 33 28 34 85 35
REMARK SMILES IDX 79 36 81 37 29 38 84 39 78 40 77 41 30 43 64 44 43 45 63 46
REMARK SMILES IDX 44 47 47 48 62 49 82 50 45 51 46 52 61 54 83 55 48 56 31 57
REMARK SMILES IDX 32 58 41 59 33 60 34 61 40 62 42 63 35 64 36 65 37 66 38 67
REMARK SMILES IDX 39 68 65 69 66 70 75 71 67 72 68 73 74 74 76 75 69 76 70 77
REMARK SMILES IDX 71 78 72 79 73 80 49 81 50 82 59 83 51 84 52 85 58 86 60 87
REMARK SMILES IDX 53 88 54 89 55 90 56 91 57 92
REMARK H PARENT 6 11 5 19 81 42 47 53
REMARK Flexibility Score: inf
ROOT
ATOM      1  O   UNL A   1      33.325  28.482  27.338  1.00  0.00    -0.374 OA
ENDROOT
BRANCH   1   2
ATOM      2  C   UNL A   1      32.479  27.890  26.350  1.00  0.00     0.202 C 
BRANCH   2   3
ATOM      3  C   UNL A   1      32.667  26.385  26.138  1.00  0.00     0.261 C 
BRANCH   3   4
ATOM      4  O   UNL A   1      32.156  25.961  24.859  1.00  0.00    -0.463 OA
BRANCH   4   5
ATOM      5  C   UNL A   1      33.068  25.801  23.865  1.00  0.00     0.317 C 
ATOM      6  O   UNL A   1      34.075  25.105  23.955  1.00  0.00    -0.251 OA
BRANCH   5   7
ATOM      7  C   UNL A   1      32.713  26.554  22.582  1.00  0.00     0.119 C 
ATOM      8  N   UNL A   1      31.096  28.351  22.334  1.00  0.00    -0.330 N 
ATOM      9  C   UNL A   1      32.366  28.948  22.748  1.00  0.00     0.263 C 
ATOM     10  C   UNL A   1      31.218  26.915  22.667  1.00  0.00     0.281 C 
ATOM     11  H   UNL A   1      30.959  28.526  21.338  1.00  0.00     0.348 HD
ATOM     12  C   UNL A   1      33.404  27.906  22.355  1.00  0.00     0.086 C 
ATOM     13  C   UNL A   1      33.015  25.601  21.420  1.00  0.00     0.030 C 
BRANCH   8  14
ATOM     14  C   UNL A   1      29.867  28.954  22.926  1.00  0.00     0.209 C 
ATOM     15  C   UNL A   1      28.968  27.773  23.347  1.00  0.00     0.078 C 
BRANCH  14  16
ATOM     16  C   UNL A   1      29.029  29.962  22.053  1.00  0.00     0.169 C 
ATOM     17  C   UNL A   1      27.777  30.455  22.794  1.00  0.00     0.045 C 
BRANCH  16  18
ATOM     18  O   UNL A   1      29.800  31.125  21.727  1.00  0.00    -0.387 OA
ATOM     19  H   UNL A   1      29.667  31.803  22.410  1.00  0.00     0.211 HD
ENDBRANCH  16  18
ENDBRANCH  14  16
ENDBRANCH   8  14
ENDBRANCH   5   7
ENDBRANCH   4   5
ENDBRANCH   3   4
ENDBRANCH   2   3
ENDBRANCH   1   2
BRANCH   1  20
ATOM     20  C   UNL A   1      33.898  29.748  27.016  1.00  0.00     0.202 C 
BRANCH  20  21
ATOM     21  C   UNL A   1      34.876  30.312  28.052  1.00  0.00     0.261 C 
BRANCH  21  22
ATOM     22  O   UNL A   1      35.927  29.376  28.353  1.00  0.00    -0.460 OA
BRANCH  22  23
ATOM     23  C   UNL A   1      36.554  29.601  29.531  1.00  0.00     0.338 C 
ATOM     24  O   UNL A   1      36.056  29.563  30.649  1.00  0.00    -0.246 OA
BRANCH  23  25
ATOM     25  C   UNL A   1      38.007  29.739  29.330  1.00  0.00     0.060 A 
ATOM     26  C   UNL A   1      38.470  29.716  28.009  1.00  0.00     0.016 A 
ATOM     27  C   UNL A   1      38.907  29.770  30.398  1.00  0.00     0.016 A 
ATOM     28  C   UNL A   1      39.835  29.646  27.751  1.00  0.00     0.010 A 
ATOM     29  C   UNL A   1      40.282  29.694  30.135  1.00  0.00     0.010 A 
ATOM     30  C   UNL A   1      40.748  29.581  28.812  1.00  0.00    -0.014 A 
BRANCH  30  31
ATOM     31  C   UNL A   1      42.156  29.215  28.518  1.00  0.00     0.031 A 
ATOM     32  C   UNL A   1      42.475  27.793  28.135  1.00  0.00     0.074 A 
ATOM     33  C   UNL A   1      43.126  30.149  28.511  1.00  0.00     0.049 A 
ATOM     34  N   UNL A   1      43.620  27.264  27.789  1.00  0.00    -0.248 NA
ATOM     35  C   UNL A   1      41.351  26.841  28.138  1.00  0.00     0.031 C 
ATOM     36  C   UNL A   1      42.937  31.563  28.828  1.00  0.00     0.029 A 
ATOM     37  N   UNL A   1      44.463  30.045  28.219  1.00  0.00    -0.354 N 
ATOM     38  C   UNL A   1      43.357  25.922  27.533  1.00  0.00     0.074 A 
ATOM     39  C   UNL A   1      41.949  25.710  27.794  1.00  0.00     0.031 C 
ATOM     40  C   UNL A   1      44.118  32.196  28.716  1.00  0.00     0.029 A 
ATOM     41  C   UNL A   1      45.148  31.230  28.339  1.00  0.00     0.049 A 
ATOM     42  H   UNL A   1      44.890  29.200  27.949  1.00  0.00     0.167 HD
ATOM     43  C   UNL A   1      44.206  24.957  27.106  1.00  0.00     0.037 A 
ATOM     44  C   UNL A   1      46.458  31.500  28.172  1.00  0.00     0.037 A 
ATOM     45  C   UNL A   1      45.604  25.170  26.839  1.00  0.00     0.049 A 
ATOM     46  C   UNL A   1      47.393  30.399  27.747  1.00  0.00     0.074 A 
ATOM     47  C   UNL A   1      46.541  24.259  26.385  1.00  0.00     0.029 A 
ATOM     48  N   UNL A   1      46.266  26.377  27.004  1.00  0.00    -0.354 N 
ATOM     49  N   UNL A   1      47.122  29.142  27.481  1.00  0.00    -0.248 NA
ATOM     50  C   UNL A   1      48.812  30.752  27.591  1.00  0.00     0.031 C 
ATOM     51  C   UNL A   1      47.780  24.906  26.316  1.00  0.00     0.029 A 
ATOM     52  C   UNL A   1      47.605  26.229  26.684  1.00  0.00     0.049 A 
ATOM     53  H   UNL A   1      45.846  27.215  27.306  1.00  0.00     0.167 HD
ATOM     54  C   UNL A   1      48.330  28.563  27.106  1.00  0.00     0.074 A 
ATOM     55  C   UNL A   1      49.331  29.608  27.166  1.00  0.00     0.031 C 
ATOM     56  C   UNL A   1      48.588  27.282  26.742  1.00  0.00     0.037 A 
BRANCH  43  57
ATOM     57  C   UNL A   1      43.648  23.574  26.916  1.00  0.00     0.058 A 
ATOM     58  C   UNL A   1      43.383  22.730  28.005  1.00  0.00     0.135 A 
ATOM     59  C   UNL A   1      43.340  23.103  25.630  1.00  0.00     0.135 A 
ATOM     60  F   UNL A   1      43.677  23.125  29.254  1.00  0.00    -0.206 F 
ATOM     61  C   UNL A   1      42.849  21.458  27.825  1.00  0.00     0.059 A 
ATOM     62  C   UNL A   1      42.784  21.843  25.427  1.00  0.00     0.059 A 
ATOM     63  F   UNL A   1      43.577  23.869  24.554  1.00  0.00    -0.206 F 
ATOM     64  C   UNL A   1      42.554  21.023  26.532  1.00  0.00     0.060 A 
BRANCH  64  65
ATOM     65  S   UNL A   1      41.852  19.373  26.313  1.00  0.00     0.124 S 
ATOM     66  O   UNL A   1      42.493  18.947  25.074  1.00  0.00    -0.237 OA
ATOM     67  O   UNL A   1      42.291  18.684  27.522  1.00  0.00    -0.237 OA
ATOM     68  O   UNL A   1      40.417  19.623  26.224  1.00  0.00    -0.744 OA
ENDBRANCH  64  65
ENDBRANCH  43  57
BRANCH  44  69
ATOM     69  C   UNL A   1      46.970  32.875  28.418  1.00  0.00     0.058 A 
ATOM     70  C   UNL A   1      47.020  33.829  27.391  1.00  0.00     0.135 A 
ATOM     71  C   UNL A   1      47.431  33.256  29.688  1.00  0.00     0.135 A 
ATOM     72  F   UNL A   1      46.600  33.509  26.157  1.00  0.00    -0.206 F 
ATOM     73  C   UNL A   1      47.524  35.107  27.609  1.00  0.00     0.059 A 
ATOM     74  C   UNL A   1      47.918  34.536  29.936  1.00  0.00     0.059 A 
ATOM     75  F   UNL A   1      47.396  32.383  30.706  1.00  0.00    -0.206 F 
ATOM     76  C   UNL A   1      47.972  35.450  28.886  1.00  0.00     0.060 A 
BRANCH  76  77
ATOM     77  S   UNL A   1      48.587  37.125  29.172  1.00  0.00     0.124 S 
ATOM     78  O   UNL A   1      47.845  37.509  30.367  1.00  0.00    -0.237 OA
ATOM     79  O   UNL A   1      50.018  36.901  29.352  1.00  0.00    -0.237 OA
ATOM     80  O   UNL A   1      48.221  37.828  27.946  1.00  0.00    -0.744 OA
ENDBRANCH  76  77
ENDBRANCH  44  69
BRANCH  56  81
ATOM     81  C   UNL A   1      50.000  26.942  26.353  1.00  0.00     0.058 A 
ATOM     82  C   UNL A   1      50.921  26.443  27.286  1.00  0.00     0.135 A 
ATOM     83  C   UNL A   1      50.420  27.068  25.019  1.00  0.00     0.135 A 
ATOM     84  F   UNL A   1      50.570  26.308  28.575  1.00  0.00    -0.206 F 
ATOM     85  C   UNL A   1      52.218  26.101  26.917  1.00  0.00     0.059 A 
ATOM     86  C   UNL A   1      51.705  26.708  24.621  1.00  0.00     0.059 A 
ATOM     87  F   UNL A   1      49.574  27.528  24.084  1.00  0.00    -0.206 F 
ATOM     88  C   UNL A   1      52.601  26.238  25.580  1.00  0.00     0.060 A 
BRANCH  88  89
ATOM     89  S   UNL A   1      54.277  25.763  25.104  1.00  0.00     0.124 S 
ATOM     90  O   UNL A   1      54.267  26.050  23.673  1.00  0.00    -0.237 OA
ATOM     91  O   UNL A   1      55.099  26.651  25.922  1.00  0.00    -0.237 OA
ATOM     92  O   UNL A   1      54.344  24.350  25.462  1.00  0.00    -0.744 OA
ENDBRANCH  88  89
ENDBRANCH  56  81
ENDBRANCH  30  31
ENDBRANCH  23  25
ENDBRANCH  22  23
ENDBRANCH  21  22
ENDBRANCH  20  21
ENDBRANCH   1  20
TORSDOF 20
ENDMDL
MODEL 3
REMARK VINA RESULT:      -9.9      6.491     12.197
REMARK SMILES C[C@H]([C@@H](C)O)[N@H+]1CC[C@@](C)(C(=O)OCCOCCOC(=O)c2ccc(-c3c4nc(c(-c5c(F)cc(S(=O)(=O)[O-])cc5F)c5ccc([nH]5)c(-c5c(F)cc(S(=O)(=O)[O-])cc5F)c5nc(c(-c6c(F)cc(S(=O)(=O)[O-])cc6F)c6ccc3[nH]6)C=C5)C=C4)cc2)C1
REMARK SMILES IDX 16 1 15 2 14 3 13 4 11 5 12 6 9 7 6 8 7 9 88 10 8 12 10 13
REMARK SMILES IDX 2 14 1 15 3 16 4 17 5 18 17 20 18 21 19 22 20 23 21 24 22 25
REMARK SMILES IDX 23 26 87 27 24 28 86 29 25 30 26 31 27 32 80 33 28 34 85 35
REMARK SMILES IDX 79 36 81 37 29 38 84 39 78 40 77 41 30 43 64 44 43 45 63 46
REMARK SMILES IDX 44 47 47 48 62 49 82 50 45 51 46 52 61 54 83 55 48 56 31 57
REMARK SMILES IDX 32 58 41 59 33 60 34 61 40 62 42 63 35 64 36 65 37 66 38 67
REMARK SMILES IDX 39 68 65 69 66 70 75 71 67 72 68 73 74 74 76 75 69 76 70 77
REMARK SMILES IDX 71 78 72 79 73 80 49 81 50 82 59 83 51 84 52 85 58 86 60 87
REMARK SMILES IDX 53 88 54 89 55 90 56 91 57 92
REMARK H PARENT 6 11 5 19 81 42 47 53
REMARK Flexibility Score: inf
ROOT
ATOM      1  O   UNL A   1      34.230  30.817  28.059  1.00  0.00    -0.374 OA
ENDROOT
BRANCH   1   2
ATOM      2  C   UNL A   1      33.602  30.343  26.866  1.00  0.00     0.202 C 
BRANCH   2   3
ATOM      3  C   UNL A   1      32.152  29.878  27.025  1.00  0.00     0.261 C 
BRANCH   3   4
ATOM      4  O   UNL A   1      31.766  28.974  25.971  1.00  0.00    -0.463 OA
BRANCH   4   5
ATOM      5  C   UNL A   1      31.421  27.715  26.347  1.00  0.00     0.317 C 
ATOM      6  O   UNL A   1      31.334  27.341  27.513  1.00  0.00    -0.251 OA
BRANCH   5   7
ATOM      7  C   UNL A   1      31.114  26.788  25.171  1.00  0.00     0.119 C 
ATOM      8  N   UNL A   1      32.158  24.650  24.675  1.00  0.00    -0.330 N 
ATOM      9  C   UNL A   1      31.059  24.403  25.609  1.00  0.00     0.263 C 
ATOM     10  C   UNL A   1      32.436  26.100  24.779  1.00  0.00     0.281 C 
ATOM     11  H   UNL A   1      31.868  24.360  23.740  1.00  0.00     0.348 HD
ATOM     12  C   UNL A   1      30.156  25.618  25.439  1.00  0.00     0.086 C 
ATOM     13  C   UNL A   1      30.567  27.676  24.048  1.00  0.00     0.030 C 
BRANCH   8  14
ATOM     14  C   UNL A   1      33.389  23.835  24.885  1.00  0.00     0.209 C 
ATOM     15  C   UNL A   1      34.515  24.834  25.223  1.00  0.00     0.078 C 
BRANCH  14  16
ATOM     16  C   UNL A   1      33.868  22.883  23.725  1.00  0.00     0.169 C 
ATOM     17  C   UNL A   1      33.272  23.290  22.369  1.00  0.00     0.045 C 
BRANCH  16  18
ATOM     18  O   UNL A   1      35.293  22.926  23.579  1.00  0.00    -0.387 OA
ATOM     19  H   UNL A   1      35.643  23.698  24.052  1.00  0.00     0.211 HD
ENDBRANCH  16  18
ENDBRANCH  14  16
ENDBRANCH   8  14
ENDBRANCH   5   7
ENDBRANCH   4   5
ENDBRANCH   3   4
ENDBRANCH   2   3
ENDBRANCH   1   2
BRANCH   1  20
ATOM     20  C   UNL A   1      34.762  32.140  28.022  1.00  0.00     0.202 C 
BRANCH  20  21
ATOM     21  C   UNL A   1      35.191  32.717  29.374  1.00  0.00     0.261 C 
BRANCH  21  22
ATOM     22  O   UNL A   1      36.596  32.519  29.612  1.00  0.00    -0.460 OA
BRANCH  22  23
ATOM     23  C   UNL A   1      36.880  31.536  30.497  1.00  0.00     0.338 C 
ATOM     24  O   UNL A   1      36.266  31.270  31.523  1.00  0.00    -0.246 OA
BRANCH  23  25
ATOM     25  C   UNL A   1      37.959  30.671  29.989  1.00  0.00     0.060 A 
ATOM     26  C   UNL A   1      38.930  30.261  30.910  1.00  0.00     0.016 A 
ATOM     27  C   UNL A   1      38.093  30.366  28.633  1.00  0.00     0.016 A 
ATOM     28  C   UNL A   1      40.078  29.610  30.469  1.00  0.00     0.010 A 
ATOM     29  C   UNL A   1      39.253  29.715  28.190  1.00  0.00     0.010 A 
ATOM     30  C   UNL A   1      40.271  29.379  29.101  1.00  0.00    -0.014 A 
BRANCH  30  31
ATOM     31  C   UNL A   1      41.615  28.955  28.634  1.00  0.00     0.031 A 
ATOM     32  C   UNL A   1      42.733  29.967  28.610  1.00  0.00     0.074 A 
ATOM     33  C   UNL A   1      41.862  27.671  28.313  1.00  0.00     0.049 A 
ATOM     34  N   UNL A   1      43.990  29.807  28.290  1.00  0.00    -0.248 NA
ATOM     35  C   UNL A   1      42.384  31.342  29.006  1.00  0.00     0.031 C 
ATOM     36  C   UNL A   1      40.875  26.593  28.330  1.00  0.00     0.029 A 
ATOM     37  N   UNL A   1      43.024  27.058  27.915  1.00  0.00    -0.354 N 
ATOM     38  C   UNL A   1      44.584  31.055  28.445  1.00  0.00     0.074 A 
ATOM     39  C   UNL A   1      43.541  31.971  28.858  1.00  0.00     0.031 C 
ATOM     40  C   UNL A   1      41.474  25.448  27.957  1.00  0.00     0.029 A 
ATOM     41  C   UNL A   1      42.879  25.716  27.656  1.00  0.00     0.049 A 
ATOM     42  H   UNL A   1      43.881  27.535  27.826  1.00  0.00     0.167 HD
ATOM     43  C   UNL A   1      45.881  31.406  28.274  1.00  0.00     0.037 A 
ATOM     44  C   UNL A   1      43.777  24.812  27.218  1.00  0.00     0.037 A 
ATOM     45  C   UNL A   1      46.918  30.493  27.871  1.00  0.00     0.049 A 
ATOM     46  C   UNL A   1      45.203  25.236  26.983  1.00  0.00     0.074 A 
ATOM     47  C   UNL A   1      48.266  30.750  27.689  1.00  0.00     0.029 A 
ATOM     48  N   UNL A   1      46.725  29.151  27.586  1.00  0.00    -0.354 N 
ATOM     49  N   UNL A   1      45.753  26.415  27.162  1.00  0.00    -0.248 NA
ATOM     50  C   UNL A   1      46.133  24.208  26.495  1.00  0.00     0.031 C 
ATOM     51  C   UNL A   1      48.880  29.570  27.253  1.00  0.00     0.029 A 
ATOM     52  C   UNL A   1      47.923  28.570  27.207  1.00  0.00     0.049 A 
ATOM     53  H   UNL A   1      45.862  28.679  27.644  1.00  0.00     0.167 HD
ATOM     54  C   UNL A   1      47.096  26.262  26.831  1.00  0.00     0.074 A 
ATOM     55  C   UNL A   1      47.278  24.876  26.453  1.00  0.00     0.031 C 
ATOM     56  C   UNL A   1      48.090  27.185  26.840  1.00  0.00     0.037 A 
BRANCH  43  57
ATOM     57  C   UNL A   1      46.249  32.844  28.505  1.00  0.00     0.058 A 
ATOM     58  C   UNL A   1      46.676  33.303  29.760  1.00  0.00     0.135 A 
ATOM     59  C   UNL A   1      46.212  33.766  27.447  1.00  0.00     0.135 A 
ATOM     60  F   UNL A   1      46.711  32.467  30.810  1.00  0.00    -0.206 F 
ATOM     61  C   UNL A   1      47.034  34.632  29.965  1.00  0.00     0.059 A 
ATOM     62  C   UNL A   1      46.588  35.095  27.622  1.00  0.00     0.059 A 
ATOM     63  F   UNL A   1      45.809  33.380  26.226  1.00  0.00    -0.206 F 
ATOM     64  C   UNL A   1      46.987  35.521  28.889  1.00  0.00     0.060 A 
BRANCH  64  65
ATOM     65  S   UNL A   1      47.464  37.240  29.166  1.00  0.00     0.124 S 
ATOM     66  O   UNL A   1      48.759  37.081  29.819  1.00  0.00    -0.237 OA
ATOM     67  O   UNL A   1      47.500  37.777  27.810  1.00  0.00    -0.237 OA
ATOM     68  O   UNL A   1      46.394  37.758  30.013  1.00  0.00    -0.744 OA
ENDBRANCH  64  65
ENDBRANCH  43  57
BRANCH  44  69
ATOM     69  C   UNL A   1      43.353  23.410  26.958  1.00  0.00     0.058 A 
ATOM     70  C   UNL A   1      43.210  22.485  28.003  1.00  0.00     0.135 A 
ATOM     71  C   UNL A   1      43.092  22.966  25.651  1.00  0.00     0.135 A 
ATOM     72  F   UNL A   1      43.458  22.860  29.267  1.00  0.00    -0.206 F 
ATOM     73  C   UNL A   1      42.841  21.166  27.763  1.00  0.00     0.059 A 
ATOM     74  C   UNL A   1      42.699  21.657  25.389  1.00  0.00     0.059 A 
ATOM     75  F   UNL A   1      43.206  23.813  24.618  1.00  0.00    -0.206 F 
ATOM     76  C   UNL A   1      42.588  20.762  26.451  1.00  0.00     0.060 A 
BRANCH  76  77
ATOM     77  S   UNL A   1      42.069  19.057  26.150  1.00  0.00     0.124 S 
ATOM     78  O   UNL A   1      42.990  18.652  25.095  1.00  0.00    -0.237 OA
ATOM     79  O   UNL A   1      42.278  18.436  27.455  1.00  0.00    -0.237 OA
ATOM     80  O   UNL A   1      40.673  19.200  25.750  1.00  0.00    -0.744 OA
ENDBRANCH  76  77
ENDBRANCH  44  69
BRANCH  56  81
ATOM     81  C   UNL A   1      49.469  26.725  26.458  1.00  0.00     0.058 A 
ATOM     82  C   UNL A   1      50.352  26.180  27.402  1.00  0.00     0.135 A 
ATOM     83  C   UNL A   1      49.893  26.783  25.120  1.00  0.00     0.135 A 
ATOM     84  F   UNL A   1      49.996  26.107  28.695  1.00  0.00    -0.206 F 
ATOM     85  C   UNL A   1      51.616  25.729  27.040  1.00  0.00     0.059 A 
ATOM     86  C   UNL A   1      51.144  26.314  24.730  1.00  0.00     0.059 A 
ATOM     87  F   UNL A   1      49.082  27.283  24.175  1.00  0.00    -0.206 F 
ATOM     88  C   UNL A   1      52.004  25.800  25.700  1.00  0.00     0.060 A 
BRANCH  88  89
ATOM     89  S   UNL A   1      53.636  25.184  25.233  1.00  0.00     0.124 S 
ATOM     90  O   UNL A   1      53.395  23.747  25.153  1.00  0.00    -0.237 OA
ATOM     91  O   UNL A   1      53.874  25.858  23.959  1.00  0.00    -0.237 OA
ATOM     92  O   UNL A   1      54.490  25.619  26.333  1.00  0.00    -0.744 OA
ENDBRANCH  88  89
ENDBRANCH  56  81
ENDBRANCH  30  31
ENDBRANCH  23  25
ENDBRANCH  22  23
ENDBRANCH  21  22
ENDBRANCH  20  21
ENDBRANCH   1  20
TORSDOF 20
ENDMDL
