MODEL 1
REMARK VINA RESULT:     -10.6      0.000      0.000
REMARK SMILES O=C(OCCOCCOC(=O)[C@@H]1CCCCN1c1ccccc1[N+](=O)[O-])c1ccc(-c2c3nc(c(-c4c(F)cc(S(=O)(=O)[O-])cc4F)c4ccc([nH]4)c(-c4c(F)cc(S(=O)(=O)[O-])cc4F)c4nc(c(-c5c(F)cc(S(=O)(=O)[O-])cc5F)c5ccc2[nH]5)C=C4)C=C3)cc1
REMARK SMILES IDX 5 1 4 2 3 3 2 4 1 5 27 6 28 7 92 8 29 9 91 10 30 11 31 12
REMARK SMILES IDX 32 13 85 14 33 15 90 16 84 17 86 18 34 19 89 20 83 21 82 22
REMARK SMILES IDX 35 24 69 25 48 26 68 27 49 28 52 29 67 30 87 31 50 32 51 33
REMARK SMILES IDX 66 35 88 36 53 37 36 38 37 39 46 40 38 41 39 42 45 43 47 44
REMARK SMILES IDX 40 45 41 46 42 47 43 48 44 49 70 50 71 51 80 52 72 53 73 54
REMARK SMILES IDX 79 55 81 56 74 57 75 58 76 59 77 60 78 61 54 62 55 63 64 64
REMARK SMILES IDX 56 65 57 66 63 67 65 68 58 69 59 70 60 71 61 72 62 73 6 74
REMARK SMILES IDX 7 75 8 76 9 77 10 78 11 79 12 80 13 81 17 82 14 83 16 84
REMARK SMILES IDX 15 85 18 86 19 87 23 88 20 89 22 90 21 91 24 92 25 93 26 94
REMARK H PARENT 86 23 52 34
REMARK Flexibility Score: inf
ROOT
ATOM      1  C   UNL A   1      31.772  28.799  26.471  1.00  0.00     0.202 C 
ENDROOT
BRANCH   1   2
ATOM      2  C   UNL A   1      32.767  28.484  27.610  1.00  0.00     0.261 C 
BRANCH   2   3
ATOM      3  O   UNL A   1      34.112  28.954  27.328  1.00  0.00    -0.460 OA
BRANCH   3   4
ATOM      4  C   UNL A   1      34.797  29.978  27.904  1.00  0.00     0.338 C 
ATOM      5  O   UNL A   1      34.250  31.049  28.150  1.00  0.00    -0.246 OA
BRANCH   4   6
ATOM      6  C   UNL A   1      36.215  29.777  28.252  1.00  0.00     0.060 A 
ATOM      7  C   UNL A   1      37.184  30.050  27.306  1.00  0.00     0.016 A 
ATOM      8  C   UNL A   1      36.614  29.314  29.503  1.00  0.00     0.016 A 
ATOM      9  C   UNL A   1      38.468  29.641  27.438  1.00  0.00     0.010 A 
ATOM     10  C   UNL A   1      37.973  29.075  29.735  1.00  0.00     0.010 A 
ATOM     11  C   UNL A   1      38.887  29.229  28.684  1.00  0.00    -0.014 A 
BRANCH  11  12
ATOM     12  C   UNL A   1      40.318  28.965  28.749  1.00  0.00     0.031 A 
ATOM     13  C   UNL A   1      41.187  30.029  29.314  1.00  0.00     0.074 A 
ATOM     14  C   UNL A   1      40.719  27.694  28.540  1.00  0.00     0.049 A 
ATOM     15  N   UNL A   1      42.481  30.058  29.387  1.00  0.00    -0.248 NA
ATOM     16  C   UNL A   1      40.517  31.218  29.878  1.00  0.00     0.031 C 
ATOM     17  C   UNL A   1      39.827  26.569  28.198  1.00  0.00     0.029 A 
ATOM     18  N   UNL A   1      41.943  27.109  28.649  1.00  0.00    -0.354 N 
ATOM     19  C   UNL A   1      42.790  31.302  29.914  1.00  0.00     0.074 A 
ATOM     20  C   UNL A   1      41.550  31.979  30.207  1.00  0.00     0.031 C 
ATOM     21  C   UNL A   1      40.532  25.432  28.172  1.00  0.00     0.029 A 
ATOM     22  C   UNL A   1      41.934  25.769  28.333  1.00  0.00     0.049 A 
ATOM     23  H   UNL A   1      42.754  27.593  28.927  1.00  0.00     0.167 HD
ATOM     24  C   UNL A   1      44.026  31.816  30.070  1.00  0.00     0.037 A 
ATOM     25  C   UNL A   1      42.967  24.944  28.097  1.00  0.00     0.037 A 
ATOM     26  C   UNL A   1      45.204  31.048  29.771  1.00  0.00     0.049 A 
ATOM     27  C   UNL A   1      44.329  25.567  28.197  1.00  0.00     0.074 A 
ATOM     28  C   UNL A   1      46.526  31.433  29.818  1.00  0.00     0.029 A 
ATOM     29  N   UNL A   1      45.179  29.717  29.364  1.00  0.00    -0.354 N 
ATOM     30  N   UNL A   1      44.642  26.783  28.588  1.00  0.00    -0.248 NA
ATOM     31  C   UNL A   1      45.468  24.749  27.782  1.00  0.00     0.031 C 
ATOM     32  C   UNL A   1      47.297  30.347  29.389  1.00  0.00     0.029 A 
ATOM     33  C   UNL A   1      46.461  29.270  29.122  1.00  0.00     0.049 A 
ATOM     34  H   UNL A   1      44.365  29.172  29.263  1.00  0.00     0.167 HD
ATOM     35  C   UNL A   1      46.014  26.888  28.448  1.00  0.00     0.074 A 
ATOM     36  C   UNL A   1      46.474  25.591  27.977  1.00  0.00     0.031 C 
ATOM     37  C   UNL A   1      46.828  27.951  28.663  1.00  0.00     0.037 A 
BRANCH  24  38
ATOM     38  C   UNL A   1      44.138  33.263  30.441  1.00  0.00     0.058 A 
ATOM     39  C   UNL A   1      44.335  33.697  31.759  1.00  0.00     0.135 A 
ATOM     40  C   UNL A   1      44.026  34.240  29.438  1.00  0.00     0.135 A 
ATOM     41  F   UNL A   1      44.396  32.808  32.763  1.00  0.00    -0.206 F 
ATOM     42  C   UNL A   1      44.428  35.052  32.070  1.00  0.00     0.059 A 
ATOM     43  C   UNL A   1      44.136  35.597  29.722  1.00  0.00     0.059 A 
ATOM     44  F   UNL A   1      43.798  33.878  28.166  1.00  0.00    -0.206 F 
ATOM     45  C   UNL A   1      44.334  35.994  31.041  1.00  0.00     0.060 A 
BRANCH  45  46
ATOM     46  S   UNL A   1      44.497  37.745  31.451  1.00  0.00     0.124 S 
ATOM     47  O   UNL A   1      44.157  38.376  30.180  1.00  0.00    -0.237 OA
ATOM     48  O   UNL A   1      43.516  37.905  32.520  1.00  0.00    -0.237 OA
ATOM     49  O   UNL A   1      45.892  37.871  31.861  1.00  0.00    -0.744 OA
ENDBRANCH  45  46
ENDBRANCH  24  38
BRANCH  25  50
ATOM     50  C   UNL A   1      42.742  23.561  27.591  1.00  0.00     0.058 A 
ATOM     51  C   UNL A   1      42.465  22.494  28.456  1.00  0.00     0.135 A 
ATOM     52  C   UNL A   1      42.807  23.274  26.213  1.00  0.00     0.135 A 
ATOM     53  F   UNL A   1      42.392  22.706  29.779  1.00  0.00    -0.206 F 
ATOM     54  C   UNL A   1      42.288  21.195  27.982  1.00  0.00     0.059 A 
ATOM     55  C   UNL A   1      42.599  21.993  25.714  1.00  0.00     0.059 A 
ATOM     56  F   UNL A   1      43.059  24.252  25.329  1.00  0.00    -0.206 F 
ATOM     57  C   UNL A   1      42.362  20.955  26.609  1.00  0.00     0.060 A 
BRANCH  57  58
ATOM     58  S   UNL A   1      42.144  19.269  25.999  1.00  0.00     0.124 S 
ATOM     59  O   UNL A   1      42.629  18.486  27.129  1.00  0.00    -0.237 OA
ATOM     60  O   UNL A   1      40.706  19.212  25.752  1.00  0.00    -0.237 OA
ATOM     61  O   UNL A   1      42.979  19.233  24.802  1.00  0.00    -0.744 OA
ENDBRANCH  57  58
ENDBRANCH  25  50
BRANCH  37  62
ATOM     62  C   UNL A   1      48.280  27.728  28.395  1.00  0.00     0.058 A 
ATOM     63  C   UNL A   1      48.844  28.059  27.156  1.00  0.00     0.135 A 
ATOM     64  C   UNL A   1      49.119  27.266  29.418  1.00  0.00     0.135 A 
ATOM     65  F   UNL A   1      48.068  28.491  26.150  1.00  0.00    -0.206 F 
ATOM     66  C   UNL A   1      50.208  27.937  26.938  1.00  0.00     0.059 A 
ATOM     67  C   UNL A   1      50.489  27.164  29.231  1.00  0.00     0.059 A 
ATOM     68  F   UNL A   1      48.610  26.947  30.619  1.00  0.00    -0.206 F 
ATOM     69  C   UNL A   1      51.021  27.499  27.986  1.00  0.00     0.060 A 
BRANCH  69  70
ATOM     70  S   UNL A   1      52.801  27.422  27.715  1.00  0.00     0.124 S 
ATOM     71  O   UNL A   1      53.311  27.964  28.970  1.00  0.00    -0.237 OA
ATOM     72  O   UNL A   1      53.022  25.995  27.502  1.00  0.00    -0.237 OA
ATOM     73  O   UNL A   1      53.001  28.263  26.540  1.00  0.00    -0.744 OA
ENDBRANCH  69  70
ENDBRANCH  37  62
ENDBRANCH  11  12
ENDBRANCH   4   6
ENDBRANCH   3   4
ENDBRANCH   2   3
ENDBRANCH   1   2
BRANCH   1  74
ATOM     74  O   UNL A   1      31.346  27.737  25.610  1.00  0.00    -0.374 OA
BRANCH  74  75
ATOM     75  C   UNL A   1      31.362  26.402  26.129  1.00  0.00     0.202 C 
BRANCH  75  76
ATOM     76  C   UNL A   1      32.248  25.497  25.287  1.00  0.00     0.261 C 
BRANCH  76  77
ATOM     77  O   UNL A   1      33.353  25.089  26.104  1.00  0.00    -0.462 OA
BRANCH  77  78
ATOM     78  C   UNL A   1      33.378  23.760  26.379  1.00  0.00     0.328 C 
ATOM     79  O   UNL A   1      32.431  23.125  26.837  1.00  0.00    -0.250 OA
BRANCH  78  80
ATOM     80  C   UNL A   1      34.752  23.145  26.217  1.00  0.00     0.192 C 
ATOM     81  C   UNL A   1      35.678  24.309  25.849  1.00  0.00     0.037 C 
ATOM     82  N   UNL A   1      35.029  21.978  25.313  1.00  0.00    -0.353 N 
ATOM     83  C   UNL A   1      37.136  23.876  25.866  1.00  0.00     0.005 C 
ATOM     84  C   UNL A   1      36.420  21.513  25.383  1.00  0.00     0.118 C 
ATOM     85  C   UNL A   1      37.342  22.657  24.974  1.00  0.00     0.022 C 
BRANCH  82  86
ATOM     86  C   UNL A   1      34.169  21.188  24.569  1.00  0.00     0.116 A 
ATOM     87  C   UNL A   1      33.919  19.870  24.980  1.00  0.00     0.033 A 
ATOM     88  C   UNL A   1      33.370  21.643  23.484  1.00  0.00     0.292 A 
ATOM     89  C   UNL A   1      32.943  19.062  24.371  1.00  0.00     0.003 A 
ATOM     90  C   UNL A   1      32.367  20.853  22.885  1.00  0.00     0.088 A 
ATOM     91  C   UNL A   1      32.153  19.559  23.339  1.00  0.00     0.007 A 
BRANCH  88  92
ATOM     92  N   UNL A   1      33.609  22.943  22.859  1.00  0.00     0.064 N 
ATOM     93  O   UNL A   1      32.614  23.642  22.609  1.00  0.00    -0.258 OA
ATOM     94  O   UNL A   1      34.775  23.249  22.568  1.00  0.00    -0.258 OA
ENDBRANCH  88  92
ENDBRANCH  82  86
ENDBRANCH  78  80
ENDBRANCH  77  78
ENDBRANCH  76  77
ENDBRANCH  75  76
ENDBRANCH  74  75
ENDBRANCH   1  74
TORSDOF 19
ENDMDL
MODEL 2
REMARK VINA RESULT:     -10.4      1.093      2.396
REMARK SMILES O=C(OCCOCCOC(=O)[C@@H]1CCCCN1c1ccccc1[N+](=O)[O-])c1ccc(-c2c3nc(c(-c4c(F)cc(S(=O)(=O)[O-])cc4F)c4ccc([nH]4)c(-c4c(F)cc(S(=O)(=O)[O-])cc4F)c4nc(c(-c5c(F)cc(S(=O)(=O)[O-])cc5F)c5ccc2[nH]5)C=C4)C=C3)cc1
REMARK SMILES IDX 5 1 4 2 3 3 2 4 1 5 27 6 28 7 92 8 29 9 91 10 30 11 31 12
REMARK SMILES IDX 32 13 85 14 33 15 90 16 84 17 86 18 34 19 89 20 83 21 82 22
REMARK SMILES IDX 35 24 69 25 48 26 68 27 49 28 52 29 67 30 87 31 50 32 51 33
REMARK SMILES IDX 66 35 88 36 53 37 36 38 37 39 46 40 38 41 39 42 45 43 47 44
REMARK SMILES IDX 40 45 41 46 42 47 43 48 44 49 70 50 71 51 80 52 72 53 73 54
REMARK SMILES IDX 79 55 81 56 74 57 75 58 76 59 77 60 78 61 54 62 55 63 64 64
REMARK SMILES IDX 56 65 57 66 63 67 65 68 58 69 59 70 60 71 61 72 62 73 6 74
REMARK SMILES IDX 7 75 8 76 9 77 10 78 11 79 12 80 13 81 17 82 14 83 16 84
REMARK SMILES IDX 15 85 18 86 19 87 23 88 20 89 22 90 21 91 24 92 25 93 26 94
REMARK H PARENT 86 23 52 34
REMARK Flexibility Score: inf
ROOT
ATOM      1  C   UNL A   1      32.463  29.945  25.630  1.00  0.00     0.202 C 
ENDROOT
BRANCH   1   2
ATOM      2  C   UNL A   1      32.672  29.040  26.865  1.00  0.00     0.261 C 
BRANCH   2   3
ATOM      3  O   UNL A   1      34.039  29.066  27.355  1.00  0.00    -0.460 OA
BRANCH   3   4
ATOM      4  C   UNL A   1      34.699  30.070  27.993  1.00  0.00     0.338 C 
ATOM      5  O   UNL A   1      34.130  31.117  28.287  1.00  0.00    -0.246 OA
BRANCH   4   6
ATOM      6  C   UNL A   1      36.116  29.876  28.346  1.00  0.00     0.060 A 
ATOM      7  C   UNL A   1      37.087  30.130  27.397  1.00  0.00     0.016 A 
ATOM      8  C   UNL A   1      36.514  29.439  29.608  1.00  0.00     0.016 A 
ATOM      9  C   UNL A   1      38.371  29.724  27.538  1.00  0.00     0.010 A 
ATOM     10  C   UNL A   1      37.872  29.205  29.847  1.00  0.00     0.010 A 
ATOM     11  C   UNL A   1      38.788  29.338  28.793  1.00  0.00    -0.014 A 
BRANCH  11  12
ATOM     12  C   UNL A   1      40.219  29.075  28.866  1.00  0.00     0.031 A 
ATOM     13  C   UNL A   1      41.082  30.135  29.448  1.00  0.00     0.074 A 
ATOM     14  C   UNL A   1      40.623  27.807  28.648  1.00  0.00     0.049 A 
ATOM     15  N   UNL A   1      42.375  30.165  29.531  1.00  0.00    -0.248 NA
ATOM     16  C   UNL A   1      40.406  31.318  30.019  1.00  0.00     0.031 C 
ATOM     17  C   UNL A   1      39.736  26.684  28.288  1.00  0.00     0.029 A 
ATOM     18  N   UNL A   1      41.848  27.222  28.760  1.00  0.00    -0.354 N 
ATOM     19  C   UNL A   1      42.679  31.404  30.072  1.00  0.00     0.074 A 
ATOM     20  C   UNL A   1      41.436  32.076  30.363  1.00  0.00     0.031 C 
ATOM     21  C   UNL A   1      40.443  25.548  28.255  1.00  0.00     0.029 A 
ATOM     22  C   UNL A   1      41.843  25.886  28.431  1.00  0.00     0.049 A 
ATOM     23  H   UNL A   1      42.656  27.706  29.048  1.00  0.00     0.167 HD
ATOM     24  C   UNL A   1      43.912  31.919  30.242  1.00  0.00     0.037 A 
ATOM     25  C   UNL A   1      42.879  25.065  28.194  1.00  0.00     0.037 A 
ATOM     26  C   UNL A   1      45.094  31.156  29.944  1.00  0.00     0.049 A 
ATOM     27  C   UNL A   1      44.239  25.689  28.309  1.00  0.00     0.074 A 
ATOM     28  C   UNL A   1      46.415  31.542  30.004  1.00  0.00     0.029 A 
ATOM     29  N   UNL A   1      45.074  29.828  29.523  1.00  0.00    -0.354 N 
ATOM     30  N   UNL A   1      44.547  26.902  28.715  1.00  0.00    -0.248 NA
ATOM     31  C   UNL A   1      45.382  24.877  27.894  1.00  0.00     0.031 C 
ATOM     32  C   UNL A   1      47.191  30.462  29.570  1.00  0.00     0.029 A 
ATOM     33  C   UNL A   1      46.359  29.386  29.286  1.00  0.00     0.049 A 
ATOM     34  H   UNL A   1      44.262  29.284  29.411  1.00  0.00     0.167 HD
ATOM     35  C   UNL A   1      45.920  27.010  28.586  1.00  0.00     0.074 A 
ATOM     36  C   UNL A   1      46.386  25.719  28.105  1.00  0.00     0.031 C 
ATOM     37  C   UNL A   1      46.731  28.073  28.817  1.00  0.00     0.037 A 
BRANCH  24  38
ATOM     38  C   UNL A   1      44.019  33.362  30.629  1.00  0.00     0.058 A 
ATOM     39  C   UNL A   1      44.024  34.402  29.689  1.00  0.00     0.135 A 
ATOM     40  C   UNL A   1      44.137  33.704  31.986  1.00  0.00     0.135 A 
ATOM     41  F   UNL A   1      43.968  34.130  28.376  1.00  0.00    -0.206 F 
ATOM     42  C   UNL A   1      44.133  35.734  30.083  1.00  0.00     0.059 A 
ATOM     43  C   UNL A   1      44.226  35.027  32.404  1.00  0.00     0.059 A 
ATOM     44  F   UNL A   1      44.177  32.743  32.922  1.00  0.00    -0.206 F 
ATOM     45  C   UNL A   1      44.226  36.035  31.445  1.00  0.00     0.060 A 
BRANCH  45  46
ATOM     46  S   UNL A   1      44.324  37.768  31.945  1.00  0.00     0.124 S 
ATOM     47  O   UNL A   1      43.491  37.775  33.143  1.00  0.00    -0.237 OA
ATOM     48  O   UNL A   1      45.756  37.945  32.168  1.00  0.00    -0.237 OA
ATOM     49  O   UNL A   1      43.779  38.486  30.798  1.00  0.00    -0.744 OA
ENDBRANCH  45  46
ENDBRANCH  24  38
BRANCH  25  50
ATOM     50  C   UNL A   1      42.660  23.687  27.672  1.00  0.00     0.058 A 
ATOM     51  C   UNL A   1      42.564  22.581  28.526  1.00  0.00     0.135 A 
ATOM     52  C   UNL A   1      42.548  23.444  26.289  1.00  0.00     0.135 A 
ATOM     53  F   UNL A   1      42.665  22.749  29.854  1.00  0.00    -0.206 F 
ATOM     54  C   UNL A   1      42.393  21.288  28.034  1.00  0.00     0.059 A 
ATOM     55  C   UNL A   1      42.340  22.170  25.775  1.00  0.00     0.059 A 
ATOM     56  F   UNL A   1      42.621  24.462  25.415  1.00  0.00    -0.206 F 
ATOM     57  C   UNL A   1      42.287  21.093  26.655  1.00  0.00     0.060 A 
BRANCH  57  58
ATOM     58  S   UNL A   1      42.076  19.416  26.019  1.00  0.00     0.124 S 
ATOM     59  O   UNL A   1      40.635  19.369  25.796  1.00  0.00    -0.237 OA
ATOM     60  O   UNL A   1      42.907  19.432  24.820  1.00  0.00    -0.237 OA
ATOM     61  O   UNL A   1      42.574  18.578  27.106  1.00  0.00    -0.744 OA
ENDBRANCH  57  58
ENDBRANCH  25  50
BRANCH  37  62
ATOM     62  C   UNL A   1      48.185  27.854  28.558  1.00  0.00     0.058 A 
ATOM     63  C   UNL A   1      48.756  28.192  27.323  1.00  0.00     0.135 A 
ATOM     64  C   UNL A   1      49.019  27.391  29.584  1.00  0.00     0.135 A 
ATOM     65  F   UNL A   1      47.985  28.625  26.314  1.00  0.00    -0.206 F 
ATOM     66  C   UNL A   1      50.121  28.074  27.113  1.00  0.00     0.059 A 
ATOM     67  C   UNL A   1      50.390  27.293  29.405  1.00  0.00     0.059 A 
ATOM     68  F   UNL A   1      48.503  27.066  30.781  1.00  0.00    -0.206 F 
ATOM     69  C   UNL A   1      50.930  27.634  28.165  1.00  0.00     0.060 A 
BRANCH  69  70
ATOM     70  S   UNL A   1      52.711  27.563  27.904  1.00  0.00     0.124 S 
ATOM     71  O   UNL A   1      53.197  28.436  28.968  1.00  0.00    -0.237 OA
ATOM     72  O   UNL A   1      52.994  26.140  28.070  1.00  0.00    -0.237 OA
ATOM     73  O   UNL A   1      52.875  28.074  26.548  1.00  0.00    -0.744 OA
ENDBRANCH  69  70
ENDBRANCH  37  62
ENDBRANCH  11  12
ENDBRANCH   4   6
ENDBRANCH   3   4
ENDBRANCH   2   3
ENDBRANCH   1   2
BRANCH   1  74
ATOM     74  O   UNL A   1      32.470  29.350  24.327  1.00  0.00    -0.374 OA
BRANCH  74  75
ATOM     75  C   UNL A   1      33.668  28.699  23.890  1.00  0.00     0.202 C 
BRANCH  75  76
ATOM     76  C   UNL A   1      33.520  28.176  22.469  1.00  0.00     0.261 C 
BRANCH  76  77
ATOM     77  O   UNL A   1      32.449  27.224  22.467  1.00  0.00    -0.462 OA
BRANCH  77  78
ATOM     78  C   UNL A   1      32.820  25.970  22.829  1.00  0.00     0.328 C 
ATOM     79  O   UNL A   1      33.805  25.381  22.392  1.00  0.00    -0.250 OA
BRANCH  78  80
ATOM     80  C   UNL A   1      31.806  25.283  23.719  1.00  0.00     0.192 C 
ATOM     81  C   UNL A   1      31.100  26.412  24.478  1.00  0.00     0.037 C 
ATOM     82  N   UNL A   1      32.165  24.182  24.676  1.00  0.00    -0.353 N 
ATOM     83  C   UNL A   1      29.903  25.885  25.254  1.00  0.00     0.005 C 
ATOM     84  C   UNL A   1      30.999  23.624  25.373  1.00  0.00     0.118 C 
ATOM     85  C   UNL A   1      30.319  24.736  26.165  1.00  0.00     0.022 C 
BRANCH  82  86
ATOM     86  C   UNL A   1      33.361  23.517  24.880  1.00  0.00     0.116 A 
ATOM     87  C   UNL A   1      34.286  24.032  25.801  1.00  0.00     0.033 A 
ATOM     88  C   UNL A   1      33.689  22.240  24.346  1.00  0.00     0.292 A 
ATOM     89  C   UNL A   1      35.447  23.333  26.175  1.00  0.00     0.003 A 
ATOM     90  C   UNL A   1      34.834  21.515  24.738  1.00  0.00     0.088 A 
ATOM     91  C   UNL A   1      35.711  22.068  25.662  1.00  0.00     0.007 A 
BRANCH  88  92
ATOM     92  N   UNL A   1      32.894  21.636  23.278  1.00  0.00     0.064 N 
ATOM     93  O   UNL A   1      32.862  22.233  22.190  1.00  0.00    -0.258 OA
ATOM     94  O   UNL A   1      32.260  20.601  23.532  1.00  0.00    -0.258 OA
ENDBRANCH  88  92
ENDBRANCH  82  86
ENDBRANCH  78  80
ENDBRANCH  77  78
ENDBRANCH  76  77
ENDBRANCH  75  76
ENDBRANCH  74  75
ENDBRANCH   1  74
TORSDOF 19
ENDMDL
MODEL 3
REMARK VINA RESULT:     -10.1      5.535     10.341
REMARK SMILES O=C(OCCOCCOC(=O)[C@@H]1CCCCN1c1ccccc1[N+](=O)[O-])c1ccc(-c2c3nc(c(-c4c(F)cc(S(=O)(=O)[O-])cc4F)c4ccc([nH]4)c(-c4c(F)cc(S(=O)(=O)[O-])cc4F)c4nc(c(-c5c(F)cc(S(=O)(=O)[O-])cc5F)c5ccc2[nH]5)C=C4)C=C3)cc1
REMARK SMILES IDX 5 1 4 2 3 3 2 4 1 5 27 6 28 7 92 8 29 9 91 10 30 11 31 12
REMARK SMILES IDX 32 13 85 14 33 15 90 16 84 17 86 18 34 19 89 20 83 21 82 22
REMARK SMILES IDX 35 24 69 25 48 26 68 27 49 28 52 29 67 30 87 31 50 32 51 33
REMARK SMILES IDX 66 35 88 36 53 37 36 38 37 39 46 40 38 41 39 42 45 43 47 44
REMARK SMILES IDX 40 45 41 46 42 47 43 48 44 49 70 50 71 51 80 52 72 53 73 54
REMARK SMILES IDX 79 55 81 56 74 57 75 58 76 59 77 60 78 61 54 62 55 63 64 64
REMARK SMILES IDX 56 65 57 66 63 67 65 68 58 69 59 70 60 71 61 72 62 73 6 74
REMARK SMILES IDX 7 75 8 76 9 77 10 78 11 79 12 80 13 81 17 82 14 83 16 84
REMARK SMILES IDX 15 85 18 86 19 87 23 88 20 89 22 90 21 91 24 92 25 93 26 94
REMARK H PARENT 86 23 52 34
REMARK Flexibility Score: inf
ROOT
ATOM      1  C   UNL A   1      31.725  31.787  26.659  1.00  0.00     0.202 C 
ENDROOT
BRANCH   1   2
ATOM      2  C   UNL A   1      31.871  33.246  27.147  1.00  0.00     0.261 C 
BRANCH   2   3
ATOM      3  O   UNL A   1      33.198  33.537  27.662  1.00  0.00    -0.460 OA
BRANCH   3   4
ATOM      4  C   UNL A   1      33.557  33.972  28.899  1.00  0.00     0.338 C 
ATOM      5  O   UNL A   1      32.821  34.705  29.553  1.00  0.00    -0.246 OA
BRANCH   4   6
ATOM      6  C   UNL A   1      34.847  33.532  29.460  1.00  0.00     0.060 A 
ATOM      7  C   UNL A   1      34.878  32.425  30.286  1.00  0.00     0.016 A 
ATOM      8  C   UNL A   1      36.040  34.198  29.189  1.00  0.00     0.016 A 
ATOM      9  C   UNL A   1      35.951  32.117  31.054  1.00  0.00     0.010 A 
ATOM     10  C   UNL A   1      37.214  33.767  29.817  1.00  0.00     0.010 A 
ATOM     11  C   UNL A   1      37.148  32.733  30.762  1.00  0.00    -0.014 A 
BRANCH  11  12
ATOM     12  C   UNL A   1      38.265  32.213  31.540  1.00  0.00     0.031 A 
ATOM     13  C   UNL A   1      39.120  31.179  30.904  1.00  0.00     0.074 A 
ATOM     14  C   UNL A   1      38.597  32.884  32.662  1.00  0.00     0.049 A 
ATOM     15  N   UNL A   1      40.101  30.511  31.428  1.00  0.00    -0.248 NA
ATOM     16  C   UNL A   1      38.845  30.850  29.491  1.00  0.00     0.031 C 
ATOM     17  C   UNL A   1      37.884  34.064  33.186  1.00  0.00     0.029 A 
ATOM     18  N   UNL A   1      39.640  32.732  33.523  1.00  0.00    -0.354 N 
ATOM     19  C   UNL A   1      40.500  29.617  30.448  1.00  0.00     0.074 A 
ATOM     20  C   UNL A   1      39.704  29.866  29.271  1.00  0.00     0.031 C 
ATOM     21  C   UNL A   1      38.540  34.548  34.248  1.00  0.00     0.029 A 
ATOM     22  C   UNL A   1      39.614  33.626  34.570  1.00  0.00     0.049 A 
ATOM     23  H   UNL A   1      40.344  32.053  33.410  1.00  0.00     0.167 HD
ATOM     24  C   UNL A   1      41.424  28.646  30.584  1.00  0.00     0.037 A 
ATOM     25  C   UNL A   1      40.320  33.619  35.712  1.00  0.00     0.037 A 
ATOM     26  C   UNL A   1      42.185  28.495  31.795  1.00  0.00     0.049 A 
ATOM     27  C   UNL A   1      41.282  32.478  35.871  1.00  0.00     0.074 A 
ATOM     28  C   UNL A   1      43.116  27.534  32.122  1.00  0.00     0.029 A 
ATOM     29  N   UNL A   1      42.084  29.355  32.887  1.00  0.00    -0.354 N 
ATOM     30  N   UNL A   1      41.596  31.548  34.995  1.00  0.00    -0.248 NA
ATOM     31  C   UNL A   1      41.942  32.339  37.168  1.00  0.00     0.031 C 
ATOM     32  C   UNL A   1      43.541  27.784  33.431  1.00  0.00     0.029 A 
ATOM     33  C   UNL A   1      42.912  28.929  33.904  1.00  0.00     0.049 A 
ATOM     34  H   UNL A   1      41.506  30.151  32.926  1.00  0.00     0.167 HD
ATOM     35  C   UNL A   1      42.478  30.699  35.639  1.00  0.00     0.074 A 
ATOM     36  C   UNL A   1      42.680  31.255  36.967  1.00  0.00     0.031 C 
ATOM     37  C   UNL A   1      43.057  29.555  35.197  1.00  0.00     0.037 A 
BRANCH  24  38
ATOM     38  C   UNL A   1      41.547  27.639  29.482  1.00  0.00     0.058 A 
ATOM     39  C   UNL A   1      40.559  26.682  29.214  1.00  0.00     0.135 A 
ATOM     40  C   UNL A   1      42.703  27.630  28.684  1.00  0.00     0.135 A 
ATOM     41  F   UNL A   1      39.458  26.611  29.978  1.00  0.00    -0.206 F 
ATOM     42  C   UNL A   1      40.709  25.755  28.184  1.00  0.00     0.059 A 
ATOM     43  C   UNL A   1      42.866  26.728  27.639  1.00  0.00     0.059 A 
ATOM     44  F   UNL A   1      43.696  28.501  28.926  1.00  0.00    -0.206 F 
ATOM     45  C   UNL A   1      41.863  25.792  27.398  1.00  0.00     0.060 A 
BRANCH  45  46
ATOM     46  S   UNL A   1      42.027  24.612  26.041  1.00  0.00     0.124 S 
ATOM     47  O   UNL A   1      43.241  23.895  26.421  1.00  0.00    -0.237 OA
ATOM     48  O   UNL A   1      40.785  23.852  26.140  1.00  0.00    -0.237 OA
ATOM     49  O   UNL A   1      42.145  25.463  24.861  1.00  0.00    -0.744 OA
ENDBRANCH  45  46
ENDBRANCH  24  38
BRANCH  25  50
ATOM     50  C   UNL A   1      40.016  34.582  36.806  1.00  0.00     0.058 A 
ATOM     51  C   UNL A   1      40.624  35.843  36.870  1.00  0.00     0.135 A 
ATOM     52  C   UNL A   1      39.103  34.255  37.828  1.00  0.00     0.135 A 
ATOM     53  F   UNL A   1      41.503  36.211  35.926  1.00  0.00    -0.206 F 
ATOM     54  C   UNL A   1      40.362  36.730  37.913  1.00  0.00     0.059 A 
ATOM     55  C   UNL A   1      38.798  35.136  38.859  1.00  0.00     0.059 A 
ATOM     56  F   UNL A   1      38.478  33.067  37.821  1.00  0.00    -0.206 F 
ATOM     57  C   UNL A   1      39.451  36.364  38.906  1.00  0.00     0.060 A 
BRANCH  57  58
ATOM     58  S   UNL A   1      39.122  37.510  40.263  1.00  0.00     0.124 S 
ATOM     59  O   UNL A   1      38.546  36.619  41.263  1.00  0.00    -0.237 OA
ATOM     60  O   UNL A   1      40.453  38.029  40.560  1.00  0.00    -0.237 OA
ATOM     61  O   UNL A   1      38.199  38.475  39.672  1.00  0.00    -0.744 OA
ENDBRANCH  57  58
ENDBRANCH  25  50
BRANCH  37  62
ATOM     62  C   UNL A   1      43.958  28.862  36.165  1.00  0.00     0.058 A 
ATOM     63  C   UNL A   1      43.513  27.754  36.899  1.00  0.00     0.135 A 
ATOM     64  C   UNL A   1      45.297  29.259  36.286  1.00  0.00     0.135 A 
ATOM     65  F   UNL A   1      42.234  27.356  36.818  1.00  0.00    -0.206 F 
ATOM     66  C   UNL A   1      44.375  27.056  37.729  1.00  0.00     0.059 A 
ATOM     67  C   UNL A   1      46.183  28.557  37.089  1.00  0.00     0.059 A 
ATOM     68  F   UNL A   1      45.756  30.312  35.591  1.00  0.00    -0.206 F 
ATOM     69  C   UNL A   1      45.711  27.460  37.808  1.00  0.00     0.060 A 
BRANCH  69  70
ATOM     70  S   UNL A   1      46.840  26.494  38.828  1.00  0.00     0.124 S 
ATOM     71  O   UNL A   1      48.118  27.135  38.536  1.00  0.00    -0.237 OA
ATOM     72  O   UNL A   1      46.311  26.713  40.171  1.00  0.00    -0.237 OA
ATOM     73  O   UNL A   1      46.684  25.138  38.314  1.00  0.00    -0.744 OA
ENDBRANCH  69  70
ENDBRANCH  37  62
ENDBRANCH  11  12
ENDBRANCH   4   6
ENDBRANCH   3   4
ENDBRANCH   2   3
ENDBRANCH   1   2
BRANCH   1  74
ATOM     74  O   UNL A   1      32.616  30.792  27.175  1.00  0.00    -0.374 OA
BRANCH  74  75
ATOM     75  C   UNL A   1      32.797  29.592  26.416  1.00  0.00     0.202 C 
BRANCH  75  76
ATOM     76  C   UNL A   1      33.560  28.547  27.216  1.00  0.00     0.261 C 
BRANCH  76  77
ATOM     77  O   UNL A   1      33.680  27.376  26.398  1.00  0.00    -0.462 OA
BRANCH  77  78
ATOM     78  C   UNL A   1      32.554  26.621  26.342  1.00  0.00     0.328 C 
ATOM     79  O   UNL A   1      31.629  26.688  27.148  1.00  0.00    -0.250 OA
BRANCH  78  80
ATOM     80  C   UNL A   1      32.607  25.554  25.270  1.00  0.00     0.192 C 
ATOM     81  C   UNL A   1      34.070  25.103  25.215  1.00  0.00     0.037 C 
ATOM     82  N   UNL A   1      32.095  25.766  23.873  1.00  0.00    -0.353 N 
ATOM     83  C   UNL A   1      34.233  23.877  24.330  1.00  0.00     0.005 C 
ATOM     84  C   UNL A   1      32.186  24.561  23.038  1.00  0.00     0.118 C 
ATOM     85  C   UNL A   1      33.648  24.135  22.946  1.00  0.00     0.022 C 
BRANCH  82  86
ATOM     86  C   UNL A   1      31.418  26.835  23.312  1.00  0.00     0.116 A 
ATOM     87  C   UNL A   1      30.018  26.880  23.393  1.00  0.00     0.033 A 
ATOM     88  C   UNL A   1      32.030  28.004  22.782  1.00  0.00     0.292 A 
ATOM     89  C   UNL A   1      29.276  28.003  22.988  1.00  0.00     0.003 A 
ATOM     90  C   UNL A   1      31.298  29.148  22.402  1.00  0.00     0.088 A 
ATOM     91  C   UNL A   1      29.915  29.144  22.513  1.00  0.00     0.007 A 
BRANCH  88  92
ATOM     92  N   UNL A   1      33.466  28.054  22.512  1.00  0.00     0.064 N 
ATOM     93  O   UNL A   1      33.876  27.436  21.516  1.00  0.00    -0.258 OA
ATOM     94  O   UNL A   1      34.193  28.660  23.312  1.00  0.00    -0.258 OA
ENDBRANCH  88  92
ENDBRANCH  82  86
ENDBRANCH  78  80
ENDBRANCH  77  78
ENDBRANCH  76  77
ENDBRANCH  75  76
ENDBRANCH  74  75
ENDBRANCH   1  74
TORSDOF 19
ENDMDL
