MODEL 1
REMARK VINA RESULT:      -9.8      0.000      0.000
REMARK SMILES O=C(OCCOCCOC(=O)c1ccc(-c2ccc(Cl)cc2)cc1F)c1ccc(-c2c3nc(c(-c4c(F)cc(S(=O)(=O)[O-])cc4F)c4ccc([nH]4)c(-c4c(F)cc(S(=O)(=O)[O-])cc4F)c4nc(c(-c5c(F)cc(S(=O)(=O)[O-])cc5F)c5ccc2[nH]5)C=C4)C=C3)cc1
REMARK SMILES IDX 5 1 4 2 3 3 2 4 1 5 26 6 27 7 91 8 28 9 90 10 29 11 30 12
REMARK SMILES IDX 31 13 84 14 32 15 89 16 83 17 85 18 33 19 88 20 82 21 81 22
REMARK SMILES IDX 34 24 68 25 47 26 67 27 48 28 51 29 66 30 86 31 49 32 50 33
REMARK SMILES IDX 65 35 87 36 52 37 35 38 36 39 45 40 37 41 38 42 44 43 46 44
REMARK SMILES IDX 39 45 40 46 41 47 42 48 43 49 69 50 70 51 79 52 71 53 72 54
REMARK SMILES IDX 78 55 80 56 73 57 74 58 75 59 76 60 77 61 53 62 54 63 63 64
REMARK SMILES IDX 55 65 56 66 62 67 64 68 57 69 58 70 59 71 60 72 61 73 6 74
REMARK SMILES IDX 7 75 8 76 9 77 10 78 11 79 12 80 13 81 24 82 14 83 23 84
REMARK SMILES IDX 25 85 15 86 16 87 17 88 22 89 18 90 21 91 19 92 20 93
REMARK H PARENT 85 23 51 34
REMARK Flexibility Score: inf
ROOT
ATOM      1  C   UNL A   1      41.365  19.563  26.354  1.00  0.00     0.202 C 
ENDROOT
BRANCH   1   2
ATOM      2  C   UNL A   1      40.017  20.170  25.960  1.00  0.00     0.261 C 
BRANCH   2   3
ATOM      3  O   UNL A   1      39.744  21.324  26.770  1.00  0.00    -0.460 OA
BRANCH   3   4
ATOM      4  C   UNL A   1      39.179  22.497  26.405  1.00  0.00     0.338 C 
ATOM      5  O   UNL A   1      38.161  22.457  25.714  1.00  0.00    -0.246 OA
BRANCH   4   6
ATOM      6  C   UNL A   1      39.705  23.840  26.799  1.00  0.00     0.060 A 
ATOM      7  C   UNL A   1      40.068  24.862  25.917  1.00  0.00     0.016 A 
ATOM      8  C   UNL A   1      39.740  24.116  28.176  1.00  0.00     0.016 A 
ATOM      9  C   UNL A   1      40.489  26.103  26.372  1.00  0.00     0.010 A 
ATOM     10  C   UNL A   1      40.147  25.366  28.645  1.00  0.00     0.010 A 
ATOM     11  C   UNL A   1      40.536  26.354  27.737  1.00  0.00    -0.014 A 
BRANCH  11  12
ATOM     12  C   UNL A   1      41.121  27.620  28.196  1.00  0.00     0.031 A 
ATOM     13  C   UNL A   1      42.599  27.793  28.058  1.00  0.00     0.074 A 
ATOM     14  C   UNL A   1      40.322  28.603  28.642  1.00  0.00     0.049 A 
ATOM     15  N   UNL A   1      43.360  28.756  28.492  1.00  0.00    -0.248 NA
ATOM     16  C   UNL A   1      43.314  26.739  27.318  1.00  0.00     0.031 C 
ATOM     17  C   UNL A   1      38.858  28.549  28.668  1.00  0.00     0.029 A 
ATOM     18  N   UNL A   1      40.622  29.837  29.146  1.00  0.00    -0.354 N 
ATOM     19  C   UNL A   1      44.649  28.408  28.113  1.00  0.00     0.074 A 
ATOM     20  C   UNL A   1      44.569  27.152  27.403  1.00  0.00     0.031 C 
ATOM     21  C   UNL A   1      38.388  29.703  29.166  1.00  0.00     0.029 A 
ATOM     22  C   UNL A   1      39.516  30.543  29.555  1.00  0.00     0.049 A 
ATOM     23  H   UNL A   1      41.541  30.187  29.210  1.00  0.00     0.167 HD
ATOM     24  C   UNL A   1      45.795  29.081  28.360  1.00  0.00     0.037 A 
ATOM     25  C   UNL A   1      39.440  31.716  30.214  1.00  0.00     0.037 A 
ATOM     26  C   UNL A   1      45.822  30.320  29.085  1.00  0.00     0.049 A 
ATOM     27  C   UNL A   1      40.730  32.405  30.570  1.00  0.00     0.074 A 
ATOM     28  C   UNL A   1      46.913  31.074  29.469  1.00  0.00     0.029 A 
ATOM     29  N   UNL A   1      44.688  30.985  29.541  1.00  0.00    -0.354 N 
ATOM     30  N   UNL A   1      41.959  32.036  30.283  1.00  0.00    -0.248 NA
ATOM     31  C   UNL A   1      40.638  33.643  31.350  1.00  0.00     0.031 C 
ATOM     32  C   UNL A   1      46.440  32.173  30.195  1.00  0.00     0.029 A 
ATOM     33  C   UNL A   1      45.052  32.132  30.219  1.00  0.00     0.049 A 
ATOM     34  H   UNL A   1      43.762  30.682  29.401  1.00  0.00     0.167 HD
ATOM     35  C   UNL A   1      42.788  33.001  30.838  1.00  0.00     0.074 A 
ATOM     36  C   UNL A   1      41.919  33.974  31.474  1.00  0.00     0.031 C 
ATOM     37  C   UNL A   1      44.142  33.078  30.824  1.00  0.00     0.037 A 
BRANCH  24  38
ATOM     38  C   UNL A   1      47.078  28.435  27.924  1.00  0.00     0.058 A 
ATOM     39  C   UNL A   1      47.812  27.649  28.826  1.00  0.00     0.135 A 
ATOM     40  C   UNL A   1      47.559  28.543  26.609  1.00  0.00     0.135 A 
ATOM     41  F   UNL A   1      47.389  27.496  30.090  1.00  0.00    -0.206 F 
ATOM     42  C   UNL A   1      48.971  26.985  28.439  1.00  0.00     0.059 A 
ATOM     43  C   UNL A   1      48.704  27.868  26.193  1.00  0.00     0.059 A 
ATOM     44  F   UNL A   1      46.875  29.251  25.696  1.00  0.00    -0.206 F 
ATOM     45  C   UNL A   1      49.405  27.092  27.117  1.00  0.00     0.060 A 
BRANCH  45  46
ATOM     46  S   UNL A   1      50.851  26.139  26.605  1.00  0.00     0.124 S 
ATOM     47  O   UNL A   1      51.924  26.806  27.331  1.00  0.00    -0.237 OA
ATOM     48  O   UNL A   1      50.510  24.794  27.061  1.00  0.00    -0.237 OA
ATOM     49  O   UNL A   1      50.869  26.309  25.154  1.00  0.00    -0.744 OA
ENDBRANCH  45  46
ENDBRANCH  24  38
BRANCH  25  50
ATOM     50  C   UNL A   1      38.108  32.259  30.590  1.00  0.00     0.058 A 
ATOM     51  C   UNL A   1      37.413  33.131  29.734  1.00  0.00     0.135 A 
ATOM     52  C   UNL A   1      37.548  32.002  31.849  1.00  0.00     0.135 A 
ATOM     53  F   UNL A   1      37.906  33.415  28.518  1.00  0.00    -0.206 F 
ATOM     54  C   UNL A   1      36.241  33.767  30.131  1.00  0.00     0.059 A 
ATOM     55  C   UNL A   1      36.363  32.610  32.262  1.00  0.00     0.059 A 
ATOM     56  F   UNL A   1      38.163  31.166  32.698  1.00  0.00    -0.206 F 
ATOM     57  C   UNL A   1      35.731  33.511  31.404  1.00  0.00     0.060 A 
BRANCH  57  58
ATOM     58  S   UNL A   1      34.244  34.398  31.923  1.00  0.00     0.124 S 
ATOM     59  O   UNL A   1      34.816  35.595  32.532  1.00  0.00    -0.237 OA
ATOM     60  O   UNL A   1      33.551  34.600  30.656  1.00  0.00    -0.237 OA
ATOM     61  O   UNL A   1      33.603  33.469  32.848  1.00  0.00    -0.744 OA
ENDBRANCH  57  58
ENDBRANCH  25  50
BRANCH  37  62
ATOM     62  C   UNL A   1      44.778  34.260  31.492  1.00  0.00     0.058 A 
ATOM     63  C   UNL A   1      45.049  34.224  32.869  1.00  0.00     0.135 A 
ATOM     64  C   UNL A   1      44.953  35.474  30.811  1.00  0.00     0.135 A 
ATOM     65  F   UNL A   1      44.890  33.084  33.561  1.00  0.00    -0.206 F 
ATOM     66  C   UNL A   1      45.427  35.367  33.560  1.00  0.00     0.059 A 
ATOM     67  C   UNL A   1      45.350  36.626  31.479  1.00  0.00     0.059 A 
ATOM     68  F   UNL A   1      44.714  35.548  29.492  1.00  0.00    -0.206 F 
ATOM     69  C   UNL A   1      45.555  36.567  32.859  1.00  0.00     0.060 A 
BRANCH  69  70
ATOM     70  S   UNL A   1      45.973  38.057  33.787  1.00  0.00     0.124 S 
ATOM     71  O   UNL A   1      44.689  38.749  33.832  1.00  0.00    -0.237 OA
ATOM     72  O   UNL A   1      46.444  37.509  35.054  1.00  0.00    -0.237 OA
ATOM     73  O   UNL A   1      46.999  38.692  32.965  1.00  0.00    -0.744 OA
ENDBRANCH  69  70
ENDBRANCH  37  62
ENDBRANCH  11  12
ENDBRANCH   4   6
ENDBRANCH   3   4
ENDBRANCH   2   3
ENDBRANCH   1   2
BRANCH   1  74
ATOM     74  O   UNL A   1      42.245  19.324  25.257  1.00  0.00    -0.374 OA
BRANCH  74  75
ATOM     75  C   UNL A   1      43.621  19.093  25.585  1.00  0.00     0.202 C 
BRANCH  75  76
ATOM     76  C   UNL A   1      44.505  19.865  24.607  1.00  0.00     0.261 C 
BRANCH  76  77
ATOM     77  O   UNL A   1      45.028  21.006  25.302  1.00  0.00    -0.460 OA
BRANCH  77  78
ATOM     78  C   UNL A   1      44.249  22.113  25.275  1.00  0.00     0.341 C 
ATOM     79  O   UNL A   1      43.497  22.484  24.390  1.00  0.00    -0.246 OA
BRANCH  78  80
ATOM     80  C   UNL A   1      44.258  22.694  26.624  1.00  0.00     0.095 A 
ATOM     81  C   UNL A   1      43.125  22.540  27.435  1.00  0.00     0.019 A 
ATOM     82  C   UNL A   1      45.388  23.326  27.126  1.00  0.00     0.138 A 
ATOM     83  C   UNL A   1      43.140  23.005  28.753  1.00  0.00     0.010 A 
ATOM     84  C   UNL A   1      45.401  23.801  28.430  1.00  0.00     0.049 A 
ATOM     85  F   UNL A   1      46.478  23.518  26.370  1.00  0.00    -0.206 F 
ATOM     86  C   UNL A   1      44.275  23.656  29.256  1.00  0.00    -0.015 A 
BRANCH  86  87
ATOM     87  C   UNL A   1      44.288  24.275  30.580  1.00  0.00    -0.018 A 
ATOM     88  C   UNL A   1      44.537  25.654  30.678  1.00  0.00     0.010 A 
ATOM     89  C   UNL A   1      44.149  23.524  31.754  1.00  0.00     0.010 A 
ATOM     90  C   UNL A   1      44.683  26.268  31.921  1.00  0.00     0.021 A 
ATOM     91  C   UNL A   1      44.293  24.139  33.002  1.00  0.00     0.021 A 
ATOM     92  C   UNL A   1      44.571  25.504  33.079  1.00  0.00     0.041 A 
ATOM     93  Cl  UNL A   1      44.799  26.250  34.612  1.00  0.00    -0.084 Cl
ENDBRANCH  86  87
ENDBRANCH  78  80
ENDBRANCH  77  78
ENDBRANCH  76  77
ENDBRANCH  75  76
ENDBRANCH  74  75
ENDBRANCH   1  74
TORSDOF 18
ENDMDL
MODEL 2
REMARK VINA RESULT:      -9.7      2.605     11.195
REMARK SMILES O=C(OCCOCCOC(=O)c1ccc(-c2ccc(Cl)cc2)cc1F)c1ccc(-c2c3nc(c(-c4c(F)cc(S(=O)(=O)[O-])cc4F)c4ccc([nH]4)c(-c4c(F)cc(S(=O)(=O)[O-])cc4F)c4nc(c(-c5c(F)cc(S(=O)(=O)[O-])cc5F)c5ccc2[nH]5)C=C4)C=C3)cc1
REMARK SMILES IDX 5 1 4 2 3 3 2 4 1 5 26 6 27 7 91 8 28 9 90 10 29 11 30 12
REMARK SMILES IDX 31 13 84 14 32 15 89 16 83 17 85 18 33 19 88 20 82 21 81 22
REMARK SMILES IDX 34 24 68 25 47 26 67 27 48 28 51 29 66 30 86 31 49 32 50 33
REMARK SMILES IDX 65 35 87 36 52 37 35 38 36 39 45 40 37 41 38 42 44 43 46 44
REMARK SMILES IDX 39 45 40 46 41 47 42 48 43 49 69 50 70 51 79 52 71 53 72 54
REMARK SMILES IDX 78 55 80 56 73 57 74 58 75 59 76 60 77 61 53 62 54 63 63 64
REMARK SMILES IDX 55 65 56 66 62 67 64 68 57 69 58 70 59 71 60 72 61 73 6 74
REMARK SMILES IDX 7 75 8 76 9 77 10 78 11 79 12 80 13 81 24 82 14 83 23 84
REMARK SMILES IDX 25 85 15 86 16 87 17 88 22 89 18 90 21 91 19 92 20 93
REMARK H PARENT 85 23 51 34
REMARK Flexibility Score: inf
ROOT
ATOM      1  C   UNL A   1      34.778  34.090  27.945  1.00  0.00     0.202 C 
ENDROOT
BRANCH   1   2
ATOM      2  C   UNL A   1      33.718  32.986  27.943  1.00  0.00     0.261 C 
BRANCH   2   3
ATOM      3  O   UNL A   1      34.199  31.845  28.670  1.00  0.00    -0.460 OA
BRANCH   3   4
ATOM      4  C   UNL A   1      34.686  30.680  28.185  1.00  0.00     0.338 C 
ATOM      5  O   UNL A   1      33.949  29.996  27.475  1.00  0.00    -0.246 OA
BRANCH   4   6
ATOM      6  C   UNL A   1      36.069  30.176  28.447  1.00  0.00     0.060 A 
ATOM      7  C   UNL A   1      36.493  29.532  29.613  1.00  0.00     0.016 A 
ATOM      8  C   UNL A   1      36.982  30.280  27.384  1.00  0.00     0.016 A 
ATOM      9  C   UNL A   1      37.783  29.039  29.747  1.00  0.00     0.010 A 
ATOM     10  C   UNL A   1      38.278  29.775  27.502  1.00  0.00     0.010 A 
ATOM     11  C   UNL A   1      38.679  29.166  28.695  1.00  0.00    -0.014 A 
BRANCH  11  12
ATOM     12  C   UNL A   1      40.076  28.769  28.912  1.00  0.00     0.031 A 
ATOM     13  C   UNL A   1      40.990  29.765  29.549  1.00  0.00     0.074 A 
ATOM     14  C   UNL A   1      40.470  27.520  28.617  1.00  0.00     0.049 A 
ATOM     15  N   UNL A   1      42.277  29.700  29.738  1.00  0.00    -0.248 NA
ATOM     16  C   UNL A   1      40.362  30.999  30.054  1.00  0.00     0.031 C 
ATOM     17  C   UNL A   1      39.590  26.456  28.125  1.00  0.00     0.029 A 
ATOM     18  N   UNL A   1      41.700  26.929  28.696  1.00  0.00    -0.354 N 
ATOM     19  C   UNL A   1      42.622  30.899  30.347  1.00  0.00     0.074 A 
ATOM     20  C   UNL A   1      41.410  31.668  30.509  1.00  0.00     0.031 C 
ATOM     21  C   UNL A   1      40.314  25.340  27.945  1.00  0.00     0.029 A 
ATOM     22  C   UNL A   1      41.713  25.633  28.242  1.00  0.00     0.049 A 
ATOM     23  H   UNL A   1      42.498  27.388  29.045  1.00  0.00     0.167 HD
ATOM     24  C   UNL A   1      43.854  31.314  30.716  1.00  0.00     0.037 A 
ATOM     25  C   UNL A   1      42.754  24.800  28.048  1.00  0.00     0.037 A 
ATOM     26  C   UNL A   1      45.031  30.516  30.518  1.00  0.00     0.049 A 
ATOM     27  C   UNL A   1      44.131  25.314  28.371  1.00  0.00     0.074 A 
ATOM     28  C   UNL A   1      46.348  30.837  30.778  1.00  0.00     0.029 A 
ATOM     29  N   UNL A   1      45.022  29.225  30.000  1.00  0.00    -0.354 N 
ATOM     30  N   UNL A   1      44.471  26.480  28.873  1.00  0.00    -0.248 NA
ATOM     31  C   UNL A   1      45.264  24.427  28.087  1.00  0.00     0.031 C 
ATOM     32  C   UNL A   1      47.140  29.756  30.377  1.00  0.00     0.029 A 
ATOM     33  C   UNL A   1      46.312  28.740  29.914  1.00  0.00     0.049 A 
ATOM     34  H   UNL A   1      44.214  28.730  29.733  1.00  0.00     0.167 HD
ATOM     35  C   UNL A   1      45.855  26.465  28.976  1.00  0.00     0.074 A 
ATOM     36  C   UNL A   1      46.290  25.170  28.488  1.00  0.00     0.031 C 
ATOM     37  C   UNL A   1      46.691  27.431  29.431  1.00  0.00     0.037 A 
BRANCH  24  38
ATOM     38  C   UNL A   1      43.972  32.705  31.270  1.00  0.00     0.058 A 
ATOM     39  C   UNL A   1      44.134  33.796  30.402  1.00  0.00     0.135 A 
ATOM     40  C   UNL A   1      43.871  32.973  32.645  1.00  0.00     0.135 A 
ATOM     41  F   UNL A   1      44.217  33.601  29.077  1.00  0.00    -0.206 F 
ATOM     42  C   UNL A   1      44.183  35.103  30.875  1.00  0.00     0.059 A 
ATOM     43  C   UNL A   1      43.894  34.275  33.139  1.00  0.00     0.059 A 
ATOM     44  F   UNL A   1      43.676  31.969  33.515  1.00  0.00    -0.206 F 
ATOM     45  C   UNL A   1      44.053  35.334  32.245  1.00  0.00     0.060 A 
BRANCH  45  46
ATOM     46  S   UNL A   1      44.011  37.042  32.831  1.00  0.00     0.124 S 
ATOM     47  O   UNL A   1      45.324  37.179  33.451  1.00  0.00    -0.237 OA
ATOM     48  O   UNL A   1      43.809  37.788  31.592  1.00  0.00    -0.237 OA
ATOM     49  O   UNL A   1      42.875  37.055  33.749  1.00  0.00    -0.744 OA
ENDBRANCH  45  46
ENDBRANCH  24  38
BRANCH  25  50
ATOM     50  C   UNL A   1      42.512  23.441  27.495  1.00  0.00     0.058 A 
ATOM     51  C   UNL A   1      42.274  22.346  28.345  1.00  0.00     0.135 A 
ATOM     52  C   UNL A   1      42.613  23.186  26.121  1.00  0.00     0.135 A 
ATOM     53  F   UNL A   1      42.172  22.533  29.671  1.00  0.00    -0.206 F 
ATOM     54  C   UNL A   1      42.196  21.046  27.858  1.00  0.00     0.059 A 
ATOM     55  C   UNL A   1      42.516  21.894  25.607  1.00  0.00     0.059 A 
ATOM     56  F   UNL A   1      42.824  24.198  25.267  1.00  0.00    -0.206 F 
ATOM     57  C   UNL A   1      42.333  20.827  26.488  1.00  0.00     0.060 A 
BRANCH  57  58
ATOM     58  S   UNL A   1      42.295  19.124  25.885  1.00  0.00     0.124 S 
ATOM     59  O   UNL A   1      40.872  18.943  25.613  1.00  0.00    -0.237 OA
ATOM     60  O   UNL A   1      43.162  19.194  24.714  1.00  0.00    -0.237 OA
ATOM     61  O   UNL A   1      42.821  18.356  27.009  1.00  0.00    -0.744 OA
ENDBRANCH  57  58
ENDBRANCH  25  50
BRANCH  37  62
ATOM     62  C   UNL A   1      48.159  27.128  29.450  1.00  0.00     0.058 A 
ATOM     63  C   UNL A   1      48.733  26.519  30.577  1.00  0.00     0.135 A 
ATOM     64  C   UNL A   1      49.012  27.593  28.438  1.00  0.00     0.135 A 
ATOM     65  F   UNL A   1      47.953  26.064  31.572  1.00  0.00    -0.206 F 
ATOM     66  C   UNL A   1      50.110  26.426  30.724  1.00  0.00     0.059 A 
ATOM     67  C   UNL A   1      50.393  27.492  28.555  1.00  0.00     0.059 A 
ATOM     68  F   UNL A   1      48.502  28.171  27.339  1.00  0.00    -0.206 F 
ATOM     69  C   UNL A   1      50.932  26.934  29.716  1.00  0.00     0.060 A 
BRANCH  69  70
ATOM     70  S   UNL A   1      52.718  26.873  29.959  1.00  0.00     0.124 S 
ATOM     71  O   UNL A   1      53.182  26.436  28.646  1.00  0.00    -0.237 OA
ATOM     72  O   UNL A   1      53.028  28.254  30.315  1.00  0.00    -0.237 OA
ATOM     73  O   UNL A   1      52.882  25.903  31.038  1.00  0.00    -0.744 OA
ENDBRANCH  69  70
ENDBRANCH  37  62
ENDBRANCH  11  12
ENDBRANCH   4   6
ENDBRANCH   3   4
ENDBRANCH   2   3
ENDBRANCH   1   2
BRANCH   1  74
ATOM     74  O   UNL A   1      34.561  35.111  28.917  1.00  0.00    -0.374 OA
BRANCH  74  75
ATOM     75  C   UNL A   1      33.218  35.596  29.039  1.00  0.00     0.202 C 
BRANCH  75  76
ATOM     76  C   UNL A   1      32.869  35.736  30.520  1.00  0.00     0.261 C 
BRANCH  76  77
ATOM     77  O   UNL A   1      33.525  34.672  31.224  1.00  0.00    -0.460 OA
BRANCH  77  78
ATOM     78  C   UNL A   1      34.144  35.027  32.374  1.00  0.00     0.341 C 
ATOM     79  O   UNL A   1      33.787  35.851  33.199  1.00  0.00    -0.246 OA
BRANCH  78  80
ATOM     80  C   UNL A   1      35.224  34.060  32.613  1.00  0.00     0.095 A 
ATOM     81  C   UNL A   1      35.825  33.431  31.514  1.00  0.00     0.019 A 
ATOM     82  C   UNL A   1      35.699  33.817  33.895  1.00  0.00     0.138 A 
ATOM     83  C   UNL A   1      36.913  32.575  31.708  1.00  0.00     0.010 A 
ATOM     84  C   UNL A   1      36.770  32.957  34.091  1.00  0.00     0.049 A 
ATOM     85  F   UNL A   1      35.130  34.377  34.971  1.00  0.00    -0.206 F 
ATOM     86  C   UNL A   1      37.384  32.317  33.003  1.00  0.00    -0.015 A 
BRANCH  86  87
ATOM     87  C   UNL A   1      38.428  31.329  33.263  1.00  0.00    -0.018 A 
ATOM     88  C   UNL A   1      39.654  31.765  33.793  1.00  0.00     0.010 A 
ATOM     89  C   UNL A   1      38.279  29.979  32.917  1.00  0.00     0.010 A 
ATOM     90  C   UNL A   1      40.723  30.883  33.942  1.00  0.00     0.021 A 
ATOM     91  C   UNL A   1      39.350  29.093  33.068  1.00  0.00     0.021 A 
ATOM     92  C   UNL A   1      40.569  29.551  33.568  1.00  0.00     0.041 A 
ATOM     93  Cl  UNL A   1      41.902  28.473  33.706  1.00  0.00    -0.084 Cl
ENDBRANCH  86  87
ENDBRANCH  78  80
ENDBRANCH  77  78
ENDBRANCH  76  77
ENDBRANCH  75  76
ENDBRANCH  74  75
ENDBRANCH   1  74
TORSDOF 18
ENDMDL
MODEL 3
REMARK VINA RESULT:      -9.7      4.039     11.250
REMARK SMILES O=C(OCCOCCOC(=O)c1ccc(-c2ccc(Cl)cc2)cc1F)c1ccc(-c2c3nc(c(-c4c(F)cc(S(=O)(=O)[O-])cc4F)c4ccc([nH]4)c(-c4c(F)cc(S(=O)(=O)[O-])cc4F)c4nc(c(-c5c(F)cc(S(=O)(=O)[O-])cc5F)c5ccc2[nH]5)C=C4)C=C3)cc1
REMARK SMILES IDX 5 1 4 2 3 3 2 4 1 5 26 6 27 7 91 8 28 9 90 10 29 11 30 12
REMARK SMILES IDX 31 13 84 14 32 15 89 16 83 17 85 18 33 19 88 20 82 21 81 22
REMARK SMILES IDX 34 24 68 25 47 26 67 27 48 28 51 29 66 30 86 31 49 32 50 33
REMARK SMILES IDX 65 35 87 36 52 37 35 38 36 39 45 40 37 41 38 42 44 43 46 44
REMARK SMILES IDX 39 45 40 46 41 47 42 48 43 49 69 50 70 51 79 52 71 53 72 54
REMARK SMILES IDX 78 55 80 56 73 57 74 58 75 59 76 60 77 61 53 62 54 63 63 64
REMARK SMILES IDX 55 65 56 66 62 67 64 68 57 69 58 70 59 71 60 72 61 73 6 74
REMARK SMILES IDX 7 75 8 76 9 77 10 78 11 79 12 80 13 81 24 82 14 83 23 84
REMARK SMILES IDX 25 85 15 86 16 87 17 88 22 89 18 90 21 91 19 92 20 93
REMARK H PARENT 85 23 51 34
REMARK Flexibility Score: inf
ROOT
ATOM      1  C   UNL A   1      35.244  32.767  33.030  1.00  0.00     0.202 C 
ENDROOT
BRANCH   1   2
ATOM      2  C   UNL A   1      36.406  31.782  32.881  1.00  0.00     0.261 C 
BRANCH   2   3
ATOM      3  O   UNL A   1      36.573  31.428  31.499  1.00  0.00    -0.460 OA
BRANCH   3   4
ATOM      4  C   UNL A   1      36.962  30.245  30.972  1.00  0.00     0.338 C 
ATOM      5  O   UNL A   1      36.156  29.315  30.984  1.00  0.00    -0.246 OA
BRANCH   4   6
ATOM      6  C   UNL A   1      38.305  29.999  30.364  1.00  0.00     0.060 A 
ATOM      7  C   UNL A   1      38.597  30.029  28.997  1.00  0.00     0.016 A 
ATOM      8  C   UNL A   1      39.373  29.821  31.260  1.00  0.00     0.016 A 
ATOM      9  C   UNL A   1      39.888  29.851  28.522  1.00  0.00     0.010 A 
ATOM     10  C   UNL A   1      40.678  29.656  30.795  1.00  0.00     0.010 A 
ATOM     11  C   UNL A   1      40.929  29.657  29.420  1.00  0.00    -0.014 A 
BRANCH  11  12
ATOM     12  C   UNL A   1      42.258  29.327  28.890  1.00  0.00     0.031 A 
ATOM     13  C   UNL A   1      42.482  27.936  28.394  1.00  0.00     0.074 A 
ATOM     14  C   UNL A   1      43.194  30.285  28.789  1.00  0.00     0.049 A 
ATOM     15  N   UNL A   1      43.586  27.370  27.996  1.00  0.00    -0.248 NA
ATOM     16  C   UNL A   1      41.295  27.066  28.329  1.00  0.00     0.031 C 
ATOM     17  C   UNL A   1      42.991  31.697  29.122  1.00  0.00     0.029 A 
ATOM     18  N   UNL A   1      44.493  30.222  28.368  1.00  0.00    -0.354 N 
ATOM     19  C   UNL A   1      43.236  26.067  27.669  1.00  0.00     0.074 A 
ATOM     20  C   UNL A   1      41.818  25.926  27.902  1.00  0.00     0.031 C 
ATOM     21  C   UNL A   1      44.131  32.367  28.894  1.00  0.00     0.029 A 
ATOM     22  C   UNL A   1      45.157  31.421  28.465  1.00  0.00     0.049 A 
ATOM     23  H   UNL A   1      44.912  29.398  28.027  1.00  0.00     0.167 HD
ATOM     24  C   UNL A   1      44.047  25.079  27.230  1.00  0.00     0.037 A 
ATOM     25  C   UNL A   1      46.461  31.700  28.273  1.00  0.00     0.037 A 
ATOM     26  C   UNL A   1      45.456  25.267  27.028  1.00  0.00     0.049 A 
ATOM     27  C   UNL A   1      47.369  30.567  27.880  1.00  0.00     0.074 A 
ATOM     28  C   UNL A   1      46.408  24.339  26.654  1.00  0.00     0.029 A 
ATOM     29  N   UNL A   1      46.115  26.481  27.191  1.00  0.00    -0.354 N 
ATOM     30  N   UNL A   1      47.055  29.312  27.648  1.00  0.00    -0.248 NA
ATOM     31  C   UNL A   1      48.798  30.867  27.744  1.00  0.00     0.031 C 
ATOM     32  C   UNL A   1      47.650  24.984  26.635  1.00  0.00     0.029 A 
ATOM     33  C   UNL A   1      47.465  26.325  26.945  1.00  0.00     0.049 A 
ATOM     34  H   UNL A   1      45.681  27.328  27.446  1.00  0.00     0.167 HD
ATOM     35  C   UNL A   1      48.245  28.672  27.328  1.00  0.00     0.074 A 
ATOM     36  C   UNL A   1      49.286  29.682  27.392  1.00  0.00     0.031 C 
ATOM     37  C   UNL A   1      48.460  27.372  27.010  1.00  0.00     0.037 A 
BRANCH  24  38
ATOM     38  C   UNL A   1      43.433  23.721  27.040  1.00  0.00     0.058 A 
ATOM     39  C   UNL A   1      43.074  23.286  25.755  1.00  0.00     0.135 A 
ATOM     40  C   UNL A   1      43.250  22.829  28.108  1.00  0.00     0.135 A 
ATOM     41  F   UNL A   1      43.245  24.091  24.695  1.00  0.00    -0.206 F 
ATOM     42  C   UNL A   1      42.563  22.012  25.533  1.00  0.00     0.059 A 
ATOM     43  C   UNL A   1      42.762  21.540  27.907  1.00  0.00     0.059 A 
ATOM     44  F   UNL A   1      43.613  23.180  29.352  1.00  0.00    -0.206 F 
ATOM     45  C   UNL A   1      42.419  21.142  26.615  1.00  0.00     0.060 A 
BRANCH  45  46
ATOM     46  S   UNL A   1      41.855  19.456  26.294  1.00  0.00     0.124 S 
ATOM     47  O   UNL A   1      42.597  19.114  25.087  1.00  0.00    -0.237 OA
ATOM     48  O   UNL A   1      42.261  18.758  27.512  1.00  0.00    -0.237 OA
ATOM     49  O   UNL A   1      40.412  19.610  26.127  1.00  0.00    -0.744 OA
ENDBRANCH  45  46
ENDBRANCH  24  38
BRANCH  25  50
ATOM     50  C   UNL A   1      46.952  33.088  28.488  1.00  0.00     0.058 A 
ATOM     51  C   UNL A   1      47.127  33.970  27.407  1.00  0.00     0.135 A 
ATOM     52  C   UNL A   1      47.351  33.528  29.757  1.00  0.00     0.135 A 
ATOM     53  F   UNL A   1      46.765  33.598  26.169  1.00  0.00    -0.206 F 
ATOM     54  C   UNL A   1      47.727  35.214  27.569  1.00  0.00     0.059 A 
ATOM     55  C   UNL A   1      47.934  34.781  29.948  1.00  0.00     0.059 A 
ATOM     56  F   UNL A   1      47.191  32.731  30.824  1.00  0.00    -0.206 F 
ATOM     57  C   UNL A   1      48.141  35.606  28.842  1.00  0.00     0.060 A 
BRANCH  57  58
ATOM     58  S   UNL A   1      48.976  37.199  29.017  1.00  0.00     0.124 S 
ATOM     59  O   UNL A   1      50.341  36.781  29.321  1.00  0.00    -0.237 OA
ATOM     60  O   UNL A   1      48.772  37.797  27.703  1.00  0.00    -0.237 OA
ATOM     61  O   UNL A   1      48.257  37.838  30.115  1.00  0.00    -0.744 OA
ENDBRANCH  57  58
ENDBRANCH  25  50
BRANCH  37  62
ATOM     62  C   UNL A   1      49.864  26.959  26.682  1.00  0.00     0.058 A 
ATOM     63  C   UNL A   1      50.272  26.869  25.343  1.00  0.00     0.135 A 
ATOM     64  C   UNL A   1      50.735  26.491  27.677  1.00  0.00     0.135 A 
ATOM     65  F   UNL A   1      49.466  27.301  24.358  1.00  0.00    -0.206 F 
ATOM     66  C   UNL A   1      51.480  26.281  24.994  1.00  0.00     0.059 A 
ATOM     67  C   UNL A   1      51.959  25.918  27.352  1.00  0.00     0.059 A 
ATOM     68  F   UNL A   1      50.387  26.568  28.971  1.00  0.00    -0.206 F 
ATOM     69  C   UNL A   1      52.308  25.791  26.006  1.00  0.00     0.060 A 
BRANCH  69  70
ATOM     70  S   UNL A   1      53.839  24.963  25.531  1.00  0.00     0.124 S 
ATOM     71  O   UNL A   1      54.250  25.742  24.368  1.00  0.00    -0.237 OA
ATOM     72  O   UNL A   1      54.660  25.124  26.726  1.00  0.00    -0.237 OA
ATOM     73  O   UNL A   1      53.412  23.595  25.251  1.00  0.00    -0.744 OA
ENDBRANCH  69  70
ENDBRANCH  37  62
ENDBRANCH  11  12
ENDBRANCH   4   6
ENDBRANCH   3   4
ENDBRANCH   2   3
ENDBRANCH   1   2
BRANCH   1  74
ATOM     74  O   UNL A   1      34.438  32.905  31.861  1.00  0.00    -0.374 OA
BRANCH  74  75
ATOM     75  C   UNL A   1      34.426  34.200  31.247  1.00  0.00     0.202 C 
BRANCH  75  76
ATOM     76  C   UNL A   1      34.035  34.053  29.776  1.00  0.00     0.261 C 
BRANCH  76  77
ATOM     77  O   UNL A   1      34.281  32.691  29.396  1.00  0.00    -0.460 OA
BRANCH  77  78
ATOM     78  C   UNL A   1      34.766  32.513  28.145  1.00  0.00     0.341 C 
ATOM     79  O   UNL A   1      35.635  33.152  27.576  1.00  0.00    -0.246 OA
BRANCH  78  80
ATOM     80  C   UNL A   1      34.246  31.234  27.645  1.00  0.00     0.095 A 
ATOM     81  C   UNL A   1      35.088  30.113  27.647  1.00  0.00     0.019 A 
ATOM     82  C   UNL A   1      32.923  31.105  27.241  1.00  0.00     0.138 A 
ATOM     83  C   UNL A   1      34.592  28.865  27.261  1.00  0.00     0.010 A 
ATOM     84  C   UNL A   1      32.432  29.870  26.844  1.00  0.00     0.049 A 
ATOM     85  F   UNL A   1      32.098  32.160  27.198  1.00  0.00    -0.206 F 
ATOM     86  C   UNL A   1      33.261  28.737  26.839  1.00  0.00    -0.015 A 
BRANCH  86  87
ATOM     87  C   UNL A   1      32.738  27.483  26.301  1.00  0.00    -0.018 A 
ATOM     88  C   UNL A   1      31.350  27.343  26.142  1.00  0.00     0.010 A 
ATOM     89  C   UNL A   1      33.568  26.388  26.026  1.00  0.00     0.010 A 
ATOM     90  C   UNL A   1      30.794  26.126  25.751  1.00  0.00     0.021 A 
ATOM     91  C   UNL A   1      33.011  25.166  25.632  1.00  0.00     0.021 A 
ATOM     92  C   UNL A   1      31.627  25.038  25.508  1.00  0.00     0.041 A 
ATOM     93  Cl  UNL A   1      30.940  23.523  25.074  1.00  0.00    -0.084 Cl
ENDBRANCH  86  87
ENDBRANCH  78  80
ENDBRANCH  77  78
ENDBRANCH  76  77
ENDBRANCH  75  76
ENDBRANCH  74  75
ENDBRANCH   1  74
TORSDOF 18
ENDMDL
