MODEL 1
REMARK VINA RESULT:      -9.9      0.000      0.000
REMARK SMILES CC(C)(C[NH+]1CCC(C(N)=S)CC1)C(=O)OCCOCCOC(=O)c1ccc(-c2c3nc(c(-c4c(F)cc(S(=O)(=O)[O-])cc4F)c4ccc([nH]4)c(-c4c(F)cc(S(=O)(=O)[O-])cc4F)c4nc(c(-c5c(F)cc(S(=O)(=O)[O-])cc5F)c5ccc2[nH]5)C=C4)C=C3)cc1
REMARK SMILES IDX 18 1 17 2 16 3 14 4 15 5 2 6 1 7 3 8 4 9 5 10 6 11 13 12
REMARK SMILES IDX 7 14 12 15 8 16 9 17 11 18 10 19 19 22 20 23 21 24 22 25
REMARK SMILES IDX 23 26 24 27 25 28 26 29 90 30 27 31 89 32 28 33 29 34 30 35
REMARK SMILES IDX 83 36 31 37 88 38 82 39 84 40 32 41 87 42 81 43 80 44 33 46
REMARK SMILES IDX 67 47 46 48 66 49 47 50 50 51 65 52 85 53 48 54 49 55 64 57
REMARK SMILES IDX 86 58 51 59 34 60 35 61 44 62 36 63 37 64 43 65 45 66 38 67
REMARK SMILES IDX 39 68 40 69 41 70 42 71 68 72 69 73 78 74 70 75 71 76 77 77
REMARK SMILES IDX 79 78 72 79 73 80 74 81 75 82 76 83 52 84 53 85 62 86 54 87
REMARK SMILES IDX 55 88 61 89 63 90 56 91 57 92 58 93 59 94 60 95
REMARK H PARENT 5 13 10 20 10 21 84 45 50 56
REMARK Flexibility Score: inf
ROOT
ATOM      1  C   UNL A   1      31.680  28.039  27.499  1.00  0.00     0.202 C 
ENDROOT
BRANCH   1   2
ATOM      2  C   UNL A   1      31.407  27.105  26.310  1.00  0.00     0.261 C 
BRANCH   2   3
ATOM      3  O   UNL A   1      32.530  26.281  25.903  1.00  0.00    -0.463 OA
BRANCH   3   4
ATOM      4  C   UNL A   1      32.213  25.172  25.174  1.00  0.00     0.317 C 
ATOM      5  O   UNL A   1      31.491  24.274  25.597  1.00  0.00    -0.251 OA
BRANCH   4   6
ATOM      6  C   UNL A   1      32.924  25.103  23.807  1.00  0.00     0.111 C 
ATOM      7  C   UNL A   1      33.800  26.363  23.670  1.00  0.00     0.029 C 
ATOM      8  C   UNL A   1      31.811  25.205  22.736  1.00  0.00     0.029 C 
BRANCH   6   9
ATOM      9  C   UNL A   1      33.747  23.804  23.515  1.00  0.00     0.280 C 
BRANCH   9  10
ATOM     10  N   UNL A   1      33.422  22.479  24.084  1.00  0.00    -0.334 N 
ATOM     11  C   UNL A   1      32.492  21.641  23.327  1.00  0.00     0.262 C 
ATOM     12  C   UNL A   1      34.609  21.783  24.536  1.00  0.00     0.262 C 
ATOM     13  H   UNL A   1      32.861  22.699  24.906  1.00  0.00     0.348 HD
ATOM     14  C   UNL A   1      32.184  20.307  24.042  1.00  0.00     0.072 C 
ATOM     15  C   UNL A   1      34.328  20.477  25.253  1.00  0.00     0.072 C 
ATOM     16  C   UNL A   1      33.479  19.564  24.374  1.00  0.00     0.058 C 
BRANCH  16  17
ATOM     17  C   UNL A   1      33.399  18.202  25.051  1.00  0.00     0.076 C 
ATOM     18  S   UNL A   1      33.830  16.744  24.375  1.00  0.00    -0.066 S 
BRANCH  17  19
ATOM     19  N   UNL A   1      32.827  18.220  26.298  1.00  0.00    -0.393 N 
ATOM     20  H   UNL A   1      31.905  17.896  26.421  1.00  0.00     0.157 HD
ATOM     21  H   UNL A   1      33.337  18.556  27.069  1.00  0.00     0.157 HD
ENDBRANCH  17  19
ENDBRANCH  16  17
ENDBRANCH   9  10
ENDBRANCH   6   9
ENDBRANCH   4   6
ENDBRANCH   3   4
ENDBRANCH   2   3
ENDBRANCH   1   2
BRANCH   1  22
ATOM     22  O   UNL A   1      32.640  29.077  27.266  1.00  0.00    -0.374 OA
BRANCH  22  23
ATOM     23  C   UNL A   1      32.086  30.348  26.937  1.00  0.00     0.202 C 
BRANCH  23  24
ATOM     24  C   UNL A   1      32.865  31.537  27.501  1.00  0.00     0.261 C 
BRANCH  24  25
ATOM     25  O   UNL A   1      34.271  31.288  27.410  1.00  0.00    -0.460 OA
BRANCH  25  26
ATOM     26  C   UNL A   1      34.906  31.387  28.598  1.00  0.00     0.338 C 
ATOM     27  O   UNL A   1      34.517  31.956  29.602  1.00  0.00    -0.246 OA
BRANCH  26  28
ATOM     28  C   UNL A   1      36.080  30.510  28.584  1.00  0.00     0.060 A 
ATOM     29  C   UNL A   1      36.558  30.094  29.830  1.00  0.00     0.016 A 
ATOM     30  C   UNL A   1      36.751  30.191  27.399  1.00  0.00     0.016 A 
ATOM     31  C   UNL A   1      37.782  29.451  29.909  1.00  0.00     0.010 A 
ATOM     32  C   UNL A   1      37.982  29.540  27.480  1.00  0.00     0.010 A 
ATOM     33  C   UNL A   1      38.525  29.237  28.740  1.00  0.00    -0.014 A 
BRANCH  33  34
ATOM     34  C   UNL A   1      39.961  28.926  28.888  1.00  0.00     0.031 A 
ATOM     35  C   UNL A   1      40.848  29.978  29.500  1.00  0.00     0.074 A 
ATOM     36  C   UNL A   1      40.416  27.699  28.584  1.00  0.00     0.049 A 
ATOM     37  N   UNL A   1      42.122  29.929  29.779  1.00  0.00    -0.248 NA
ATOM     38  C   UNL A   1      40.209  31.261  29.851  1.00  0.00     0.031 C 
ATOM     39  C   UNL A   1      39.601  26.613  28.039  1.00  0.00     0.029 A 
ATOM     40  N   UNL A   1      41.664  27.154  28.708  1.00  0.00    -0.354 N 
ATOM     41  C   UNL A   1      42.434  31.165  30.335  1.00  0.00     0.074 A 
ATOM     42  C   UNL A   1      41.229  31.961  30.322  1.00  0.00     0.031 C 
ATOM     43  C   UNL A   1      40.374  25.525  27.881  1.00  0.00     0.029 A 
ATOM     44  C   UNL A   1      41.737  25.848  28.289  1.00  0.00     0.049 A 
ATOM     45  H   UNL A   1      42.436  27.651  29.064  1.00  0.00     0.167 HD
ATOM     46  C   UNL A   1      43.622  31.588  30.828  1.00  0.00     0.037 A 
ATOM     47  C   UNL A   1      42.797  25.018  28.239  1.00  0.00     0.037 A 
ATOM     48  C   UNL A   1      44.803  30.766  30.832  1.00  0.00     0.049 A 
ATOM     49  C   UNL A   1      44.119  25.527  28.750  1.00  0.00     0.074 A 
ATOM     50  C   UNL A   1      46.074  31.079  31.273  1.00  0.00     0.029 A 
ATOM     51  N   UNL A   1      44.846  29.456  30.371  1.00  0.00    -0.354 N 
ATOM     52  N   UNL A   1      44.405  26.705  29.258  1.00  0.00    -0.248 NA
ATOM     53  C   UNL A   1      45.257  24.603  28.688  1.00  0.00     0.031 C 
ATOM     54  C   UNL A   1      46.894  29.969  31.049  1.00  0.00     0.029 A 
ATOM     55  C   UNL A   1      46.124  28.947  30.511  1.00  0.00     0.049 A 
ATOM     56  H   UNL A   1      44.079  28.962  30.000  1.00  0.00     0.167 HD
ATOM     57  C   UNL A   1      45.750  26.654  29.604  1.00  0.00     0.074 A 
ATOM     58  C   UNL A   1      46.216  25.325  29.254  1.00  0.00     0.031 C 
ATOM     59  C   UNL A   1      46.533  27.609  30.163  1.00  0.00     0.037 A 
BRANCH  46  60
ATOM     60  C   UNL A   1      43.701  32.987  31.376  1.00  0.00     0.058 A 
ATOM     61  C   UNL A   1      43.495  33.259  32.739  1.00  0.00     0.135 A 
ATOM     62  C   UNL A   1      44.007  34.069  30.535  1.00  0.00     0.135 A 
ATOM     63  F   UNL A   1      43.175  32.268  33.586  1.00  0.00    -0.206 F 
ATOM     64  C   UNL A   1      43.572  34.555  33.244  1.00  0.00     0.059 A 
ATOM     65  C   UNL A   1      44.113  35.369  31.022  1.00  0.00     0.059 A 
ATOM     66  F   UNL A   1      44.203  33.869  29.223  1.00  0.00    -0.206 F 
ATOM     67  C   UNL A   1      43.884  35.604  32.377  1.00  0.00     0.060 A 
BRANCH  67  68
ATOM     68  S   UNL A   1      43.997  37.276  33.050  1.00  0.00     0.124 S 
ATOM     69  O   UNL A   1      43.943  38.085  31.836  1.00  0.00    -0.237 OA
ATOM     70  O   UNL A   1      42.820  37.347  33.911  1.00  0.00    -0.237 OA
ATOM     71  O   UNL A   1      45.280  37.277  33.747  1.00  0.00    -0.744 OA
ENDBRANCH  67  68
ENDBRANCH  46  60
BRANCH  47  72
ATOM     72  C   UNL A   1      42.645  23.643  27.692  1.00  0.00     0.058 A 
ATOM     73  C   UNL A   1      42.468  22.535  28.533  1.00  0.00     0.135 A 
ATOM     74  C   UNL A   1      42.659  23.413  26.307  1.00  0.00     0.135 A 
ATOM     75  F   UNL A   1      42.448  22.701  29.864  1.00  0.00    -0.206 F 
ATOM     76  C   UNL A   1      42.327  21.247  28.024  1.00  0.00     0.059 A 
ATOM     77  C   UNL A   1      42.494  22.138  25.772  1.00  0.00     0.059 A 
ATOM     78  F   UNL A   1      42.806  24.439  25.454  1.00  0.00    -0.206 F 
ATOM     79  C   UNL A   1      42.341  21.059  26.641  1.00  0.00     0.060 A 
BRANCH  79  80
ATOM     80  S   UNL A   1      42.120  19.389  25.985  1.00  0.00     0.124 S 
ATOM     81  O   UNL A   1      42.978  19.422  24.807  1.00  0.00    -0.237 OA
ATOM     82  O   UNL A   1      42.587  18.561  27.092  1.00  0.00    -0.237 OA
ATOM     83  O   UNL A   1      40.686  19.321  25.722  1.00  0.00    -0.744 OA
ENDBRANCH  79  80
ENDBRANCH  47  72
BRANCH  59  84
ATOM     84  C   UNL A   1      47.954  27.236  30.464  1.00  0.00     0.058 A 
ATOM     85  C   UNL A   1      49.000  27.566  29.592  1.00  0.00     0.135 A 
ATOM     86  C   UNL A   1      48.274  26.602  31.676  1.00  0.00     0.135 A 
ATOM     87  F   UNL A   1      48.742  28.169  28.421  1.00  0.00    -0.206 F 
ATOM     88  C   UNL A   1      50.320  27.260  29.902  1.00  0.00     0.059 A 
ATOM     89  C   UNL A   1      49.588  26.310  32.017  1.00  0.00     0.059 A 
ATOM     90  F   UNL A   1      47.304  26.279  32.546  1.00  0.00    -0.206 F 
ATOM     91  C   UNL A   1      50.604  26.635  31.119  1.00  0.00     0.060 A 
BRANCH  91  92
ATOM     92  S   UNL A   1      52.325  26.283  31.528  1.00  0.00     0.124 S 
ATOM     93  O   UNL A   1      52.922  26.162  30.203  1.00  0.00    -0.237 OA
ATOM     94  O   UNL A   1      52.713  27.464  32.293  1.00  0.00    -0.237 OA
ATOM     95  O   UNL A   1      52.243  25.044  32.297  1.00  0.00    -0.744 OA
ENDBRANCH  91  92
ENDBRANCH  59  84
ENDBRANCH  33  34
ENDBRANCH  26  28
ENDBRANCH  25  26
ENDBRANCH  24  25
ENDBRANCH  23  24
ENDBRANCH  22  23
ENDBRANCH   1  22
TORSDOF 21
ENDMDL
MODEL 2
REMARK VINA RESULT:      -9.7      1.246      2.014
REMARK SMILES CC(C)(C[NH+]1CCC(C(N)=S)CC1)C(=O)OCCOCCOC(=O)c1ccc(-c2c3nc(c(-c4c(F)cc(S(=O)(=O)[O-])cc4F)c4ccc([nH]4)c(-c4c(F)cc(S(=O)(=O)[O-])cc4F)c4nc(c(-c5c(F)cc(S(=O)(=O)[O-])cc5F)c5ccc2[nH]5)C=C4)C=C3)cc1
REMARK SMILES IDX 18 1 17 2 16 3 14 4 15 5 2 6 1 7 3 8 4 9 5 10 6 11 13 12
REMARK SMILES IDX 7 14 12 15 8 16 9 17 11 18 10 19 19 22 20 23 21 24 22 25
REMARK SMILES IDX 23 26 24 27 25 28 26 29 90 30 27 31 89 32 28 33 29 34 30 35
REMARK SMILES IDX 83 36 31 37 88 38 82 39 84 40 32 41 87 42 81 43 80 44 33 46
REMARK SMILES IDX 67 47 46 48 66 49 47 50 50 51 65 52 85 53 48 54 49 55 64 57
REMARK SMILES IDX 86 58 51 59 34 60 35 61 44 62 36 63 37 64 43 65 45 66 38 67
REMARK SMILES IDX 39 68 40 69 41 70 42 71 68 72 69 73 78 74 70 75 71 76 77 77
REMARK SMILES IDX 79 78 72 79 73 80 74 81 75 82 76 83 52 84 53 85 62 86 54 87
REMARK SMILES IDX 55 88 61 89 63 90 56 91 57 92 58 93 59 94 60 95
REMARK H PARENT 5 13 10 20 10 21 84 45 50 56
REMARK Flexibility Score: inf
ROOT
ATOM      1  C   UNL A   1      31.464  27.740  27.424  1.00  0.00     0.202 C 
ENDROOT
BRANCH   1   2
ATOM      2  C   UNL A   1      30.974  27.104  26.115  1.00  0.00     0.261 C 
BRANCH   2   3
ATOM      3  O   UNL A   1      31.299  25.699  25.951  1.00  0.00    -0.463 OA
BRANCH   3   4
ATOM      4  C   UNL A   1      32.447  25.437  25.262  1.00  0.00     0.317 C 
ATOM      5  O   UNL A   1      33.566  25.663  25.711  1.00  0.00    -0.251 OA
BRANCH   4   6
ATOM      6  C   UNL A   1      32.207  24.921  23.828  1.00  0.00     0.111 C 
ATOM      7  C   UNL A   1      32.630  26.035  22.852  1.00  0.00     0.029 C 
ATOM      8  C   UNL A   1      30.676  24.748  23.683  1.00  0.00     0.029 C 
BRANCH   6   9
ATOM      9  C   UNL A   1      32.877  23.556  23.458  1.00  0.00     0.280 C 
BRANCH   9  10
ATOM     10  N   UNL A   1      34.028  22.981  24.186  1.00  0.00    -0.334 N 
ATOM     11  C   UNL A   1      34.005  21.538  24.431  1.00  0.00     0.262 C 
ATOM     12  C   UNL A   1      35.290  23.471  23.669  1.00  0.00     0.262 C 
ATOM     13  H   UNL A   1      33.921  23.341  25.133  1.00  0.00     0.348 HD
ATOM     14  C   UNL A   1      35.227  21.059  25.245  1.00  0.00     0.072 C 
ATOM     15  C   UNL A   1      36.502  23.023  24.462  1.00  0.00     0.072 C 
ATOM     16  C   UNL A   1      36.528  21.501  24.572  1.00  0.00     0.058 C 
BRANCH  16  17
ATOM     17  C   UNL A   1      37.858  21.098  25.195  1.00  0.00     0.076 C 
ATOM     18  S   UNL A   1      38.908  22.106  26.002  1.00  0.00    -0.066 S 
BRANCH  17  19
ATOM     19  N   UNL A   1      38.223  19.796  24.963  1.00  0.00    -0.393 N 
ATOM     20  H   UNL A   1      38.903  19.367  25.532  1.00  0.00     0.157 HD
ATOM     21  H   UNL A   1      37.806  19.291  24.229  1.00  0.00     0.157 HD
ENDBRANCH  17  19
ENDBRANCH  16  17
ENDBRANCH   9  10
ENDBRANCH   6   9
ENDBRANCH   4   6
ENDBRANCH   3   4
ENDBRANCH   2   3
ENDBRANCH   1   2
BRANCH   1  22
ATOM     22  O   UNL A   1      32.408  28.808  27.281  1.00  0.00    -0.374 OA
BRANCH  22  23
ATOM     23  C   UNL A   1      31.839  30.079  26.984  1.00  0.00     0.202 C 
BRANCH  23  24
ATOM     24  C   UNL A   1      32.755  31.265  27.292  1.00  0.00     0.261 C 
BRANCH  24  25
ATOM     25  O   UNL A   1      34.124  30.859  27.207  1.00  0.00    -0.460 OA
BRANCH  25  26
ATOM     26  C   UNL A   1      34.838  31.165  28.312  1.00  0.00     0.338 C 
ATOM     27  O   UNL A   1      34.511  31.899  29.227  1.00  0.00    -0.246 OA
BRANCH  26  28
ATOM     28  C   UNL A   1      36.019  30.299  28.369  1.00  0.00     0.060 A 
ATOM     29  C   UNL A   1      36.430  29.892  29.642  1.00  0.00     0.016 A 
ATOM     30  C   UNL A   1      36.759  29.981  27.226  1.00  0.00     0.016 A 
ATOM     31  C   UNL A   1      37.654  29.261  29.793  1.00  0.00     0.010 A 
ATOM     32  C   UNL A   1      37.990  29.343  27.379  1.00  0.00     0.010 A 
ATOM     33  C   UNL A   1      38.463  29.050  28.669  1.00  0.00    -0.014 A 
BRANCH  33  34
ATOM     34  C   UNL A   1      39.891  28.754  28.899  1.00  0.00     0.031 A 
ATOM     35  C   UNL A   1      40.716  29.787  29.621  1.00  0.00     0.074 A 
ATOM     36  C   UNL A   1      40.388  27.550  28.568  1.00  0.00     0.049 A 
ATOM     37  N   UNL A   1      41.968  29.743  29.984  1.00  0.00    -0.248 NA
ATOM     38  C   UNL A   1      40.031  31.040  29.990  1.00  0.00     0.031 C 
ATOM     39  C   UNL A   1      39.632  26.480  27.915  1.00  0.00     0.029 A 
ATOM     40  N   UNL A   1      41.635  27.019  28.750  1.00  0.00    -0.354 N 
ATOM     41  C   UNL A   1      42.220  30.954  30.620  1.00  0.00     0.074 A 
ATOM     42  C   UNL A   1      41.004  31.732  30.564  1.00  0.00     0.031 C 
ATOM     43  C   UNL A   1      40.434  25.414  27.757  1.00  0.00     0.029 A 
ATOM     44  C   UNL A   1      41.760  25.736  28.274  1.00  0.00     0.049 A 
ATOM     45  H   UNL A   1      42.372  27.508  29.182  1.00  0.00     0.167 HD
ATOM     46  C   UNL A   1      43.364  31.369  31.214  1.00  0.00     0.037 A 
ATOM     47  C   UNL A   1      42.836  24.926  28.255  1.00  0.00     0.037 A 
ATOM     48  C   UNL A   1      44.557  30.566  31.257  1.00  0.00     0.049 A 
ATOM     49  C   UNL A   1      44.110  25.428  28.879  1.00  0.00     0.074 A 
ATOM     50  C   UNL A   1      45.789  30.875  31.799  1.00  0.00     0.029 A 
ATOM     51  N   UNL A   1      44.654  29.281  30.737  1.00  0.00    -0.354 N 
ATOM     52  N   UNL A   1      44.341  26.583  29.463  1.00  0.00    -0.248 NA
ATOM     53  C   UNL A   1      45.267  24.526  28.851  1.00  0.00     0.031 C 
ATOM     54  C   UNL A   1      46.643  29.790  31.578  1.00  0.00     0.029 A 
ATOM     55  C   UNL A   1      45.929  28.786  30.940  1.00  0.00     0.049 A 
ATOM     56  H   UNL A   1      43.924  28.795  30.291  1.00  0.00     0.167 HD
ATOM     57  C   UNL A   1      45.659  26.535  29.898  1.00  0.00     0.074 A 
ATOM     58  C   UNL A   1      46.172  25.233  29.516  1.00  0.00     0.031 C 
ATOM     59  C   UNL A   1      46.386  27.473  30.555  1.00  0.00     0.037 A 
BRANCH  46  60
ATOM     60  C   UNL A   1      43.379  32.740  31.834  1.00  0.00     0.058 A 
ATOM     61  C   UNL A   1      43.083  32.940  33.192  1.00  0.00     0.135 A 
ATOM     62  C   UNL A   1      43.716  33.868  31.068  1.00  0.00     0.135 A 
ATOM     63  F   UNL A   1      42.731  31.902  33.967  1.00  0.00    -0.206 F 
ATOM     64  C   UNL A   1      43.102  34.210  33.764  1.00  0.00     0.059 A 
ATOM     65  C   UNL A   1      43.765  35.144  31.624  1.00  0.00     0.059 A 
ATOM     66  F   UNL A   1      43.998  33.737  29.763  1.00  0.00    -0.206 F 
ATOM     67  C   UNL A   1      43.446  35.306  32.972  1.00  0.00     0.060 A 
BRANCH  67  68
ATOM     68  S   UNL A   1      43.483  36.944  33.731  1.00  0.00     0.124 S 
ATOM     69  O   UNL A   1      43.578  37.809  32.559  1.00  0.00    -0.237 OA
ATOM     70  O   UNL A   1      42.212  36.985  34.447  1.00  0.00    -0.237 OA
ATOM     71  O   UNL A   1      44.673  36.901  34.576  1.00  0.00    -0.744 OA
ENDBRANCH  67  68
ENDBRANCH  46  60
BRANCH  47  72
ATOM     72  C   UNL A   1      42.747  23.578  27.633  1.00  0.00     0.058 A 
ATOM     73  C   UNL A   1      42.980  23.385  26.264  1.00  0.00     0.135 A 
ATOM     74  C   UNL A   1      42.441  22.446  28.406  1.00  0.00     0.135 A 
ATOM     75  F   UNL A   1      43.275  24.433  25.480  1.00  0.00    -0.206 F 
ATOM     76  C   UNL A   1      42.896  22.125  25.679  1.00  0.00     0.059 A 
ATOM     77  C   UNL A   1      42.376  21.171  27.850  1.00  0.00     0.059 A 
ATOM     78  F   UNL A   1      42.227  22.569  29.726  1.00  0.00    -0.206 F 
ATOM     79  C   UNL A   1      42.594  21.023  26.482  1.00  0.00     0.060 A 
BRANCH  79  80
ATOM     80  S   UNL A   1      42.523  19.384  25.723  1.00  0.00     0.124 S 
ATOM     81  O   UNL A   1      41.108  19.276  25.391  1.00  0.00    -0.237 OA
ATOM     82  O   UNL A   1      43.435  19.529  24.594  1.00  0.00    -0.237 OA
ATOM     83  O   UNL A   1      42.992  18.502  26.789  1.00  0.00    -0.744 OA
ENDBRANCH  79  80
ENDBRANCH  47  72
BRANCH  59  84
ATOM     84  C   UNL A   1      47.790  27.106  30.933  1.00  0.00     0.058 A 
ATOM     85  C   UNL A   1      48.072  26.396  32.108  1.00  0.00     0.135 A 
ATOM     86  C   UNL A   1      48.854  27.412  30.070  1.00  0.00     0.135 A 
ATOM     87  F   UNL A   1      47.086  26.086  32.965  1.00  0.00    -0.206 F 
ATOM     88  C   UNL A   1      49.370  26.017  32.426  1.00  0.00     0.059 A 
ATOM     89  C   UNL A   1      50.156  27.020  30.356  1.00  0.00     0.059 A 
ATOM     90  F   UNL A   1      48.628  28.080  28.928  1.00  0.00    -0.206 F 
ATOM     91  C   UNL A   1      50.405  26.331  31.542  1.00  0.00     0.060 A 
BRANCH  91  92
ATOM     92  S   UNL A   1      52.079  25.795  31.947  1.00  0.00     0.124 S 
ATOM     93  O   UNL A   1      51.863  24.393  32.288  1.00  0.00    -0.237 OA
ATOM     94  O   UNL A   1      52.796  26.040  30.699  1.00  0.00    -0.237 OA
ATOM     95  O   UNL A   1      52.453  26.663  33.059  1.00  0.00    -0.744 OA
ENDBRANCH  91  92
ENDBRANCH  59  84
ENDBRANCH  33  34
ENDBRANCH  26  28
ENDBRANCH  25  26
ENDBRANCH  24  25
ENDBRANCH  23  24
ENDBRANCH  22  23
ENDBRANCH   1  22
TORSDOF 21
ENDMDL
MODEL 3
REMARK VINA RESULT:      -9.7      4.882      9.796
REMARK SMILES CC(C)(C[NH+]1CCC(C(N)=S)CC1)C(=O)OCCOCCOC(=O)c1ccc(-c2c3nc(c(-c4c(F)cc(S(=O)(=O)[O-])cc4F)c4ccc([nH]4)c(-c4c(F)cc(S(=O)(=O)[O-])cc4F)c4nc(c(-c5c(F)cc(S(=O)(=O)[O-])cc5F)c5ccc2[nH]5)C=C4)C=C3)cc1
REMARK SMILES IDX 18 1 17 2 16 3 14 4 15 5 2 6 1 7 3 8 4 9 5 10 6 11 13 12
REMARK SMILES IDX 7 14 12 15 8 16 9 17 11 18 10 19 19 22 20 23 21 24 22 25
REMARK SMILES IDX 23 26 24 27 25 28 26 29 90 30 27 31 89 32 28 33 29 34 30 35
REMARK SMILES IDX 83 36 31 37 88 38 82 39 84 40 32 41 87 42 81 43 80 44 33 46
REMARK SMILES IDX 67 47 46 48 66 49 47 50 50 51 65 52 85 53 48 54 49 55 64 57
REMARK SMILES IDX 86 58 51 59 34 60 35 61 44 62 36 63 37 64 43 65 45 66 38 67
REMARK SMILES IDX 39 68 40 69 41 70 42 71 68 72 69 73 78 74 70 75 71 76 77 77
REMARK SMILES IDX 79 78 72 79 73 80 74 81 75 82 76 83 52 84 53 85 62 86 54 87
REMARK SMILES IDX 55 88 61 89 63 90 56 91 57 92 58 93 59 94 60 95
REMARK H PARENT 5 13 10 20 10 21 84 45 50 56
REMARK Flexibility Score: inf
ROOT
ATOM      1  C   UNL A   1      37.028  21.875  24.067  1.00  0.00     0.202 C 
ENDROOT
BRANCH   1   2
ATOM      2  C   UNL A   1      36.564  23.184  23.410  1.00  0.00     0.261 C 
BRANCH   2   3
ATOM      3  O   UNL A   1      35.274  23.119  22.749  1.00  0.00    -0.463 OA
BRANCH   3   4
ATOM      4  C   UNL A   1      34.187  23.179  23.572  1.00  0.00     0.317 C 
ATOM      5  O   UNL A   1      34.273  23.250  24.794  1.00  0.00    -0.251 OA
BRANCH   4   6
ATOM      6  C   UNL A   1      32.840  23.051  22.831  1.00  0.00     0.111 C 
ATOM      7  C   UNL A   1      33.100  23.316  21.336  1.00  0.00     0.029 C 
ATOM      8  C   UNL A   1      31.950  24.206  23.350  1.00  0.00     0.029 C 
BRANCH   6   9
ATOM      9  C   UNL A   1      32.054  21.714  23.043  1.00  0.00     0.280 C 
BRANCH   9  10
ATOM     10  N   UNL A   1      32.626  20.518  23.697  1.00  0.00    -0.334 N 
ATOM     11  C   UNL A   1      32.387  20.368  25.133  1.00  0.00     0.262 C 
ATOM     12  C   UNL A   1      32.377  19.315  22.929  1.00  0.00     0.262 C 
ATOM     13  H   UNL A   1      33.631  20.691  23.684  1.00  0.00     0.348 HD
ATOM     14  C   UNL A   1      33.076  19.116  25.717  1.00  0.00     0.072 C 
ATOM     15  C   UNL A   1      33.056  18.076  23.479  1.00  0.00     0.072 C 
ATOM     16  C   UNL A   1      32.667  17.864  24.939  1.00  0.00     0.058 C 
BRANCH  16  17
ATOM     17  C   UNL A   1      33.207  16.509  25.377  1.00  0.00     0.076 C 
ATOM     18  S   UNL A   1      32.314  15.124  25.603  1.00  0.00    -0.066 S 
BRANCH  17  19
ATOM     19  N   UNL A   1      34.543  16.504  25.690  1.00  0.00    -0.393 N 
ATOM     20  H   UNL A   1      34.941  17.274  26.158  1.00  0.00     0.157 HD
ATOM     21  H   UNL A   1      35.103  15.733  25.446  1.00  0.00     0.157 HD
ENDBRANCH  17  19
ENDBRANCH  16  17
ENDBRANCH   9  10
ENDBRANCH   6   9
ENDBRANCH   4   6
ENDBRANCH   3   4
ENDBRANCH   2   3
ENDBRANCH   1   2
BRANCH   1  22
ATOM     22  O   UNL A   1      37.672  22.012  25.339  1.00  0.00    -0.374 OA
BRANCH  22  23
ATOM     23  C   UNL A   1      37.668  23.331  25.878  1.00  0.00     0.202 C 
BRANCH  23  24
ATOM     24  C   UNL A   1      39.000  23.762  26.493  1.00  0.00     0.261 C 
BRANCH  24  25
ATOM     25  O   UNL A   1      39.022  25.182  26.665  1.00  0.00    -0.460 OA
BRANCH  25  26
ATOM     26  C   UNL A   1      40.260  25.711  26.561  1.00  0.00     0.338 C 
ATOM     27  O   UNL A   1      40.917  25.868  25.548  1.00  0.00    -0.246 OA
BRANCH  26  28
ATOM     28  C   UNL A   1      40.642  26.283  27.856  1.00  0.00     0.060 A 
ATOM     29  C   UNL A   1      39.710  26.154  28.890  1.00  0.00     0.016 A 
ATOM     30  C   UNL A   1      41.825  27.009  28.024  1.00  0.00     0.016 A 
ATOM     31  C   UNL A   1      39.901  26.854  30.069  1.00  0.00     0.010 A 
ATOM     32  C   UNL A   1      42.018  27.710  29.214  1.00  0.00     0.010 A 
ATOM     33  C   UNL A   1      41.021  27.686  30.204  1.00  0.00    -0.014 A 
BRANCH  33  34
ATOM     34  C   UNL A   1      40.994  28.703  31.273  1.00  0.00     0.031 A 
ATOM     35  C   UNL A   1      39.948  29.783  31.190  1.00  0.00     0.074 A 
ATOM     36  C   UNL A   1      41.812  28.582  32.333  1.00  0.00     0.049 A 
ATOM     37  N   UNL A   1      39.690  30.754  32.023  1.00  0.00    -0.248 NA
ATOM     38  C   UNL A   1      39.068  29.763  30.006  1.00  0.00     0.031 C 
ATOM     39  C   UNL A   1      42.813  27.529  32.506  1.00  0.00     0.029 A 
ATOM     40  N   UNL A   1      41.918  29.337  33.468  1.00  0.00    -0.354 N 
ATOM     41  C   UNL A   1      38.624  31.454  31.469  1.00  0.00     0.074 A 
ATOM     42  C   UNL A   1      38.304  30.826  30.209  1.00  0.00     0.031 C 
ATOM     43  C   UNL A   1      43.429  27.702  33.687  1.00  0.00     0.029 A 
ATOM     44  C   UNL A   1      42.884  28.889  34.336  1.00  0.00     0.049 A 
ATOM     45  H   UNL A   1      41.356  30.125  33.646  1.00  0.00     0.167 HD
ATOM     46  C   UNL A   1      37.963  32.519  31.979  1.00  0.00     0.037 A 
ATOM     47  C   UNL A   1      43.280  29.398  35.519  1.00  0.00     0.037 A 
ATOM     48  C   UNL A   1      38.305  33.119  33.242  1.00  0.00     0.049 A 
ATOM     49  C   UNL A   1      42.560  30.611  36.045  1.00  0.00     0.074 A 
ATOM     50  C   UNL A   1      37.737  34.215  33.861  1.00  0.00     0.029 A 
ATOM     51  N   UNL A   1      39.310  32.655  34.082  1.00  0.00    -0.354 N 
ATOM     52  N   UNL A   1      41.565  31.276  35.502  1.00  0.00    -0.248 NA
ATOM     53  C   UNL A   1      43.007  31.144  37.337  1.00  0.00     0.031 C 
ATOM     54  C   UNL A   1      38.421  34.435  35.061  1.00  0.00     0.029 A 
ATOM     55  C   UNL A   1      39.384  33.447  35.212  1.00  0.00     0.049 A 
ATOM     56  H   UNL A   1      39.885  31.877  33.899  1.00  0.00     0.167 HD
ATOM     57  C   UNL A   1      41.245  32.286  36.400  1.00  0.00     0.074 A 
ATOM     58  C   UNL A   1      42.150  32.139  37.525  1.00  0.00     0.031 C 
ATOM     59  C   UNL A   1      40.293  33.248  36.313  1.00  0.00     0.037 A 
BRANCH  46  60
ATOM     60  C   UNL A   1      36.837  33.104  31.171  1.00  0.00     0.058 A 
ATOM     61  C   UNL A   1      37.074  33.871  30.019  1.00  0.00     0.135 A 
ATOM     62  C   UNL A   1      35.500  32.878  31.539  1.00  0.00     0.135 A 
ATOM     63  F   UNL A   1      38.331  34.140  29.633  1.00  0.00    -0.206 F 
ATOM     64  C   UNL A   1      36.028  34.407  29.271  1.00  0.00     0.059 A 
ATOM     65  C   UNL A   1      34.439  33.384  30.793  1.00  0.00     0.059 A 
ATOM     66  F   UNL A   1      35.214  32.161  32.637  1.00  0.00    -0.206 F 
ATOM     67  C   UNL A   1      34.713  34.156  29.665  1.00  0.00     0.060 A 
BRANCH  67  68
ATOM     68  S   UNL A   1      33.368  34.844  28.676  1.00  0.00     0.124 S 
ATOM     69  O   UNL A   1      34.015  36.001  28.065  1.00  0.00    -0.237 OA
ATOM     70  O   UNL A   1      33.051  33.743  27.772  1.00  0.00    -0.237 OA
ATOM     71  O   UNL A   1      32.340  35.152  29.667  1.00  0.00    -0.744 OA
ENDBRANCH  67  68
ENDBRANCH  46  60
BRANCH  47  72
ATOM     72  C   UNL A   1      44.396  28.763  36.270  1.00  0.00     0.058 A 
ATOM     73  C   UNL A   1      44.182  27.660  37.110  1.00  0.00     0.135 A 
ATOM     74  C   UNL A   1      45.711  29.242  36.148  1.00  0.00     0.135 A 
ATOM     75  F   UNL A   1      42.945  27.165  37.262  1.00  0.00    -0.206 F 
ATOM     76  C   UNL A   1      45.225  27.066  37.814  1.00  0.00     0.059 A 
ATOM     77  C   UNL A   1      46.775  28.648  36.822  1.00  0.00     0.059 A 
ATOM     78  F   UNL A   1      45.977  30.283  35.343  1.00  0.00    -0.206 F 
ATOM     79  C   UNL A   1      46.519  27.567  37.663  1.00  0.00     0.060 A 
BRANCH  79  80
ATOM     80  S   UNL A   1      47.874  26.767  38.552  1.00  0.00     0.124 S 
ATOM     81  O   UNL A   1      48.295  27.827  39.460  1.00  0.00    -0.237 OA
ATOM     82  O   UNL A   1      47.206  25.626  39.168  1.00  0.00    -0.237 OA
ATOM     83  O   UNL A   1      48.819  26.433  37.490  1.00  0.00    -0.744 OA
ENDBRANCH  79  80
ENDBRANCH  47  72
BRANCH  59  84
ATOM     84  C   UNL A   1      40.160  34.182  37.479  1.00  0.00     0.058 A 
ATOM     85  C   UNL A   1      40.943  35.339  37.587  1.00  0.00     0.135 A 
ATOM     86  C   UNL A   1      39.184  33.947  38.462  1.00  0.00     0.135 A 
ATOM     87  F   UNL A   1      41.891  35.602  36.674  1.00  0.00    -0.206 F 
ATOM     88  C   UNL A   1      40.778  36.225  38.645  1.00  0.00     0.059 A 
ATOM     89  C   UNL A   1      38.985  34.832  39.513  1.00  0.00     0.059 A 
ATOM     90  F   UNL A   1      38.402  32.857  38.390  1.00  0.00    -0.206 F 
ATOM     91  C   UNL A   1      39.794  35.964  39.601  1.00  0.00     0.060 A 
BRANCH  91  92
ATOM     92  S   UNL A   1      39.561  37.144  40.945  1.00  0.00     0.124 S 
ATOM     93  O   UNL A   1      40.896  37.721  41.062  1.00  0.00    -0.237 OA
ATOM     94  O   UNL A   1      38.532  38.030  40.410  1.00  0.00    -0.237 OA
ATOM     95  O   UNL A   1      39.138  36.305  42.063  1.00  0.00    -0.744 OA
ENDBRANCH  91  92
ENDBRANCH  59  84
ENDBRANCH  33  34
ENDBRANCH  26  28
ENDBRANCH  25  26
ENDBRANCH  24  25
ENDBRANCH  23  24
ENDBRANCH  22  23
ENDBRANCH   1  22
TORSDOF 21
ENDMDL
