MODEL 1
REMARK VINA RESULT:     -11.2      0.000      0.000
REMARK SMILES Cc1ccc2c(c1)C=C(C(=O)OCCOCCOC(=O)c1ccc(-c3c4nc(c(-c5c(F)cc(S(=O)(=O)[O-])cc5F)c5ccc([nH]5)c(-c5c(F)cc(S(=O)(=O)[O-])cc5F)c5nc(c(-c6c(F)cc(S(=O)(=O)[O-])cc6F)c6ccc3[nH]6)C=C5)C=C4)cc1)[C@@H](C(F)(F)F)O2
REMARK SMILES IDX 16 1 15 2 14 3 13 4 12 5 10 6 11 7 9 8 1 9 2 10 3 11 7 12
REMARK SMILES IDX 4 13 6 14 5 15 8 16 92 17 87 18 88 19 89 20 90 21 91 22
REMARK SMILES IDX 17 23 18 24 19 25 20 26 21 27 22 28 86 29 23 30 85 31 24 32
REMARK SMILES IDX 25 33 26 34 79 35 27 36 84 37 78 38 80 39 28 40 83 41 77 42
REMARK SMILES IDX 76 43 29 45 63 46 42 47 62 48 43 49 46 50 61 51 81 52 44 53
REMARK SMILES IDX 45 54 60 56 82 57 47 58 30 59 31 60 40 61 32 62 33 63 39 64
REMARK SMILES IDX 41 65 34 66 35 67 36 68 37 69 38 70 64 71 65 72 74 73 66 74
REMARK SMILES IDX 67 75 73 76 75 77 68 78 69 79 70 80 71 81 72 82 48 83 49 84
REMARK SMILES IDX 58 85 50 86 51 87 57 88 59 89 52 90 53 91 54 92 55 93 56 94
REMARK H PARENT 80 44 46 55
REMARK Flexibility Score: inf
ROOT
ATOM      1  C   UNL A   1      39.646  21.696  26.500  1.00  0.00     0.202 C 
ENDROOT
BRANCH   1   2
ATOM      2  O   UNL A   1      38.717  21.585  25.423  1.00  0.00    -0.374 OA
BRANCH   2   3
ATOM      3  C   UNL A   1      37.344  21.875  25.680  1.00  0.00     0.202 C 
BRANCH   3   4
ATOM      4  C   UNL A   1      36.522  22.503  24.551  1.00  0.00     0.261 C 
BRANCH   4   5
ATOM      5  O   UNL A   1      35.650  23.539  25.025  1.00  0.00    -0.460 OA
BRANCH   5   6
ATOM      6  C   UNL A   1      34.457  23.597  24.386  1.00  0.00     0.338 C 
ATOM      7  O   UNL A   1      34.065  22.856  23.498  1.00  0.00    -0.246 OA
BRANCH   6   8
ATOM      8  C   UNL A   1      33.598  24.616  25.020  1.00  0.00     0.087 C 
ATOM      9  C   UNL A   1      34.020  30.304  27.304  1.00  0.00     0.044 C 
ATOM     10  C   UNL A   1      33.338  29.017  26.942  1.00  0.00    -0.050 A 
ATOM     11  C   UNL A   1      32.081  28.697  27.465  1.00  0.00     0.007 A 
ATOM     12  C   UNL A   1      33.998  28.077  26.142  1.00  0.00     0.015 A 
ATOM     13  C   UNL A   1      31.476  27.475  27.161  1.00  0.00     0.047 A 
ATOM     14  C   UNL A   1      33.409  26.838  25.869  1.00  0.00     0.017 A 
ATOM     15  C   UNL A   1      32.141  26.543  26.364  1.00  0.00     0.128 A 
ATOM     16  C   UNL A   1      34.147  25.831  25.134  1.00  0.00     0.027 C 
ATOM     17  O   UNL A   1      31.484  25.372  26.114  1.00  0.00    -0.475 OA
ATOM     18  C   UNL A   1      32.222  24.266  25.518  1.00  0.00     0.316 C 
BRANCH  18  19
ATOM     19  C   UNL A   1      32.239  23.097  26.513  1.00  0.00     0.430 C 
ATOM     20  F   UNL A   1      33.192  23.275  27.459  1.00  0.00    -0.167 F 
ATOM     21  F   UNL A   1      31.059  22.977  27.163  1.00  0.00    -0.167 F 
ATOM     22  F   UNL A   1      32.488  21.918  25.899  1.00  0.00    -0.167 F 
ENDBRANCH  18  19
ENDBRANCH   6   8
ENDBRANCH   5   6
ENDBRANCH   4   5
ENDBRANCH   3   4
ENDBRANCH   2   3
ENDBRANCH   1   2
BRANCH   1  23
ATOM     23  C   UNL A   1      40.568  22.923  26.548  1.00  0.00     0.261 C 
BRANCH  23  24
ATOM     24  O   UNL A   1      39.853  24.165  26.441  1.00  0.00    -0.460 OA
BRANCH  24  25
ATOM     25  C   UNL A   1      40.626  25.255  26.201  1.00  0.00     0.338 C 
ATOM     26  O   UNL A   1      41.111  25.596  25.133  1.00  0.00    -0.246 OA
BRANCH  25  27
ATOM     27  C   UNL A   1      40.634  26.107  27.403  1.00  0.00     0.060 A 
ATOM     28  C   UNL A   1      41.588  27.112  27.564  1.00  0.00     0.016 A 
ATOM     29  C   UNL A   1      39.642  25.902  28.372  1.00  0.00     0.016 A 
ATOM     30  C   UNL A   1      41.539  27.923  28.700  1.00  0.00     0.010 A 
ATOM     31  C   UNL A   1      39.599  26.710  29.508  1.00  0.00     0.010 A 
ATOM     32  C   UNL A   1      40.540  27.736  29.673  1.00  0.00    -0.014 A 
BRANCH  32  33
ATOM     33  C   UNL A   1      40.418  28.683  30.809  1.00  0.00     0.031 A 
ATOM     34  C   UNL A   1      41.302  28.571  32.016  1.00  0.00     0.074 A 
ATOM     35  C   UNL A   1      39.483  29.651  30.740  1.00  0.00     0.049 A 
ATOM     36  N   UNL A   1      41.353  29.344  33.071  1.00  0.00    -0.248 NA
ATOM     37  C   UNL A   1      42.246  27.444  32.049  1.00  0.00     0.031 C 
ATOM     38  C   UNL A   1      38.551  29.836  29.627  1.00  0.00     0.029 A 
ATOM     39  N   UNL A   1      39.166  30.659  31.613  1.00  0.00    -0.354 N 
ATOM     40  C   UNL A   1      42.348  28.817  33.884  1.00  0.00     0.074 A 
ATOM     41  C   UNL A   1      42.839  27.624  33.223  1.00  0.00     0.031 C 
ATOM     42  C   UNL A   1      37.789  30.914  29.869  1.00  0.00     0.029 A 
ATOM     43  C   UNL A   1      38.152  31.474  31.167  1.00  0.00     0.049 A 
ATOM     44  H   UNL A   1      39.621  30.789  32.476  1.00  0.00     0.167 HD
ATOM     45  C   UNL A   1      42.819  29.296  35.060  1.00  0.00     0.037 A 
ATOM     46  C   UNL A   1      37.579  32.550  31.739  1.00  0.00     0.037 A 
ATOM     47  C   UNL A   1      42.308  30.476  35.718  1.00  0.00     0.049 A 
ATOM     48  C   UNL A   1      38.083  33.027  33.073  1.00  0.00     0.074 A 
ATOM     49  C   UNL A   1      42.737  31.052  36.901  1.00  0.00     0.029 A 
ATOM     50  N   UNL A   1      41.252  31.252  35.259  1.00  0.00    -0.354 N 
ATOM     51  N   UNL A   1      39.063  32.550  33.802  1.00  0.00    -0.248 NA
ATOM     52  C   UNL A   1      37.408  34.193  33.659  1.00  0.00     0.031 C 
ATOM     53  C   UNL A   1      41.906  32.142  37.185  1.00  0.00     0.029 A 
ATOM     54  C   UNL A   1      40.999  32.283  36.150  1.00  0.00     0.049 A 
ATOM     55  H   UNL A   1      40.758  31.092  34.423  1.00  0.00     0.167 HD
ATOM     56  C   UNL A   1      39.136  33.369  34.925  1.00  0.00     0.074 A 
ATOM     57  C   UNL A   1      38.114  34.383  34.766  1.00  0.00     0.031 C 
ATOM     58  C   UNL A   1      39.973  33.286  35.989  1.00  0.00     0.037 A 
BRANCH  45  59
ATOM     59  C   UNL A   1      43.951  28.555  35.720  1.00  0.00     0.058 A 
ATOM     60  C   UNL A   1      45.290  28.892  35.469  1.00  0.00     0.135 A 
ATOM     61  C   UNL A   1      43.698  27.551  36.669  1.00  0.00     0.135 A 
ATOM     62  F   UNL A   1      45.592  29.836  34.563  1.00  0.00    -0.206 F 
ATOM     63  C   UNL A   1      46.338  28.249  36.121  1.00  0.00     0.059 A 
ATOM     64  C   UNL A   1      44.729  26.914  37.354  1.00  0.00     0.059 A 
ATOM     65  F   UNL A   1      42.436  27.190  36.950  1.00  0.00    -0.206 F 
ATOM     66  C   UNL A   1      46.047  27.263  37.065  1.00  0.00     0.060 A 
BRANCH  66  67
ATOM     67  S   UNL A   1      47.420  26.455  37.913  1.00  0.00     0.124 S 
ATOM     68  O   UNL A   1      47.489  27.221  39.154  1.00  0.00    -0.237 OA
ATOM     69  O   UNL A   1      46.941  25.083  38.041  1.00  0.00    -0.237 OA
ATOM     70  O   UNL A   1      48.544  26.643  37.000  1.00  0.00    -0.744 OA
ENDBRANCH  66  67
ENDBRANCH  45  59
BRANCH  46  71
ATOM     71  C   UNL A   1      36.481  33.263  31.033  1.00  0.00     0.058 A 
ATOM     72  C   UNL A   1      35.157  33.179  31.489  1.00  0.00     0.135 A 
ATOM     73  C   UNL A   1      36.736  34.064  29.909  1.00  0.00     0.135 A 
ATOM     74  F   UNL A   1      34.862  32.420  32.555  1.00  0.00    -0.206 F 
ATOM     75  C   UNL A   1      34.123  33.856  30.851  1.00  0.00     0.059 A 
ATOM     76  C   UNL A   1      35.724  34.773  29.271  1.00  0.00     0.059 A 
ATOM     77  F   UNL A   1      37.988  34.189  29.442  1.00  0.00    -0.206 F 
ATOM     78  C   UNL A   1      34.419  34.657  29.746  1.00  0.00     0.060 A 
BRANCH  78  79
ATOM     79  S   UNL A   1      33.075  35.575  28.964  1.00  0.00     0.124 S 
ATOM     80  O   UNL A   1      32.542  34.583  28.037  1.00  0.00    -0.237 OA
ATOM     81  O   UNL A   1      32.227  35.903  30.105  1.00  0.00    -0.237 OA
ATOM     82  O   UNL A   1      33.756  36.711  28.349  1.00  0.00    -0.744 OA
ENDBRANCH  78  79
ENDBRANCH  46  71
BRANCH  58  83
ATOM     83  C   UNL A   1      39.832  34.329  37.066  1.00  0.00     0.058 A 
ATOM     84  C   UNL A   1      40.397  35.607  36.933  1.00  0.00     0.135 A 
ATOM     85  C   UNL A   1      39.081  34.064  38.223  1.00  0.00     0.135 A 
ATOM     86  F   UNL A   1      41.128  35.914  35.850  1.00  0.00    -0.206 F 
ATOM     87  C   UNL A   1      40.245  36.576  37.921  1.00  0.00     0.059 A 
ATOM     88  C   UNL A   1      38.890  35.028  39.209  1.00  0.00     0.059 A 
ATOM     89  F   UNL A   1      38.510  32.862  38.399  1.00  0.00    -0.206 F 
ATOM     90  C   UNL A   1      39.488  36.278  39.054  1.00  0.00     0.060 A 
BRANCH  90  91
ATOM     91  S   UNL A   1      39.282  37.555  40.314  1.00  0.00     0.124 S 
ATOM     92  O   UNL A   1      38.300  38.432  39.686  1.00  0.00    -0.237 OA
ATOM     93  O   UNL A   1      38.806  36.787  41.459  1.00  0.00    -0.237 OA
ATOM     94  O   UNL A   1      40.622  38.115  40.455  1.00  0.00    -0.744 OA
ENDBRANCH  90  91
ENDBRANCH  58  83
ENDBRANCH  32  33
ENDBRANCH  25  27
ENDBRANCH  24  25
ENDBRANCH  23  24
ENDBRANCH   1  23
TORSDOF 18
ENDMDL
MODEL 2
REMARK VINA RESULT:     -11.1      4.969      9.960
REMARK SMILES Cc1ccc2c(c1)C=C(C(=O)OCCOCCOC(=O)c1ccc(-c3c4nc(c(-c5c(F)cc(S(=O)(=O)[O-])cc5F)c5ccc([nH]5)c(-c5c(F)cc(S(=O)(=O)[O-])cc5F)c5nc(c(-c6c(F)cc(S(=O)(=O)[O-])cc6F)c6ccc3[nH]6)C=C5)C=C4)cc1)[C@@H](C(F)(F)F)O2
REMARK SMILES IDX 16 1 15 2 14 3 13 4 12 5 10 6 11 7 9 8 1 9 2 10 3 11 7 12
REMARK SMILES IDX 4 13 6 14 5 15 8 16 92 17 87 18 88 19 89 20 90 21 91 22
REMARK SMILES IDX 17 23 18 24 19 25 20 26 21 27 22 28 86 29 23 30 85 31 24 32
REMARK SMILES IDX 25 33 26 34 79 35 27 36 84 37 78 38 80 39 28 40 83 41 77 42
REMARK SMILES IDX 76 43 29 45 63 46 42 47 62 48 43 49 46 50 61 51 81 52 44 53
REMARK SMILES IDX 45 54 60 56 82 57 47 58 30 59 31 60 40 61 32 62 33 63 39 64
REMARK SMILES IDX 41 65 34 66 35 67 36 68 37 69 38 70 64 71 65 72 74 73 66 74
REMARK SMILES IDX 67 75 73 76 75 77 68 78 69 79 70 80 71 81 72 82 48 83 49 84
REMARK SMILES IDX 58 85 50 86 51 87 57 88 59 89 52 90 53 91 54 92 55 93 56 94
REMARK H PARENT 80 44 46 55
REMARK Flexibility Score: inf
ROOT
ATOM      1  C   UNL A   1      32.037  29.894  25.794  1.00  0.00     0.202 C 
ENDROOT
BRANCH   1   2
ATOM      2  O   UNL A   1      32.921  29.516  24.741  1.00  0.00    -0.374 OA
BRANCH   2   3
ATOM      3  C   UNL A   1      32.358  29.021  23.527  1.00  0.00     0.202 C 
BRANCH   3   4
ATOM      4  C   UNL A   1      32.629  27.560  23.157  1.00  0.00     0.261 C 
BRANCH   4   5
ATOM      5  O   UNL A   1      33.473  26.904  24.114  1.00  0.00    -0.460 OA
BRANCH   5   6
ATOM      6  C   UNL A   1      32.823  26.037  24.927  1.00  0.00     0.338 C 
ATOM      7  O   UNL A   1      31.747  26.216  25.477  1.00  0.00    -0.246 OA
BRANCH   6   8
ATOM      8  C   UNL A   1      33.534  24.744  24.953  1.00  0.00     0.087 C 
ATOM      9  C   UNL A   1      39.137  22.529  26.154  1.00  0.00     0.044 C 
ATOM     10  C   UNL A   1      37.693  22.465  25.752  1.00  0.00    -0.050 A 
ATOM     11  C   UNL A   1      37.167  21.323  25.138  1.00  0.00     0.007 A 
ATOM     12  C   UNL A   1      36.873  23.589  25.908  1.00  0.00     0.015 A 
ATOM     13  C   UNL A   1      35.833  21.291  24.723  1.00  0.00     0.047 A 
ATOM     14  C   UNL A   1      35.549  23.570  25.458  1.00  0.00     0.017 A 
ATOM     15  C   UNL A   1      35.023  22.416  24.881  1.00  0.00     0.128 A 
ATOM     16  C   UNL A   1      34.745  24.773  25.523  1.00  0.00     0.027 C 
ATOM     17  O   UNL A   1      33.732  22.306  24.448  1.00  0.00    -0.475 OA
ATOM     18  C   UNL A   1      32.921  23.513  24.343  1.00  0.00     0.316 C 
BRANCH  18  19
ATOM     19  C   UNL A   1      32.538  23.717  22.870  1.00  0.00     0.430 C 
ATOM     20  F   UNL A   1      32.438  22.533  22.222  1.00  0.00    -0.167 F 
ATOM     21  F   UNL A   1      31.341  24.335  22.747  1.00  0.00    -0.167 F 
ATOM     22  F   UNL A   1      33.452  24.466  22.213  1.00  0.00    -0.167 F 
ENDBRANCH  18  19
ENDBRANCH   6   8
ENDBRANCH   5   6
ENDBRANCH   4   5
ENDBRANCH   3   4
ENDBRANCH   2   3
ENDBRANCH   1   2
BRANCH   1  23
ATOM     23  C   UNL A   1      32.485  29.664  27.244  1.00  0.00     0.261 C 
BRANCH  23  24
ATOM     24  O   UNL A   1      33.897  29.431  27.363  1.00  0.00    -0.460 OA
BRANCH  24  25
ATOM     25  C   UNL A   1      34.588  30.400  28.018  1.00  0.00     0.338 C 
ATOM     26  O   UNL A   1      34.135  31.413  28.526  1.00  0.00    -0.246 OA
BRANCH  25  27
ATOM     27  C   UNL A   1      35.976  29.946  28.213  1.00  0.00     0.060 A 
ATOM     28  C   UNL A   1      36.897  29.986  27.166  1.00  0.00     0.016 A 
ATOM     29  C   UNL A   1      36.358  29.495  29.483  1.00  0.00     0.016 A 
ATOM     30  C   UNL A   1      38.214  29.582  27.400  1.00  0.00     0.010 A 
ATOM     31  C   UNL A   1      37.672  29.087  29.712  1.00  0.00     0.010 A 
ATOM     32  C   UNL A   1      38.613  29.141  28.674  1.00  0.00    -0.014 A 
BRANCH  32  33
ATOM     33  C   UNL A   1      40.041  28.837  28.946  1.00  0.00     0.031 A 
ATOM     34  C   UNL A   1      40.624  27.490  28.636  1.00  0.00     0.074 A 
ATOM     35  C   UNL A   1      40.809  29.801  29.489  1.00  0.00     0.049 A 
ATOM     36  N   UNL A   1      41.860  27.081  28.770  1.00  0.00    -0.248 NA
ATOM     37  C   UNL A   1      39.704  26.470  28.114  1.00  0.00     0.031 C 
ATOM     38  C   UNL A   1      40.340  31.139  29.857  1.00  0.00     0.029 A 
ATOM     39  N   UNL A   1      42.139  29.811  29.820  1.00  0.00    -0.354 N 
ATOM     40  C   UNL A   1      41.876  25.764  28.329  1.00  0.00     0.074 A 
ATOM     41  C   UNL A   1      40.513  25.426  27.972  1.00  0.00     0.031 C 
ATOM     42  C   UNL A   1      41.374  31.850  30.331  1.00  0.00     0.029 A 
ATOM     43  C   UNL A   1      42.569  31.011  30.336  1.00  0.00     0.049 A 
ATOM     44  H   UNL A   1      42.731  29.034  29.699  1.00  0.00     0.167 HD
ATOM     45  C   UNL A   1      42.934  24.925  28.215  1.00  0.00     0.037 A 
ATOM     46  C   UNL A   1      43.787  31.393  30.766  1.00  0.00     0.037 A 
ATOM     47  C   UNL A   1      44.285  25.267  28.592  1.00  0.00     0.049 A 
ATOM     48  C   UNL A   1      44.932  30.423  30.680  1.00  0.00     0.074 A 
ATOM     49  C   UNL A   1      45.427  24.491  28.492  1.00  0.00     0.029 A 
ATOM     50  N   UNL A   1      44.675  26.477  29.151  1.00  0.00    -0.354 N 
ATOM     51  N   UNL A   1      44.942  29.199  30.208  1.00  0.00    -0.248 NA
ATOM     52  C   UNL A   1      46.234  30.886  31.181  1.00  0.00     0.031 C 
ATOM     53  C   UNL A   1      46.495  25.209  29.039  1.00  0.00     0.029 A 
ATOM     54  C   UNL A   1      46.034  26.456  29.426  1.00  0.00     0.049 A 
ATOM     55  H   UNL A   1      44.074  27.237  29.325  1.00  0.00     0.167 HD
ATOM     56  C   UNL A   1      46.253  28.753  30.336  1.00  0.00     0.074 A 
ATOM     57  C   UNL A   1      47.010  29.846  30.910  1.00  0.00     0.031 C 
ATOM     58  C   UNL A   1      46.780  27.547  30.007  1.00  0.00     0.037 A 
BRANCH  45  59
ATOM     59  C   UNL A   1      42.685  23.551  27.653  1.00  0.00     0.058 A 
ATOM     60  C   UNL A   1      42.810  23.289  26.279  1.00  0.00     0.135 A 
ATOM     61  C   UNL A   1      42.395  22.468  28.499  1.00  0.00     0.135 A 
ATOM     62  F   UNL A   1      43.075  24.287  25.421  1.00  0.00    -0.206 F 
ATOM     63  C   UNL A   1      42.638  22.008  25.763  1.00  0.00     0.059 A 
ATOM     64  C   UNL A   1      42.247  21.174  28.009  1.00  0.00     0.059 A 
ATOM     65  F   UNL A   1      42.266  22.661  29.821  1.00  0.00    -0.206 F 
ATOM     66  C   UNL A   1      42.361  20.956  26.637  1.00  0.00     0.060 A 
BRANCH  66  67
ATOM     67  S   UNL A   1      42.161  19.299  25.949  1.00  0.00     0.124 S 
ATOM     68  O   UNL A   1      43.000  19.375  24.756  1.00  0.00    -0.237 OA
ATOM     69  O   UNL A   1      42.666  18.453  27.025  1.00  0.00    -0.237 OA
ATOM     70  O   UNL A   1      40.726  19.204  25.698  1.00  0.00    -0.744 OA
ENDBRANCH  66  67
ENDBRANCH  45  59
BRANCH  46  71
ATOM     71  C   UNL A   1      43.985  32.772  31.288  1.00  0.00     0.058 A 
ATOM     72  C   UNL A   1      43.782  33.064  32.644  1.00  0.00     0.135 A 
ATOM     73  C   UNL A   1      44.409  33.815  30.450  1.00  0.00     0.135 A 
ATOM     74  F   UNL A   1      43.370  32.103  33.484  1.00  0.00    -0.206 F 
ATOM     75  C   UNL A   1      43.983  34.344  33.151  1.00  0.00     0.059 A 
ATOM     76  C   UNL A   1      44.645  35.096  30.938  1.00  0.00     0.059 A 
ATOM     77  F   UNL A   1      44.632  33.584  29.147  1.00  0.00    -0.206 F 
ATOM     78  C   UNL A   1      44.421  35.352  32.290  1.00  0.00     0.060 A 
BRANCH  78  79
ATOM     79  S   UNL A   1      44.733  36.993  32.974  1.00  0.00     0.124 S 
ATOM     80  O   UNL A   1      45.567  36.678  34.128  1.00  0.00    -0.237 OA
ATOM     81  O   UNL A   1      45.405  37.662  31.865  1.00  0.00    -0.237 OA
ATOM     82  O   UNL A   1      43.395  37.492  33.280  1.00  0.00    -0.744 OA
ENDBRANCH  78  79
ENDBRANCH  46  71
BRANCH  58  83
ATOM     83  C   UNL A   1      48.253  27.344  30.247  1.00  0.00     0.058 A 
ATOM     84  C   UNL A   1      49.215  27.743  29.306  1.00  0.00     0.135 A 
ATOM     85  C   UNL A   1      48.710  26.788  31.453  1.00  0.00     0.135 A 
ATOM     86  F   UNL A   1      48.835  28.275  28.134  1.00  0.00    -0.206 F 
ATOM     87  C   UNL A   1      50.576  27.574  29.542  1.00  0.00     0.059 A 
ATOM     88  C   UNL A   1      50.067  26.639  31.723  1.00  0.00     0.059 A 
ATOM     89  F   UNL A   1      47.834  26.397  32.393  1.00  0.00    -0.206 F 
ATOM     90  C   UNL A   1      50.993  27.023  30.755  1.00  0.00     0.060 A 
BRANCH  90  91
ATOM     91  S   UNL A   1      52.763  26.834  31.053  1.00  0.00     0.124 S 
ATOM     92  O   UNL A   1      53.270  26.630  29.699  1.00  0.00    -0.237 OA
ATOM     93  O   UNL A   1      53.111  28.107  31.676  1.00  0.00    -0.237 OA
ATOM     94  O   UNL A   1      52.840  25.671  31.931  1.00  0.00    -0.744 OA
ENDBRANCH  90  91
ENDBRANCH  58  83
ENDBRANCH  32  33
ENDBRANCH  25  27
ENDBRANCH  24  25
ENDBRANCH  23  24
ENDBRANCH   1  23
TORSDOF 18
ENDMDL
MODEL 3
REMARK VINA RESULT:     -11.1      5.854      8.685
REMARK SMILES Cc1ccc2c(c1)C=C(C(=O)OCCOCCOC(=O)c1ccc(-c3c4nc(c(-c5c(F)cc(S(=O)(=O)[O-])cc5F)c5ccc([nH]5)c(-c5c(F)cc(S(=O)(=O)[O-])cc5F)c5nc(c(-c6c(F)cc(S(=O)(=O)[O-])cc6F)c6ccc3[nH]6)C=C5)C=C4)cc1)[C@@H](C(F)(F)F)O2
REMARK SMILES IDX 16 1 15 2 14 3 13 4 12 5 10 6 11 7 9 8 1 9 2 10 3 11 7 12
REMARK SMILES IDX 4 13 6 14 5 15 8 16 92 17 87 18 88 19 89 20 90 21 91 22
REMARK SMILES IDX 17 23 18 24 19 25 20 26 21 27 22 28 86 29 23 30 85 31 24 32
REMARK SMILES IDX 25 33 26 34 79 35 27 36 84 37 78 38 80 39 28 40 83 41 77 42
REMARK SMILES IDX 76 43 29 45 63 46 42 47 62 48 43 49 46 50 61 51 81 52 44 53
REMARK SMILES IDX 45 54 60 56 82 57 47 58 30 59 31 60 40 61 32 62 33 63 39 64
REMARK SMILES IDX 41 65 34 66 35 67 36 68 37 69 38 70 64 71 65 72 74 73 66 74
REMARK SMILES IDX 67 75 73 76 75 77 68 78 69 79 70 80 71 81 72 82 48 83 49 84
REMARK SMILES IDX 58 85 50 86 51 87 57 88 59 89 52 90 53 91 54 92 55 93 56 94
REMARK H PARENT 80 44 46 55
REMARK Flexibility Score: inf
ROOT
ATOM      1  C   UNL A   1      41.763  20.248  26.516  1.00  0.00     0.202 C 
ENDROOT
BRANCH   1   2
ATOM      2  O   UNL A   1      42.211  19.440  25.429  1.00  0.00    -0.374 OA
BRANCH   2   3
ATOM      3  C   UNL A   1      43.592  19.087  25.372  1.00  0.00     0.202 C 
BRANCH   3   4
ATOM      4  C   UNL A   1      44.486  19.855  24.394  1.00  0.00     0.261 C 
BRANCH   4   5
ATOM      5  O   UNL A   1      45.312  20.823  25.056  1.00  0.00    -0.460 OA
BRANCH   5   6
ATOM      6  C   UNL A   1      44.772  22.063  25.121  1.00  0.00     0.338 C 
ATOM      7  O   UNL A   1      43.804  22.474  24.500  1.00  0.00    -0.246 OA
BRANCH   6   8
ATOM      8  C   UNL A   1      45.436  22.845  26.182  1.00  0.00     0.087 C 
ATOM      9  C   UNL A   1      44.129  25.351  31.637  1.00  0.00     0.044 C 
ATOM     10  C   UNL A   1      44.986  25.007  30.455  1.00  0.00    -0.050 A 
ATOM     11  C   UNL A   1      46.204  25.659  30.235  1.00  0.00     0.007 A 
ATOM     12  C   UNL A   1      44.529  24.088  29.504  1.00  0.00     0.015 A 
ATOM     13  C   UNL A   1      46.972  25.366  29.105  1.00  0.00     0.047 A 
ATOM     14  C   UNL A   1      45.279  23.823  28.353  1.00  0.00     0.017 A 
ATOM     15  C   UNL A   1      46.509  24.449  28.161  1.00  0.00     0.128 A 
ATOM     16  C   UNL A   1      44.745  22.956  27.323  1.00  0.00     0.027 C 
ATOM     17  O   UNL A   1      47.316  24.219  27.084  1.00  0.00    -0.475 OA
ATOM     18  C   UNL A   1      46.778  23.484  25.946  1.00  0.00     0.316 C 
BRANCH  18  19
ATOM     19  C   UNL A   1      46.779  24.409  24.721  1.00  0.00     0.430 C 
ATOM     20  F   UNL A   1      47.808  25.289  24.773  1.00  0.00    -0.167 F 
ATOM     21  F   UNL A   1      46.917  23.712  23.569  1.00  0.00    -0.167 F 
ATOM     22  F   UNL A   1      45.635  25.124  24.630  1.00  0.00    -0.167 F 
ENDBRANCH  18  19
ENDBRANCH   6   8
ENDBRANCH   5   6
ENDBRANCH   4   5
ENDBRANCH   3   4
ENDBRANCH   2   3
ENDBRANCH   1   2
BRANCH   1  23
ATOM     23  C   UNL A   1      41.074  21.583  26.199  1.00  0.00     0.261 C 
BRANCH  23  24
ATOM     24  O   UNL A   1      39.883  21.796  26.973  1.00  0.00    -0.460 OA
BRANCH  24  25
ATOM     25  C   UNL A   1      39.050  22.758  26.497  1.00  0.00     0.338 C 
ATOM     26  O   UNL A   1      37.985  22.595  25.926  1.00  0.00    -0.246 OA
BRANCH  25  27
ATOM     27  C   UNL A   1      39.530  24.072  26.959  1.00  0.00     0.060 A 
ATOM     28  C   UNL A   1      39.655  24.352  28.320  1.00  0.00     0.016 A 
ATOM     29  C   UNL A   1      39.883  25.029  25.998  1.00  0.00     0.016 A 
ATOM     30  C   UNL A   1      40.149  25.598  28.717  1.00  0.00     0.010 A 
ATOM     31  C   UNL A   1      40.371  26.273  26.397  1.00  0.00     0.010 A 
ATOM     32  C   UNL A   1      40.520  26.561  27.762  1.00  0.00    -0.014 A 
BRANCH  32  33
ATOM     33  C   UNL A   1      41.163  27.828  28.189  1.00  0.00     0.031 A 
ATOM     34  C   UNL A   1      42.641  28.041  28.042  1.00  0.00     0.074 A 
ATOM     35  C   UNL A   1      40.389  28.791  28.727  1.00  0.00     0.049 A 
ATOM     36  N   UNL A   1      43.348  29.106  28.324  1.00  0.00    -0.248 NA
ATOM     37  C   UNL A   1      43.427  26.916  27.516  1.00  0.00     0.031 C 
ATOM     38  C   UNL A   1      38.945  28.680  28.943  1.00  0.00     0.029 A 
ATOM     39  N   UNL A   1      40.699  30.046  29.180  1.00  0.00    -0.354 N 
ATOM     40  C   UNL A   1      44.660  28.792  27.989  1.00  0.00     0.074 A 
ATOM     41  C   UNL A   1      44.657  27.417  27.532  1.00  0.00     0.031 C 
ATOM     42  C   UNL A   1      38.490  29.834  29.456  1.00  0.00     0.029 A 
ATOM     43  C   UNL A   1      39.611  30.750  29.639  1.00  0.00     0.049 A 
ATOM     44  H   UNL A   1      41.614  30.411  29.176  1.00  0.00     0.167 HD
ATOM     45  C   UNL A   1      45.756  29.586  28.041  1.00  0.00     0.037 A 
ATOM     46  C   UNL A   1      39.525  31.993  30.151  1.00  0.00     0.037 A 
ATOM     47  C   UNL A   1      45.749  30.949  28.516  1.00  0.00     0.049 A 
ATOM     48  C   UNL A   1      40.769  32.833  30.250  1.00  0.00     0.074 A 
ATOM     49  C   UNL A   1      46.807  31.840  28.585  1.00  0.00     0.029 A 
ATOM     50  N   UNL A   1      44.637  31.615  29.014  1.00  0.00    -0.354 N 
ATOM     51  N   UNL A   1      41.992  32.541  29.877  1.00  0.00    -0.248 NA
ATOM     52  C   UNL A   1      40.620  34.173  30.834  1.00  0.00     0.031 C 
ATOM     53  C   UNL A   1      46.347  33.023  29.174  1.00  0.00     0.029 A 
ATOM     54  C   UNL A   1      44.990  32.894  29.417  1.00  0.00     0.049 A 
ATOM     55  H   UNL A   1      43.731  31.234  29.072  1.00  0.00     0.167 HD
ATOM     56  C   UNL A   1      42.756  33.668  30.162  1.00  0.00     0.074 A 
ATOM     57  C   UNL A   1      41.851  34.653  30.720  1.00  0.00     0.031 C 
ATOM     58  C   UNL A   1      44.085  33.867  29.980  1.00  0.00     0.037 A 
BRANCH  45  59
ATOM     59  C   UNL A   1      47.064  29.011  27.567  1.00  0.00     0.058 A 
ATOM     60  C   UNL A   1      47.358  28.894  26.199  1.00  0.00     0.135 A 
ATOM     61  C   UNL A   1      48.064  28.645  28.482  1.00  0.00     0.135 A 
ATOM     62  F   UNL A   1      46.436  29.219  25.279  1.00  0.00    -0.206 F 
ATOM     63  C   UNL A   1      48.589  28.418  25.756  1.00  0.00     0.059 A 
ATOM     64  C   UNL A   1      49.312  28.193  28.062  1.00  0.00     0.059 A 
ATOM     65  F   UNL A   1      47.838  28.738  29.802  1.00  0.00    -0.206 F 
ATOM     66  C   UNL A   1      49.561  28.074  26.697  1.00  0.00     0.060 A 
BRANCH  66  67
ATOM     67  S   UNL A   1      51.157  27.477  26.100  1.00  0.00     0.124 S 
ATOM     68  O   UNL A   1      51.543  28.542  25.180  1.00  0.00    -0.237 OA
ATOM     69  O   UNL A   1      51.935  27.390  27.331  1.00  0.00    -0.237 OA
ATOM     70  O   UNL A   1      50.832  26.199  25.474  1.00  0.00    -0.744 OA
ENDBRANCH  66  67
ENDBRANCH  45  59
BRANCH  46  71
ATOM     71  C   UNL A   1      38.204  32.523  30.581  1.00  0.00     0.058 A 
ATOM     72  C   UNL A   1      37.743  32.333  31.892  1.00  0.00     0.135 A 
ATOM     73  C   UNL A   1      37.390  33.255  29.702  1.00  0.00     0.135 A 
ATOM     74  F   UNL A   1      38.481  31.634  32.767  1.00  0.00    -0.206 F 
ATOM     75  C   UNL A   1      36.519  32.840  32.314  1.00  0.00     0.059 A 
ATOM     76  C   UNL A   1      36.176  33.797  30.108  1.00  0.00     0.059 A 
ATOM     77  F   UNL A   1      37.793  33.479  28.441  1.00  0.00    -0.206 F 
ATOM     78  C   UNL A   1      35.745  33.578  31.416  1.00  0.00     0.060 A 
BRANCH  78  79
ATOM     79  S   UNL A   1      34.185  34.278  31.995  1.00  0.00     0.124 S 
ATOM     80  O   UNL A   1      34.640  35.486  32.675  1.00  0.00    -0.237 OA
ATOM     81  O   UNL A   1      33.462  34.485  30.744  1.00  0.00    -0.237 OA
ATOM     82  O   UNL A   1      33.646  33.233  32.859  1.00  0.00    -0.744 OA
ENDBRANCH  78  79
ENDBRANCH  46  71
BRANCH  58  83
ATOM     83  C   UNL A   1      44.647  35.208  30.373  1.00  0.00     0.058 A 
ATOM     84  C   UNL A   1      44.645  36.297  29.487  1.00  0.00     0.135 A 
ATOM     85  C   UNL A   1      45.148  35.420  31.668  1.00  0.00     0.135 A 
ATOM     86  F   UNL A   1      44.183  36.149  28.235  1.00  0.00    -0.206 F 
ATOM     87  C   UNL A   1      45.145  37.540  29.862  1.00  0.00     0.059 A 
ATOM     88  C   UNL A   1      45.624  36.663  32.075  1.00  0.00     0.059 A 
ATOM     89  F   UNL A   1      45.165  34.417  32.560  1.00  0.00    -0.206 F 
ATOM     90  C   UNL A   1      45.630  37.715  31.159  1.00  0.00     0.060 A 
BRANCH  90  91
ATOM     91  S   UNL A   1      46.252  39.341  31.635  1.00  0.00     0.124 S 
ATOM     92  O   UNL A   1      47.529  39.386  30.931  1.00  0.00    -0.237 OA
ATOM     93  O   UNL A   1      45.215  40.232  31.125  1.00  0.00    -0.237 OA
ATOM     94  O   UNL A   1      46.342  39.260  33.090  1.00  0.00    -0.744 OA
ENDBRANCH  90  91
ENDBRANCH  58  83
ENDBRANCH  32  33
ENDBRANCH  25  27
ENDBRANCH  24  25
ENDBRANCH  23  24
ENDBRANCH   1  23
TORSDOF 18
ENDMDL
