MODEL 1
REMARK VINA RESULT:     -10.1      0.000      0.000
REMARK SMILES CC(C)CC[C@@]1(CC(=O)OCCOCCOC(=O)c2ccc(-c3c4nc(c(-c5c(F)cc(S(=O)(=O)[O-])cc5F)c5ccc([nH]5)c(-c5c(F)cc(S(=O)(=O)[O-])cc5F)c5nc(c(-c6c(F)cc(S(=O)(=O)[O-])cc6F)c6ccc3[nH]6)C=C5)C=C4)cc2)CCOC(C)(C)C1
REMARK SMILES IDX 12 1 11 2 10 3 8 4 9 5 7 6 6 7 85 8 91 9 86 10 88 11 87 12
REMARK SMILES IDX 89 13 90 14 5 15 4 16 2 17 1 18 3 19 13 20 14 21 15 22 16 23
REMARK SMILES IDX 17 24 18 25 19 26 20 27 84 28 21 29 83 30 22 31 23 32 24 33
REMARK SMILES IDX 77 34 25 35 82 36 76 37 78 38 26 39 81 40 75 41 74 42 27 44
REMARK SMILES IDX 61 45 40 46 60 47 41 48 44 49 59 50 79 51 42 52 43 53 58 55
REMARK SMILES IDX 80 56 45 57 28 58 29 59 38 60 30 61 31 62 37 63 39 64 32 65
REMARK SMILES IDX 33 66 34 67 35 68 36 69 62 70 63 71 72 72 64 73 65 74 71 75
REMARK SMILES IDX 73 76 66 77 67 78 68 79 69 80 70 81 46 82 47 83 56 84 48 85
REMARK SMILES IDX 49 86 55 87 57 88 50 89 51 90 52 91 53 92 54 93
REMARK H PARENT 78 43 44 54
REMARK Flexibility Score: inf
ROOT
ATOM      1  C   UNL A   1      35.523  23.795  25.339  1.00  0.00     0.202 C 
ENDROOT
BRANCH   1   2
ATOM      2  C   UNL A   1      34.705  24.724  24.414  1.00  0.00     0.261 C 
BRANCH   2   3
ATOM      3  O   UNL A   1      34.190  24.110  23.189  1.00  0.00    -0.463 OA
BRANCH   3   4
ATOM      4  C   UNL A   1      33.650  25.020  22.330  1.00  0.00     0.306 C 
ATOM      5  O   UNL A   1      33.215  24.689  21.222  1.00  0.00    -0.252 OA
BRANCH   4   6
ATOM      6  C   UNL A   1      33.453  26.503  22.764  1.00  0.00     0.130 C 
BRANCH   6   7
ATOM      7  C   UNL A   1      32.327  27.357  23.491  1.00  0.00    -0.014 C 
ATOM      8  C   UNL A   1      31.098  26.365  23.530  1.00  0.00     0.036 C 
ATOM      9  C   UNL A   1      31.842  28.571  22.646  1.00  0.00     0.042 C 
ATOM     10  C   UNL A   1      29.792  27.014  23.958  1.00  0.00     0.161 C 
ATOM     11  C   UNL A   1      30.409  29.125  22.975  1.00  0.00     0.063 C 
ATOM     12  O   UNL A   1      29.448  28.063  23.065  1.00  0.00    -0.376 OA
ATOM     13  C   UNL A   1      30.298  30.023  24.225  1.00  0.00     0.042 C 
ATOM     14  C   UNL A   1      29.937  29.992  21.794  1.00  0.00     0.042 C 
BRANCH   7  15
ATOM     15  C   UNL A   1      32.539  27.780  25.008  1.00  0.00     0.008 C 
BRANCH  15  16
ATOM     16  C   UNL A   1      33.620  28.723  25.518  1.00  0.00     0.003 C 
BRANCH  16  17
ATOM     17  C   UNL A   1      33.494  29.034  26.985  1.00  0.00    -0.017 C 
ATOM     18  C   UNL A   1      34.408  30.171  27.435  1.00  0.00     0.007 C 
ATOM     19  C   UNL A   1      32.033  29.076  27.415  1.00  0.00     0.007 C 
ENDBRANCH  16  17
ENDBRANCH  15  16
ENDBRANCH   7  15
ENDBRANCH   6   7
ENDBRANCH   4   6
ENDBRANCH   3   4
ENDBRANCH   2   3
ENDBRANCH   1   2
BRANCH   1  20
ATOM     20  O   UNL A   1      36.925  23.960  25.164  1.00  0.00    -0.374 OA
BRANCH  20  21
ATOM     21  C   UNL A   1      37.789  23.076  25.876  1.00  0.00     0.202 C 
BRANCH  21  22
ATOM     22  C   UNL A   1      39.194  23.613  26.204  1.00  0.00     0.261 C 
BRANCH  22  23
ATOM     23  O   UNL A   1      39.157  25.026  26.396  1.00  0.00    -0.460 OA
BRANCH  23  24
ATOM     24  C   UNL A   1      40.333  25.666  26.307  1.00  0.00     0.338 C 
ATOM     25  O   UNL A   1      40.953  25.955  25.304  1.00  0.00    -0.246 OA
BRANCH  24  26
ATOM     26  C   UNL A   1      40.611  26.201  27.645  1.00  0.00     0.060 A 
ATOM     27  C   UNL A   1      39.705  25.863  28.659  1.00  0.00     0.016 A 
ATOM     28  C   UNL A   1      41.679  27.067  27.882  1.00  0.00     0.016 A 
ATOM     29  C   UNL A   1      39.792  26.494  29.890  1.00  0.00     0.010 A 
ATOM     30  C   UNL A   1      41.763  27.705  29.121  1.00  0.00     0.010 A 
ATOM     31  C   UNL A   1      40.766  27.481  30.089  1.00  0.00    -0.014 A 
BRANCH  31  32
ATOM     32  C   UNL A   1      40.508  28.480  31.151  1.00  0.00     0.031 A 
ATOM     33  C   UNL A   1      41.385  28.433  32.376  1.00  0.00     0.074 A 
ATOM     34  C   UNL A   1      39.612  29.465  30.977  1.00  0.00     0.049 A 
ATOM     35  N   UNL A   1      41.422  29.238  33.405  1.00  0.00    -0.248 NA
ATOM     36  C   UNL A   1      42.358  27.328  32.446  1.00  0.00     0.031 C 
ATOM     37  C   UNL A   1      38.749  29.624  29.810  1.00  0.00     0.029 A 
ATOM     38  N   UNL A   1      39.294  30.523  31.785  1.00  0.00    -0.354 N 
ATOM     39  C   UNL A   1      42.417  28.738  34.237  1.00  0.00     0.074 A 
ATOM     40  C   UNL A   1      42.928  27.537  33.621  1.00  0.00     0.031 C 
ATOM     41  C   UNL A   1      37.988  30.718  29.981  1.00  0.00     0.029 A 
ATOM     42  C   UNL A   1      38.302  31.323  31.275  1.00  0.00     0.049 A 
ATOM     43  H   UNL A   1      39.734  30.695  32.649  1.00  0.00     0.167 HD
ATOM     44  C   UNL A   1      42.879  29.247  35.404  1.00  0.00     0.037 A 
ATOM     45  C   UNL A   1      37.710  32.412  31.803  1.00  0.00     0.037 A 
ATOM     46  C   UNL A   1      42.357  30.441  36.010  1.00  0.00     0.049 A 
ATOM     47  C   UNL A   1      38.200  32.936  33.127  1.00  0.00     0.074 A 
ATOM     48  C   UNL A   1      42.739  31.048  37.191  1.00  0.00     0.029 A 
ATOM     49  N   UNL A   1      41.328  31.205  35.477  1.00  0.00    -0.354 N 
ATOM     50  N   UNL A   1      39.154  32.467  33.898  1.00  0.00    -0.248 NA
ATOM     51  C   UNL A   1      37.549  34.145  33.646  1.00  0.00     0.031 C 
ATOM     52  C   UNL A   1      41.909  32.156  37.396  1.00  0.00     0.029 A 
ATOM     53  C   UNL A   1      41.045  32.269  36.316  1.00  0.00     0.049 A 
ATOM     54  H   UNL A   1      40.866  31.018  34.628  1.00  0.00     0.167 HD
ATOM     55  C   UNL A   1      39.225  33.327  34.987  1.00  0.00     0.074 A 
ATOM     56  C   UNL A   1      38.229  34.358  34.765  1.00  0.00     0.031 C 
ATOM     57  C   UNL A   1      40.040  33.276  36.072  1.00  0.00     0.037 A 
BRANCH  44  58
ATOM     58  C   UNL A   1      43.973  28.481  36.100  1.00  0.00     0.058 A 
ATOM     59  C   UNL A   1      43.694  27.392  36.945  1.00  0.00     0.135 A 
ATOM     60  C   UNL A   1      45.315  28.860  35.948  1.00  0.00     0.135 A 
ATOM     61  F   UNL A   1      42.425  27.000  37.147  1.00  0.00    -0.206 F 
ATOM     62  C   UNL A   1      44.701  26.739  37.648  1.00  0.00     0.059 A 
ATOM     63  C   UNL A   1      46.342  28.201  36.618  1.00  0.00     0.059 A 
ATOM     64  F   UNL A   1      45.640  29.895  35.157  1.00  0.00    -0.206 F 
ATOM     65  C   UNL A   1      46.022  27.157  37.484  1.00  0.00     0.060 A 
BRANCH  65  66
ATOM     66  S   UNL A   1      47.318  26.323  38.428  1.00  0.00     0.124 S 
ATOM     67  O   UNL A   1      47.299  24.990  37.830  1.00  0.00    -0.237 OA
ATOM     68  O   UNL A   1      48.494  27.134  38.130  1.00  0.00    -0.237 OA
ATOM     69  O   UNL A   1      46.839  26.400  39.805  1.00  0.00    -0.744 OA
ENDBRANCH  65  66
ENDBRANCH  44  58
BRANCH  45  70
ATOM     70  C   UNL A   1      36.591  33.059  31.070  1.00  0.00     0.058 A 
ATOM     71  C   UNL A   1      35.267  32.963  31.518  1.00  0.00     0.135 A 
ATOM     72  C   UNL A   1      36.841  33.843  29.931  1.00  0.00     0.135 A 
ATOM     73  F   UNL A   1      34.974  32.218  32.595  1.00  0.00    -0.206 F 
ATOM     74  C   UNL A   1      34.229  33.628  30.870  1.00  0.00     0.059 A 
ATOM     75  C   UNL A   1      35.826  34.536  29.281  1.00  0.00     0.059 A 
ATOM     76  F   UNL A   1      38.094  33.974  29.469  1.00  0.00    -0.206 F 
ATOM     77  C   UNL A   1      34.521  34.422  29.758  1.00  0.00     0.060 A 
BRANCH  77  78
ATOM     78  S   UNL A   1      33.184  35.357  28.984  1.00  0.00     0.124 S 
ATOM     79  O   UNL A   1      32.431  35.812  30.147  1.00  0.00    -0.237 OA
ATOM     80  O   UNL A   1      33.914  36.388  28.253  1.00  0.00    -0.237 OA
ATOM     81  O   UNL A   1      32.518  34.361  28.149  1.00  0.00    -0.744 OA
ENDBRANCH  77  78
ENDBRANCH  45  70
BRANCH  57  82
ATOM     82  C   UNL A   1      39.898  34.368  37.095  1.00  0.00     0.058 A 
ATOM     83  C   UNL A   1      40.491  35.626  36.915  1.00  0.00     0.135 A 
ATOM     84  C   UNL A   1      39.106  34.171  38.238  1.00  0.00     0.135 A 
ATOM     85  F   UNL A   1      41.259  35.863  35.838  1.00  0.00    -0.206 F 
ATOM     86  C   UNL A   1      40.325  36.646  37.845  1.00  0.00     0.059 A 
ATOM     87  C   UNL A   1      38.906  35.185  39.169  1.00  0.00     0.059 A 
ATOM     88  F   UNL A   1      38.505  32.989  38.451  1.00  0.00    -0.206 F 
ATOM     89  C   UNL A   1      39.530  36.416  38.969  1.00  0.00     0.060 A 
BRANCH  89  90
ATOM     90  S   UNL A   1      39.297  37.757  40.154  1.00  0.00     0.124 S 
ATOM     91  O   UNL A   1      38.231  38.526  39.519  1.00  0.00    -0.237 OA
ATOM     92  O   UNL A   1      38.924  37.041  41.369  1.00  0.00    -0.237 OA
ATOM     93  O   UNL A   1      40.603  38.407  40.193  1.00  0.00    -0.744 OA
ENDBRANCH  89  90
ENDBRANCH  57  82
ENDBRANCH  31  32
ENDBRANCH  24  26
ENDBRANCH  23  24
ENDBRANCH  22  23
ENDBRANCH  21  22
ENDBRANCH  20  21
ENDBRANCH   1  20
TORSDOF 21
ENDMDL
MODEL 2
REMARK VINA RESULT:      -9.9      1.325      2.236
REMARK SMILES CC(C)CC[C@@]1(CC(=O)OCCOCCOC(=O)c2ccc(-c3c4nc(c(-c5c(F)cc(S(=O)(=O)[O-])cc5F)c5ccc([nH]5)c(-c5c(F)cc(S(=O)(=O)[O-])cc5F)c5nc(c(-c6c(F)cc(S(=O)(=O)[O-])cc6F)c6ccc3[nH]6)C=C5)C=C4)cc2)CCOC(C)(C)C1
REMARK SMILES IDX 12 1 11 2 10 3 8 4 9 5 7 6 6 7 85 8 91 9 86 10 88 11 87 12
REMARK SMILES IDX 89 13 90 14 5 15 4 16 2 17 1 18 3 19 13 20 14 21 15 22 16 23
REMARK SMILES IDX 17 24 18 25 19 26 20 27 84 28 21 29 83 30 22 31 23 32 24 33
REMARK SMILES IDX 77 34 25 35 82 36 76 37 78 38 26 39 81 40 75 41 74 42 27 44
REMARK SMILES IDX 61 45 40 46 60 47 41 48 44 49 59 50 79 51 42 52 43 53 58 55
REMARK SMILES IDX 80 56 45 57 28 58 29 59 38 60 30 61 31 62 37 63 39 64 32 65
REMARK SMILES IDX 33 66 34 67 35 68 36 69 62 70 63 71 72 72 64 73 65 74 71 75
REMARK SMILES IDX 73 76 66 77 67 78 68 79 69 80 70 81 46 82 47 83 56 84 48 85
REMARK SMILES IDX 49 86 55 87 57 88 50 89 51 90 52 91 53 92 54 93
REMARK H PARENT 78 43 44 54
REMARK Flexibility Score: inf
ROOT
ATOM      1  C   UNL A   1      36.527  23.036  25.959  1.00  0.00     0.202 C 
ENDROOT
BRANCH   1   2
ATOM      2  C   UNL A   1      35.717  24.021  25.086  1.00  0.00     0.261 C 
BRANCH   2   3
ATOM      3  O   UNL A   1      34.751  23.413  24.169  1.00  0.00    -0.463 OA
BRANCH   3   4
ATOM      4  C   UNL A   1      34.176  24.321  23.331  1.00  0.00     0.306 C 
ATOM      5  O   UNL A   1      33.761  24.001  22.213  1.00  0.00    -0.252 OA
BRANCH   4   6
ATOM      6  C   UNL A   1      33.914  25.782  23.802  1.00  0.00     0.130 C 
BRANCH   6   7
ATOM      7  C   UNL A   1      32.953  26.510  24.838  1.00  0.00    -0.014 C 
ATOM      8  C   UNL A   1      32.176  27.548  23.935  1.00  0.00     0.036 C 
ATOM      9  C   UNL A   1      33.723  27.374  25.880  1.00  0.00     0.042 C 
ATOM     10  C   UNL A   1      31.357  28.559  24.719  1.00  0.00     0.161 C 
ATOM     11  C   UNL A   1      32.914  28.539  26.557  1.00  0.00     0.063 C 
ATOM     12  O   UNL A   1      32.196  29.310  25.583  1.00  0.00    -0.376 OA
ATOM     13  C   UNL A   1      31.953  28.127  27.692  1.00  0.00     0.042 C 
ATOM     14  C   UNL A   1      33.912  29.523  27.190  1.00  0.00     0.042 C 
BRANCH   7  15
ATOM     15  C   UNL A   1      31.806  25.670  25.547  1.00  0.00     0.008 C 
BRANCH  15  16
ATOM     16  C   UNL A   1      31.251  24.340  25.051  1.00  0.00     0.003 C 
BRANCH  16  17
ATOM     17  C   UNL A   1      31.416  23.221  26.043  1.00  0.00    -0.017 C 
ATOM     18  C   UNL A   1      32.600  23.429  26.985  1.00  0.00     0.007 C 
ATOM     19  C   UNL A   1      30.078  22.822  26.651  1.00  0.00     0.007 C 
ENDBRANCH  16  17
ENDBRANCH  15  16
ENDBRANCH   7  15
ENDBRANCH   6   7
ENDBRANCH   4   6
ENDBRANCH   3   4
ENDBRANCH   2   3
ENDBRANCH   1   2
BRANCH   1  20
ATOM     20  O   UNL A   1      37.930  23.203  25.798  1.00  0.00    -0.374 OA
BRANCH  20  21
ATOM     21  C   UNL A   1      38.757  22.055  25.982  1.00  0.00     0.202 C 
BRANCH  21  22
ATOM     22  C   UNL A   1      39.960  22.227  26.928  1.00  0.00     0.261 C 
BRANCH  22  23
ATOM     23  O   UNL A   1      40.516  23.534  26.798  1.00  0.00    -0.460 OA
BRANCH  23  24
ATOM     24  C   UNL A   1      41.401  23.897  27.740  1.00  0.00     0.338 C 
ATOM     25  O   UNL A   1      42.462  23.374  28.010  1.00  0.00    -0.246 OA
BRANCH  24  26
ATOM     26  C   UNL A   1      40.975  25.219  28.213  1.00  0.00     0.060 A 
ATOM     27  C   UNL A   1      41.982  26.170  28.415  1.00  0.00     0.016 A 
ATOM     28  C   UNL A   1      39.642  25.494  28.521  1.00  0.00     0.016 A 
ATOM     29  C   UNL A   1      41.678  27.364  29.049  1.00  0.00     0.010 A 
ATOM     30  C   UNL A   1      39.336  26.695  29.164  1.00  0.00     0.010 A 
ATOM     31  C   UNL A   1      40.371  27.586  29.505  1.00  0.00    -0.014 A 
BRANCH  31  32
ATOM     32  C   UNL A   1      40.196  28.560  30.605  1.00  0.00     0.031 A 
ATOM     33  C   UNL A   1      41.127  28.449  31.786  1.00  0.00     0.074 A 
ATOM     34  C   UNL A   1      39.327  29.578  30.502  1.00  0.00     0.049 A 
ATOM     35  N   UNL A   1      41.237  29.221  32.835  1.00  0.00    -0.248 NA
ATOM     36  C   UNL A   1      42.065  27.312  31.780  1.00  0.00     0.031 C 
ATOM     37  C   UNL A   1      38.416  29.799  29.382  1.00  0.00     0.029 A 
ATOM     38  N   UNL A   1      39.082  30.622  31.354  1.00  0.00    -0.354 N 
ATOM     39  C   UNL A   1      42.253  28.665  33.605  1.00  0.00     0.074 A 
ATOM     40  C   UNL A   1      42.694  27.466  32.932  1.00  0.00     0.031 C 
ATOM     41  C   UNL A   1      37.701  30.912  29.619  1.00  0.00     0.029 A 
ATOM     42  C   UNL A   1      38.094  31.467  30.913  1.00  0.00     0.049 A 
ATOM     43  H   UNL A   1      39.567  30.754  32.200  1.00  0.00     0.167 HD
ATOM     44  C   UNL A   1      42.785  29.123  34.763  1.00  0.00     0.037 A 
ATOM     45  C   UNL A   1      37.564  32.559  31.500  1.00  0.00     0.037 A 
ATOM     46  C   UNL A   1      42.331  30.315  35.426  1.00  0.00     0.049 A 
ATOM     47  C   UNL A   1      38.132  33.027  32.813  1.00  0.00     0.074 A 
ATOM     48  C   UNL A   1      42.787  30.874  36.604  1.00  0.00     0.029 A 
ATOM     49  N   UNL A   1      41.305  31.128  34.964  1.00  0.00    -0.354 N 
ATOM     50  N   UNL A   1      39.104  32.505  33.525  1.00  0.00    -0.248 NA
ATOM     51  C   UNL A   1      37.546  34.241  33.396  1.00  0.00     0.031 C 
ATOM     52  C   UNL A   1      42.005  32.002  36.880  1.00  0.00     0.029 A 
ATOM     53  C   UNL A   1      41.097  32.175  35.845  1.00  0.00     0.049 A 
ATOM     54  H   UNL A   1      40.799  30.981  34.132  1.00  0.00     0.167 HD
ATOM     55  C   UNL A   1      39.254  33.330  34.633  1.00  0.00     0.074 A 
ATOM     56  C   UNL A   1      38.284  34.398  34.487  1.00  0.00     0.031 C 
ATOM     57  C   UNL A   1      40.116  33.220  35.677  1.00  0.00     0.037 A 
BRANCH  44  58
ATOM     58  C   UNL A   1      43.883  28.303  35.385  1.00  0.00     0.058 A 
ATOM     59  C   UNL A   1      45.231  28.472  35.026  1.00  0.00     0.135 A 
ATOM     60  C   UNL A   1      43.581  27.309  36.330  1.00  0.00     0.135 A 
ATOM     61  F   UNL A   1      45.576  29.392  34.110  1.00  0.00    -0.206 F 
ATOM     62  C   UNL A   1      46.232  27.658  35.546  1.00  0.00     0.059 A 
ATOM     63  C   UNL A   1      44.570  26.503  36.886  1.00  0.00     0.059 A 
ATOM     64  F   UNL A   1      42.310  27.100  36.708  1.00  0.00    -0.206 F 
ATOM     65  C   UNL A   1      45.890  26.669  36.469  1.00  0.00     0.060 A 
BRANCH  65  66
ATOM     66  S   UNL A   1      47.192  25.595  37.111  1.00  0.00     0.124 S 
ATOM     67  O   UNL A   1      46.636  24.272  36.843  1.00  0.00    -0.237 OA
ATOM     68  O   UNL A   1      48.342  25.975  36.297  1.00  0.00    -0.237 OA
ATOM     69  O   UNL A   1      47.275  25.967  38.521  1.00  0.00    -0.744 OA
ENDBRANCH  65  66
ENDBRANCH  44  58
BRANCH  45  70
ATOM     70  C   UNL A   1      36.435  33.263  30.838  1.00  0.00     0.058 A 
ATOM     71  C   UNL A   1      35.132  33.203  31.349  1.00  0.00     0.135 A 
ATOM     72  C   UNL A   1      36.658  34.066  29.707  1.00  0.00     0.135 A 
ATOM     73  F   UNL A   1      34.865  32.441  32.421  1.00  0.00    -0.206 F 
ATOM     74  C   UNL A   1      34.089  33.920  30.769  1.00  0.00     0.059 A 
ATOM     75  C   UNL A   1      35.638  34.811  29.124  1.00  0.00     0.059 A 
ATOM     76  F   UNL A   1      37.891  34.165  29.186  1.00  0.00    -0.206 F 
ATOM     77  C   UNL A   1      34.354  34.731  29.663  1.00  0.00     0.060 A 
BRANCH  77  78
ATOM     78  S   UNL A   1      33.016  35.731  28.978  1.00  0.00     0.124 S 
ATOM     79  O   UNL A   1      32.274  36.093  30.181  1.00  0.00    -0.237 OA
ATOM     80  O   UNL A   1      33.746  36.815  28.328  1.00  0.00    -0.237 OA
ATOM     81  O   UNL A   1      32.339  34.810  28.071  1.00  0.00    -0.744 OA
ENDBRANCH  77  78
ENDBRANCH  45  70
BRANCH  57  82
ATOM     82  C   UNL A   1      40.057  34.285  36.735  1.00  0.00     0.058 A 
ATOM     83  C   UNL A   1      40.814  35.462  36.637  1.00  0.00     0.135 A 
ATOM     84  C   UNL A   1      39.186  34.152  37.829  1.00  0.00     0.135 A 
ATOM     85  F   UNL A   1      41.663  35.635  35.611  1.00  0.00    -0.206 F 
ATOM     86  C   UNL A   1      40.728  36.461  37.600  1.00  0.00     0.059 A 
ATOM     87  C   UNL A   1      39.065  35.150  38.790  1.00  0.00     0.059 A 
ATOM     88  F   UNL A   1      38.429  33.050  37.963  1.00  0.00    -0.206 F 
ATOM     89  C   UNL A   1      39.849  36.297  38.673  1.00  0.00     0.060 A 
BRANCH  89  90
ATOM     90  S   UNL A   1      39.724  37.615  39.899  1.00  0.00     0.124 S 
ATOM     91  O   UNL A   1      38.485  38.273  39.495  1.00  0.00    -0.237 OA
ATOM     92  O   UNL A   1      39.668  36.872  41.153  1.00  0.00    -0.237 OA
ATOM     93  O   UNL A   1      40.944  38.390  39.691  1.00  0.00    -0.744 OA
ENDBRANCH  89  90
ENDBRANCH  57  82
ENDBRANCH  31  32
ENDBRANCH  24  26
ENDBRANCH  23  24
ENDBRANCH  22  23
ENDBRANCH  21  22
ENDBRANCH  20  21
ENDBRANCH   1  20
TORSDOF 21
ENDMDL
MODEL 3
REMARK VINA RESULT:      -9.9      0.797      2.279
REMARK SMILES CC(C)CC[C@@]1(CC(=O)OCCOCCOC(=O)c2ccc(-c3c4nc(c(-c5c(F)cc(S(=O)(=O)[O-])cc5F)c5ccc([nH]5)c(-c5c(F)cc(S(=O)(=O)[O-])cc5F)c5nc(c(-c6c(F)cc(S(=O)(=O)[O-])cc6F)c6ccc3[nH]6)C=C5)C=C4)cc2)CCOC(C)(C)C1
REMARK SMILES IDX 12 1 11 2 10 3 8 4 9 5 7 6 6 7 85 8 91 9 86 10 88 11 87 12
REMARK SMILES IDX 89 13 90 14 5 15 4 16 2 17 1 18 3 19 13 20 14 21 15 22 16 23
REMARK SMILES IDX 17 24 18 25 19 26 20 27 84 28 21 29 83 30 22 31 23 32 24 33
REMARK SMILES IDX 77 34 25 35 82 36 76 37 78 38 26 39 81 40 75 41 74 42 27 44
REMARK SMILES IDX 61 45 40 46 60 47 41 48 44 49 59 50 79 51 42 52 43 53 58 55
REMARK SMILES IDX 80 56 45 57 28 58 29 59 38 60 30 61 31 62 37 63 39 64 32 65
REMARK SMILES IDX 33 66 34 67 35 68 36 69 62 70 63 71 72 72 64 73 65 74 71 75
REMARK SMILES IDX 73 76 66 77 67 78 68 79 69 80 70 81 46 82 47 83 56 84 48 85
REMARK SMILES IDX 49 86 55 87 57 88 50 89 51 90 52 91 53 92 54 93
REMARK H PARENT 78 43 44 54
REMARK Flexibility Score: inf
ROOT
ATOM      1  C   UNL A   1      35.698  23.307  25.643  1.00  0.00     0.202 C 
ENDROOT
BRANCH   1   2
ATOM      2  C   UNL A   1      34.699  24.152  24.820  1.00  0.00     0.261 C 
BRANCH   2   3
ATOM      3  O   UNL A   1      34.580  23.798  23.405  1.00  0.00    -0.463 OA
BRANCH   3   4
ATOM      4  C   UNL A   1      33.538  24.426  22.790  1.00  0.00     0.306 C 
ATOM      5  O   UNL A   1      33.283  24.243  21.596  1.00  0.00    -0.252 OA
BRANCH   4   6
ATOM      6  C   UNL A   1      32.553  25.313  23.606  1.00  0.00     0.130 C 
BRANCH   6   7
ATOM      7  C   UNL A   1      32.323  26.868  23.847  1.00  0.00    -0.014 C 
ATOM      8  C   UNL A   1      33.701  27.504  23.404  1.00  0.00     0.036 C 
ATOM      9  C   UNL A   1      32.171  27.235  25.352  1.00  0.00     0.042 C 
ATOM     10  C   UNL A   1      33.848  28.972  23.765  1.00  0.00     0.161 C 
ATOM     11  C   UNL A   1      32.502  28.720  25.747  1.00  0.00     0.063 C 
ATOM     12  O   UNL A   1      33.745  29.148  25.170  1.00  0.00    -0.376 OA
ATOM     13  C   UNL A   1      31.409  29.764  25.440  1.00  0.00     0.042 C 
ATOM     14  C   UNL A   1      32.726  28.783  27.268  1.00  0.00     0.042 C 
BRANCH   7  15
ATOM     15  C   UNL A   1      31.239  27.632  22.973  1.00  0.00     0.008 C 
BRANCH  15  16
ATOM     16  C   UNL A   1      29.732  27.575  23.188  1.00  0.00     0.003 C 
BRANCH  16  17
ATOM     17  C   UNL A   1      28.987  28.664  22.466  1.00  0.00    -0.017 C 
ATOM     18  C   UNL A   1      27.647  29.003  23.115  1.00  0.00     0.007 C 
ATOM     19  C   UNL A   1      29.915  29.815  22.096  1.00  0.00     0.007 C 
ENDBRANCH  16  17
ENDBRANCH  15  16
ENDBRANCH   7  15
ENDBRANCH   6   7
ENDBRANCH   4   6
ENDBRANCH   3   4
ENDBRANCH   2   3
ENDBRANCH   1   2
BRANCH   1  20
ATOM     20  O   UNL A   1      37.047  23.702  25.422  1.00  0.00    -0.374 OA
BRANCH  20  21
ATOM     21  C   UNL A   1      38.075  22.857  25.937  1.00  0.00     0.202 C 
BRANCH  21  22
ATOM     22  C   UNL A   1      39.439  23.523  26.195  1.00  0.00     0.261 C 
BRANCH  22  23
ATOM     23  O   UNL A   1      39.279  24.924  26.409  1.00  0.00    -0.460 OA
BRANCH  23  24
ATOM     24  C   UNL A   1      40.386  25.672  26.287  1.00  0.00     0.338 C 
ATOM     25  O   UNL A   1      40.941  26.026  25.267  1.00  0.00    -0.246 OA
BRANCH  24  26
ATOM     26  C   UNL A   1      40.659  26.220  27.621  1.00  0.00     0.060 A 
ATOM     27  C   UNL A   1      39.768  25.867  28.641  1.00  0.00     0.016 A 
ATOM     28  C   UNL A   1      41.710  27.109  27.848  1.00  0.00     0.016 A 
ATOM     29  C   UNL A   1      39.847  26.504  29.869  1.00  0.00     0.010 A 
ATOM     30  C   UNL A   1      41.787  27.755  29.084  1.00  0.00     0.010 A 
ATOM     31  C   UNL A   1      40.800  27.514  30.058  1.00  0.00    -0.014 A 
BRANCH  31  32
ATOM     32  C   UNL A   1      40.526  28.512  31.117  1.00  0.00     0.031 A 
ATOM     33  C   UNL A   1      41.391  28.470  32.351  1.00  0.00     0.074 A 
ATOM     34  C   UNL A   1      39.628  29.493  30.933  1.00  0.00     0.049 A 
ATOM     35  N   UNL A   1      41.412  29.274  33.380  1.00  0.00    -0.248 NA
ATOM     36  C   UNL A   1      42.368  27.369  32.432  1.00  0.00     0.031 C 
ATOM     37  C   UNL A   1      38.776  29.647  29.757  1.00  0.00     0.029 A 
ATOM     38  N   UNL A   1      39.297  30.550  31.738  1.00  0.00    -0.354 N 
ATOM     39  C   UNL A   1      42.401  28.780  34.223  1.00  0.00     0.074 A 
ATOM     40  C   UNL A   1      42.924  27.580  33.613  1.00  0.00     0.031 C 
ATOM     41  C   UNL A   1      38.009  30.738  29.919  1.00  0.00     0.029 A 
ATOM     42  C   UNL A   1      38.306  31.344  31.216  1.00  0.00     0.049 A 
ATOM     43  H   UNL A   1      39.726  30.724  32.606  1.00  0.00     0.167 HD
ATOM     44  C   UNL A   1      42.848  29.290  35.395  1.00  0.00     0.037 A 
ATOM     45  C   UNL A   1      37.703  32.431  31.738  1.00  0.00     0.037 A 
ATOM     46  C   UNL A   1      42.314  30.483  35.995  1.00  0.00     0.049 A 
ATOM     47  C   UNL A   1      38.177  32.958  33.067  1.00  0.00     0.074 A 
ATOM     48  C   UNL A   1      42.680  31.092  37.179  1.00  0.00     0.029 A 
ATOM     49  N   UNL A   1      41.287  31.242  35.450  1.00  0.00    -0.354 N 
ATOM     50  N   UNL A   1      39.124  32.493  33.848  1.00  0.00    -0.248 NA
ATOM     51  C   UNL A   1      37.514  34.164  33.578  1.00  0.00     0.031 C 
ATOM     52  C   UNL A   1      41.844  32.196  37.375  1.00  0.00     0.029 A 
ATOM     53  C   UNL A   1      40.991  32.305  36.286  1.00  0.00     0.049 A 
ATOM     54  H   UNL A   1      40.836  31.053  34.596  1.00  0.00     0.167 HD
ATOM     55  C   UNL A   1      39.180  33.354  34.937  1.00  0.00     0.074 A 
ATOM     56  C   UNL A   1      38.182  34.380  34.704  1.00  0.00     0.031 C 
ATOM     57  C   UNL A   1      39.984  33.307  36.031  1.00  0.00     0.037 A 
BRANCH  44  58
ATOM     58  C   UNL A   1      43.938  28.530  36.103  1.00  0.00     0.058 A 
ATOM     59  C   UNL A   1      45.295  28.861  35.949  1.00  0.00     0.135 A 
ATOM     60  C   UNL A   1      43.624  27.434  36.922  1.00  0.00     0.135 A 
ATOM     61  F   UNL A   1      45.656  29.886  35.158  1.00  0.00    -0.206 F 
ATOM     62  C   UNL A   1      46.301  28.106  36.543  1.00  0.00     0.059 A 
ATOM     63  C   UNL A   1      44.613  26.683  37.550  1.00  0.00     0.059 A 
ATOM     64  F   UNL A   1      42.344  27.070  37.103  1.00  0.00    -0.206 F 
ATOM     65  C   UNL A   1      45.950  27.013  37.335  1.00  0.00     0.060 A 
BRANCH  65  66
ATOM     66  S   UNL A   1      47.266  26.020  38.073  1.00  0.00     0.124 S 
ATOM     67  O   UNL A   1      47.619  26.827  39.238  1.00  0.00    -0.237 OA
ATOM     68  O   UNL A   1      46.587  24.760  38.358  1.00  0.00    -0.237 OA
ATOM     69  O   UNL A   1      48.278  25.960  37.022  1.00  0.00    -0.744 OA
ENDBRANCH  65  66
ENDBRANCH  44  58
BRANCH  45  70
ATOM     70  C   UNL A   1      36.590  33.072  30.992  1.00  0.00     0.058 A 
ATOM     71  C   UNL A   1      35.258  32.950  31.412  1.00  0.00     0.135 A 
ATOM     72  C   UNL A   1      36.850  33.878  29.871  1.00  0.00     0.135 A 
ATOM     73  F   UNL A   1      34.956  32.183  32.471  1.00  0.00    -0.206 F 
ATOM     74  C   UNL A   1      34.224  33.609  30.754  1.00  0.00     0.059 A 
ATOM     75  C   UNL A   1      35.837  34.566  29.212  1.00  0.00     0.059 A 
ATOM     76  F   UNL A   1      38.110  34.036  29.436  1.00  0.00    -0.206 F 
ATOM     77  C   UNL A   1      34.525  34.425  29.661  1.00  0.00     0.060 A 
BRANCH  77  78
ATOM     78  S   UNL A   1      33.189  35.352  28.874  1.00  0.00     0.124 S 
ATOM     79  O   UNL A   1      32.449  35.840  30.032  1.00  0.00    -0.237 OA
ATOM     80  O   UNL A   1      33.922  36.359  28.114  1.00  0.00    -0.237 OA
ATOM     81  O   UNL A   1      32.509  34.342  28.069  1.00  0.00    -0.744 OA
ENDBRANCH  77  78
ENDBRANCH  45  70
BRANCH  57  82
ATOM     82  C   UNL A   1      39.825  34.398  37.052  1.00  0.00     0.058 A 
ATOM     83  C   UNL A   1      39.070  34.210  38.219  1.00  0.00     0.135 A 
ATOM     84  C   UNL A   1      40.488  35.626  36.887  1.00  0.00     0.135 A 
ATOM     85  F   UNL A   1      38.415  33.055  38.421  1.00  0.00    -0.206 F 
ATOM     86  C   UNL A   1      38.957  35.211  39.178  1.00  0.00     0.059 A 
ATOM     87  C   UNL A   1      40.410  36.630  37.846  1.00  0.00     0.059 A 
ATOM     88  F   UNL A   1      41.235  35.851  35.794  1.00  0.00    -0.206 F 
ATOM     89  C   UNL A   1      39.632  36.417  38.984  1.00  0.00     0.060 A 
BRANCH  89  90
ATOM     90  S   UNL A   1      39.503  37.695  40.251  1.00  0.00     0.124 S 
ATOM     91  O   UNL A   1      40.900  38.079  40.422  1.00  0.00    -0.237 OA
ATOM     92  O   UNL A   1      38.647  38.687  39.610  1.00  0.00    -0.237 OA
ATOM     93  O   UNL A   1      38.901  36.994  41.381  1.00  0.00    -0.744 OA
ENDBRANCH  89  90
ENDBRANCH  57  82
ENDBRANCH  31  32
ENDBRANCH  24  26
ENDBRANCH  23  24
ENDBRANCH  22  23
ENDBRANCH  21  22
ENDBRANCH  20  21
ENDBRANCH   1  20
TORSDOF 21
ENDMDL
