MODEL 1
REMARK VINA RESULT:     -10.3      0.000      0.000
REMARK SMILES CC1(C)NC(=O)N(CCC(=O)N2CCC[C@H]2C(=O)OCCOCCOC(=O)c2ccc(-c3c4nc(c(-c5c(F)cc(S(=O)(=O)[O-])cc5F)c5ccc([nH]5)c(-c5c(F)cc(S(=O)(=O)[O-])cc5F)c5nc(c(-c6c(F)cc(S(=O)(=O)[O-])cc6F)c6ccc3[nH]6)C=C5)C=C4)cc2)C1=O
REMARK SMILES IDX 21 1 20 2 19 3 17 4 18 5 16 6 12 7 13 8 14 9 15 10 10 11
REMARK SMILES IDX 11 12 9 13 8 14 7 15 1 16 2 17 3 18 4 19 94 20 5 21 95 23
REMARK SMILES IDX 6 24 22 25 23 26 24 27 25 28 26 29 27 30 28 31 29 32 93 33
REMARK SMILES IDX 30 34 92 35 31 36 32 37 33 38 86 39 34 40 91 41 85 42 87 43
REMARK SMILES IDX 35 44 90 45 84 46 83 47 36 49 70 50 49 51 69 52 50 53 53 54
REMARK SMILES IDX 68 55 88 56 51 57 52 58 67 60 89 61 54 62 37 63 38 64 47 65
REMARK SMILES IDX 39 66 40 67 46 68 48 69 41 70 42 71 43 72 44 73 45 74 71 75
REMARK SMILES IDX 72 76 81 77 73 78 74 79 80 80 82 81 75 82 76 83 77 84 78 85
REMARK SMILES IDX 79 86 55 87 56 88 65 89 57 90 58 91 64 92 66 93 59 94 60 95
REMARK SMILES IDX 61 96 62 97 63 98
REMARK H PARENT 4 22 87 48 53 59
REMARK Flexibility Score: inf
ROOT
ATOM      1  C   UNL A   1      33.812  28.220  25.393  1.00  0.00     0.202 C 
ENDROOT
BRANCH   1   2
ATOM      2  C   UNL A   1      33.856  28.992  24.058  1.00  0.00     0.261 C 
BRANCH   2   3
ATOM      3  O   UNL A   1      32.838  28.772  23.043  1.00  0.00    -0.462 OA
BRANCH   3   4
ATOM      4  C   UNL A   1      32.844  27.615  22.357  1.00  0.00     0.328 C 
ATOM      5  O   UNL A   1      33.780  27.211  21.691  1.00  0.00    -0.250 OA
BRANCH   4   6
ATOM      6  C   UNL A   1      31.601  26.761  22.411  1.00  0.00     0.195 C 
ATOM      7  N   UNL A   1      31.776  25.648  23.326  1.00  0.00    -0.329 N 
ATOM      8  C   UNL A   1      30.915  25.877  24.478  1.00  0.00     0.120 C 
ATOM      9  C   UNL A   1      29.703  26.575  23.886  1.00  0.00     0.024 C 
ATOM     10  C   UNL A   1      30.290  27.450  22.785  1.00  0.00     0.039 C 
BRANCH   7  11
ATOM     11  C   UNL A   1      32.380  24.431  23.093  1.00  0.00     0.225 C 
ATOM     12  O   UNL A   1      32.563  24.078  21.917  1.00  0.00    -0.275 OA
BRANCH  11  13
ATOM     13  C   UNL A   1      32.597  23.349  24.176  1.00  0.00     0.122 C 
BRANCH  13  14
ATOM     14  C   UNL A   1      33.666  22.262  24.421  1.00  0.00     0.140 C 
BRANCH  14  15
ATOM     15  N   UNL A   1      35.080  22.552  24.590  1.00  0.00    -0.262 N 
ATOM     16  C   UNL A   1      38.349  21.692  25.724  1.00  0.00     0.045 C 
ATOM     17  C   UNL A   1      37.291  22.751  25.456  1.00  0.00     0.115 C 
ATOM     18  C   UNL A   1      37.622  23.999  26.268  1.00  0.00     0.045 C 
ATOM     19  N   UNL A   1      37.176  23.077  24.052  1.00  0.00    -0.324 N 
ATOM     20  C   UNL A   1      35.857  22.204  25.677  1.00  0.00     0.255 C 
ATOM     21  C   UNL A   1      35.893  22.937  23.576  1.00  0.00     0.325 C 
ATOM     22  H   UNL A   1      37.936  23.368  23.496  1.00  0.00     0.166 HD
ATOM     23  O   UNL A   1      35.513  21.515  26.630  1.00  0.00    -0.272 OA
ATOM     24  O   UNL A   1      35.577  23.137  22.415  1.00  0.00    -0.248 OA
ENDBRANCH  14  15
ENDBRANCH  13  14
ENDBRANCH  11  13
ENDBRANCH   7  11
ENDBRANCH   4   6
ENDBRANCH   3   4
ENDBRANCH   2   3
ENDBRANCH   1   2
BRANCH   1  25
ATOM     25  O   UNL A   1      32.709  28.518  26.232  1.00  0.00    -0.374 OA
BRANCH  25  26
ATOM     26  C   UNL A   1      32.279  29.890  26.296  1.00  0.00     0.202 C 
BRANCH  26  27
ATOM     27  C   UNL A   1      33.142  30.880  27.112  1.00  0.00     0.261 C 
BRANCH  27  28
ATOM     28  O   UNL A   1      34.232  30.310  27.835  1.00  0.00    -0.460 OA
BRANCH  28  29
ATOM     29  C   UNL A   1      34.882  31.135  28.677  1.00  0.00     0.338 C 
ATOM     30  O   UNL A   1      34.407  31.982  29.414  1.00  0.00    -0.246 OA
BRANCH  29  31
ATOM     31  C   UNL A   1      36.232  30.567  28.770  1.00  0.00     0.060 A 
ATOM     32  C   UNL A   1      36.670  30.136  30.029  1.00  0.00     0.016 A 
ATOM     33  C   UNL A   1      36.973  30.315  27.612  1.00  0.00     0.016 A 
ATOM     34  C   UNL A   1      37.884  29.477  30.139  1.00  0.00     0.010 A 
ATOM     35  C   UNL A   1      38.197  29.674  27.725  1.00  0.00     0.010 A 
ATOM     36  C   UNL A   1      38.666  29.289  28.992  1.00  0.00    -0.014 A 
BRANCH  36  37
ATOM     37  C   UNL A   1      40.081  28.918  29.141  1.00  0.00     0.031 A 
ATOM     38  C   UNL A   1      41.025  30.005  29.562  1.00  0.00     0.074 A 
ATOM     39  C   UNL A   1      40.491  27.666  28.889  1.00  0.00     0.049 A 
ATOM     40  N   UNL A   1      42.323  29.973  29.673  1.00  0.00    -0.248 NA
ATOM     41  C   UNL A   1      40.422  31.311  29.890  1.00  0.00     0.031 C 
ATOM     42  C   UNL A   1      39.623  26.553  28.500  1.00  0.00     0.029 A 
ATOM     43  N   UNL A   1      41.748  27.126  28.899  1.00  0.00    -0.354 N 
ATOM     44  C   UNL A   1      42.692  31.254  30.062  1.00  0.00     0.074 A 
ATOM     45  C   UNL A   1      41.491  32.047  30.151  1.00  0.00     0.031 C 
ATOM     46  C   UNL A   1      40.382  25.467  28.279  1.00  0.00     0.029 A 
ATOM     47  C   UNL A   1      41.786  25.821  28.472  1.00  0.00     0.049 A 
ATOM     48  H   UNL A   1      42.548  27.625  29.185  1.00  0.00     0.167 HD
ATOM     49  C   UNL A   1      43.934  31.717  30.320  1.00  0.00     0.037 A 
ATOM     50  C   UNL A   1      42.848  25.027  28.229  1.00  0.00     0.037 A 
ATOM     51  C   UNL A   1      45.110  30.898  30.223  1.00  0.00     0.049 A 
ATOM     52  C   UNL A   1      44.227  25.585  28.473  1.00  0.00     0.074 A 
ATOM     53  C   UNL A   1      46.418  31.236  30.508  1.00  0.00     0.029 A 
ATOM     54  N   UNL A   1      45.115  29.579  29.790  1.00  0.00    -0.354 N 
ATOM     55  N   UNL A   1      44.568  26.778  28.907  1.00  0.00    -0.248 NA
ATOM     56  C   UNL A   1      45.365  24.699  28.198  1.00  0.00     0.031 C 
ATOM     57  C   UNL A   1      47.224  30.142  30.181  1.00  0.00     0.029 A 
ATOM     58  C   UNL A   1      46.412  29.101  29.755  1.00  0.00     0.049 A 
ATOM     59  H   UNL A   1      44.315  29.060  29.546  1.00  0.00     0.167 HD
ATOM     60  C   UNL A   1      45.956  26.780  28.971  1.00  0.00     0.074 A 
ATOM     61  C   UNL A   1      46.391  25.462  28.551  1.00  0.00     0.031 C 
ATOM     62  C   UNL A   1      46.801  27.777  29.336  1.00  0.00     0.037 A 
BRANCH  49  63
ATOM     63  C   UNL A   1      44.088  33.165  30.688  1.00  0.00     0.058 A 
ATOM     64  C   UNL A   1      44.250  34.168  29.720  1.00  0.00     0.135 A 
ATOM     65  C   UNL A   1      44.027  33.558  32.035  1.00  0.00     0.135 A 
ATOM     66  F   UNL A   1      44.346  33.846  28.420  1.00  0.00    -0.206 F 
ATOM     67  C   UNL A   1      44.350  35.510  30.074  1.00  0.00     0.059 A 
ATOM     68  C   UNL A   1      44.096  34.895  32.410  1.00  0.00     0.059 A 
ATOM     69  F   UNL A   1      43.892  32.637  33.002  1.00  0.00    -0.206 F 
ATOM     70  C   UNL A   1      44.262  35.864  31.422  1.00  0.00     0.060 A 
BRANCH  70  71
ATOM     71  S   UNL A   1      44.344  37.613  31.858  1.00  0.00     0.124 S 
ATOM     72  O   UNL A   1      43.786  38.239  30.663  1.00  0.00    -0.237 OA
ATOM     73  O   UNL A   1      43.509  37.673  33.053  1.00  0.00    -0.237 OA
ATOM     74  O   UNL A   1      45.769  37.843  32.079  1.00  0.00    -0.744 OA
ENDBRANCH  70  71
ENDBRANCH  49  63
BRANCH  50  75
ATOM     75  C   UNL A   1      42.649  23.656  27.688  1.00  0.00     0.058 A 
ATOM     76  C   UNL A   1      42.559  22.543  28.534  1.00  0.00     0.135 A 
ATOM     77  C   UNL A   1      42.547  23.432  26.304  1.00  0.00     0.135 A 
ATOM     78  F   UNL A   1      42.656  22.701  29.864  1.00  0.00    -0.206 F 
ATOM     79  C   UNL A   1      42.393  21.255  28.032  1.00  0.00     0.059 A 
ATOM     80  C   UNL A   1      42.351  22.158  25.780  1.00  0.00     0.059 A 
ATOM     81  F   UNL A   1      42.612  24.463  25.447  1.00  0.00    -0.206 F 
ATOM     82  C   UNL A   1      42.288  21.074  26.652  1.00  0.00     0.060 A 
BRANCH  82  83
ATOM     83  S   UNL A   1      42.035  19.404  26.014  1.00  0.00     0.124 S 
ATOM     84  O   UNL A   1      42.856  19.422  24.808  1.00  0.00    -0.237 OA
ATOM     85  O   UNL A   1      42.528  18.580  27.113  1.00  0.00    -0.237 OA
ATOM     86  O   UNL A   1      40.592  19.344  25.794  1.00  0.00    -0.744 OA
ENDBRANCH  82  83
ENDBRANCH  50  75
BRANCH  62  87
ATOM     87  C   UNL A   1      48.274  27.481  29.314  1.00  0.00     0.058 A 
ATOM     88  C   UNL A   1      49.075  27.832  28.218  1.00  0.00     0.135 A 
ATOM     89  C   UNL A   1      48.903  26.933  30.443  1.00  0.00     0.135 A 
ATOM     90  F   UNL A   1      48.516  28.350  27.111  1.00  0.00    -0.206 F 
ATOM     91  C   UNL A   1      50.451  27.645  28.238  1.00  0.00     0.059 A 
ATOM     92  C   UNL A   1      50.282  26.767  30.499  1.00  0.00     0.059 A 
ATOM     93  F   UNL A   1      48.181  26.591  31.522  1.00  0.00    -0.206 F 
ATOM     94  C   UNL A   1      51.047  27.122  29.388  1.00  0.00     0.060 A 
BRANCH  94  95
ATOM     95  S   UNL A   1      52.842  26.952  29.425  1.00  0.00     0.124 S 
ATOM     96  O   UNL A   1      53.044  26.232  30.678  1.00  0.00    -0.237 OA
ATOM     97  O   UNL A   1      53.105  26.191  28.207  1.00  0.00    -0.237 OA
ATOM     98  O   UNL A   1      53.316  28.333  29.410  1.00  0.00    -0.744 OA
ENDBRANCH  94  95
ENDBRANCH  62  87
ENDBRANCH  36  37
ENDBRANCH  29  31
ENDBRANCH  28  29
ENDBRANCH  27  28
ENDBRANCH  26  27
ENDBRANCH  25  26
ENDBRANCH   1  25
TORSDOF 21
ENDMDL
MODEL 2
REMARK VINA RESULT:     -10.2      1.552      2.218
REMARK SMILES CC1(C)NC(=O)N(CCC(=O)N2CCC[C@H]2C(=O)OCCOCCOC(=O)c2ccc(-c3c4nc(c(-c5c(F)cc(S(=O)(=O)[O-])cc5F)c5ccc([nH]5)c(-c5c(F)cc(S(=O)(=O)[O-])cc5F)c5nc(c(-c6c(F)cc(S(=O)(=O)[O-])cc6F)c6ccc3[nH]6)C=C5)C=C4)cc2)C1=O
REMARK SMILES IDX 21 1 20 2 19 3 17 4 18 5 16 6 12 7 13 8 14 9 15 10 10 11
REMARK SMILES IDX 11 12 9 13 8 14 7 15 1 16 2 17 3 18 4 19 94 20 5 21 95 23
REMARK SMILES IDX 6 24 22 25 23 26 24 27 25 28 26 29 27 30 28 31 29 32 93 33
REMARK SMILES IDX 30 34 92 35 31 36 32 37 33 38 86 39 34 40 91 41 85 42 87 43
REMARK SMILES IDX 35 44 90 45 84 46 83 47 36 49 70 50 49 51 69 52 50 53 53 54
REMARK SMILES IDX 68 55 88 56 51 57 52 58 67 60 89 61 54 62 37 63 38 64 47 65
REMARK SMILES IDX 39 66 40 67 46 68 48 69 41 70 42 71 43 72 44 73 45 74 71 75
REMARK SMILES IDX 72 76 81 77 73 78 74 79 80 80 82 81 75 82 76 83 77 84 78 85
REMARK SMILES IDX 79 86 55 87 56 88 65 89 57 90 58 91 64 92 66 93 59 94 60 95
REMARK SMILES IDX 61 96 62 97 63 98
REMARK H PARENT 4 22 87 48 53 59
REMARK Flexibility Score: inf
ROOT
ATOM      1  C   UNL A   1      33.548  27.660  25.388  1.00  0.00     0.202 C 
ENDROOT
BRANCH   1   2
ATOM      2  C   UNL A   1      33.365  28.085  23.916  1.00  0.00     0.261 C 
BRANCH   2   3
ATOM      3  O   UNL A   1      32.499  27.327  23.030  1.00  0.00    -0.462 OA
BRANCH   3   4
ATOM      4  C   UNL A   1      32.972  26.202  22.464  1.00  0.00     0.328 C 
ATOM      5  O   UNL A   1      33.863  26.168  21.634  1.00  0.00    -0.250 OA
BRANCH   4   6
ATOM      6  C   UNL A   1      32.351  24.892  22.880  1.00  0.00     0.195 C 
ATOM      7  N   UNL A   1      32.912  24.427  24.135  1.00  0.00    -0.329 N 
ATOM      8  C   UNL A   1      31.876  24.528  25.153  1.00  0.00     0.120 C 
ATOM      9  C   UNL A   1      30.598  24.222  24.393  1.00  0.00     0.024 C 
ATOM     10  C   UNL A   1      30.831  24.848  23.023  1.00  0.00     0.039 C 
BRANCH   7  11
ATOM     11  C   UNL A   1      34.082  23.730  24.347  1.00  0.00     0.225 C 
ATOM     12  O   UNL A   1      35.116  24.372  24.597  1.00  0.00    -0.275 OA
BRANCH  11  13
ATOM     13  C   UNL A   1      34.267  22.228  24.028  1.00  0.00     0.122 C 
BRANCH  13  14
ATOM     14  C   UNL A   1      34.716  20.995  24.842  1.00  0.00     0.140 C 
BRANCH  14  15
ATOM     15  N   UNL A   1      34.129  19.676  24.686  1.00  0.00    -0.262 N 
ATOM     16  C   UNL A   1      34.050  16.174  25.355  1.00  0.00     0.045 C 
ATOM     17  C   UNL A   1      33.800  17.333  24.401  1.00  0.00     0.115 C 
ATOM     18  C   UNL A   1      33.738  16.796  22.975  1.00  0.00     0.045 C 
ATOM     19  N   UNL A   1      32.594  18.063  24.720  1.00  0.00    -0.324 N 
ATOM     20  C   UNL A   1      34.820  18.482  24.610  1.00  0.00     0.255 C 
ATOM     21  C   UNL A   1      32.817  19.409  24.896  1.00  0.00     0.325 C 
ATOM     22  H   UNL A   1      31.707  17.640  24.803  1.00  0.00     0.166 HD
ATOM     23  O   UNL A   1      36.027  18.327  24.757  1.00  0.00    -0.272 OA
ATOM     24  O   UNL A   1      31.943  20.206  25.193  1.00  0.00    -0.248 OA
ENDBRANCH  14  15
ENDBRANCH  13  14
ENDBRANCH  11  13
ENDBRANCH   7  11
ENDBRANCH   4   6
ENDBRANCH   3   4
ENDBRANCH   2   3
ENDBRANCH   1   2
BRANCH   1  25
ATOM     25  O   UNL A   1      32.567  28.144  26.288  1.00  0.00    -0.374 OA
BRANCH  25  26
ATOM     26  C   UNL A   1      32.169  29.521  26.153  1.00  0.00     0.202 C 
BRANCH  26  27
ATOM     27  C   UNL A   1      33.058  30.597  26.816  1.00  0.00     0.261 C 
BRANCH  27  28
ATOM     28  O   UNL A   1      33.994  30.126  27.784  1.00  0.00    -0.460 OA
BRANCH  28  29
ATOM     29  C   UNL A   1      34.655  31.070  28.481  1.00  0.00     0.338 C 
ATOM     30  O   UNL A   1      34.187  32.013  29.096  1.00  0.00    -0.246 OA
BRANCH  29  31
ATOM     31  C   UNL A   1      36.011  30.530  28.626  1.00  0.00     0.060 A 
ATOM     32  C   UNL A   1      36.399  30.082  29.896  1.00  0.00     0.016 A 
ATOM     33  C   UNL A   1      36.811  30.319  27.500  1.00  0.00     0.016 A 
ATOM     34  C   UNL A   1      37.622  29.448  30.050  1.00  0.00     0.010 A 
ATOM     35  C   UNL A   1      38.043  29.703  27.657  1.00  0.00     0.010 A 
ATOM     36  C   UNL A   1      38.461  29.302  28.938  1.00  0.00    -0.014 A 
BRANCH  36  37
ATOM     37  C   UNL A   1      39.875  28.959  29.146  1.00  0.00     0.031 A 
ATOM     38  C   UNL A   1      40.776  30.061  29.619  1.00  0.00     0.074 A 
ATOM     39  C   UNL A   1      40.323  27.718  28.901  1.00  0.00     0.049 A 
ATOM     40  N   UNL A   1      42.069  30.055  29.788  1.00  0.00    -0.248 NA
ATOM     41  C   UNL A   1      40.131  31.351  29.933  1.00  0.00     0.031 C 
ATOM     42  C   UNL A   1      39.497  26.592  28.463  1.00  0.00     0.029 A 
ATOM     43  N   UNL A   1      41.590  27.205  28.962  1.00  0.00    -0.354 N 
ATOM     44  C   UNL A   1      42.393  31.340  30.205  1.00  0.00     0.074 A 
ATOM     45  C   UNL A   1      41.171  32.106  30.248  1.00  0.00     0.031 C 
ATOM     46  C   UNL A   1      40.289  25.524  28.265  1.00  0.00     0.029 A 
ATOM     47  C   UNL A   1      41.675  25.905  28.525  1.00  0.00     0.049 A 
ATOM     48  H   UNL A   1      42.365  27.717  29.288  1.00  0.00     0.167 HD
ATOM     49  C   UNL A   1      43.612  31.826  30.523  1.00  0.00     0.037 A 
ATOM     50  C   UNL A   1      42.763  25.137  28.321  1.00  0.00     0.037 A 
ATOM     51  C   UNL A   1      44.808  31.033  30.471  1.00  0.00     0.049 A 
ATOM     52  C   UNL A   1      44.118  25.721  28.633  1.00  0.00     0.074 A 
ATOM     53  C   UNL A   1      46.094  31.395  30.817  1.00  0.00     0.029 A 
ATOM     54  N   UNL A   1      44.861  29.718  30.026  1.00  0.00    -0.354 N 
ATOM     55  N   UNL A   1      44.413  26.916  29.092  1.00  0.00    -0.248 NA
ATOM     56  C   UNL A   1      45.286  24.862  28.399  1.00  0.00     0.031 C 
ATOM     57  C   UNL A   1      46.938  30.322  30.515  1.00  0.00     0.029 A 
ATOM     58  C   UNL A   1      46.167  29.268  30.044  1.00  0.00     0.049 A 
ATOM     59  H   UNL A   1      44.083  29.186  29.741  1.00  0.00     0.167 HD
ATOM     60  C   UNL A   1      45.797  26.947  29.218  1.00  0.00     0.074 A 
ATOM     61  C   UNL A   1      46.278  25.642  28.806  1.00  0.00     0.031 C 
ATOM     62  C   UNL A   1      46.604  27.957  29.630  1.00  0.00     0.037 A 
BRANCH  49  63
ATOM     63  C   UNL A   1      43.718  33.273  30.910  1.00  0.00     0.058 A 
ATOM     64  C   UNL A   1      43.752  33.686  32.251  1.00  0.00     0.135 A 
ATOM     65  C   UNL A   1      43.831  34.260  29.918  1.00  0.00     0.135 A 
ATOM     66  F   UNL A   1      43.616  32.788  33.240  1.00  0.00    -0.206 F 
ATOM     67  C   UNL A   1      43.892  35.027  32.595  1.00  0.00     0.059 A 
ATOM     68  C   UNL A   1      44.001  35.602  30.237  1.00  0.00     0.059 A 
ATOM     69  F   UNL A   1      43.785  33.921  28.620  1.00  0.00    -0.206 F 
ATOM     70  C   UNL A   1      44.025  35.977  31.580  1.00  0.00     0.060 A 
BRANCH  70  71
ATOM     71  S   UNL A   1      44.255  37.705  32.045  1.00  0.00     0.124 S 
ATOM     72  O   UNL A   1      43.379  37.815  33.207  1.00  0.00    -0.237 OA
ATOM     73  O   UNL A   1      45.687  37.762  32.323  1.00  0.00    -0.237 OA
ATOM     74  O   UNL A   1      43.819  38.438  30.861  1.00  0.00    -0.744 OA
ENDBRANCH  70  71
ENDBRANCH  49  63
BRANCH  50  75
ATOM     75  C   UNL A   1      42.618  23.768  27.759  1.00  0.00     0.058 A 
ATOM     76  C   UNL A   1      42.524  22.643  28.590  1.00  0.00     0.135 A 
ATOM     77  C   UNL A   1      42.573  23.557  26.370  1.00  0.00     0.135 A 
ATOM     78  F   UNL A   1      42.568  22.788  29.924  1.00  0.00    -0.206 F 
ATOM     79  C   UNL A   1      42.408  21.357  28.069  1.00  0.00     0.059 A 
ATOM     80  C   UNL A   1      42.427  22.284  25.826  1.00  0.00     0.059 A 
ATOM     81  F   UNL A   1      42.644  24.599  25.527  1.00  0.00    -0.206 F 
ATOM     82  C   UNL A   1      42.359  21.189  26.683  1.00  0.00     0.060 A 
BRANCH  82  83
ATOM     83  S   UNL A   1      42.170  19.521  26.019  1.00  0.00     0.124 S 
ATOM     84  O   UNL A   1      43.035  19.572  24.846  1.00  0.00    -0.237 OA
ATOM     85  O   UNL A   1      42.641  18.697  27.127  1.00  0.00    -0.237 OA
ATOM     86  O   UNL A   1      40.738  19.429  25.744  1.00  0.00    -0.744 OA
ENDBRANCH  82  83
ENDBRANCH  50  75
BRANCH  62  87
ATOM     87  C   UNL A   1      48.082  27.692  29.671  1.00  0.00     0.058 A 
ATOM     88  C   UNL A   1      48.903  27.951  28.564  1.00  0.00     0.135 A 
ATOM     89  C   UNL A   1      48.693  27.272  30.863  1.00  0.00     0.135 A 
ATOM     90  F   UNL A   1      48.362  28.347  27.399  1.00  0.00    -0.206 F 
ATOM     91  C   UNL A   1      50.281  27.797  28.635  1.00  0.00     0.059 A 
ATOM     92  C   UNL A   1      50.073  27.142  30.966  1.00  0.00     0.059 A 
ATOM     93  F   UNL A   1      47.951  27.021  31.953  1.00  0.00    -0.206 F 
ATOM     94  C   UNL A   1      50.858  27.403  29.844  1.00  0.00     0.060 A 
BRANCH  94  95
ATOM     95  S   UNL A   1      52.655  27.276  29.938  1.00  0.00     0.124 S 
ATOM     96  O   UNL A   1      52.848  25.829  29.949  1.00  0.00    -0.237 OA
ATOM     97  O   UNL A   1      53.078  27.963  28.721  1.00  0.00    -0.237 OA
ATOM     98  O   UNL A   1      52.980  27.962  31.185  1.00  0.00    -0.744 OA
ENDBRANCH  94  95
ENDBRANCH  62  87
ENDBRANCH  36  37
ENDBRANCH  29  31
ENDBRANCH  28  29
ENDBRANCH  27  28
ENDBRANCH  26  27
ENDBRANCH  25  26
ENDBRANCH   1  25
TORSDOF 21
ENDMDL
MODEL 3
REMARK VINA RESULT:     -10.0      2.683      4.918
REMARK SMILES CC1(C)NC(=O)N(CCC(=O)N2CCC[C@H]2C(=O)OCCOCCOC(=O)c2ccc(-c3c4nc(c(-c5c(F)cc(S(=O)(=O)[O-])cc5F)c5ccc([nH]5)c(-c5c(F)cc(S(=O)(=O)[O-])cc5F)c5nc(c(-c6c(F)cc(S(=O)(=O)[O-])cc6F)c6ccc3[nH]6)C=C5)C=C4)cc2)C1=O
REMARK SMILES IDX 21 1 20 2 19 3 17 4 18 5 16 6 12 7 13 8 14 9 15 10 10 11
REMARK SMILES IDX 11 12 9 13 8 14 7 15 1 16 2 17 3 18 4 19 94 20 5 21 95 23
REMARK SMILES IDX 6 24 22 25 23 26 24 27 25 28 26 29 27 30 28 31 29 32 93 33
REMARK SMILES IDX 30 34 92 35 31 36 32 37 33 38 86 39 34 40 91 41 85 42 87 43
REMARK SMILES IDX 35 44 90 45 84 46 83 47 36 49 70 50 49 51 69 52 50 53 53 54
REMARK SMILES IDX 68 55 88 56 51 57 52 58 67 60 89 61 54 62 37 63 38 64 47 65
REMARK SMILES IDX 39 66 40 67 46 68 48 69 41 70 42 71 43 72 44 73 45 74 71 75
REMARK SMILES IDX 72 76 81 77 73 78 74 79 80 80 82 81 75 82 76 83 77 84 78 85
REMARK SMILES IDX 79 86 55 87 56 88 65 89 57 90 58 91 64 92 66 93 59 94 60 95
REMARK SMILES IDX 61 96 62 97 63 98
REMARK H PARENT 4 22 87 48 53 59
REMARK Flexibility Score: inf
ROOT
ATOM      1  C   UNL A   1      33.209  30.069  26.683  1.00  0.00     0.202 C 
ENDROOT
BRANCH   1   2
ATOM      2  C   UNL A   1      33.985  28.749  26.873  1.00  0.00     0.261 C 
BRANCH   2   3
ATOM      3  O   UNL A   1      33.351  27.472  26.593  1.00  0.00    -0.462 OA
BRANCH   3   4
ATOM      4  C   UNL A   1      33.682  26.817  25.464  1.00  0.00     0.328 C 
ATOM      5  O   UNL A   1      34.310  27.303  24.542  1.00  0.00    -0.250 OA
BRANCH   4   6
ATOM      6  C   UNL A   1      33.236  25.381  25.330  1.00  0.00     0.195 C 
ATOM      7  N   UNL A   1      32.306  25.228  24.227  1.00  0.00    -0.329 N 
ATOM      8  C   UNL A   1      32.974  24.466  23.181  1.00  0.00     0.120 C 
ATOM      9  C   UNL A   1      33.863  23.506  23.951  1.00  0.00     0.024 C 
ATOM     10  C   UNL A   1      34.321  24.321  25.155  1.00  0.00     0.039 C 
BRANCH   7  11
ATOM     11  C   UNL A   1      30.947  25.460  24.209  1.00  0.00     0.225 C 
ATOM     12  O   UNL A   1      30.208  24.685  24.838  1.00  0.00    -0.275 OA
BRANCH  11  13
ATOM     13  C   UNL A   1      30.248  26.445  23.245  1.00  0.00     0.122 C 
BRANCH  13  14
ATOM     14  C   UNL A   1      29.068  27.434  23.375  1.00  0.00     0.140 C 
BRANCH  14  15
ATOM     15  N   UNL A   1      29.080  28.774  22.814  1.00  0.00    -0.262 N 
ATOM     16  C   UNL A   1      28.074  32.194  22.827  1.00  0.00     0.045 C 
ATOM     17  C   UNL A   1      28.461  30.945  22.051  1.00  0.00     0.115 C 
ATOM     18  C   UNL A   1      27.948  31.071  20.620  1.00  0.00     0.045 C 
ATOM     19  N   UNL A   1      29.887  30.707  22.058  1.00  0.00    -0.324 N 
ATOM     20  C   UNL A   1      28.014  29.651  22.780  1.00  0.00     0.255 C 
ATOM     21  C   UNL A   1      30.215  29.453  22.519  1.00  0.00     0.325 C 
ATOM     22  H   UNL A   1      30.551  31.373  21.764  1.00  0.00     0.166 HD
ATOM     23  O   UNL A   1      26.916  29.486  23.299  1.00  0.00    -0.272 OA
ATOM     24  O   UNL A   1      31.362  29.052  22.630  1.00  0.00    -0.248 OA
ENDBRANCH  14  15
ENDBRANCH  13  14
ENDBRANCH  11  13
ENDBRANCH   7  11
ENDBRANCH   4   6
ENDBRANCH   3   4
ENDBRANCH   2   3
ENDBRANCH   1   2
BRANCH   1  25
ATOM     25  O   UNL A   1      33.498  31.087  27.625  1.00  0.00    -0.374 OA
BRANCH  25  26
ATOM     26  C   UNL A   1      34.879  31.285  27.980  1.00  0.00     0.202 C 
BRANCH  26  27
ATOM     27  C   UNL A   1      35.189  31.858  29.382  1.00  0.00     0.261 C 
BRANCH  27  28
ATOM     28  O   UNL A   1      36.526  31.682  29.848  1.00  0.00    -0.460 OA
BRANCH  28  29
ATOM     29  C   UNL A   1      36.786  30.523  30.482  1.00  0.00     0.338 C 
ATOM     30  O   UNL A   1      35.994  29.765  31.015  1.00  0.00    -0.246 OA
BRANCH  29  31
ATOM     31  C   UNL A   1      38.166  30.203  30.099  1.00  0.00     0.060 A 
ATOM     32  C   UNL A   1      38.446  30.070  28.732  1.00  0.00     0.016 A 
ATOM     33  C   UNL A   1      39.183  30.205  31.057  1.00  0.00     0.016 A 
ATOM     34  C   UNL A   1      39.757  29.897  28.319  1.00  0.00     0.010 A 
ATOM     35  C   UNL A   1      40.493  30.011  30.646  1.00  0.00     0.010 A 
ATOM     36  C   UNL A   1      40.772  29.820  29.282  1.00  0.00    -0.014 A 
BRANCH  36  37
ATOM     37  C   UNL A   1      42.090  29.295  28.896  1.00  0.00     0.031 A 
ATOM     38  C   UNL A   1      43.209  30.287  28.789  1.00  0.00     0.074 A 
ATOM     39  C   UNL A   1      42.258  27.989  28.637  1.00  0.00     0.049 A 
ATOM     40  N   UNL A   1      44.433  30.109  28.379  1.00  0.00    -0.248 NA
ATOM     41  C   UNL A   1      42.901  31.674  29.188  1.00  0.00     0.031 C 
ATOM     42  C   UNL A   1      41.218  26.964  28.746  1.00  0.00     0.029 A 
ATOM     43  N   UNL A   1      43.362  27.306  28.205  1.00  0.00    -0.354 N 
ATOM     44  C   UNL A   1      45.033  31.360  28.450  1.00  0.00     0.074 A 
ATOM     45  C   UNL A   1      44.040  32.294  28.923  1.00  0.00     0.031 C 
ATOM     46  C   UNL A   1      41.731  25.783  28.359  1.00  0.00     0.029 A 
ATOM     47  C   UNL A   1      43.117  25.980  27.941  1.00  0.00     0.049 A 
ATOM     48  H   UNL A   1      44.247  27.724  28.096  1.00  0.00     0.167 HD
ATOM     49  C   UNL A   1      46.306  31.689  28.143  1.00  0.00     0.037 A 
ATOM     50  C   UNL A   1      43.919  25.053  27.383  1.00  0.00     0.037 A 
ATOM     51  C   UNL A   1      47.270  30.732  27.676  1.00  0.00     0.049 A 
ATOM     52  C   UNL A   1      45.320  25.459  26.999  1.00  0.00     0.074 A 
ATOM     53  C   UNL A   1      48.603  30.930  27.381  1.00  0.00     0.029 A 
ATOM     54  N   UNL A   1      46.990  29.396  27.420  1.00  0.00    -0.354 N 
ATOM     55  N   UNL A   1      45.904  26.628  27.132  1.00  0.00    -0.248 NA
ATOM     56  C   UNL A   1      46.171  24.428  26.391  1.00  0.00     0.031 C 
ATOM     57  C   UNL A   1      49.115  29.730  26.879  1.00  0.00     0.029 A 
ATOM     58  C   UNL A   1      48.117  28.767  26.925  1.00  0.00     0.049 A 
ATOM     59  H   UNL A   1      46.120  28.961  27.570  1.00  0.00     0.167 HD
ATOM     60  C   UNL A   1      47.194  26.471  26.639  1.00  0.00     0.074 A 
ATOM     61  C   UNL A   1      47.311  25.085  26.225  1.00  0.00     0.031 C 
ATOM     62  C   UNL A   1      48.193  27.381  26.530  1.00  0.00     0.037 A 
BRANCH  49  63
ATOM     63  C   UNL A   1      46.713  33.129  28.262  1.00  0.00     0.058 A 
ATOM     64  C   UNL A   1      47.218  33.666  29.457  1.00  0.00     0.135 A 
ATOM     65  C   UNL A   1      46.637  33.976  27.144  1.00  0.00     0.135 A 
ATOM     66  F   UNL A   1      47.284  32.910  30.564  1.00  0.00    -0.206 F 
ATOM     67  C   UNL A   1      47.630  34.992  29.540  1.00  0.00     0.059 A 
ATOM     68  C   UNL A   1      47.070  35.296  27.196  1.00  0.00     0.059 A 
ATOM     69  F   UNL A   1      46.144  33.518  25.982  1.00  0.00    -0.206 F 
ATOM     70  C   UNL A   1      47.561  35.797  28.401  1.00  0.00     0.060 A 
BRANCH  70  71
ATOM     71  S   UNL A   1      48.147  37.500  28.514  1.00  0.00     0.124 S 
ATOM     72  O   UNL A   1      46.952  38.246  28.132  1.00  0.00    -0.237 OA
ATOM     73  O   UNL A   1      48.533  37.600  29.918  1.00  0.00    -0.237 OA
ATOM     74  O   UNL A   1      49.248  37.547  27.557  1.00  0.00    -0.744 OA
ENDBRANCH  70  71
ENDBRANCH  49  63
BRANCH  50  75
ATOM     75  C   UNL A   1      43.406  23.683  27.115  1.00  0.00     0.058 A 
ATOM     76  C   UNL A   1      42.971  23.302  25.838  1.00  0.00     0.135 A 
ATOM     77  C   UNL A   1      43.340  22.722  28.138  1.00  0.00     0.135 A 
ATOM     78  F   UNL A   1      43.008  24.183  24.826  1.00  0.00    -0.206 F 
ATOM     79  C   UNL A   1      42.472  22.027  25.586  1.00  0.00     0.059 A 
ATOM     80  C   UNL A   1      42.873  21.432  27.904  1.00  0.00     0.059 A 
ATOM     81  F   UNL A   1      43.756  23.027  29.377  1.00  0.00    -0.206 F 
ATOM     82  C   UNL A   1      42.429  21.098  26.627  1.00  0.00     0.060 A 
BRANCH  82  83
ATOM     83  S   UNL A   1      41.816  19.436  26.281  1.00  0.00     0.124 S 
ATOM     84  O   UNL A   1      40.376  19.660  26.225  1.00  0.00    -0.237 OA
ATOM     85  O   UNL A   1      42.467  19.130  25.011  1.00  0.00    -0.237 OA
ATOM     86  O   UNL A   1      42.289  18.658  27.423  1.00  0.00    -0.744 OA
ENDBRANCH  82  83
ENDBRANCH  50  75
BRANCH  62  87
ATOM     87  C   UNL A   1      49.500  26.913  25.958  1.00  0.00     0.058 A 
ATOM     88  C   UNL A   1      49.814  27.096  24.603  1.00  0.00     0.135 A 
ATOM     89  C   UNL A   1      50.486  26.367  26.796  1.00  0.00     0.135 A 
ATOM     90  F   UNL A   1      48.900  27.606  23.761  1.00  0.00    -0.206 F 
ATOM     91  C   UNL A   1      51.059  26.749  24.096  1.00  0.00     0.059 A 
ATOM     92  C   UNL A   1      51.749  26.043  26.318  1.00  0.00     0.059 A 
ATOM     93  F   UNL A   1      50.237  26.182  28.102  1.00  0.00    -0.206 F 
ATOM     94  C   UNL A   1      52.025  26.234  24.964  1.00  0.00     0.060 A 
BRANCH  94  95
ATOM     95  S   UNL A   1      53.660  25.855  24.304  1.00  0.00     0.124 S 
ATOM     96  O   UNL A   1      53.427  25.952  22.866  1.00  0.00    -0.237 OA
ATOM     97  O   UNL A   1      54.482  26.913  24.886  1.00  0.00    -0.237 OA
ATOM     98  O   UNL A   1      53.929  24.511  24.807  1.00  0.00    -0.744 OA
ENDBRANCH  94  95
ENDBRANCH  62  87
ENDBRANCH  36  37
ENDBRANCH  29  31
ENDBRANCH  28  29
ENDBRANCH  27  28
ENDBRANCH  26  27
ENDBRANCH  25  26
ENDBRANCH   1  25
TORSDOF 21
ENDMDL
