MODEL 1
REMARK VINA RESULT:     -10.9      0.000      0.000
REMARK SMILES O=C(CC1(CC(=O)OCCOCCOC(=O)c2ccc(-c3c4nc(c(-c5c(F)cc(S(=O)(=O)[O-])cc5F)c5ccc([nH]5)c(-c5c(F)cc(S(=O)(=O)[O-])cc5F)c5nc(c(-c6c(F)cc(S(=O)(=O)[O-])cc6F)c6ccc3[nH]6)C=C5)C=C4)cc2)CCCC1)NNc1ccc([N+](=O)[O-])cc1
REMARK SMILES IDX 9 1 8 2 6 3 7 4 5 5 4 6 83 7 86 8 84 9 85 10 3 11 2 12 1 13
REMARK SMILES IDX 87 14 88 16 89 18 90 19 97 20 91 21 96 22 92 23 93 24 94 25
REMARK SMILES IDX 95 26 10 27 11 28 12 29 13 30 14 31 15 32 16 33 17 34 18 35
REMARK SMILES IDX 82 36 19 37 81 38 20 39 21 40 22 41 75 42 23 43 80 44 74 45
REMARK SMILES IDX 76 46 24 47 79 48 73 49 72 50 25 52 59 53 38 54 58 55 39 56
REMARK SMILES IDX 42 57 57 58 77 59 40 60 41 61 56 63 78 64 43 65 26 66 27 67
REMARK SMILES IDX 36 68 28 69 29 70 35 71 37 72 30 73 31 74 32 75 33 76 34 77
REMARK SMILES IDX 60 78 61 79 70 80 62 81 63 82 69 83 71 84 64 85 65 86 66 87
REMARK SMILES IDX 67 88 68 89 44 90 45 91 54 92 46 93 47 94 53 95 55 96 48 97
REMARK SMILES IDX 49 98 50 99 51 100 52 101
REMARK H PARENT 87 15 88 17 76 51 42 62
REMARK Flexibility Score: inf
ROOT
ATOM      1  C   UNL A   1      36.199  23.229  26.087  1.00  0.00     0.261 C 
ENDROOT
BRANCH   1   2
ATOM      2  O   UNL A   1      35.146  22.253  26.262  1.00  0.00    -0.463 OA
BRANCH   2   3
ATOM      3  C   UNL A   1      33.940  22.736  26.643  1.00  0.00     0.306 C 
ATOM      4  O   UNL A   1      32.997  22.044  27.007  1.00  0.00    -0.252 OA
BRANCH   3   5
ATOM      5  C   UNL A   1      33.780  24.232  26.431  1.00  0.00     0.130 C 
BRANCH   5   6
ATOM      6  C   UNL A   1      33.009  24.853  25.228  1.00  0.00    -0.010 C 
ATOM      7  C   UNL A   1      33.626  26.268  24.974  1.00  0.00     0.008 C 
ATOM      8  C   UNL A   1      31.581  25.310  25.621  1.00  0.00     0.008 C 
ATOM      9  C   UNL A   1      33.095  27.172  26.078  1.00  0.00     0.001 C 
ATOM     10  C   UNL A   1      31.777  26.538  26.519  1.00  0.00     0.001 C 
BRANCH   6  11
ATOM     11  C   UNL A   1      33.058  24.138  23.838  1.00  0.00     0.109 C 
BRANCH  11  12
ATOM     12  C   UNL A   1      32.245  22.911  23.480  1.00  0.00     0.238 C 
ATOM     13  O   UNL A   1      31.067  22.998  23.127  1.00  0.00    -0.273 OA
ATOM     14  N   UNL A   1      32.914  21.716  23.473  1.00  0.00    -0.270 N 
ATOM     15  H   UNL A   1      33.888  21.673  23.602  1.00  0.00     0.191 HD
BRANCH  14  16
ATOM     16  N   UNL A   1      32.163  20.572  23.274  1.00  0.00    -0.299 N 
ATOM     17  H   UNL A   1      31.277  20.638  22.851  1.00  0.00     0.188 HD
BRANCH  16  18
ATOM     18  C   UNL A   1      32.647  19.325  23.670  1.00  0.00     0.055 A 
ATOM     19  C   UNL A   1      32.775  19.065  25.043  1.00  0.00     0.034 A 
ATOM     20  C   UNL A   1      32.915  18.278  22.776  1.00  0.00     0.034 A 
ATOM     21  C   UNL A   1      33.107  17.790  25.513  1.00  0.00     0.088 A 
ATOM     22  C   UNL A   1      33.253  17.000  23.226  1.00  0.00     0.088 A 
ATOM     23  C   UNL A   1      33.321  16.755  24.597  1.00  0.00     0.269 A 
BRANCH  23  24
ATOM     24  N   UNL A   1      33.575  15.393  25.076  1.00  0.00     0.062 N 
ATOM     25  O   UNL A   1      32.599  14.649  25.248  1.00  0.00    -0.258 OA
ATOM     26  O   UNL A   1      34.754  15.054  25.253  1.00  0.00    -0.258 OA
ENDBRANCH  23  24
ENDBRANCH  16  18
ENDBRANCH  14  16
ENDBRANCH  11  12
ENDBRANCH   6  11
ENDBRANCH   5   6
ENDBRANCH   3   5
ENDBRANCH   2   3
ENDBRANCH   1   2
BRANCH   1  27
ATOM     27  C   UNL A   1      37.062  22.917  24.862  1.00  0.00     0.202 C 
BRANCH  27  28
ATOM     28  O   UNL A   1      38.100  21.946  25.029  1.00  0.00    -0.374 OA
BRANCH  28  29
ATOM     29  C   UNL A   1      38.893  22.051  26.206  1.00  0.00     0.202 C 
BRANCH  29  30
ATOM     30  C   UNL A   1      40.045  23.067  26.211  1.00  0.00     0.261 C 
BRANCH  30  31
ATOM     31  O   UNL A   1      39.622  24.386  26.535  1.00  0.00    -0.460 OA
BRANCH  31  32
ATOM     32  C   UNL A   1      40.584  25.313  26.334  1.00  0.00     0.338 C 
ATOM     33  O   UNL A   1      41.191  25.558  25.303  1.00  0.00    -0.246 OA
BRANCH  32  34
ATOM     34  C   UNL A   1      40.663  26.140  27.539  1.00  0.00     0.060 A 
ATOM     35  C   UNL A   1      39.647  25.977  28.483  1.00  0.00     0.016 A 
ATOM     36  C   UNL A   1      41.711  27.043  27.735  1.00  0.00     0.016 A 
ATOM     37  C   UNL A   1      39.643  26.770  29.617  1.00  0.00     0.010 A 
ATOM     38  C   UNL A   1      41.705  27.841  28.875  1.00  0.00     0.010 A 
ATOM     39  C   UNL A   1      40.647  27.730  29.793  1.00  0.00    -0.014 A 
BRANCH  39  40
ATOM     40  C   UNL A   1      40.494  28.719  30.875  1.00  0.00     0.031 A 
ATOM     41  C   UNL A   1      41.380  28.602  32.079  1.00  0.00     0.074 A 
ATOM     42  C   UNL A   1      39.615  29.725  30.734  1.00  0.00     0.049 A 
ATOM     43  N   UNL A   1      41.431  29.358  33.141  1.00  0.00    -0.248 NA
ATOM     44  C   UNL A   1      42.337  27.481  32.091  1.00  0.00     0.031 C 
ATOM     45  C   UNL A   1      38.739  29.921  29.577  1.00  0.00     0.029 A 
ATOM     46  N   UNL A   1      39.315  30.769  31.564  1.00  0.00    -0.354 N 
ATOM     47  C   UNL A   1      42.417  28.805  33.948  1.00  0.00     0.074 A 
ATOM     48  C   UNL A   1      42.918  27.630  33.272  1.00  0.00     0.031 C 
ATOM     49  C   UNL A   1      37.994  31.021  29.777  1.00  0.00     0.029 A 
ATOM     50  C   UNL A   1      38.316  31.582  31.085  1.00  0.00     0.049 A 
ATOM     51  H   UNL A   1      39.771  30.923  32.423  1.00  0.00     0.167 HD
ATOM     52  C   UNL A   1      42.865  29.251  35.144  1.00  0.00     0.037 A 
ATOM     53  C   UNL A   1      37.721  32.644  31.659  1.00  0.00     0.037 A 
ATOM     54  C   UNL A   1      42.350  30.431  35.788  1.00  0.00     0.049 A 
ATOM     55  C   UNL A   1      38.205  33.089  33.014  1.00  0.00     0.074 A 
ATOM     56  C   UNL A   1      42.741  30.996  36.987  1.00  0.00     0.029 A 
ATOM     57  N   UNL A   1      41.322  31.220  35.288  1.00  0.00    -0.354 N 
ATOM     58  N   UNL A   1      39.163  32.581  33.754  1.00  0.00    -0.248 NA
ATOM     59  C   UNL A   1      37.537  34.252  33.608  1.00  0.00     0.031 C 
ATOM     60  C   UNL A   1      41.909  32.090  37.242  1.00  0.00     0.029 A 
ATOM     61  C   UNL A   1      41.043  32.248  36.170  1.00  0.00     0.049 A 
ATOM     62  H   UNL A   1      40.861  31.069  34.431  1.00  0.00     0.167 HD
ATOM     63  C   UNL A   1      39.230  33.376  34.891  1.00  0.00     0.074 A 
ATOM     64  C   UNL A   1      38.226  34.411  34.730  1.00  0.00     0.031 C 
ATOM     65  C   UNL A   1      40.039  33.265  35.975  1.00  0.00     0.037 A 
BRANCH  52  66
ATOM     66  C   UNL A   1      43.934  28.457  35.843  1.00  0.00     0.058 A 
ATOM     67  C   UNL A   1      43.627  27.392  36.705  1.00  0.00     0.135 A 
ATOM     68  C   UNL A   1      45.289  28.734  35.603  1.00  0.00     0.135 A 
ATOM     69  F   UNL A   1      42.348  27.099  36.991  1.00  0.00    -0.206 F 
ATOM     70  C   UNL A   1      44.625  26.634  37.308  1.00  0.00     0.059 A 
ATOM     71  C   UNL A   1      46.304  27.971  36.173  1.00  0.00     0.059 A 
ATOM     72  F   UNL A   1      45.639  29.748  34.797  1.00  0.00    -0.206 F 
ATOM     73  C   UNL A   1      45.962  26.926  37.029  1.00  0.00     0.060 A 
BRANCH  73  74
ATOM     74  S   UNL A   1      47.245  25.905  37.785  1.00  0.00     0.124 S 
ATOM     75  O   UNL A   1      47.816  25.241  36.617  1.00  0.00    -0.237 OA
ATOM     76  O   UNL A   1      48.095  26.902  38.426  1.00  0.00    -0.237 OA
ATOM     77  O   UNL A   1      46.501  25.039  38.694  1.00  0.00    -0.744 OA
ENDBRANCH  73  74
ENDBRANCH  52  66
BRANCH  53  78
ATOM     78  C   UNL A   1      36.596  33.331  30.970  1.00  0.00     0.058 A 
ATOM     79  C   UNL A   1      35.262  33.091  31.327  1.00  0.00     0.135 A 
ATOM     80  C   UNL A   1      36.838  34.246  29.932  1.00  0.00     0.135 A 
ATOM     81  F   UNL A   1      34.977  32.225  32.311  1.00  0.00    -0.206 F 
ATOM     82  C   UNL A   1      34.207  33.710  30.664  1.00  0.00     0.059 A 
ATOM     83  C   UNL A   1      35.801  34.901  29.275  1.00  0.00     0.059 A 
ATOM     84  F   UNL A   1      38.096  34.527  29.561  1.00  0.00    -0.206 F 
ATOM     85  C   UNL A   1      34.487  34.615  29.639  1.00  0.00     0.060 A 
BRANCH  85  86
ATOM     86  S   UNL A   1      33.112  35.433  28.802  1.00  0.00     0.124 S 
ATOM     87  O   UNL A   1      33.814  36.389  27.953  1.00  0.00    -0.237 OA
ATOM     88  O   UNL A   1      32.468  34.319  28.114  1.00  0.00    -0.237 OA
ATOM     89  O   UNL A   1      32.345  36.009  29.903  1.00  0.00    -0.744 OA
ENDBRANCH  85  86
ENDBRANCH  53  78
BRANCH  65  90
ATOM     90  C   UNL A   1      39.893  34.306  37.050  1.00  0.00     0.058 A 
ATOM     91  C   UNL A   1      40.534  35.550  36.963  1.00  0.00     0.135 A 
ATOM     92  C   UNL A   1      39.057  34.070  38.154  1.00  0.00     0.135 A 
ATOM     93  F   UNL A   1      41.347  35.822  35.930  1.00  0.00    -0.206 F 
ATOM     94  C   UNL A   1      40.375  36.517  37.949  1.00  0.00     0.059 A 
ATOM     95  C   UNL A   1      38.856  35.036  39.133  1.00  0.00     0.059 A 
ATOM     96  F   UNL A   1      38.411  32.900  38.278  1.00  0.00    -0.206 F 
ATOM     97  C   UNL A   1      39.530  36.251  39.029  1.00  0.00     0.060 A 
BRANCH  97  98
ATOM     98  S   UNL A   1      39.311  37.527  40.286  1.00  0.00     0.124 S 
ATOM     99  O   UNL A   1      40.651  38.099  40.360  1.00  0.00    -0.237 OA
ATOM    100  O   UNL A   1      38.288  38.379  39.689  1.00  0.00    -0.237 OA
ATOM    101  O   UNL A   1      38.884  36.775  41.463  1.00  0.00    -0.744 OA
ENDBRANCH  97  98
ENDBRANCH  65  90
ENDBRANCH  39  40
ENDBRANCH  32  34
ENDBRANCH  31  32
ENDBRANCH  30  31
ENDBRANCH  29  30
ENDBRANCH  28  29
ENDBRANCH  27  28
ENDBRANCH   1  27
TORSDOF 23
ENDMDL
MODEL 2
REMARK VINA RESULT:     -10.7      6.979     12.654
REMARK SMILES O=C(CC1(CC(=O)OCCOCCOC(=O)c2ccc(-c3c4nc(c(-c5c(F)cc(S(=O)(=O)[O-])cc5F)c5ccc([nH]5)c(-c5c(F)cc(S(=O)(=O)[O-])cc5F)c5nc(c(-c6c(F)cc(S(=O)(=O)[O-])cc6F)c6ccc3[nH]6)C=C5)C=C4)cc2)CCCC1)NNc1ccc([N+](=O)[O-])cc1
REMARK SMILES IDX 9 1 8 2 6 3 7 4 5 5 4 6 83 7 86 8 84 9 85 10 3 11 2 12 1 13
REMARK SMILES IDX 87 14 88 16 89 18 90 19 97 20 91 21 96 22 92 23 93 24 94 25
REMARK SMILES IDX 95 26 10 27 11 28 12 29 13 30 14 31 15 32 16 33 17 34 18 35
REMARK SMILES IDX 82 36 19 37 81 38 20 39 21 40 22 41 75 42 23 43 80 44 74 45
REMARK SMILES IDX 76 46 24 47 79 48 73 49 72 50 25 52 59 53 38 54 58 55 39 56
REMARK SMILES IDX 42 57 57 58 77 59 40 60 41 61 56 63 78 64 43 65 26 66 27 67
REMARK SMILES IDX 36 68 28 69 29 70 35 71 37 72 30 73 31 74 32 75 33 76 34 77
REMARK SMILES IDX 60 78 61 79 70 80 62 81 63 82 69 83 71 84 64 85 65 86 66 87
REMARK SMILES IDX 67 88 68 89 44 90 45 91 54 92 46 93 47 94 53 95 55 96 48 97
REMARK SMILES IDX 49 98 50 99 51 100 52 101
REMARK H PARENT 87 15 88 17 76 51 42 62
REMARK Flexibility Score: inf
ROOT
ATOM      1  C   UNL A   1      32.911  27.368  26.707  1.00  0.00     0.261 C 
ENDROOT
BRANCH   1   2
ATOM      2  O   UNL A   1      31.686  26.614  26.553  1.00  0.00    -0.463 OA
BRANCH   2   3
ATOM      3  C   UNL A   1      31.823  25.277  26.393  1.00  0.00     0.306 C 
ATOM      4  O   UNL A   1      31.062  24.439  26.861  1.00  0.00    -0.252 OA
BRANCH   3   5
ATOM      5  C   UNL A   1      33.115  24.868  25.706  1.00  0.00     0.130 C 
BRANCH   5   6
ATOM      6  C   UNL A   1      33.225  24.581  24.179  1.00  0.00    -0.010 C 
ATOM      7  C   UNL A   1      32.584  23.176  23.932  1.00  0.00     0.008 C 
ATOM      8  C   UNL A   1      34.673  24.234  23.751  1.00  0.00     0.008 C 
ATOM      9  C   UNL A   1      33.593  22.150  24.430  1.00  0.00     0.001 C 
ATOM     10  C   UNL A   1      34.951  22.844  24.338  1.00  0.00     0.001 C 
BRANCH   6  11
ATOM     11  C   UNL A   1      32.504  25.534  23.169  1.00  0.00     0.109 C 
BRANCH  11  12
ATOM     12  C   UNL A   1      31.029  25.874  23.221  1.00  0.00     0.238 C 
ATOM     13  O   UNL A   1      30.163  24.999  23.170  1.00  0.00    -0.273 OA
ATOM     14  N   UNL A   1      30.712  27.190  23.427  1.00  0.00    -0.270 N 
ATOM     15  H   UNL A   1      31.406  27.860  23.622  1.00  0.00     0.191 HD
BRANCH  14  16
ATOM     16  N   UNL A   1      29.377  27.539  23.349  1.00  0.00    -0.299 N 
ATOM     17  H   UNL A   1      28.686  26.843  23.426  1.00  0.00     0.188 HD
BRANCH  16  18
ATOM     18  C   UNL A   1      28.998  28.869  23.161  1.00  0.00     0.055 A 
ATOM     19  C   UNL A   1      29.735  29.870  23.814  1.00  0.00     0.034 A 
ATOM     20  C   UNL A   1      27.989  29.270  22.274  1.00  0.00     0.034 A 
ATOM     21  C   UNL A   1      29.509  31.225  23.552  1.00  0.00     0.088 A 
ATOM     22  C   UNL A   1      27.745  30.618  22.004  1.00  0.00     0.088 A 
ATOM     23  C   UNL A   1      28.527  31.591  22.625  1.00  0.00     0.269 A 
BRANCH  23  24
ATOM     24  N   UNL A   1      28.344  33.001  22.270  1.00  0.00     0.062 N 
ATOM     25  O   UNL A   1      27.727  33.258  21.226  1.00  0.00    -0.258 OA
ATOM     26  O   UNL A   1      28.790  33.857  23.048  1.00  0.00    -0.258 OA
ENDBRANCH  23  24
ENDBRANCH  16  18
ENDBRANCH  14  16
ENDBRANCH  11  12
ENDBRANCH   6  11
ENDBRANCH   5   6
ENDBRANCH   3   5
ENDBRANCH   2   3
ENDBRANCH   1   2
BRANCH   1  27
ATOM     27  C   UNL A   1      32.640  28.795  27.191  1.00  0.00     0.202 C 
BRANCH  27  28
ATOM     28  O   UNL A   1      33.574  29.804  26.795  1.00  0.00    -0.374 OA
BRANCH  28  29
ATOM     29  C   UNL A   1      33.791  30.871  27.710  1.00  0.00     0.202 C 
BRANCH  29  30
ATOM     30  C   UNL A   1      35.185  31.008  28.340  1.00  0.00     0.261 C 
BRANCH  30  31
ATOM     31  O   UNL A   1      35.797  29.753  28.613  1.00  0.00    -0.460 OA
BRANCH  31  32
ATOM     32  C   UNL A   1      36.470  29.737  29.784  1.00  0.00     0.338 C 
ATOM     33  O   UNL A   1      36.013  29.687  30.915  1.00  0.00    -0.246 OA
BRANCH  32  34
ATOM     34  C   UNL A   1      37.895  29.598  29.477  1.00  0.00     0.060 A 
ATOM     35  C   UNL A   1      38.250  29.586  28.126  1.00  0.00     0.016 A 
ATOM     36  C   UNL A   1      38.851  29.491  30.489  1.00  0.00     0.016 A 
ATOM     37  C   UNL A   1      39.576  29.405  27.776  1.00  0.00     0.010 A 
ATOM     38  C   UNL A   1      40.184  29.307  30.136  1.00  0.00     0.010 A 
ATOM     39  C   UNL A   1      40.537  29.224  28.778  1.00  0.00    -0.014 A 
BRANCH  39  40
ATOM     40  C   UNL A   1      41.892  28.796  28.387  1.00  0.00     0.031 A 
ATOM     41  C   UNL A   1      42.982  29.825  28.354  1.00  0.00     0.074 A 
ATOM     42  C   UNL A   1      42.128  27.500  28.127  1.00  0.00     0.049 A 
ATOM     43  N   UNL A   1      44.244  29.679  28.051  1.00  0.00    -0.248 NA
ATOM     44  C   UNL A   1      42.603  31.205  28.706  1.00  0.00     0.031 C 
ATOM     45  C   UNL A   1      41.123  26.436  28.168  1.00  0.00     0.029 A 
ATOM     46  N   UNL A   1      43.285  26.857  27.781  1.00  0.00    -0.354 N 
ATOM     47  C   UNL A   1      44.806  30.944  28.170  1.00  0.00     0.074 A 
ATOM     48  C   UNL A   1      43.747  31.854  28.540  1.00  0.00     0.031 C 
ATOM     49  C   UNL A   1      41.710  25.270  27.853  1.00  0.00     0.029 A 
ATOM     50  C   UNL A   1      43.119  25.512  27.555  1.00  0.00     0.049 A 
ATOM     51  H   UNL A   1      44.153  27.314  27.702  1.00  0.00     0.167 HD
ATOM     52  C   UNL A   1      46.098  31.302  27.993  1.00  0.00     0.037 A 
ATOM     53  C   UNL A   1      44.007  24.594  27.132  1.00  0.00     0.037 A 
ATOM     54  C   UNL A   1      47.133  30.369  27.632  1.00  0.00     0.049 A 
ATOM     55  C   UNL A   1      45.428  25.031  26.895  1.00  0.00     0.074 A 
ATOM     56  C   UNL A   1      48.482  30.609  27.450  1.00  0.00     0.029 A 
ATOM     57  N   UNL A   1      46.928  29.017  27.388  1.00  0.00    -0.354 N 
ATOM     58  N   UNL A   1      45.959  26.222  27.046  1.00  0.00    -0.248 NA
ATOM     59  C   UNL A   1      46.371  24.004  26.439  1.00  0.00     0.031 C 
ATOM     60  C   UNL A   1      49.081  29.416  27.035  1.00  0.00     0.029 A 
ATOM     61  C   UNL A   1      48.120  28.417  27.024  1.00  0.00     0.049 A 
ATOM     62  H   UNL A   1      46.062  28.555  27.463  1.00  0.00     0.167 HD
ATOM     63  C   UNL A   1      47.305  26.084  26.726  1.00  0.00     0.074 A 
ATOM     64  C   UNL A   1      47.507  24.687  26.393  1.00  0.00     0.031 C 
ATOM     65  C   UNL A   1      48.286  27.021  26.703  1.00  0.00     0.037 A 
BRANCH  52  66
ATOM     66  C   UNL A   1      46.461  32.752  28.157  1.00  0.00     0.058 A 
ATOM     67  C   UNL A   1      46.368  33.668  27.096  1.00  0.00     0.135 A 
ATOM     68  C   UNL A   1      46.857  33.244  29.411  1.00  0.00     0.135 A 
ATOM     69  F   UNL A   1      46.020  33.249  25.869  1.00  0.00    -0.206 F 
ATOM     70  C   UNL A   1      46.660  35.017  27.272  1.00  0.00     0.059 A 
ATOM     71  C   UNL A   1      47.127  34.593  29.617  1.00  0.00     0.059 A 
ATOM     72  F   UNL A   1      46.974  32.411  30.456  1.00  0.00    -0.206 F 
ATOM     73  C   UNL A   1      47.031  35.472  28.539  1.00  0.00     0.060 A 
BRANCH  73  74
ATOM     74  S   UNL A   1      47.364  37.233  28.760  1.00  0.00     0.124 S 
ATOM     75  O   UNL A   1      47.556  37.314  30.205  1.00  0.00    -0.237 OA
ATOM     76  O   UNL A   1      48.562  37.424  27.949  1.00  0.00    -0.237 OA
ATOM     77  O   UNL A   1      46.156  37.875  28.253  1.00  0.00    -0.744 OA
ENDBRANCH  73  74
ENDBRANCH  52  66
BRANCH  53  78
ATOM     78  C   UNL A   1      43.572  23.193  26.886  1.00  0.00     0.058 A 
ATOM     79  C   UNL A   1      43.314  22.309  27.943  1.00  0.00     0.135 A 
ATOM     80  C   UNL A   1      43.409  22.708  25.578  1.00  0.00     0.135 A 
ATOM     81  F   UNL A   1      43.457  22.722  29.212  1.00  0.00    -0.206 F 
ATOM     82  C   UNL A   1      42.936  20.990  27.715  1.00  0.00     0.059 A 
ATOM     83  C   UNL A   1      43.002  21.403  25.325  1.00  0.00     0.059 A 
ATOM     84  F   UNL A   1      43.626  23.516  24.528  1.00  0.00    -0.206 F 
ATOM     85  C   UNL A   1      42.782  20.546  26.401  1.00  0.00     0.060 A 
BRANCH  85  86
ATOM     86  S   UNL A   1      42.266  18.839  26.115  1.00  0.00     0.124 S 
ATOM     87  O   UNL A   1      40.865  19.015  25.749  1.00  0.00    -0.237 OA
ATOM     88  O   UNL A   1      43.162  18.426  25.040  1.00  0.00    -0.237 OA
ATOM     89  O   UNL A   1      42.507  18.196  27.404  1.00  0.00    -0.744 OA
ENDBRANCH  85  86
ENDBRANCH  53  78
BRANCH  65  90
ATOM     90  C   UNL A   1      49.669  26.557  26.337  1.00  0.00     0.058 A 
ATOM     91  C   UNL A   1      50.165  26.677  25.031  1.00  0.00     0.135 A 
ATOM     92  C   UNL A   1      50.524  26.035  27.322  1.00  0.00     0.135 A 
ATOM     93  F   UNL A   1      49.386  27.165  24.053  1.00  0.00    -0.206 F 
ATOM     94  C   UNL A   1      51.453  26.268  24.705  1.00  0.00     0.059 A 
ATOM     95  C   UNL A   1      51.827  25.653  27.026  1.00  0.00     0.059 A 
ATOM     96  F   UNL A   1      50.101  25.911  28.590  1.00  0.00    -0.206 F 
ATOM     97  C   UNL A   1      52.278  25.760  25.712  1.00  0.00     0.060 A 
BRANCH  97  98
ATOM     98  S   UNL A   1      53.957  25.262  25.279  1.00  0.00     0.124 S 
ATOM     99  O   UNL A   1      54.674  25.541  26.519  1.00  0.00    -0.237 OA
ATOM    100  O   UNL A   1      53.787  23.851  24.948  1.00  0.00    -0.237 OA
ATOM    101  O   UNL A   1      54.291  26.130  24.153  1.00  0.00    -0.744 OA
ENDBRANCH  97  98
ENDBRANCH  65  90
ENDBRANCH  39  40
ENDBRANCH  32  34
ENDBRANCH  31  32
ENDBRANCH  30  31
ENDBRANCH  29  30
ENDBRANCH  28  29
ENDBRANCH  27  28
ENDBRANCH   1  27
TORSDOF 23
ENDMDL
MODEL 3
REMARK VINA RESULT:     -10.6      6.262      8.353
REMARK SMILES O=C(CC1(CC(=O)OCCOCCOC(=O)c2ccc(-c3c4nc(c(-c5c(F)cc(S(=O)(=O)[O-])cc5F)c5ccc([nH]5)c(-c5c(F)cc(S(=O)(=O)[O-])cc5F)c5nc(c(-c6c(F)cc(S(=O)(=O)[O-])cc6F)c6ccc3[nH]6)C=C5)C=C4)cc2)CCCC1)NNc1ccc([N+](=O)[O-])cc1
REMARK SMILES IDX 9 1 8 2 6 3 7 4 5 5 4 6 83 7 86 8 84 9 85 10 3 11 2 12 1 13
REMARK SMILES IDX 87 14 88 16 89 18 90 19 97 20 91 21 96 22 92 23 93 24 94 25
REMARK SMILES IDX 95 26 10 27 11 28 12 29 13 30 14 31 15 32 16 33 17 34 18 35
REMARK SMILES IDX 82 36 19 37 81 38 20 39 21 40 22 41 75 42 23 43 80 44 74 45
REMARK SMILES IDX 76 46 24 47 79 48 73 49 72 50 25 52 59 53 38 54 58 55 39 56
REMARK SMILES IDX 42 57 57 58 77 59 40 60 41 61 56 63 78 64 43 65 26 66 27 67
REMARK SMILES IDX 36 68 28 69 29 70 35 71 37 72 30 73 31 74 32 75 33 76 34 77
REMARK SMILES IDX 60 78 61 79 70 80 62 81 63 82 69 83 71 84 64 85 65 86 66 87
REMARK SMILES IDX 67 88 68 89 44 90 45 91 54 92 46 93 47 94 53 95 55 96 48 97
REMARK SMILES IDX 49 98 50 99 51 100 52 101
REMARK H PARENT 87 15 88 17 76 51 42 62
REMARK Flexibility Score: inf
ROOT
ATOM      1  C   UNL A   1      35.362  22.183  25.538  1.00  0.00     0.261 C 
ENDROOT
BRANCH   1   2
ATOM      2  O   UNL A   1      34.448  21.967  26.638  1.00  0.00    -0.463 OA
BRANCH   2   3
ATOM      3  C   UNL A   1      33.514  22.927  26.837  1.00  0.00     0.306 C 
ATOM      4  O   UNL A   1      32.417  22.735  27.347  1.00  0.00    -0.252 OA
BRANCH   3   5
ATOM      5  C   UNL A   1      33.868  24.269  26.218  1.00  0.00     0.130 C 
BRANCH   5   6
ATOM      6  C   UNL A   1      33.029  24.948  25.095  1.00  0.00    -0.010 C 
ATOM      7  C   UNL A   1      33.737  26.299  24.751  1.00  0.00     0.008 C 
ATOM      8  C   UNL A   1      31.699  25.535  25.632  1.00  0.00     0.008 C 
ATOM      9  C   UNL A   1      33.413  27.256  25.890  1.00  0.00     0.001 C 
ATOM     10  C   UNL A   1      32.100  26.746  26.482  1.00  0.00     0.001 C 
BRANCH   6  11
ATOM     11  C   UNL A   1      32.862  24.220  23.721  1.00  0.00     0.109 C 
BRANCH  11  12
ATOM     12  C   UNL A   1      32.043  22.963  23.514  1.00  0.00     0.238 C 
ATOM     13  O   UNL A   1      30.813  22.974  23.596  1.00  0.00    -0.273 OA
ATOM     14  N   UNL A   1      32.730  21.841  23.135  1.00  0.00    -0.270 N 
ATOM     15  H   UNL A   1      33.690  21.876  22.919  1.00  0.00     0.191 HD
BRANCH  14  16
ATOM     16  N   UNL A   1      32.020  20.657  23.066  1.00  0.00    -0.299 N 
ATOM     17  H   UNL A   1      31.101  20.660  22.712  1.00  0.00     0.188 HD
BRANCH  16  18
ATOM     18  C   UNL A   1      32.590  19.459  23.495  1.00  0.00     0.055 A 
ATOM     19  C   UNL A   1      32.854  19.299  24.864  1.00  0.00     0.034 A 
ATOM     20  C   UNL A   1      32.819  18.363  22.650  1.00  0.00     0.034 A 
ATOM     21  C   UNL A   1      33.281  18.073  25.383  1.00  0.00     0.088 A 
ATOM     22  C   UNL A   1      33.251  17.132  23.149  1.00  0.00     0.088 A 
ATOM     23  C   UNL A   1      33.454  16.985  24.521  1.00  0.00     0.269 A 
BRANCH  23  24
ATOM     24  N   UNL A   1      33.809  15.670  25.062  1.00  0.00     0.062 N 
ATOM     25  O   UNL A   1      32.907  14.824  25.164  1.00  0.00    -0.258 OA
ATOM     26  O   UNL A   1      34.995  15.467  25.358  1.00  0.00    -0.258 OA
ENDBRANCH  23  24
ENDBRANCH  16  18
ENDBRANCH  14  16
ENDBRANCH  11  12
ENDBRANCH   6  11
ENDBRANCH   5   6
ENDBRANCH   3   5
ENDBRANCH   2   3
ENDBRANCH   1   2
BRANCH   1  27
ATOM     27  C   UNL A   1      36.288  20.982  25.328  1.00  0.00     0.202 C 
BRANCH  27  28
ATOM     28  O   UNL A   1      37.602  21.254  24.831  1.00  0.00    -0.374 OA
BRANCH  28  29
ATOM     29  C   UNL A   1      38.674  21.144  25.760  1.00  0.00     0.202 C 
BRANCH  29  30
ATOM     30  C   UNL A   1      39.518  19.861  25.738  1.00  0.00     0.261 C 
BRANCH  30  31
ATOM     31  O   UNL A   1      40.480  19.810  26.785  1.00  0.00    -0.460 OA
BRANCH  31  32
ATOM     32  C   UNL A   1      41.742  19.642  26.335  1.00  0.00     0.338 C 
ATOM     33  O   UNL A   1      42.216  18.674  25.761  1.00  0.00    -0.246 OA
BRANCH  32  34
ATOM     34  C   UNL A   1      42.440  20.921  26.479  1.00  0.00     0.060 A 
ATOM     35  C   UNL A   1      42.648  21.382  27.782  1.00  0.00     0.016 A 
ATOM     36  C   UNL A   1      42.881  21.640  25.365  1.00  0.00     0.016 A 
ATOM     37  C   UNL A   1      43.256  22.609  27.976  1.00  0.00     0.010 A 
ATOM     38  C   UNL A   1      43.490  22.875  25.563  1.00  0.00     0.010 A 
ATOM     39  C   UNL A   1      43.639  23.375  26.868  1.00  0.00    -0.014 A 
BRANCH  39  40
ATOM     40  C   UNL A   1      44.060  24.770  27.087  1.00  0.00     0.031 A 
ATOM     41  C   UNL A   1      45.502  25.121  26.871  1.00  0.00     0.074 A 
ATOM     42  C   UNL A   1      43.143  25.695  27.414  1.00  0.00     0.049 A 
ATOM     43  N   UNL A   1      46.095  26.278  26.993  1.00  0.00    -0.248 NA
ATOM     44  C   UNL A   1      46.399  24.024  26.467  1.00  0.00     0.031 C 
ATOM     45  C   UNL A   1      41.716  25.434  27.612  1.00  0.00     0.029 A 
ATOM     46  N   UNL A   1      43.273  27.039  27.635  1.00  0.00    -0.354 N 
ATOM     47  C   UNL A   1      47.431  26.048  26.687  1.00  0.00     0.074 A 
ATOM     48  C   UNL A   1      47.572  24.638  26.406  1.00  0.00     0.031 C 
ATOM     49  C   UNL A   1      41.102  26.585  27.931  1.00  0.00     0.029 A 
ATOM     50  C   UNL A   1      42.097  27.652  27.993  1.00  0.00     0.049 A 
ATOM     51  H   UNL A   1      44.127  27.520  27.546  1.00  0.00     0.167 HD
ATOM     52  C   UNL A   1      48.442  26.944  26.639  1.00  0.00     0.037 A 
ATOM     53  C   UNL A   1      41.866  28.928  28.353  1.00  0.00     0.037 A 
ATOM     54  C   UNL A   1      48.267  28.346  26.917  1.00  0.00     0.049 A 
ATOM     55  C   UNL A   1      43.021  29.894  28.338  1.00  0.00     0.074 A 
ATOM     56  C   UNL A   1      49.211  29.355  26.876  1.00  0.00     0.029 A 
ATOM     57  N   UNL A   1      47.068  28.932  27.300  1.00  0.00    -0.354 N 
ATOM     58  N   UNL A   1      44.274  29.676  28.013  1.00  0.00    -0.248 NA
ATOM     59  C   UNL A   1      42.733  31.278  28.732  1.00  0.00     0.031 C 
ATOM     60  C   UNL A   1      48.596  30.539  27.293  1.00  0.00     0.029 A 
ATOM     61  C   UNL A   1      47.254  30.283  27.530  1.00  0.00     0.049 A 
ATOM     62  H   UNL A   1      46.211  28.456  27.393  1.00  0.00     0.167 HD
ATOM     63  C   UNL A   1      44.920  30.900  28.138  1.00  0.00     0.074 A 
ATOM     64  C   UNL A   1      43.912  31.857  28.551  1.00  0.00     0.031 C 
ATOM     65  C   UNL A   1      46.226  31.209  27.937  1.00  0.00     0.037 A 
BRANCH  52  66
ATOM     66  C   UNL A   1      49.819  26.443  26.304  1.00  0.00     0.058 A 
ATOM     67  C   UNL A   1      50.330  26.483  24.997  1.00  0.00     0.135 A 
ATOM     68  C   UNL A   1      50.662  25.963  27.319  1.00  0.00     0.135 A 
ATOM     69  F   UNL A   1      49.559  26.908  23.982  1.00  0.00    -0.206 F 
ATOM     70  C   UNL A   1      51.623  26.061  24.707  1.00  0.00     0.059 A 
ATOM     71  C   UNL A   1      51.969  25.562  27.058  1.00  0.00     0.059 A 
ATOM     72  F   UNL A   1      50.221  25.891  28.585  1.00  0.00    -0.206 F 
ATOM     73  C   UNL A   1      52.439  25.610  25.747  1.00  0.00     0.060 A 
BRANCH  73  74
ATOM     74  S   UNL A   1      54.130  25.107  25.362  1.00  0.00     0.124 S 
ATOM     75  O   UNL A   1      54.809  25.372  26.627  1.00  0.00    -0.237 OA
ATOM     76  O   UNL A   1      53.962  23.700  25.015  1.00  0.00    -0.237 OA
ATOM     77  O   UNL A   1      54.504  25.983  24.256  1.00  0.00    -0.744 OA
ENDBRANCH  73  74
ENDBRANCH  52  66
BRANCH  53  78
ATOM     78  C   UNL A   1      40.504  29.350  28.776  1.00  0.00     0.058 A 
ATOM     79  C   UNL A   1      40.195  29.583  30.124  1.00  0.00     0.135 A 
ATOM     80  C   UNL A   1      39.477  29.523  27.834  1.00  0.00     0.135 A 
ATOM     81  F   UNL A   1      41.140  29.429  31.065  1.00  0.00    -0.206 F 
ATOM     82  C   UNL A   1      38.914  29.949  30.526  1.00  0.00     0.059 A 
ATOM     83  C   UNL A   1      38.197  29.919  28.208  1.00  0.00     0.059 A 
ATOM     84  F   UNL A   1      39.721  29.330  26.528  1.00  0.00    -0.206 F 
ATOM     85  C   UNL A   1      37.921  30.114  29.559  1.00  0.00     0.060 A 
BRANCH  85  86
ATOM     86  S   UNL A   1      36.268  30.613  30.088  1.00  0.00     0.124 S 
ATOM     87  O   UNL A   1      36.038  29.716  31.213  1.00  0.00    -0.237 OA
ATOM     88  O   UNL A   1      36.466  32.020  30.420  1.00  0.00    -0.237 OA
ATOM     89  O   UNL A   1      35.449  30.366  28.904  1.00  0.00    -0.744 OA
ENDBRANCH  85  86
ENDBRANCH  53  78
BRANCH  65  90
ATOM     90  C   UNL A   1      46.628  32.645  28.129  1.00  0.00     0.058 A 
ATOM     91  C   UNL A   1      47.205  33.095  29.325  1.00  0.00     0.135 A 
ATOM     92  C   UNL A   1      46.481  33.568  27.080  1.00  0.00     0.135 A 
ATOM     93  F   UNL A   1      47.363  32.254  30.359  1.00  0.00    -0.206 F 
ATOM     94  C   UNL A   1      47.596  34.420  29.487  1.00  0.00     0.059 A 
ATOM     95  C   UNL A   1      46.897  34.887  27.208  1.00  0.00     0.059 A 
ATOM     96  F   UNL A   1      45.946  33.184  25.910  1.00  0.00    -0.206 F 
ATOM     97  C   UNL A   1      47.441  35.308  28.420  1.00  0.00     0.060 A 
BRANCH  97  98
ATOM     98  S   UNL A   1      47.981  37.015  28.635  1.00  0.00     0.124 S 
ATOM     99  O   UNL A   1      46.721  37.686  28.934  1.00  0.00    -0.237 OA
ATOM    100  O   UNL A   1      48.922  36.907  29.745  1.00  0.00    -0.237 OA
ATOM    101  O   UNL A   1      48.578  37.349  27.344  1.00  0.00    -0.744 OA
ENDBRANCH  97  98
ENDBRANCH  65  90
ENDBRANCH  39  40
ENDBRANCH  32  34
ENDBRANCH  31  32
ENDBRANCH  30  31
ENDBRANCH  29  30
ENDBRANCH  28  29
ENDBRANCH  27  28
ENDBRANCH   1  27
TORSDOF 23
ENDMDL
