MODEL 1
REMARK VINA RESULT:      -9.2      0.000      0.000
REMARK SMILES C=CC[N@@H+](CC(=O)OCCOCCOC(=O)c1ccc(-c2c3nc(c(-c4c(F)cc(S(=O)(=O)[O-])cc4F)c4ccc([nH]4)c(-c4c(F)cc(S(=O)(=O)[O-])cc4F)c4nc(c(-c5c(F)cc(S(=O)(=O)[O-])cc5F)c5ccc2[nH]5)C=C4)C=C3)cc1)C[C@H]1C[N@@H+](C(C)C)CCO1
REMARK SMILES IDX 10 1 9 2 8 3 6 4 7 5 5 6 4 7 3 9 2 10 1 11 83 12 84 13 85 14
REMARK SMILES IDX 92 15 86 16 91 17 90 18 87 20 88 21 89 22 11 23 12 24 13 25
REMARK SMILES IDX 14 26 15 27 16 28 17 29 18 30 82 31 19 32 81 33 20 34 21 35
REMARK SMILES IDX 22 36 75 37 23 38 80 39 74 40 76 41 24 42 79 43 73 44 72 45
REMARK SMILES IDX 25 47 59 48 38 49 58 50 39 51 42 52 57 53 77 54 40 55 41 56
REMARK SMILES IDX 56 58 78 59 43 60 26 61 27 62 36 63 28 64 29 65 35 66 37 67
REMARK SMILES IDX 30 68 31 69 32 70 33 71 34 72 60 73 61 74 70 75 62 76 63 77
REMARK SMILES IDX 69 78 71 79 64 80 65 81 66 82 67 83 68 84 44 85 45 86 54 87
REMARK SMILES IDX 46 88 47 89 53 90 55 91 48 92 49 93 50 94 51 95 52 96
REMARK H PARENT 4 8 86 19 76 46 42 57
REMARK Flexibility Score: inf
ROOT
ATOM      1  C   UNL A   1      37.611  22.811  25.308  1.00  0.00     0.202 C 
ENDROOT
BRANCH   1   2
ATOM      2  C   UNL A   1      36.420  22.320  24.486  1.00  0.00     0.261 C 
BRANCH   2   3
ATOM      3  O   UNL A   1      35.943  23.318  23.556  1.00  0.00    -0.459 OA
BRANCH   3   4
ATOM      4  C   UNL A   1      34.608  23.567  23.571  1.00  0.00     0.361 C 
ATOM      5  O   UNL A   1      33.952  23.862  22.575  1.00  0.00    -0.245 OA
BRANCH   4   6
ATOM      6  C   UNL A   1      34.002  23.608  24.968  1.00  0.00     0.386 C 
BRANCH   6   7
ATOM      7  N   UNL A   1      33.091  24.708  25.318  1.00  0.00    -0.320 N 
ATOM      8  H   UNL A   1      33.237  24.866  26.315  1.00  0.00     0.348 HD
BRANCH   7   9
ATOM      9  C   UNL A   1      31.682  24.356  25.398  1.00  0.00     0.290 C 
BRANCH   9  10
ATOM     10  C   UNL A   1      31.388  23.368  26.495  1.00  0.00     0.025 C 
ATOM     11  C   UNL A   1      30.152  23.014  26.875  1.00  0.00     0.010 C 
ENDBRANCH   9  10
ENDBRANCH   7   9
BRANCH   7  12
ATOM     12  C   UNL A   1      33.499  26.049  24.895  1.00  0.00     0.301 C 
BRANCH  12  13
ATOM     13  C   UNL A   1      33.575  27.235  25.890  1.00  0.00     0.228 C 
ATOM     14  C   UNL A   1      33.689  28.615  25.229  1.00  0.00     0.300 C 
ATOM     15  O   UNL A   1      32.439  27.108  26.772  1.00  0.00    -0.361 OA
ATOM     16  N   UNL A   1      32.461  29.403  25.114  1.00  0.00    -0.329 N 
ATOM     17  C   UNL A   1      31.881  28.303  27.326  1.00  0.00     0.222 C 
ATOM     18  C   UNL A   1      31.908  29.569  26.453  1.00  0.00     0.291 C 
ATOM     19  H   UNL A   1      32.672  30.334  24.754  1.00  0.00     0.348 HD
BRANCH  16  20
ATOM     20  C   UNL A   1      31.537  28.932  24.071  1.00  0.00     0.177 C 
ATOM     21  C   UNL A   1      30.233  29.711  23.860  1.00  0.00     0.075 C 
ATOM     22  C   UNL A   1      32.314  28.900  22.749  1.00  0.00     0.075 C 
ENDBRANCH  16  20
ENDBRANCH  12  13
ENDBRANCH   7  12
ENDBRANCH   6   7
ENDBRANCH   4   6
ENDBRANCH   3   4
ENDBRANCH   2   3
ENDBRANCH   1   2
BRANCH   1  23
ATOM     23  O   UNL A   1      38.544  21.785  25.652  1.00  0.00    -0.374 OA
BRANCH  23  24
ATOM     24  C   UNL A   1      38.150  20.451  25.330  1.00  0.00     0.202 C 
BRANCH  24  25
ATOM     25  C   UNL A   1      39.315  19.452  25.376  1.00  0.00     0.261 C 
BRANCH  25  26
ATOM     26  O   UNL A   1      40.223  19.771  26.451  1.00  0.00    -0.460 OA
BRANCH  26  27
ATOM     27  C   UNL A   1      41.524  19.469  26.211  1.00  0.00     0.338 C 
ATOM     28  O   UNL A   1      41.960  18.415  25.784  1.00  0.00    -0.246 OA
BRANCH  27  29
ATOM     29  C   UNL A   1      42.352  20.688  26.341  1.00  0.00     0.060 A 
ATOM     30  C   UNL A   1      42.286  21.384  27.552  1.00  0.00     0.016 A 
ATOM     31  C   UNL A   1      43.117  21.193  25.287  1.00  0.00     0.016 A 
ATOM     32  C   UNL A   1      42.941  22.610  27.691  1.00  0.00     0.010 A 
ATOM     33  C   UNL A   1      43.811  22.402  25.445  1.00  0.00     0.010 A 
ATOM     34  C   UNL A   1      43.683  23.151  26.628  1.00  0.00    -0.014 A 
BRANCH  34  35
ATOM     35  C   UNL A   1      44.165  24.560  26.718  1.00  0.00     0.031 A 
ATOM     36  C   UNL A   1      43.203  25.650  27.128  1.00  0.00     0.074 A 
ATOM     37  C   UNL A   1      45.461  24.870  26.520  1.00  0.00     0.049 A 
ATOM     38  N   UNL A   1      43.442  26.914  27.381  1.00  0.00    -0.248 NA
ATOM     39  C   UNL A   1      41.788  25.272  27.270  1.00  0.00     0.031 C 
ATOM     40  C   UNL A   1      46.505  23.930  26.114  1.00  0.00     0.029 A 
ATOM     41  N   UNL A   1      46.125  26.068  26.651  1.00  0.00    -0.354 N 
ATOM     42  C   UNL A   1      42.214  27.474  27.716  1.00  0.00     0.074 A 
ATOM     43  C   UNL A   1      41.224  26.429  27.580  1.00  0.00     0.031 C 
ATOM     44  C   UNL A   1      47.680  24.581  26.050  1.00  0.00     0.029 A 
ATOM     45  C   UNL A   1      47.474  25.988  26.396  1.00  0.00     0.049 A 
ATOM     46  H   UNL A   1      45.675  26.906  26.903  1.00  0.00     0.167 HD
ATOM     47  C   UNL A   1      41.933  28.733  28.130  1.00  0.00     0.037 A 
ATOM     48  C   UNL A   1      48.436  26.932  26.441  1.00  0.00     0.037 A 
ATOM     49  C   UNL A   1      42.908  29.779  28.289  1.00  0.00     0.049 A 
ATOM     50  C   UNL A   1      48.095  28.337  26.870  1.00  0.00     0.074 A 
ATOM     51  C   UNL A   1      42.713  31.070  28.749  1.00  0.00     0.029 A 
ATOM     52  N   UNL A   1      44.255  29.661  27.990  1.00  0.00    -0.354 N 
ATOM     53  N   UNL A   1      46.940  28.827  27.250  1.00  0.00    -0.248 NA
ATOM     54  C   UNL A   1      49.194  29.315  26.887  1.00  0.00     0.031 C 
ATOM     55  C   UNL A   1      43.936  31.747  28.684  1.00  0.00     0.029 A 
ATOM     56  C   UNL A   1      44.900  30.864  28.229  1.00  0.00     0.049 A 
ATOM     57  H   UNL A   1      44.690  28.842  27.656  1.00  0.00     0.167 HD
ATOM     58  C   UNL A   1      47.179  30.159  27.577  1.00  0.00     0.074 A 
ATOM     59  C   UNL A   1      48.589  30.397  27.359  1.00  0.00     0.031 C 
ATOM     60  C   UNL A   1      46.306  31.097  28.020  1.00  0.00     0.037 A 
BRANCH  47  61
ATOM     61  C   UNL A   1      40.498  29.052  28.447  1.00  0.00     0.058 A 
ATOM     62  C   UNL A   1      40.030  29.101  29.770  1.00  0.00     0.135 A 
ATOM     63  C   UNL A   1      39.589  29.347  27.418  1.00  0.00     0.135 A 
ATOM     64  F   UNL A   1      40.856  28.812  30.789  1.00  0.00    -0.206 F 
ATOM     65  C   UNL A   1      38.705  29.403  30.061  1.00  0.00     0.059 A 
ATOM     66  C   UNL A   1      38.265  29.678  27.689  1.00  0.00     0.059 A 
ATOM     67  F   UNL A   1      39.984  29.316  26.136  1.00  0.00    -0.206 F 
ATOM     68  C   UNL A   1      37.829  29.689  29.013  1.00  0.00     0.060 A 
BRANCH  68  69
ATOM     69  S   UNL A   1      36.111  30.080  29.408  1.00  0.00     0.124 S 
ATOM     70  O   UNL A   1      36.114  31.536  29.302  1.00  0.00    -0.237 OA
ATOM     71  O   UNL A   1      35.380  29.371  28.363  1.00  0.00    -0.237 OA
ATOM     72  O   UNL A   1      35.943  29.549  30.757  1.00  0.00    -0.744 OA
ENDBRANCH  68  69
ENDBRANCH  47  61
BRANCH  48  73
ATOM     73  C   UNL A   1      49.838  26.580  26.084  1.00  0.00     0.058 A 
ATOM     74  C   UNL A   1      50.704  26.005  27.025  1.00  0.00     0.135 A 
ATOM     75  C   UNL A   1      50.340  26.828  24.798  1.00  0.00     0.135 A 
ATOM     76  F   UNL A   1      50.275  25.761  28.273  1.00  0.00    -0.206 F 
ATOM     77  C   UNL A   1      52.024  25.698  26.708  1.00  0.00     0.059 A 
ATOM     78  C   UNL A   1      51.648  26.509  24.449  1.00  0.00     0.059 A 
ATOM     79  F   UNL A   1      49.546  27.370  23.860  1.00  0.00    -0.206 F 
ATOM     80  C   UNL A   1      52.486  25.953  25.414  1.00  0.00     0.060 A 
BRANCH  80  81
ATOM     81  S   UNL A   1      54.185  25.507  24.995  1.00  0.00     0.124 S 
ATOM     82  O   UNL A   1      54.337  26.128  23.685  1.00  0.00    -0.237 OA
ATOM     83  O   UNL A   1      54.940  26.119  26.084  1.00  0.00    -0.237 OA
ATOM     84  O   UNL A   1      54.158  24.047  25.006  1.00  0.00    -0.744 OA
ENDBRANCH  80  81
ENDBRANCH  48  73
BRANCH  60  85
ATOM     85  C   UNL A   1      46.843  32.468  28.334  1.00  0.00     0.058 A 
ATOM     86  C   UNL A   1      46.847  33.496  27.379  1.00  0.00     0.135 A 
ATOM     87  C   UNL A   1      47.298  32.776  29.627  1.00  0.00     0.135 A 
ATOM     88  F   UNL A   1      46.427  33.255  26.127  1.00  0.00    -0.206 F 
ATOM     89  C   UNL A   1      47.297  34.776  27.688  1.00  0.00     0.059 A 
ATOM     90  C   UNL A   1      47.730  34.056  29.966  1.00  0.00     0.059 A 
ATOM     91  F   UNL A   1      47.306  31.834  30.583  1.00  0.00    -0.206 F 
ATOM     92  C   UNL A   1      47.734  35.047  28.987  1.00  0.00     0.060 A 
BRANCH  92  93
ATOM     93  S   UNL A   1      48.277  36.723  29.388  1.00  0.00     0.124 S 
ATOM     94  O   UNL A   1      47.738  36.893  30.732  1.00  0.00    -0.237 OA
ATOM     95  O   UNL A   1      49.731  36.612  29.298  1.00  0.00    -0.237 OA
ATOM     96  O   UNL A   1      47.652  37.539  28.352  1.00  0.00    -0.744 OA
ENDBRANCH  92  93
ENDBRANCH  60  85
ENDBRANCH  34  35
ENDBRANCH  27  29
ENDBRANCH  26  27
ENDBRANCH  25  26
ENDBRANCH  24  25
ENDBRANCH  23  24
ENDBRANCH   1  23
TORSDOF 23
ENDMDL
MODEL 2
REMARK VINA RESULT:      -9.0      6.492     11.472
REMARK SMILES C=CC[N@@H+](CC(=O)OCCOCCOC(=O)c1ccc(-c2c3nc(c(-c4c(F)cc(S(=O)(=O)[O-])cc4F)c4ccc([nH]4)c(-c4c(F)cc(S(=O)(=O)[O-])cc4F)c4nc(c(-c5c(F)cc(S(=O)(=O)[O-])cc5F)c5ccc2[nH]5)C=C4)C=C3)cc1)C[C@H]1C[N@@H+](C(C)C)CCO1
REMARK SMILES IDX 10 1 9 2 8 3 6 4 7 5 5 6 4 7 3 9 2 10 1 11 83 12 84 13 85 14
REMARK SMILES IDX 92 15 86 16 91 17 90 18 87 20 88 21 89 22 11 23 12 24 13 25
REMARK SMILES IDX 14 26 15 27 16 28 17 29 18 30 82 31 19 32 81 33 20 34 21 35
REMARK SMILES IDX 22 36 75 37 23 38 80 39 74 40 76 41 24 42 79 43 73 44 72 45
REMARK SMILES IDX 25 47 59 48 38 49 58 50 39 51 42 52 57 53 77 54 40 55 41 56
REMARK SMILES IDX 56 58 78 59 43 60 26 61 27 62 36 63 28 64 29 65 35 66 37 67
REMARK SMILES IDX 30 68 31 69 32 70 33 71 34 72 60 73 61 74 70 75 62 76 63 77
REMARK SMILES IDX 69 78 71 79 64 80 65 81 66 82 67 83 68 84 44 85 45 86 54 87
REMARK SMILES IDX 46 88 47 89 53 90 55 91 48 92 49 93 50 94 51 95 52 96
REMARK H PARENT 4 8 86 19 76 46 42 57
REMARK Flexibility Score: inf
ROOT
ATOM      1  C   UNL A   1      43.361  21.795  26.904  1.00  0.00     0.202 C 
ENDROOT
BRANCH   1   2
ATOM      2  C   UNL A   1      42.144  20.879  26.788  1.00  0.00     0.261 C 
BRANCH   2   3
ATOM      3  O   UNL A   1      41.265  21.265  25.707  1.00  0.00    -0.459 OA
BRANCH   3   4
ATOM      4  C   UNL A   1      39.938  21.305  25.994  1.00  0.00     0.361 C 
ATOM      5  O   UNL A   1      39.113  20.512  25.549  1.00  0.00    -0.245 OA
BRANCH   4   6
ATOM      6  C   UNL A   1      39.517  22.528  26.800  1.00  0.00     0.386 C 
BRANCH   6   7
ATOM      7  N   UNL A   1      38.731  23.581  26.141  1.00  0.00    -0.320 N 
ATOM      8  H   UNL A   1      38.976  23.515  25.153  1.00  0.00     0.348 HD
BRANCH   7   9
ATOM      9  C   UNL A   1      39.199  24.942  26.351  1.00  0.00     0.290 C 
BRANCH   9  10
ATOM     10  C   UNL A   1      39.814  25.144  27.710  1.00  0.00     0.025 C 
ATOM     11  C   UNL A   1      39.198  25.765  28.726  1.00  0.00     0.010 C 
ENDBRANCH   9  10
ENDBRANCH   7   9
BRANCH   7  12
ATOM     12  C   UNL A   1      37.304  23.306  25.956  1.00  0.00     0.301 C 
BRANCH  12  13
ATOM     13  C   UNL A   1      36.529  23.795  24.706  1.00  0.00     0.228 C 
ATOM     14  C   UNL A   1      36.059  22.676  23.769  1.00  0.00     0.300 C 
ATOM     15  O   UNL A   1      35.458  24.637  25.186  1.00  0.00    -0.361 OA
ATOM     16  N   UNL A   1      34.664  22.251  23.885  1.00  0.00    -0.329 N 
ATOM     17  C   UNL A   1      34.256  24.698  24.415  1.00  0.00     0.222 C 
ATOM     18  C   UNL A   1      33.820  23.421  23.676  1.00  0.00     0.291 C 
ATOM     19  H   UNL A   1      34.438  21.578  23.153  1.00  0.00     0.348 HD
BRANCH  16  20
ATOM     20  C   UNL A   1      34.379  21.434  25.075  1.00  0.00     0.177 C 
ATOM     21  C   UNL A   1      32.931  20.981  25.306  1.00  0.00     0.075 C 
ATOM     22  C   UNL A   1      35.281  20.196  25.009  1.00  0.00     0.075 C 
ENDBRANCH  16  20
ENDBRANCH  12  13
ENDBRANCH   7  12
ENDBRANCH   6   7
ENDBRANCH   4   6
ENDBRANCH   3   4
ENDBRANCH   2   3
ENDBRANCH   1   2
BRANCH   1  23
ATOM     23  O   UNL A   1      44.174  21.835  25.730  1.00  0.00    -0.374 OA
BRANCH  23  24
ATOM     24  C   UNL A   1      45.326  22.676  25.798  1.00  0.00     0.202 C 
BRANCH  24  25
ATOM     25  C   UNL A   1      45.082  24.078  25.224  1.00  0.00     0.261 C 
BRANCH  25  26
ATOM     26  O   UNL A   1      44.265  24.865  26.115  1.00  0.00    -0.460 OA
BRANCH  26  27
ATOM     27  C   UNL A   1      44.798  26.058  26.480  1.00  0.00     0.338 C 
ATOM     28  O   UNL A   1      45.744  26.622  25.959  1.00  0.00    -0.246 OA
BRANCH  27  29
ATOM     29  C   UNL A   1      43.932  26.705  27.489  1.00  0.00     0.060 A 
ATOM     30  C   UNL A   1      43.880  28.102  27.490  1.00  0.00     0.016 A 
ATOM     31  C   UNL A   1      43.246  25.980  28.466  1.00  0.00     0.016 A 
ATOM     32  C   UNL A   1      43.185  28.776  28.498  1.00  0.00     0.010 A 
ATOM     33  C   UNL A   1      42.512  26.658  29.451  1.00  0.00     0.010 A 
ATOM     34  C   UNL A   1      42.522  28.063  29.510  1.00  0.00    -0.014 A 
BRANCH  34  35
ATOM     35  C   UNL A   1      41.999  28.800  30.698  1.00  0.00     0.031 A 
ATOM     36  C   UNL A   1      42.756  28.738  32.003  1.00  0.00     0.074 A 
ATOM     37  C   UNL A   1      40.908  29.586  30.609  1.00  0.00     0.049 A 
ATOM     38  N   UNL A   1      42.543  29.395  33.117  1.00  0.00    -0.248 NA
ATOM     39  C   UNL A   1      43.903  27.817  32.067  1.00  0.00     0.031 C 
ATOM     40  C   UNL A   1      40.070  29.742  29.422  1.00  0.00     0.029 A 
ATOM     41  N   UNL A   1      40.327  30.417  31.539  1.00  0.00    -0.354 N 
ATOM     42  C   UNL A   1      43.526  28.972  34.004  1.00  0.00     0.074 A 
ATOM     43  C   UNL A   1      44.303  27.962  33.320  1.00  0.00     0.031 C 
ATOM     44  C   UNL A   1      39.096  30.630  29.687  1.00  0.00     0.029 A 
ATOM     45  C   UNL A   1      39.229  31.098  31.067  1.00  0.00     0.049 A 
ATOM     46  H   UNL A   1      40.665  30.514  32.458  1.00  0.00     0.167 HD
ATOM     47  C   UNL A   1      43.786  29.401  35.263  1.00  0.00     0.037 A 
ATOM     48  C   UNL A   1      38.426  31.999  31.669  1.00  0.00     0.037 A 
ATOM     49  C   UNL A   1      43.036  30.418  35.951  1.00  0.00     0.049 A 
ATOM     50  C   UNL A   1      38.711  32.437  33.084  1.00  0.00     0.074 A 
ATOM     51  C   UNL A   1      43.262  30.945  37.211  1.00  0.00     0.029 A 
ATOM     52  N   UNL A   1      41.916  31.056  35.446  1.00  0.00    -0.354 N 
ATOM     53  N   UNL A   1      39.689  32.076  33.879  1.00  0.00    -0.248 NA
ATOM     54  C   UNL A   1      37.788  33.416  33.678  1.00  0.00     0.031 C 
ATOM     55  C   UNL A   1      42.249  31.870  37.486  1.00  0.00     0.029 A 
ATOM     56  C   UNL A   1      41.422  31.954  36.380  1.00  0.00     0.049 A 
ATOM     57  H   UNL A   1      41.527  30.896  34.555  1.00  0.00     0.167 HD
ATOM     58  C   UNL A   1      39.514  32.802  35.054  1.00  0.00     0.074 A 
ATOM     59  C   UNL A   1      38.343  33.631  34.864  1.00  0.00     0.031 C 
ATOM     60  C   UNL A   1      40.261  32.785  36.186  1.00  0.00     0.037 A 
BRANCH  47  61
ATOM     61  C   UNL A   1      44.944  28.768  35.984  1.00  0.00     0.058 A 
ATOM     62  C   UNL A   1      46.245  29.286  35.882  1.00  0.00     0.135 A 
ATOM     63  C   UNL A   1      44.743  27.654  36.815  1.00  0.00     0.135 A 
ATOM     64  F   UNL A   1      46.492  30.341  35.090  1.00  0.00    -0.206 F 
ATOM     65  C   UNL A   1      47.313  28.704  36.556  1.00  0.00     0.059 A 
ATOM     66  C   UNL A   1      45.793  27.072  37.519  1.00  0.00     0.059 A 
ATOM     67  F   UNL A   1      43.519  27.121  36.948  1.00  0.00    -0.206 F 
ATOM     68  C   UNL A   1      47.077  27.595  37.371  1.00  0.00     0.060 A 
BRANCH  68  69
ATOM     69  S   UNL A   1      48.473  26.851  38.240  1.00  0.00     0.124 S 
ATOM     70  O   UNL A   1      47.810  25.808  39.016  1.00  0.00    -0.237 OA
ATOM     71  O   UNL A   1      49.314  26.386  37.141  1.00  0.00    -0.237 OA
ATOM     72  O   UNL A   1      49.019  27.960  39.017  1.00  0.00    -0.744 OA
ENDBRANCH  68  69
ENDBRANCH  47  61
BRANCH  48  73
ATOM     73  C   UNL A   1      37.270  32.573  30.929  1.00  0.00     0.058 A 
ATOM     74  C   UNL A   1      37.432  33.660  30.056  1.00  0.00     0.135 A 
ATOM     75  C   UNL A   1      35.977  32.054  31.092  1.00  0.00     0.135 A 
ATOM     76  F   UNL A   1      38.647  34.201  29.877  1.00  0.00    -0.206 F 
ATOM     77  C   UNL A   1      36.352  34.220  29.382  1.00  0.00     0.059 A 
ATOM     78  C   UNL A   1      34.885  32.581  30.412  1.00  0.00     0.059 A 
ATOM     79  F   UNL A   1      35.771  31.009  31.911  1.00  0.00    -0.206 F 
ATOM     80  C   UNL A   1      35.081  33.671  29.565  1.00  0.00     0.060 A 
BRANCH  80  81
ATOM     81  S   UNL A   1      33.692  34.371  28.648  1.00  0.00     0.124 S 
ATOM     82  O   UNL A   1      34.316  35.516  27.998  1.00  0.00    -0.237 OA
ATOM     83  O   UNL A   1      33.314  33.266  27.773  1.00  0.00    -0.237 OA
ATOM     84  O   UNL A   1      32.725  34.687  29.697  1.00  0.00    -0.744 OA
ENDBRANCH  80  81
ENDBRANCH  48  73
BRANCH  60  85
ATOM     85  C   UNL A   1      39.863  33.706  37.307  1.00  0.00     0.058 A 
ATOM     86  C   UNL A   1      38.977  33.302  38.316  1.00  0.00     0.135 A 
ATOM     87  C   UNL A   1      40.430  34.988  37.410  1.00  0.00     0.135 A 
ATOM     88  F   UNL A   1      38.403  32.089  38.265  1.00  0.00    -0.206 F 
ATOM     89  C   UNL A   1      38.652  34.140  39.380  1.00  0.00     0.059 A 
ATOM     90  C   UNL A   1      40.138  35.834  38.477  1.00  0.00     0.059 A 
ATOM     91  F   UNL A   1      41.293  35.423  36.478  1.00  0.00    -0.206 F 
ATOM     92  C   UNL A   1      39.241  35.404  39.452  1.00  0.00     0.060 A 
BRANCH  92  93
ATOM     93  S   UNL A   1      38.844  36.467  40.858  1.00  0.00     0.124 S 
ATOM     94  O   UNL A   1      37.804  35.693  41.527  1.00  0.00    -0.237 OA
ATOM     95  O   UNL A   1      40.122  36.550  41.559  1.00  0.00    -0.237 OA
ATOM     96  O   UNL A   1      38.398  37.708  40.231  1.00  0.00    -0.744 OA
ENDBRANCH  92  93
ENDBRANCH  60  85
ENDBRANCH  34  35
ENDBRANCH  27  29
ENDBRANCH  26  27
ENDBRANCH  25  26
ENDBRANCH  24  25
ENDBRANCH  23  24
ENDBRANCH   1  23
TORSDOF 23
ENDMDL
MODEL 3
REMARK VINA RESULT:      -8.4      2.135      8.594
REMARK SMILES C=CC[N@@H+](CC(=O)OCCOCCOC(=O)c1ccc(-c2c3nc(c(-c4c(F)cc(S(=O)(=O)[O-])cc4F)c4ccc([nH]4)c(-c4c(F)cc(S(=O)(=O)[O-])cc4F)c4nc(c(-c5c(F)cc(S(=O)(=O)[O-])cc5F)c5ccc2[nH]5)C=C4)C=C3)cc1)C[C@H]1C[N@@H+](C(C)C)CCO1
REMARK SMILES IDX 10 1 9 2 8 3 6 4 7 5 5 6 4 7 3 9 2 10 1 11 83 12 84 13 85 14
REMARK SMILES IDX 92 15 86 16 91 17 90 18 87 20 88 21 89 22 11 23 12 24 13 25
REMARK SMILES IDX 14 26 15 27 16 28 17 29 18 30 82 31 19 32 81 33 20 34 21 35
REMARK SMILES IDX 22 36 75 37 23 38 80 39 74 40 76 41 24 42 79 43 73 44 72 45
REMARK SMILES IDX 25 47 59 48 38 49 58 50 39 51 42 52 57 53 77 54 40 55 41 56
REMARK SMILES IDX 56 58 78 59 43 60 26 61 27 62 36 63 28 64 29 65 35 66 37 67
REMARK SMILES IDX 30 68 31 69 32 70 33 71 34 72 60 73 61 74 70 75 62 76 63 77
REMARK SMILES IDX 69 78 71 79 64 80 65 81 66 82 67 83 68 84 44 85 45 86 54 87
REMARK SMILES IDX 46 88 47 89 53 90 55 91 48 92 49 93 50 94 51 95 52 96
REMARK H PARENT 4 8 86 19 76 46 42 57
REMARK Flexibility Score: inf
ROOT
ATOM      1  C   UNL A   1      36.012  22.039  25.549  1.00  0.00     0.202 C 
ENDROOT
BRANCH   1   2
ATOM      2  C   UNL A   1      34.612  21.449  25.705  1.00  0.00     0.261 C 
BRANCH   2   3
ATOM      3  O   UNL A   1      33.806  21.622  24.518  1.00  0.00    -0.459 OA
BRANCH   3   4
ATOM      4  C   UNL A   1      32.511  21.223  24.605  1.00  0.00     0.361 C 
ATOM      5  O   UNL A   1      32.157  20.107  24.976  1.00  0.00    -0.245 OA
BRANCH   4   6
ATOM      6  C   UNL A   1      31.515  22.232  24.046  1.00  0.00     0.386 C 
BRANCH   6   7
ATOM      7  N   UNL A   1      31.788  23.668  24.208  1.00  0.00    -0.320 N 
ATOM      8  H   UNL A   1      32.790  23.767  24.044  1.00  0.00     0.348 HD
BRANCH   7   9
ATOM      9  C   UNL A   1      31.781  24.160  25.577  1.00  0.00     0.290 C 
BRANCH   9  10
ATOM     10  C   UNL A   1      30.401  24.515  26.062  1.00  0.00     0.025 C 
ATOM     11  C   UNL A   1      29.928  25.768  26.128  1.00  0.00     0.010 C 
ENDBRANCH   9  10
ENDBRANCH   7   9
BRANCH   7  12
ATOM     12  C   UNL A   1      31.372  24.536  23.104  1.00  0.00     0.301 C 
BRANCH  12  13
ATOM     13  C   UNL A   1      32.374  25.462  22.367  1.00  0.00     0.228 C 
ATOM     14  C   UNL A   1      31.733  26.668  21.671  1.00  0.00     0.300 C 
ATOM     15  O   UNL A   1      33.390  25.821  23.329  1.00  0.00    -0.361 OA
ATOM     16  N   UNL A   1      31.789  27.952  22.372  1.00  0.00    -0.329 N 
ATOM     17  C   UNL A   1      34.033  27.089  23.184  1.00  0.00     0.222 C 
ATOM     18  C   UNL A   1      33.190  28.255  22.639  1.00  0.00     0.291 C 
ATOM     19  H   UNL A   1      31.425  28.695  21.777  1.00  0.00     0.348 HD
BRANCH  16  20
ATOM     20  C   UNL A   1      30.861  28.059  23.508  1.00  0.00     0.177 C 
ATOM     21  C   UNL A   1      30.955  29.306  24.397  1.00  0.00     0.075 C 
ATOM     22  C   UNL A   1      29.437  27.954  22.950  1.00  0.00     0.075 C 
ENDBRANCH  16  20
ENDBRANCH  12  13
ENDBRANCH   7  12
ENDBRANCH   6   7
ENDBRANCH   4   6
ENDBRANCH   3   4
ENDBRANCH   2   3
ENDBRANCH   1   2
BRANCH   1  23
ATOM     23  O   UNL A   1      37.053  21.062  25.498  1.00  0.00    -0.374 OA
BRANCH  23  24
ATOM     24  C   UNL A   1      38.387  21.572  25.500  1.00  0.00     0.202 C 
BRANCH  24  25
ATOM     25  C   UNL A   1      39.430  20.527  25.920  1.00  0.00     0.261 C 
BRANCH  25  26
ATOM     26  O   UNL A   1      40.756  21.097  25.926  1.00  0.00    -0.460 OA
BRANCH  26  27
ATOM     27  C   UNL A   1      41.401  21.036  27.118  1.00  0.00     0.338 C 
ATOM     28  O   UNL A   1      41.879  20.043  27.638  1.00  0.00    -0.246 OA
BRANCH  27  29
ATOM     29  C   UNL A   1      41.640  22.404  27.628  1.00  0.00     0.060 A 
ATOM     30  C   UNL A   1      41.239  23.471  26.818  1.00  0.00     0.016 A 
ATOM     31  C   UNL A   1      42.307  22.652  28.830  1.00  0.00     0.016 A 
ATOM     32  C   UNL A   1      41.554  24.783  27.183  1.00  0.00     0.010 A 
ATOM     33  C   UNL A   1      42.581  23.973  29.216  1.00  0.00     0.010 A 
ATOM     34  C   UNL A   1      42.258  25.047  28.369  1.00  0.00    -0.014 A 
BRANCH  34  35
ATOM     35  C   UNL A   1      42.789  26.421  28.610  1.00  0.00     0.031 A 
ATOM     36  C   UNL A   1      44.214  26.745  28.228  1.00  0.00     0.074 A 
ATOM     37  C   UNL A   1      41.999  27.402  29.088  1.00  0.00     0.049 A 
ATOM     38  N   UNL A   1      44.833  27.900  28.243  1.00  0.00    -0.248 NA
ATOM     39  C   UNL A   1      45.053  25.626  27.771  1.00  0.00     0.031 C 
ATOM     40  C   UNL A   1      40.607  27.242  29.507  1.00  0.00     0.029 A 
ATOM     41  N   UNL A   1      42.254  28.740  29.286  1.00  0.00    -0.354 N 
ATOM     42  C   UNL A   1      46.125  27.646  27.794  1.00  0.00     0.074 A 
ATOM     43  C   UNL A   1      46.218  26.221  27.569  1.00  0.00     0.031 C 
ATOM     44  C   UNL A   1      40.125  28.437  29.892  1.00  0.00     0.029 A 
ATOM     45  C   UNL A   1      41.175  29.448  29.762  1.00  0.00     0.049 A 
ATOM     46  H   UNL A   1      43.130  29.152  29.105  1.00  0.00     0.167 HD
ATOM     47  C   UNL A   1      47.136  28.517  27.558  1.00  0.00     0.037 A 
ATOM     48  C   UNL A   1      41.041  30.758  30.053  1.00  0.00     0.037 A 
ATOM     49  C   UNL A   1      47.054  29.939  27.759  1.00  0.00     0.049 A 
ATOM     50  C   UNL A   1      42.191  31.705  29.817  1.00  0.00     0.074 A 
ATOM     51  C   UNL A   1      48.017  30.898  27.500  1.00  0.00     0.029 A 
ATOM     52  N   UNL A   1      45.953  30.606  28.270  1.00  0.00    -0.354 N 
ATOM     53  N   UNL A   1      43.380  31.454  29.326  1.00  0.00    -0.248 NA
ATOM     54  C   UNL A   1      41.974  33.117  30.166  1.00  0.00     0.031 C 
ATOM     55  C   UNL A   1      47.515  32.142  27.899  1.00  0.00     0.029 A 
ATOM     56  C   UNL A   1      46.223  31.963  28.361  1.00  0.00     0.049 A 
ATOM     57  H   UNL A   1      45.104  30.179  28.532  1.00  0.00     0.167 HD
ATOM     58  C   UNL A   1      44.041  32.678  29.281  1.00  0.00     0.074 A 
ATOM     59  C   UNL A   1      43.118  33.671  29.787  1.00  0.00     0.031 C 
ATOM     60  C   UNL A   1      45.299  32.952  28.856  1.00  0.00     0.037 A 
BRANCH  47  61
ATOM     61  C   UNL A   1      48.432  27.949  27.049  1.00  0.00     0.058 A 
ATOM     62  C   UNL A   1      49.541  27.779  27.892  1.00  0.00     0.135 A 
ATOM     63  C   UNL A   1      48.554  27.537  25.712  1.00  0.00     0.135 A 
ATOM     64  F   UNL A   1      49.481  28.170  29.175  1.00  0.00    -0.206 F 
ATOM     65  C   UNL A   1      50.737  27.247  27.421  1.00  0.00     0.059 A 
ATOM     66  C   UNL A   1      49.732  26.978  25.227  1.00  0.00     0.059 A 
ATOM     67  F   UNL A   1      47.523  27.677  24.864  1.00  0.00    -0.206 F 
ATOM     68  C   UNL A   1      50.822  26.851  26.085  1.00  0.00     0.060 A 
BRANCH  68  69
ATOM     69  S   UNL A   1      52.380  26.161  25.490  1.00  0.00     0.124 S 
ATOM     70  O   UNL A   1      53.343  26.816  26.370  1.00  0.00    -0.237 OA
ATOM     71  O   UNL A   1      52.194  24.730  25.708  1.00  0.00    -0.237 OA
ATOM     72  O   UNL A   1      52.424  26.577  24.092  1.00  0.00    -0.744 OA
ENDBRANCH  68  69
ENDBRANCH  47  61
BRANCH  48  73
ATOM     73  C   UNL A   1      39.750  31.270  30.589  1.00  0.00     0.058 A 
ATOM     74  C   UNL A   1      39.600  31.577  31.949  1.00  0.00     0.135 A 
ATOM     75  C   UNL A   1      38.639  31.446  29.751  1.00  0.00     0.135 A 
ATOM     76  F   UNL A   1      40.630  31.412  32.793  1.00  0.00    -0.206 F 
ATOM     77  C   UNL A   1      38.389  32.030  32.464  1.00  0.00     0.059 A 
ATOM     78  C   UNL A   1      37.425  31.919  30.237  1.00  0.00     0.059 A 
ATOM     79  F   UNL A   1      38.735  31.173  28.440  1.00  0.00    -0.206 F 
ATOM     80  C   UNL A   1      37.306  32.200  31.597  1.00  0.00     0.060 A 
BRANCH  80  81
ATOM     81  S   UNL A   1      35.752  32.834  32.263  1.00  0.00     0.124 S 
ATOM     82  O   UNL A   1      35.965  34.274  32.185  1.00  0.00    -0.237 OA
ATOM     83  O   UNL A   1      34.772  32.283  31.332  1.00  0.00    -0.237 OA
ATOM     84  O   UNL A   1      35.711  32.271  33.609  1.00  0.00    -0.744 OA
ENDBRANCH  80  81
ENDBRANCH  48  73
BRANCH  60  85
ATOM     85  C   UNL A   1      45.757  34.385  28.885  1.00  0.00     0.058 A 
ATOM     86  C   UNL A   1      46.421  34.926  29.995  1.00  0.00     0.135 A 
ATOM     87  C   UNL A   1      45.588  35.210  27.759  1.00  0.00     0.135 A 
ATOM     88  F   UNL A   1      46.605  34.185  31.099  1.00  0.00    -0.206 F 
ATOM     89  C   UNL A   1      46.888  36.238  29.997  1.00  0.00     0.059 A 
ATOM     90  C   UNL A   1      46.068  36.516  27.729  1.00  0.00     0.059 A 
ATOM     91  F   UNL A   1      44.969  34.740  26.664  1.00  0.00    -0.206 F 
ATOM     92  C   UNL A   1      46.709  37.024  28.857  1.00  0.00     0.060 A 
BRANCH  92  93
ATOM     93  S   UNL A   1      47.356  38.711  28.856  1.00  0.00     0.124 S 
ATOM     94  O   UNL A   1      48.718  38.504  29.335  1.00  0.00    -0.237 OA
ATOM     95  O   UNL A   1      47.229  39.095  27.453  1.00  0.00    -0.237 OA
ATOM     96  O   UNL A   1      46.467  39.417  29.774  1.00  0.00    -0.744 OA
ENDBRANCH  92  93
ENDBRANCH  60  85
ENDBRANCH  34  35
ENDBRANCH  27  29
ENDBRANCH  26  27
ENDBRANCH  25  26
ENDBRANCH  24  25
ENDBRANCH  23  24
ENDBRANCH   1  23
TORSDOF 23
ENDMDL
