MODEL 1
REMARK VINA RESULT:     -13.5      0.000      0.000
REMARK SMILES CC[C@@]1(CC(=O)OCCOCCOC(=O)c2ccc(-c3c4nc(c(-c5c(F)cc(S(=O)(=O)[O-])cc5F)c5ccc([nH]5)c(-c5c(F)cc(S(=O)(=O)[O-])cc5F)c5nc(c(-c6c(F)cc(S(=O)(=O)[O-])cc6F)c6ccc3[nH]6)C=C5)C=C4)cc2)OC[C@H](Cc2ccccc2)c2c1[nH]c1ccccc21
REMARK SMILES IDX 10 1 9 2 8 3 7 4 5 5 6 6 4 7 3 8 82 9 93 10 83 11 92 12
REMARK SMILES IDX 94 13 84 14 100 15 95 16 99 18 96 19 98 20 97 21 2 22 1 23
REMARK SMILES IDX 85 24 86 25 87 26 91 27 88 28 90 29 89 30 11 31 12 32 13 33
REMARK SMILES IDX 14 34 15 35 16 36 17 37 81 38 18 39 80 40 19 41 20 42 21 43
REMARK SMILES IDX 74 44 22 45 79 46 73 47 75 48 23 49 78 50 72 51 71 52 24 54
REMARK SMILES IDX 58 55 37 56 57 57 38 58 41 59 56 60 76 61 39 62 40 63 55 65
REMARK SMILES IDX 77 66 42 67 25 68 26 69 35 70 27 71 28 72 34 73 36 74 29 75
REMARK SMILES IDX 30 76 31 77 32 78 33 79 59 80 60 81 69 82 61 83 62 84 68 85
REMARK SMILES IDX 70 86 63 87 64 88 65 89 66 90 67 91 43 92 44 93 53 94 45 95
REMARK SMILES IDX 46 96 52 97 54 98 47 99 48 100 49 101 50 102 51 103
REMARK H PARENT 94 17 75 53 41 64
REMARK Flexibility Score: inf
ROOT
ATOM      1  O   UNL A   1      36.066  20.822  25.365  1.00  0.00    -0.374 OA
ENDROOT
BRANCH   1   2
ATOM      2  C   UNL A   1      35.175  22.066  25.493  1.00  0.00     0.202 C 
BRANCH   2   3
ATOM      3  C   UNL A   1      34.653  22.731  24.031  1.00  0.00     0.261 C 
BRANCH   3   4
ATOM      4  O   UNL A   1      33.244  22.562  23.737  1.00  0.00    -0.463 OA
BRANCH   4   5
ATOM      5  C   UNL A   1      32.442  23.657  23.887  1.00  0.00     0.309 C 
ATOM      6  O   UNL A   1      31.281  23.600  24.131  1.00  0.00    -0.252 OA
BRANCH   5   7
ATOM      7  C   UNL A   1      33.287  24.928  23.871  1.00  0.00     0.164 C 
BRANCH   7   8
ATOM      8  C   UNL A   1      32.756  25.905  22.795  1.00  0.00     0.118 C 
ATOM      9  O   UNL A   1      33.751  26.823  22.320  1.00  0.00    -0.368 OA
ATOM     10  C   UNL A   1      31.620  26.854  23.356  1.00  0.00     0.053 A 
ATOM     11  C   UNL A   1      34.204  27.844  23.168  1.00  0.00     0.170 C 
ATOM     12  C   UNL A   1      31.682  28.121  23.859  1.00  0.00    -0.011 A 
ATOM     13  N   UNL A   1      30.375  26.598  23.900  1.00  0.00    -0.356 N 
ATOM     14  C   UNL A   1      33.170  28.495  24.125  1.00  0.00     0.052 C 
ATOM     15  C   UNL A   1      30.124  28.614  23.556  1.00  0.00     0.003 A 
ATOM     16  C   UNL A   1      29.365  27.512  23.761  1.00  0.00     0.046 A 
ATOM     17  H   UNL A   1      30.215  25.758  24.387  1.00  0.00     0.166 HD
ATOM     18  C   UNL A   1      29.263  29.706  22.976  1.00  0.00     0.010 A 
ATOM     19  C   UNL A   1      27.948  27.432  23.582  1.00  0.00     0.026 A 
ATOM     20  C   UNL A   1      27.876  29.701  22.826  1.00  0.00     0.001 A 
ATOM     21  C   UNL A   1      27.218  28.546  23.127  1.00  0.00     0.002 A 
BRANCH   8  22
ATOM     22  C   UNL A   1      32.674  25.015  21.474  1.00  0.00     0.039 C 
ATOM     23  C   UNL A   1      32.537  25.610  20.063  1.00  0.00     0.007 C 
ENDBRANCH   8  22
BRANCH  14  24
ATOM     24  C   UNL A   1      33.615  28.092  25.567  1.00  0.00     0.046 C 
BRANCH  24  25
ATOM     25  C   UNL A   1      34.010  29.195  26.540  1.00  0.00    -0.047 A 
ATOM     26  C   UNL A   1      35.256  29.263  27.185  1.00  0.00     0.004 A 
ATOM     27  C   UNL A   1      33.107  30.247  26.750  1.00  0.00     0.004 A 
ATOM     28  C   UNL A   1      35.617  30.380  27.940  1.00  0.00     0.000 A 
ATOM     29  C   UNL A   1      33.453  31.345  27.539  1.00  0.00     0.000 A 
ATOM     30  C   UNL A   1      34.718  31.425  28.112  1.00  0.00     0.000 A 
ENDBRANCH  24  25
ENDBRANCH  14  24
ENDBRANCH   7   8
ENDBRANCH   5   7
ENDBRANCH   4   5
ENDBRANCH   3   4
ENDBRANCH   2   3
ENDBRANCH   1   2
BRANCH   1  31
ATOM     31  C   UNL A   1      37.567  20.681  24.974  1.00  0.00     0.202 C 
BRANCH  31  32
ATOM     32  C   UNL A   1      39.188  21.033  25.870  1.00  0.00     0.261 C 
BRANCH  32  33
ATOM     33  O   UNL A   1      40.850  21.664  25.762  1.00  0.00    -0.460 OA
BRANCH  33  34
ATOM     34  C   UNL A   1      42.056  22.566  25.643  1.00  0.00     0.338 C 
ATOM     35  O   UNL A   1      43.084  21.986  25.262  1.00  0.00    -0.246 OA
BRANCH  34  36
ATOM     36  C   UNL A   1      42.389  24.291  26.013  1.00  0.00     0.060 A 
ATOM     37  C   UNL A   1      43.167  24.582  27.133  1.00  0.00     0.016 A 
ATOM     38  C   UNL A   1      41.791  25.508  25.542  1.00  0.00     0.016 A 
ATOM     39  C   UNL A   1      42.898  25.752  27.925  1.00  0.00     0.010 A 
ATOM     40  C   UNL A   1      41.387  26.594  26.349  1.00  0.00     0.010 A 
ATOM     41  C   UNL A   1      41.863  26.681  27.620  1.00  0.00    -0.014 A 
BRANCH  41  42
ATOM     42  C   UNL A   1      41.563  27.872  28.467  1.00  0.00     0.031 A 
ATOM     43  C   UNL A   1      42.624  28.862  28.229  1.00  0.00     0.074 A 
ATOM     44  C   UNL A   1      40.486  28.324  29.172  1.00  0.00     0.049 A 
ATOM     45  N   UNL A   1      43.633  29.125  28.986  1.00  0.00    -0.248 NA
ATOM     46  C   UNL A   1      42.701  29.408  26.866  1.00  0.00     0.031 C 
ATOM     47  C   UNL A   1      39.135  27.762  29.265  1.00  0.00     0.029 A 
ATOM     48  N   UNL A   1      40.362  29.483  29.926  1.00  0.00    -0.354 N 
ATOM     49  C   UNL A   1      44.375  30.033  28.258  1.00  0.00     0.074 A 
ATOM     50  C   UNL A   1      43.907  29.970  26.896  1.00  0.00     0.031 C 
ATOM     51  C   UNL A   1      38.299  28.659  29.853  1.00  0.00     0.029 A 
ATOM     52  C   UNL A   1      39.058  29.813  30.319  1.00  0.00     0.049 A 
ATOM     53  H   UNL A   1      41.139  30.036  30.169  1.00  0.00     0.167 HD
ATOM     54  C   UNL A   1      45.103  30.995  28.877  1.00  0.00     0.037 A 
ATOM     55  C   UNL A   1      38.640  30.944  30.965  1.00  0.00     0.037 A 
ATOM     56  C   UNL A   1      45.197  30.779  30.295  1.00  0.00     0.049 A 
ATOM     57  C   UNL A   1      39.819  31.529  31.653  1.00  0.00     0.074 A 
ATOM     58  C   UNL A   1      45.916  29.958  31.135  1.00  0.00     0.029 A 
ATOM     59  N   UNL A   1      44.125  31.248  31.008  1.00  0.00    -0.354 N 
ATOM     60  N   UNL A   1      40.409  30.985  32.679  1.00  0.00    -0.248 NA
ATOM     61  C   UNL A   1      40.515  32.671  31.064  1.00  0.00     0.031 C 
ATOM     62  C   UNL A   1      45.165  29.850  32.344  1.00  0.00     0.029 A 
ATOM     63  C   UNL A   1      44.003  30.606  32.216  1.00  0.00     0.049 A 
ATOM     64  H   UNL A   1      43.516  31.956  30.693  1.00  0.00     0.167 HD
ATOM     65  C   UNL A   1      41.711  31.425  32.591  1.00  0.00     0.074 A 
ATOM     66  C   UNL A   1      41.674  32.587  31.718  1.00  0.00     0.031 C 
ATOM     67  C   UNL A   1      42.745  30.610  32.935  1.00  0.00     0.037 A 
BRANCH  54  68
ATOM     68  C   UNL A   1      45.322  32.336  28.250  1.00  0.00     0.058 A 
ATOM     69  C   UNL A   1      46.622  32.757  27.937  1.00  0.00     0.135 A 
ATOM     70  C   UNL A   1      44.304  33.316  28.151  1.00  0.00     0.135 A 
ATOM     71  F   UNL A   1      47.656  31.910  28.051  1.00  0.00    -0.206 F 
ATOM     72  C   UNL A   1      46.893  34.068  27.550  1.00  0.00     0.059 A 
ATOM     73  C   UNL A   1      44.539  34.602  27.699  1.00  0.00     0.059 A 
ATOM     74  F   UNL A   1      43.055  33.086  28.580  1.00  0.00    -0.206 F 
ATOM     75  C   UNL A   1      45.844  34.980  27.434  1.00  0.00     0.060 A 
BRANCH  75  76
ATOM     76  S   UNL A   1      46.195  36.688  26.994  1.00  0.00     0.124 S 
ATOM     77  O   UNL A   1      47.086  37.087  28.077  1.00  0.00    -0.237 OA
ATOM     78  O   UNL A   1      46.809  36.546  25.678  1.00  0.00    -0.237 OA
ATOM     79  O   UNL A   1      44.874  37.312  26.997  1.00  0.00    -0.744 OA
ENDBRANCH  75  76
ENDBRANCH  54  68
BRANCH  55  80
ATOM     80  C   UNL A   1      37.344  31.705  30.995  1.00  0.00     0.058 A 
ATOM     81  C   UNL A   1      36.405  31.493  32.035  1.00  0.00     0.135 A 
ATOM     82  C   UNL A   1      37.141  32.867  30.230  1.00  0.00     0.135 A 
ATOM     83  F   UNL A   1      36.476  30.399  32.809  1.00  0.00    -0.206 F 
ATOM     84  C   UNL A   1      35.427  32.433  32.382  1.00  0.00     0.059 A 
ATOM     85  C   UNL A   1      36.157  33.814  30.546  1.00  0.00     0.059 A 
ATOM     86  F   UNL A   1      37.956  33.168  29.210  1.00  0.00    -0.206 F 
ATOM     87  C   UNL A   1      35.340  33.615  31.656  1.00  0.00     0.060 A 
BRANCH  87  88
ATOM     88  S   UNL A   1      34.275  34.946  32.271  1.00  0.00     0.124 S 
ATOM     89  O   UNL A   1      35.200  35.729  33.083  1.00  0.00    -0.237 OA
ATOM     90  O   UNL A   1      33.827  35.573  31.032  1.00  0.00    -0.237 OA
ATOM     91  O   UNL A   1      33.239  34.233  33.014  1.00  0.00    -0.744 OA
ENDBRANCH  87  88
ENDBRANCH  55  80
BRANCH  67  92
ATOM     92  C   UNL A   1      42.490  29.577  33.995  1.00  0.00     0.058 A 
ATOM     93  C   UNL A   1      42.475  29.820  35.379  1.00  0.00     0.135 A 
ATOM     94  C   UNL A   1      42.214  28.267  33.571  1.00  0.00     0.135 A 
ATOM     95  F   UNL A   1      42.654  31.056  35.870  1.00  0.00    -0.206 F 
ATOM     96  C   UNL A   1      42.226  28.797  36.298  1.00  0.00     0.059 A 
ATOM     97  C   UNL A   1      41.925  27.243  34.467  1.00  0.00     0.059 A 
ATOM     98  F   UNL A   1      42.190  27.974  32.260  1.00  0.00    -0.206 F 
ATOM     99  C   UNL A   1      41.945  27.513  35.832  1.00  0.00     0.060 A 
BRANCH  99 100
ATOM    100  S   UNL A   1      41.518  26.219  37.016  1.00  0.00     0.124 S 
ATOM    101  O   UNL A   1      42.695  26.189  37.877  1.00  0.00    -0.237 OA
ATOM    102  O   UNL A   1      40.298  26.740  37.624  1.00  0.00    -0.237 OA
ATOM    103  O   UNL A   1      41.329  25.038  36.175  1.00  0.00    -0.744 OA
ENDBRANCH  99 100
ENDBRANCH  67  92
ENDBRANCH  41  42
ENDBRANCH  34  36
ENDBRANCH  33  34
ENDBRANCH  32  33
ENDBRANCH  31  32
ENDBRANCH   1  31
TORSDOF 21
ENDMDL
MODEL 2
REMARK VINA RESULT:     -12.7      3.185      7.680
REMARK SMILES CC[C@@]1(CC(=O)OCCOCCOC(=O)c2ccc(-c3c4nc(c(-c5c(F)cc(S(=O)(=O)[O-])cc5F)c5ccc([nH]5)c(-c5c(F)cc(S(=O)(=O)[O-])cc5F)c5nc(c(-c6c(F)cc(S(=O)(=O)[O-])cc6F)c6ccc3[nH]6)C=C5)C=C4)cc2)OC[C@H](Cc2ccccc2)c2c1[nH]c1ccccc21
REMARK SMILES IDX 10 1 9 2 8 3 7 4 5 5 6 6 4 7 3 8 82 9 93 10 83 11 92 12
REMARK SMILES IDX 94 13 84 14 100 15 95 16 99 18 96 19 98 20 97 21 2 22 1 23
REMARK SMILES IDX 85 24 86 25 87 26 91 27 88 28 90 29 89 30 11 31 12 32 13 33
REMARK SMILES IDX 14 34 15 35 16 36 17 37 81 38 18 39 80 40 19 41 20 42 21 43
REMARK SMILES IDX 74 44 22 45 79 46 73 47 75 48 23 49 78 50 72 51 71 52 24 54
REMARK SMILES IDX 58 55 37 56 57 57 38 58 41 59 56 60 76 61 39 62 40 63 55 65
REMARK SMILES IDX 77 66 42 67 25 68 26 69 35 70 27 71 28 72 34 73 36 74 29 75
REMARK SMILES IDX 30 76 31 77 32 78 33 79 59 80 60 81 69 82 61 83 62 84 68 85
REMARK SMILES IDX 70 86 63 87 64 88 65 89 66 90 67 91 43 92 44 93 53 94 45 95
REMARK SMILES IDX 46 96 52 97 54 98 47 99 48 100 49 101 50 102 51 103
REMARK H PARENT 94 17 75 53 41 64
REMARK Flexibility Score: inf
ROOT
ATOM      1  O   UNL A   1      33.198  21.533  26.130  1.00  0.00    -0.374 OA
ENDROOT
BRANCH   1   2
ATOM      2  C   UNL A   1      31.832  22.047  25.648  1.00  0.00     0.202 C 
BRANCH   2   3
ATOM      3  C   UNL A   1      31.775  23.693  25.272  1.00  0.00     0.261 C 
BRANCH   3   4
ATOM      4  O   UNL A   1      31.721  24.007  23.857  1.00  0.00    -0.463 OA
BRANCH   4   5
ATOM      5  C   UNL A   1      32.889  23.912  23.155  1.00  0.00     0.309 C 
ATOM      6  O   UNL A   1      33.238  22.932  22.581  1.00  0.00    -0.252 OA
BRANCH   5   7
ATOM      7  C   UNL A   1      33.565  25.277  23.081  1.00  0.00     0.164 C 
BRANCH   7   8
ATOM      8  C   UNL A   1      32.876  26.154  22.008  1.00  0.00     0.118 C 
ATOM      9  O   UNL A   1      33.785  27.017  21.309  1.00  0.00    -0.368 OA
ATOM     10  C   UNL A   1      31.828  27.158  22.637  1.00  0.00     0.053 A 
ATOM     11  C   UNL A   1      34.350  28.109  21.983  1.00  0.00     0.170 C 
ATOM     12  C   UNL A   1      31.954  28.466  23.006  1.00  0.00    -0.011 A 
ATOM     13  N   UNL A   1      30.677  26.963  23.379  1.00  0.00    -0.356 N 
ATOM     14  C   UNL A   1      33.462  28.853  23.016  1.00  0.00     0.052 C 
ATOM     15  C   UNL A   1      30.364  28.940  22.888  1.00  0.00     0.003 A 
ATOM     16  C   UNL A   1      29.652  27.867  23.303  1.00  0.00     0.046 A 
ATOM     17  H   UNL A   1      30.595  26.173  23.960  1.00  0.00     0.166 HD
ATOM     18  C   UNL A   1      29.421  29.978  22.340  1.00  0.00     0.010 A 
ATOM     19  C   UNL A   1      28.224  27.780  23.341  1.00  0.00     0.026 A 
ATOM     20  C   UNL A   1      28.027  29.968  22.395  1.00  0.00     0.001 A 
ATOM     21  C   UNL A   1      27.428  28.851  22.895  1.00  0.00     0.002 A 
BRANCH   8  22
ATOM     22  C   UNL A   1      32.608  25.144  20.802  1.00  0.00     0.039 C 
ATOM     23  C   UNL A   1      32.248  25.606  19.379  1.00  0.00     0.007 C 
ENDBRANCH   8  22
BRANCH  14  24
ATOM     24  C   UNL A   1      34.115  28.584  24.409  1.00  0.00     0.046 C 
BRANCH  24  25
ATOM     25  C   UNL A   1      33.221  28.586  25.642  1.00  0.00    -0.047 A 
ATOM     26  C   UNL A   1      32.697  29.748  26.229  1.00  0.00     0.004 A 
ATOM     27  C   UNL A   1      32.837  27.350  26.183  1.00  0.00     0.004 A 
ATOM     28  C   UNL A   1      31.758  29.676  27.260  1.00  0.00     0.000 A 
ATOM     29  C   UNL A   1      31.930  27.280  27.241  1.00  0.00     0.000 A 
ATOM     30  C   UNL A   1      31.370  28.441  27.762  1.00  0.00     0.000 A 
ENDBRANCH  24  25
ENDBRANCH  14  24
ENDBRANCH   7   8
ENDBRANCH   5   7
ENDBRANCH   4   5
ENDBRANCH   3   4
ENDBRANCH   2   3
ENDBRANCH   1   2
BRANCH   1  31
ATOM     31  C   UNL A   1      34.276  20.676  25.403  1.00  0.00     0.202 C 
BRANCH  31  32
ATOM     32  C   UNL A   1      36.058  20.994  24.878  1.00  0.00     0.261 C 
BRANCH  32  33
ATOM     33  O   UNL A   1      37.761  20.482  24.981  1.00  0.00    -0.460 OA
BRANCH  33  34
ATOM     34  C   UNL A   1      39.127  20.074  25.482  1.00  0.00     0.338 C 
ATOM     35  O   UNL A   1      39.321  18.848  25.474  1.00  0.00    -0.246 OA
BRANCH  34  36
ATOM     36  C   UNL A   1      40.531  20.944  26.187  1.00  0.00     0.060 A 
ATOM     37  C   UNL A   1      40.733  20.854  27.564  1.00  0.00     0.016 A 
ATOM     38  C   UNL A   1      41.384  21.973  25.664  1.00  0.00     0.016 A 
ATOM     39  C   UNL A   1      41.251  21.976  28.300  1.00  0.00     0.010 A 
ATOM     40  C   UNL A   1      41.765  23.152  26.342  1.00  0.00     0.010 A 
ATOM     41  C   UNL A   1      41.604  23.214  27.692  1.00  0.00    -0.014 A 
BRANCH  41  42
ATOM     42  C   UNL A   1      42.104  24.387  28.466  1.00  0.00     0.031 A 
ATOM     43  C   UNL A   1      41.109  25.461  28.334  1.00  0.00     0.074 A 
ATOM     44  C   UNL A   1      43.077  24.601  29.398  1.00  0.00     0.049 A 
ATOM     45  N   UNL A   1      41.169  26.495  27.569  1.00  0.00    -0.248 NA
ATOM     46  C   UNL A   1      39.787  25.188  28.921  1.00  0.00     0.031 C 
ATOM     47  C   UNL A   1      43.971  23.635  30.045  1.00  0.00     0.029 A 
ATOM     48  N   UNL A   1      43.426  25.781  30.041  1.00  0.00    -0.354 N 
ATOM     49  C   UNL A   1      39.946  27.113  27.736  1.00  0.00     0.074 A 
ATOM     50  C   UNL A   1      39.066  26.153  28.355  1.00  0.00     0.031 C 
ATOM     51  C   UNL A   1      44.603  24.220  31.098  1.00  0.00     0.029 A 
ATOM     52  C   UNL A   1      44.286  25.643  31.137  1.00  0.00     0.049 A 
ATOM     53  H   UNL A   1      43.090  26.658  29.744  1.00  0.00     0.167 HD
ATOM     54  C   UNL A   1      39.827  28.460  27.646  1.00  0.00     0.037 A 
ATOM     55  C   UNL A   1      44.695  26.615  32.008  1.00  0.00     0.037 A 
ATOM     56  C   UNL A   1      41.015  29.078  27.123  1.00  0.00     0.049 A 
ATOM     57  C   UNL A   1      44.524  27.925  31.329  1.00  0.00     0.074 A 
ATOM     58  C   UNL A   1      41.598  29.235  25.885  1.00  0.00     0.029 A 
ATOM     59  N   UNL A   1      41.987  29.310  28.060  1.00  0.00    -0.354 N 
ATOM     60  N   UNL A   1      45.242  28.322  30.318  1.00  0.00    -0.248 NA
ATOM     61  C   UNL A   1      43.371  28.765  31.645  1.00  0.00     0.031 C 
ATOM     62  C   UNL A   1      42.991  29.446  26.112  1.00  0.00     0.029 A 
ATOM     63  C   UNL A   1      43.229  29.412  27.483  1.00  0.00     0.049 A 
ATOM     64  H   UNL A   1      41.817  29.392  29.027  1.00  0.00     0.167 HD
ATOM     65  C   UNL A   1      44.413  29.180  29.631  1.00  0.00     0.074 A 
ATOM     66  C   UNL A   1      43.374  29.560  30.574  1.00  0.00     0.031 C 
ATOM     67  C   UNL A   1      44.432  29.225  28.271  1.00  0.00     0.037 A 
BRANCH  54  68
ATOM     68  C   UNL A   1      38.815  29.212  28.452  1.00  0.00     0.058 A 
ATOM     69  C   UNL A   1      37.774  29.893  27.807  1.00  0.00     0.135 A 
ATOM     70  C   UNL A   1      38.970  29.468  29.836  1.00  0.00     0.135 A 
ATOM     71  F   UNL A   1      37.585  29.751  26.486  1.00  0.00    -0.206 F 
ATOM     72  C   UNL A   1      36.938  30.772  28.494  1.00  0.00     0.059 A 
ATOM     73  C   UNL A   1      38.108  30.279  30.552  1.00  0.00     0.059 A 
ATOM     74  F   UNL A   1      40.024  29.012  30.528  1.00  0.00    -0.206 F 
ATOM     75  C   UNL A   1      37.115  30.955  29.866  1.00  0.00     0.060 A 
BRANCH  75  76
ATOM     76  S   UNL A   1      36.079  32.134  30.746  1.00  0.00     0.124 S 
ATOM     77  O   UNL A   1      36.898  33.338  30.684  1.00  0.00    -0.237 OA
ATOM     78  O   UNL A   1      34.866  32.140  29.936  1.00  0.00    -0.237 OA
ATOM     79  O   UNL A   1      35.937  31.530  32.068  1.00  0.00    -0.744 OA
ENDBRANCH  75  76
ENDBRANCH  54  68
BRANCH  55  80
ATOM     80  C   UNL A   1      45.128  26.607  33.447  1.00  0.00     0.058 A 
ATOM     81  C   UNL A   1      44.169  26.552  34.490  1.00  0.00     0.135 A 
ATOM     82  C   UNL A   1      46.448  26.315  33.830  1.00  0.00     0.135 A 
ATOM     83  F   UNL A   1      42.881  26.847  34.252  1.00  0.00    -0.206 F 
ATOM     84  C   UNL A   1      44.472  26.103  35.781  1.00  0.00     0.059 A 
ATOM     85  C   UNL A   1      46.780  25.881  35.121  1.00  0.00     0.059 A 
ATOM     86  F   UNL A   1      47.445  26.348  32.935  1.00  0.00    -0.206 F 
ATOM     87  C   UNL A   1      45.776  25.725  36.075  1.00  0.00     0.060 A 
BRANCH  87  88
ATOM     88  S   UNL A   1      46.115  24.884  37.644  1.00  0.00     0.124 S 
ATOM     89  O   UNL A   1      47.474  24.395  37.443  1.00  0.00    -0.237 OA
ATOM     90  O   UNL A   1      45.964  25.969  38.608  1.00  0.00    -0.237 OA
ATOM     91  O   UNL A   1      45.081  23.854  37.703  1.00  0.00    -0.744 OA
ENDBRANCH  87  88
ENDBRANCH  55  80
BRANCH  67  92
ATOM     92  C   UNL A   1      45.729  28.905  27.585  1.00  0.00     0.058 A 
ATOM     93  C   UNL A   1      46.772  29.818  27.352  1.00  0.00     0.135 A 
ATOM     94  C   UNL A   1      45.933  27.580  27.167  1.00  0.00     0.135 A 
ATOM     95  F   UNL A   1      46.695  31.086  27.785  1.00  0.00    -0.206 F 
ATOM     96  C   UNL A   1      47.950  29.434  26.707  1.00  0.00     0.059 A 
ATOM     97  C   UNL A   1      47.112  27.168  26.557  1.00  0.00     0.059 A 
ATOM     98  F   UNL A   1      44.983  26.653  27.380  1.00  0.00    -0.206 F 
ATOM     99  C   UNL A   1      48.114  28.105  26.319  1.00  0.00     0.060 A 
BRANCH  99 100
ATOM    100  S   UNL A   1      49.679  27.587  25.583  1.00  0.00     0.124 S 
ATOM    101  O   UNL A   1      50.318  28.865  25.290  1.00  0.00    -0.237 OA
ATOM    102  O   UNL A   1      50.286  26.804  26.655  1.00  0.00    -0.237 OA
ATOM    103  O   UNL A   1      49.265  26.813  24.415  1.00  0.00    -0.744 OA
ENDBRANCH  99 100
ENDBRANCH  67  92
ENDBRANCH  41  42
ENDBRANCH  34  36
ENDBRANCH  33  34
ENDBRANCH  32  33
ENDBRANCH  31  32
ENDBRANCH   1  31
TORSDOF 21
ENDMDL
MODEL 3
REMARK VINA RESULT:     -12.0      1.267      2.032
REMARK SMILES CC[C@@]1(CC(=O)OCCOCCOC(=O)c2ccc(-c3c4nc(c(-c5c(F)cc(S(=O)(=O)[O-])cc5F)c5ccc([nH]5)c(-c5c(F)cc(S(=O)(=O)[O-])cc5F)c5nc(c(-c6c(F)cc(S(=O)(=O)[O-])cc6F)c6ccc3[nH]6)C=C5)C=C4)cc2)OC[C@H](Cc2ccccc2)c2c1[nH]c1ccccc21
REMARK SMILES IDX 10 1 9 2 8 3 7 4 5 5 6 6 4 7 3 8 82 9 93 10 83 11 92 12
REMARK SMILES IDX 94 13 84 14 100 15 95 16 99 18 96 19 98 20 97 21 2 22 1 23
REMARK SMILES IDX 85 24 86 25 87 26 91 27 88 28 90 29 89 30 11 31 12 32 13 33
REMARK SMILES IDX 14 34 15 35 16 36 17 37 81 38 18 39 80 40 19 41 20 42 21 43
REMARK SMILES IDX 74 44 22 45 79 46 73 47 75 48 23 49 78 50 72 51 71 52 24 54
REMARK SMILES IDX 58 55 37 56 57 57 38 58 41 59 56 60 76 61 39 62 40 63 55 65
REMARK SMILES IDX 77 66 42 67 25 68 26 69 35 70 27 71 28 72 34 73 36 74 29 75
REMARK SMILES IDX 30 76 31 77 32 78 33 79 59 80 60 81 69 82 61 83 62 84 68 85
REMARK SMILES IDX 70 86 63 87 64 88 65 89 66 90 67 91 43 92 44 93 53 94 45 95
REMARK SMILES IDX 46 96 52 97 54 98 47 99 48 100 49 101 50 102 51 103
REMARK H PARENT 94 17 75 53 41 64
REMARK Flexibility Score: inf
ROOT
ATOM      1  O   UNL A   1      34.781  19.997  24.701  1.00  0.00    -0.374 OA
ENDROOT
BRANCH   1   2
ATOM      2  C   UNL A   1      33.318  19.968  25.169  1.00  0.00     0.202 C 
BRANCH   2   3
ATOM      3  C   UNL A   1      32.875  21.209  26.226  1.00  0.00     0.261 C 
BRANCH   3   4
ATOM      4  O   UNL A   1      32.332  22.398  25.598  1.00  0.00    -0.463 OA
BRANCH   4   5
ATOM      5  C   UNL A   1      32.926  23.588  25.906  1.00  0.00     0.309 C 
ATOM      6  O   UNL A   1      34.083  23.708  26.148  1.00  0.00    -0.252 OA
BRANCH   5   7
ATOM      7  C   UNL A   1      31.932  24.731  25.718  1.00  0.00     0.164 C 
BRANCH   7   8
ATOM      8  C   UNL A   1      32.010  25.271  24.270  1.00  0.00     0.118 C 
ATOM      9  O   UNL A   1      33.354  25.494  23.818  1.00  0.00    -0.368 OA
ATOM     10  C   UNL A   1      31.334  26.693  24.123  1.00  0.00     0.053 A 
ATOM     11  C   UNL A   1      34.093  26.555  24.360  1.00  0.00     0.170 C 
ATOM     12  C   UNL A   1      31.871  27.947  24.160  1.00  0.00    -0.011 A 
ATOM     13  N   UNL A   1      30.042  27.139  24.339  1.00  0.00    -0.356 N 
ATOM     14  C   UNL A   1      33.330  27.863  24.698  1.00  0.00     0.052 C 
ATOM     15  C   UNL A   1      30.727  28.764  23.273  1.00  0.00     0.003 A 
ATOM     16  C   UNL A   1      29.550  28.190  23.614  1.00  0.00     0.046 A 
ATOM     17  H   UNL A   1      29.478  26.700  25.015  1.00  0.00     0.166 HD
ATOM     18  C   UNL A   1      30.498  29.724  22.134  1.00  0.00     0.010 A 
ATOM     19  C   UNL A   1      28.270  28.533  23.073  1.00  0.00     0.026 A 
ATOM     20  C   UNL A   1      29.274  30.131  21.603  1.00  0.00     0.001 A 
ATOM     21  C   UNL A   1      28.152  29.519  22.077  1.00  0.00     0.002 A 
BRANCH   8  22
ATOM     22  C   UNL A   1      31.717  23.989  23.367  1.00  0.00     0.039 C 
ATOM     23  C   UNL A   1      32.733  23.411  22.367  1.00  0.00     0.007 C 
ENDBRANCH   8  22
BRANCH  14  24
ATOM     24  C   UNL A   1      33.376  27.991  26.254  1.00  0.00     0.046 C 
BRANCH  24  25
ATOM     25  C   UNL A   1      33.988  29.246  26.862  1.00  0.00    -0.047 A 
ATOM     26  C   UNL A   1      33.279  30.437  27.083  1.00  0.00     0.004 A 
ATOM     27  C   UNL A   1      35.321  29.189  27.296  1.00  0.00     0.004 A 
ATOM     28  C   UNL A   1      33.851  31.499  27.787  1.00  0.00     0.000 A 
ATOM     29  C   UNL A   1      35.906  30.266  27.964  1.00  0.00     0.000 A 
ATOM     30  C   UNL A   1      35.163  31.410  28.233  1.00  0.00     0.000 A 
ENDBRANCH  24  25
ENDBRANCH  14  24
ENDBRANCH   7   8
ENDBRANCH   5   7
ENDBRANCH   4   5
ENDBRANCH   3   4
ENDBRANCH   2   3
ENDBRANCH   1   2
BRANCH   1  31
ATOM     31  C   UNL A   1      35.862  21.113  24.812  1.00  0.00     0.202 C 
BRANCH  31  32
ATOM     32  C   UNL A   1      37.647  21.144  25.415  1.00  0.00     0.261 C 
BRANCH  32  33
ATOM     33  O   UNL A   1      39.103  22.121  25.728  1.00  0.00    -0.460 OA
BRANCH  33  34
ATOM     34  C   UNL A   1      40.523  22.572  25.983  1.00  0.00     0.338 C 
ATOM     35  O   UNL A   1      41.347  21.645  26.018  1.00  0.00    -0.246 OA
BRANCH  34  36
ATOM     36  C   UNL A   1      41.307  24.146  26.345  1.00  0.00     0.060 A 
ATOM     37  C   UNL A   1      42.178  24.208  27.433  1.00  0.00     0.016 A 
ATOM     38  C   UNL A   1      41.028  25.482  25.904  1.00  0.00     0.016 A 
ATOM     39  C   UNL A   1      42.253  25.396  28.239  1.00  0.00     0.010 A 
ATOM     40  C   UNL A   1      40.952  26.625  26.731  1.00  0.00     0.010 A 
ATOM     41  C   UNL A   1      41.484  26.567  27.981  1.00  0.00    -0.014 A 
BRANCH  41  42
ATOM     42  C   UNL A   1      41.538  27.783  28.844  1.00  0.00     0.031 A 
ATOM     43  C   UNL A   1      42.762  28.519  28.496  1.00  0.00     0.074 A 
ATOM     44  C   UNL A   1      40.660  28.450  29.648  1.00  0.00     0.049 A 
ATOM     45  N   UNL A   1      43.872  28.543  29.148  1.00  0.00    -0.248 NA
ATOM     46  C   UNL A   1      42.823  29.053  27.127  1.00  0.00     0.031 C 
ATOM     47  C   UNL A   1      39.234  28.197  29.878  1.00  0.00     0.029 A 
ATOM     48  N   UNL A   1      40.868  29.598  30.402  1.00  0.00    -0.354 N 
ATOM     49  C   UNL A   1      44.722  29.276  28.344  1.00  0.00     0.074 A 
ATOM     50  C   UNL A   1      44.120  29.337  27.035  1.00  0.00     0.031 C 
ATOM     51  C   UNL A   1      38.677  29.247  30.539  1.00  0.00     0.029 A 
ATOM     52  C   UNL A   1      39.713  30.200  30.918  1.00  0.00     0.049 A 
ATOM     53  H   UNL A   1      41.768  29.963  30.563  1.00  0.00     0.167 HD
ATOM     54  C   UNL A   1      45.699  30.046  28.880  1.00  0.00     0.037 A 
ATOM     55  C   UNL A   1      39.619  31.386  31.593  1.00  0.00     0.037 A 
ATOM     56  C   UNL A   1      45.882  29.794  30.285  1.00  0.00     0.049 A 
ATOM     57  C   UNL A   1      40.959  31.688  32.158  1.00  0.00     0.074 A 
ATOM     58  C   UNL A   1      46.481  28.824  31.056  1.00  0.00     0.029 A 
ATOM     59  N   UNL A   1      45.014  30.477  31.095  1.00  0.00    -0.354 N 
ATOM     60  N   UNL A   1      41.512  31.013  33.125  1.00  0.00    -0.248 NA
ATOM     61  C   UNL A   1      41.828  32.657  31.495  1.00  0.00     0.031 C 
ATOM     62  C   UNL A   1      45.846  28.867  32.334  1.00  0.00     0.029 A 
ATOM     63  C   UNL A   1      44.872  29.861  32.314  1.00  0.00     0.049 A 
ATOM     64  H   UNL A   1      44.548  31.306  30.836  1.00  0.00     0.167 HD
ATOM     65  C   UNL A   1      42.864  31.158  32.906  1.00  0.00     0.074 A 
ATOM     66  C   UNL A   1      42.999  32.312  32.033  1.00  0.00     0.031 C 
ATOM     67  C   UNL A   1      43.722  30.131  33.154  1.00  0.00     0.037 A 
BRANCH  54  68
ATOM     68  C   UNL A   1      46.146  31.315  28.224  1.00  0.00     0.058 A 
ATOM     69  C   UNL A   1      45.294  32.427  28.203  1.00  0.00     0.135 A 
ATOM     70  C   UNL A   1      47.307  31.398  27.418  1.00  0.00     0.135 A 
ATOM     71  F   UNL A   1      44.145  32.417  28.897  1.00  0.00    -0.206 F 
ATOM     72  C   UNL A   1      45.577  33.552  27.430  1.00  0.00     0.059 A 
ATOM     73  C   UNL A   1      47.645  32.531  26.701  1.00  0.00     0.059 A 
ATOM     74  F   UNL A   1      48.111  30.343  27.222  1.00  0.00    -0.206 F 
ATOM     75  C   UNL A   1      46.757  33.592  26.685  1.00  0.00     0.060 A 
BRANCH  75  76
ATOM     76  S   UNL A   1      47.099  35.015  25.638  1.00  0.00     0.124 S 
ATOM     77  O   UNL A   1      46.216  34.757  24.507  1.00  0.00    -0.237 OA
ATOM     78  O   UNL A   1      46.726  36.128  26.504  1.00  0.00    -0.237 OA
ATOM     79  O   UNL A   1      48.529  34.892  25.368  1.00  0.00    -0.744 OA
ENDBRANCH  75  76
ENDBRANCH  54  68
BRANCH  55  80
ATOM     80  C   UNL A   1      38.531  32.412  31.745  1.00  0.00     0.058 A 
ATOM     81  C   UNL A   1      37.810  32.873  30.615  1.00  0.00     0.135 A 
ATOM     82  C   UNL A   1      37.949  32.708  32.990  1.00  0.00     0.135 A 
ATOM     83  F   UNL A   1      38.286  32.682  29.374  1.00  0.00    -0.206 F 
ATOM     84  C   UNL A   1      36.541  33.456  30.707  1.00  0.00     0.059 A 
ATOM     85  C   UNL A   1      36.688  33.307  33.108  1.00  0.00     0.059 A 
ATOM     86  F   UNL A   1      38.544  32.334  34.130  1.00  0.00    -0.206 F 
ATOM     87  C   UNL A   1      35.967  33.628  31.961  1.00  0.00     0.060 A 
BRANCH  87  88
ATOM     88  S   UNL A   1      34.225  34.116  32.069  1.00  0.00     0.124 S 
ATOM     89  O   UNL A   1      33.627  32.969  32.743  1.00  0.00    -0.237 OA
ATOM     90  O   UNL A   1      34.302  35.345  32.852  1.00  0.00    -0.237 OA
ATOM     91  O   UNL A   1      33.837  34.294  30.673  1.00  0.00    -0.744 OA
ENDBRANCH  87  88
ENDBRANCH  55  80
BRANCH  67  92
ATOM     92  C   UNL A   1      43.351  29.164  34.241  1.00  0.00     0.058 A 
ATOM     93  C   UNL A   1      43.658  29.318  35.604  1.00  0.00     0.135 A 
ATOM     94  C   UNL A   1      42.611  28.028  33.876  1.00  0.00     0.135 A 
ATOM     95  F   UNL A   1      44.296  30.409  36.055  1.00  0.00    -0.206 F 
ATOM     96  C   UNL A   1      43.270  28.368  36.553  1.00  0.00     0.059 A 
ATOM     97  C   UNL A   1      42.182  27.090  34.808  1.00  0.00     0.059 A 
ATOM     98  F   UNL A   1      42.265  27.834  32.591  1.00  0.00    -0.206 F 
ATOM     99  C   UNL A   1      42.526  27.260  36.146  1.00  0.00     0.060 A 
BRANCH  99 100
ATOM    100  S   UNL A   1      41.935  26.090  37.387  1.00  0.00     0.124 S 
ATOM    101  O   UNL A   1      40.613  26.619  37.703  1.00  0.00    -0.237 OA
ATOM    102  O   UNL A   1      41.956  24.825  36.660  1.00  0.00    -0.237 OA
ATOM    103  O   UNL A   1      42.925  26.201  38.457  1.00  0.00    -0.744 OA
ENDBRANCH  99 100
ENDBRANCH  67  92
ENDBRANCH  41  42
ENDBRANCH  34  36
ENDBRANCH  33  34
ENDBRANCH  32  33
ENDBRANCH  31  32
ENDBRANCH   1  31
TORSDOF 21
ENDMDL
