MODEL 1
REMARK VINA RESULT:     -10.0      0.000      0.000
REMARK SMILES C[C@@H]1CC[C@@H](C(=O)OCCOCCOC(=O)c2ccc(-c3c4nc(c(-c5c(F)cc(S(=O)(=O)[O-])cc5F)c5ccc([nH]5)c(-c5c(F)cc(S(=O)(=O)[O-])cc5F)c5nc(c(-c6c(F)cc(S(=O)(=O)[O-])cc6F)c6ccc3[nH]6)C=C5)C=C4)cc2)[C@H](SCC[NH+](C)C)C1
REMARK SMILES IDX 10 1 9 2 8 3 6 4 7 5 5 6 1 7 2 8 3 9 90 10 4 11 83 12 84 13
REMARK SMILES IDX 85 14 86 15 87 16 88 17 89 18 11 20 12 21 13 22 14 23 15 24
REMARK SMILES IDX 16 25 17 26 18 27 82 28 19 29 81 30 20 31 21 32 22 33 75 34
REMARK SMILES IDX 23 35 80 36 74 37 76 38 24 39 79 40 73 41 72 42 25 44 59 45
REMARK SMILES IDX 38 46 58 47 39 48 42 49 57 50 77 51 40 52 41 53 56 55 78 56
REMARK SMILES IDX 43 57 26 58 27 59 36 60 28 61 29 62 35 63 37 64 30 65 31 66
REMARK SMILES IDX 32 67 33 68 34 69 60 70 61 71 70 72 62 73 63 74 69 75 71 76
REMARK SMILES IDX 64 77 65 78 66 79 67 80 68 81 44 82 45 83 54 84 46 85 47 86
REMARK SMILES IDX 53 87 55 88 48 89 49 90 50 91 51 92 52 93
REMARK H PARENT 87 19 76 43 42 54
REMARK Flexibility Score: inf
ROOT
ATOM      1  C   UNL A   1      39.262  22.033  26.119  1.00  0.00     0.202 C 
ENDROOT
BRANCH   1   2
ATOM      2  C   UNL A   1      38.134  21.132  25.568  1.00  0.00     0.261 C 
BRANCH   2   3
ATOM      3  O   UNL A   1      37.604  21.619  24.314  1.00  0.00    -0.463 OA
BRANCH   3   4
ATOM      4  C   UNL A   1      36.782  22.718  24.381  1.00  0.00     0.310 C 
ATOM      5  O   UNL A   1      37.160  23.820  24.753  1.00  0.00    -0.252 OA
BRANCH   4   6
ATOM      6  C   UNL A   1      35.346  22.394  23.869  1.00  0.00     0.112 C 
ATOM      7  C   UNL A   1      32.427  23.465  26.775  1.00  0.00     0.007 C 
ATOM      8  C   UNL A   1      33.884  23.422  26.308  1.00  0.00    -0.013 C 
ATOM      9  C   UNL A   1      34.194  24.341  25.112  1.00  0.00     0.004 C 
ATOM     10  C   UNL A   1      34.385  21.981  26.210  1.00  0.00     0.018 C 
ATOM     11  C   UNL A   1      34.635  23.725  23.771  1.00  0.00     0.017 C 
ATOM     12  C   UNL A   1      34.579  21.406  24.795  1.00  0.00     0.061 C 
BRANCH  12  13
ATOM     13  S   UNL A   1      33.111  20.221  24.456  1.00  0.00    -0.152 SA
BRANCH  13  14
ATOM     14  C   UNL A   1      32.805  18.842  25.662  1.00  0.00     0.131 C 
BRANCH  14  15
ATOM     15  C   UNL A   1      32.478  17.382  25.150  1.00  0.00     0.272 C 
BRANCH  15  16
ATOM     16  N   UNL A   1      33.260  16.242  25.688  1.00  0.00    -0.339 N 
ATOM     17  C   UNL A   1      32.631  14.937  25.479  1.00  0.00     0.332 C 
ATOM     18  C   UNL A   1      34.573  16.238  25.115  1.00  0.00     0.332 C 
ATOM     19  H   UNL A   1      33.306  16.382  26.697  1.00  0.00     0.347 HD
ENDBRANCH  15  16
ENDBRANCH  14  15
ENDBRANCH  13  14
ENDBRANCH  12  13
ENDBRANCH   4   6
ENDBRANCH   3   4
ENDBRANCH   2   3
ENDBRANCH   1   2
BRANCH   1  20
ATOM     20  O   UNL A   1      40.309  21.460  26.913  1.00  0.00    -0.374 OA
BRANCH  20  21
ATOM     21  C   UNL A   1      41.607  21.429  26.339  1.00  0.00     0.202 C 
BRANCH  21  22
ATOM     22  C   UNL A   1      42.600  22.562  26.649  1.00  0.00     0.261 C 
BRANCH  22  23
ATOM     23  O   UNL A   1      42.028  23.868  26.534  1.00  0.00    -0.460 OA
BRANCH  23  24
ATOM     24  C   UNL A   1      42.908  24.863  26.794  1.00  0.00     0.338 C 
ATOM     25  O   UNL A   1      44.000  25.042  26.269  1.00  0.00    -0.246 OA
BRANCH  24  26
ATOM     26  C   UNL A   1      42.282  25.864  27.665  1.00  0.00     0.060 A 
ATOM     27  C   UNL A   1      42.941  27.094  27.780  1.00  0.00     0.016 A 
ATOM     28  C   UNL A   1      41.120  25.598  28.392  1.00  0.00     0.016 A 
ATOM     29  C   UNL A   1      42.468  28.053  28.663  1.00  0.00     0.010 A 
ATOM     30  C   UNL A   1      40.657  26.557  29.297  1.00  0.00     0.010 A 
ATOM     31  C   UNL A   1      41.355  27.768  29.463  1.00  0.00    -0.014 A 
BRANCH  31  32
ATOM     32  C   UNL A   1      41.063  28.667  30.601  1.00  0.00     0.031 A 
ATOM     33  C   UNL A   1      41.914  28.556  31.836  1.00  0.00     0.074 A 
ATOM     34  C   UNL A   1      40.117  29.616  30.497  1.00  0.00     0.049 A 
ATOM     35  N   UNL A   1      41.851  29.234  32.949  1.00  0.00    -0.248 NA
ATOM     36  C   UNL A   1      42.984  27.544  31.807  1.00  0.00     0.031 C 
ATOM     37  C   UNL A   1      39.280  29.846  29.321  1.00  0.00     0.029 A 
ATOM     38  N   UNL A   1      39.705  30.564  31.397  1.00  0.00    -0.354 N 
ATOM     39  C   UNL A   1      42.861  28.726  33.759  1.00  0.00     0.074 A 
ATOM     40  C   UNL A   1      43.507  27.665  33.019  1.00  0.00     0.031 C 
ATOM     41  C   UNL A   1      38.442  30.866  29.576  1.00  0.00     0.029 A 
ATOM     42  C   UNL A   1      38.661  31.334  30.943  1.00  0.00     0.049 A 
ATOM     43  H   UNL A   1      40.117  30.683  32.283  1.00  0.00     0.167 HD
ATOM     44  C   UNL A   1      43.217  29.118  35.004  1.00  0.00     0.037 A 
ATOM     45  C   UNL A   1      37.948  32.287  31.573  1.00  0.00     0.037 A 
ATOM     46  C   UNL A   1      42.565  30.180  35.722  1.00  0.00     0.049 A 
ATOM     47  C   UNL A   1      38.320  32.660  32.984  1.00  0.00     0.074 A 
ATOM     48  C   UNL A   1      42.855  30.671  36.983  1.00  0.00     0.029 A 
ATOM     49  N   UNL A   1      41.486  30.913  35.247  1.00  0.00    -0.354 N 
ATOM     50  N   UNL A   1      39.284  32.183  33.737  1.00  0.00    -0.248 NA
ATOM     51  C   UNL A   1      37.515  33.704  33.632  1.00  0.00     0.031 C 
ATOM     52  C   UNL A   1      41.912  31.655  37.295  1.00  0.00     0.029 A 
ATOM     53  C   UNL A   1      41.078  31.829  36.201  1.00  0.00     0.049 A 
ATOM     54  H   UNL A   1      41.072  30.799  34.360  1.00  0.00     0.167 HD
ATOM     55  C   UNL A   1      39.218  32.886  34.936  1.00  0.00     0.074 A 
ATOM     56  C   UNL A   1      38.127  33.830  34.802  1.00  0.00     0.031 C 
ATOM     57  C   UNL A   1      39.990  32.764  36.045  1.00  0.00     0.037 A 
BRANCH  44  58
ATOM     58  C   UNL A   1      44.331  28.368  35.684  1.00  0.00     0.058 A 
ATOM     59  C   UNL A   1      44.092  27.241  36.486  1.00  0.00     0.135 A 
ATOM     60  C   UNL A   1      45.665  28.765  35.495  1.00  0.00     0.135 A 
ATOM     61  F   UNL A   1      42.836  26.830  36.721  1.00  0.00    -0.206 F 
ATOM     62  C   UNL A   1      45.135  26.547  37.093  1.00  0.00     0.059 A 
ATOM     63  C   UNL A   1      46.724  28.068  36.068  1.00  0.00     0.059 A 
ATOM     64  F   UNL A   1      45.951  29.841  34.745  1.00  0.00    -0.206 F 
ATOM     65  C   UNL A   1      46.449  26.966  36.875  1.00  0.00     0.060 A 
BRANCH  65  66
ATOM     66  S   UNL A   1      47.791  26.041  37.652  1.00  0.00     0.124 S 
ATOM     67  O   UNL A   1      48.866  27.028  37.647  1.00  0.00    -0.237 OA
ATOM     68  O   UNL A   1      47.229  25.721  38.960  1.00  0.00    -0.237 OA
ATOM     69  O   UNL A   1      47.982  24.903  36.759  1.00  0.00    -0.744 OA
ENDBRANCH  65  66
ENDBRANCH  44  58
BRANCH  45  70
ATOM     70  C   UNL A   1      36.800  32.932  30.881  1.00  0.00     0.058 A 
ATOM     71  C   UNL A   1      35.474  32.606  31.202  1.00  0.00     0.135 A 
ATOM     72  C   UNL A   1      37.011  33.903  29.888  1.00  0.00     0.135 A 
ATOM     73  F   UNL A   1      35.218  31.678  32.136  1.00  0.00    -0.206 F 
ATOM     74  C   UNL A   1      34.399  33.212  30.558  1.00  0.00     0.059 A 
ATOM     75  C   UNL A   1      35.954  34.543  29.251  1.00  0.00     0.059 A 
ATOM     76  F   UNL A   1      38.260  34.258  29.549  1.00  0.00    -0.206 F 
ATOM     77  C   UNL A   1      34.650  34.184  29.587  1.00  0.00     0.060 A 
BRANCH  77  78
ATOM     78  S   UNL A   1      33.247  35.003  28.798  1.00  0.00     0.124 S 
ATOM     79  O   UNL A   1      33.895  36.141  28.156  1.00  0.00    -0.237 OA
ATOM     80  O   UNL A   1      32.750  33.962  27.903  1.00  0.00    -0.237 OA
ATOM     81  O   UNL A   1      32.372  35.325  29.920  1.00  0.00    -0.744 OA
ENDBRANCH  77  78
ENDBRANCH  45  70
BRANCH  57  82
ATOM     82  C   UNL A   1      39.709  33.698  37.191  1.00  0.00     0.058 A 
ATOM     83  C   UNL A   1      38.832  33.354  38.231  1.00  0.00     0.135 A 
ATOM     84  C   UNL A   1      40.377  34.931  37.278  1.00  0.00     0.135 A 
ATOM     85  F   UNL A   1      38.164  32.190  38.196  1.00  0.00    -0.206 F 
ATOM     86  C   UNL A   1      38.605  34.212  39.303  1.00  0.00     0.059 A 
ATOM     87  C   UNL A   1      40.191  35.789  38.357  1.00  0.00     0.059 A 
ATOM     88  F   UNL A   1      41.238  35.304  36.317  1.00  0.00    -0.206 F 
ATOM     89  C   UNL A   1      39.293  35.426  39.359  1.00  0.00     0.060 A 
BRANCH  89  90
ATOM     90  S   UNL A   1      39.013  36.513  40.771  1.00  0.00     0.124 S 
ATOM     91  O   UNL A   1      38.028  35.755  41.536  1.00  0.00    -0.237 OA
ATOM     92  O   UNL A   1      40.344  36.602  41.364  1.00  0.00    -0.237 OA
ATOM     93  O   UNL A   1      38.521  37.745  40.161  1.00  0.00    -0.744 OA
ENDBRANCH  89  90
ENDBRANCH  57  82
ENDBRANCH  31  32
ENDBRANCH  24  26
ENDBRANCH  23  24
ENDBRANCH  22  23
ENDBRANCH  21  22
ENDBRANCH  20  21
ENDBRANCH   1  20
TORSDOF 21
ENDMDL
MODEL 2
REMARK VINA RESULT:      -9.7      1.879      3.282
REMARK SMILES C[C@@H]1CC[C@@H](C(=O)OCCOCCOC(=O)c2ccc(-c3c4nc(c(-c5c(F)cc(S(=O)(=O)[O-])cc5F)c5ccc([nH]5)c(-c5c(F)cc(S(=O)(=O)[O-])cc5F)c5nc(c(-c6c(F)cc(S(=O)(=O)[O-])cc6F)c6ccc3[nH]6)C=C5)C=C4)cc2)[C@H](SCC[NH+](C)C)C1
REMARK SMILES IDX 10 1 9 2 8 3 6 4 7 5 5 6 1 7 2 8 3 9 90 10 4 11 83 12 84 13
REMARK SMILES IDX 85 14 86 15 87 16 88 17 89 18 11 20 12 21 13 22 14 23 15 24
REMARK SMILES IDX 16 25 17 26 18 27 82 28 19 29 81 30 20 31 21 32 22 33 75 34
REMARK SMILES IDX 23 35 80 36 74 37 76 38 24 39 79 40 73 41 72 42 25 44 59 45
REMARK SMILES IDX 38 46 58 47 39 48 42 49 57 50 77 51 40 52 41 53 56 55 78 56
REMARK SMILES IDX 43 57 26 58 27 59 36 60 28 61 29 62 35 63 37 64 30 65 31 66
REMARK SMILES IDX 32 67 33 68 34 69 60 70 61 71 70 72 62 73 63 74 69 75 71 76
REMARK SMILES IDX 64 77 65 78 66 79 67 80 68 81 44 82 45 83 54 84 46 85 47 86
REMARK SMILES IDX 53 87 55 88 48 89 49 90 50 91 51 92 52 93
REMARK H PARENT 87 19 76 43 42 54
REMARK Flexibility Score: inf
ROOT
ATOM      1  C   UNL A   1      37.893  21.982  25.376  1.00  0.00     0.202 C 
ENDROOT
BRANCH   1   2
ATOM      2  C   UNL A   1      36.757  21.062  24.877  1.00  0.00     0.261 C 
BRANCH   2   3
ATOM      3  O   UNL A   1      35.587  21.121  25.727  1.00  0.00    -0.463 OA
BRANCH   3   4
ATOM      4  C   UNL A   1      34.407  20.682  25.177  1.00  0.00     0.310 C 
ATOM      5  O   UNL A   1      34.280  19.591  24.638  1.00  0.00    -0.252 OA
BRANCH   4   6
ATOM      6  C   UNL A   1      33.257  21.713  25.384  1.00  0.00     0.112 C 
ATOM      7  C   UNL A   1      32.724  24.105  21.905  1.00  0.00     0.007 C 
ATOM      8  C   UNL A   1      33.415  22.947  22.629  1.00  0.00    -0.013 C 
ATOM      9  C   UNL A   1      32.501  21.742  22.917  1.00  0.00     0.004 C 
ATOM     10  C   UNL A   1      34.260  23.457  23.796  1.00  0.00     0.018 C 
ATOM     11  C   UNL A   1      32.192  21.349  24.374  1.00  0.00     0.017 C 
ATOM     12  C   UNL A   1      33.725  23.187  25.214  1.00  0.00     0.061 C 
BRANCH  12  13
ATOM     13  S   UNL A   1      33.004  24.836  25.875  1.00  0.00    -0.152 SA
BRANCH  13  14
ATOM     14  C   UNL A   1      34.080  26.349  25.803  1.00  0.00     0.131 C 
BRANCH  14  15
ATOM     15  C   UNL A   1      33.603  27.708  26.458  1.00  0.00     0.272 C 
BRANCH  15  16
ATOM     16  N   UNL A   1      32.824  28.665  25.635  1.00  0.00    -0.339 N 
ATOM     17  C   UNL A   1      31.378  28.441  25.669  1.00  0.00     0.332 C 
ATOM     18  C   UNL A   1      33.110  30.007  26.046  1.00  0.00     0.332 C 
ATOM     19  H   UNL A   1      33.118  28.512  24.670  1.00  0.00     0.347 HD
ENDBRANCH  15  16
ENDBRANCH  14  15
ENDBRANCH  13  14
ENDBRANCH  12  13
ENDBRANCH   4   6
ENDBRANCH   3   4
ENDBRANCH   2   3
ENDBRANCH   1   2
BRANCH   1  20
ATOM     20  O   UNL A   1      38.996  21.424  26.103  1.00  0.00    -0.374 OA
BRANCH  20  21
ATOM     21  C   UNL A   1      39.815  22.332  26.823  1.00  0.00     0.202 C 
BRANCH  21  22
ATOM     22  C   UNL A   1      41.262  22.576  26.361  1.00  0.00     0.261 C 
BRANCH  22  23
ATOM     23  O   UNL A   1      41.954  23.550  27.146  1.00  0.00    -0.460 OA
BRANCH  23  24
ATOM     24  C   UNL A   1      42.037  24.761  26.546  1.00  0.00     0.338 C 
ATOM     25  O   UNL A   1      42.328  24.990  25.378  1.00  0.00    -0.246 OA
BRANCH  24  26
ATOM     26  C   UNL A   1      41.508  25.796  27.441  1.00  0.00     0.060 A 
ATOM     27  C   UNL A   1      42.207  27.009  27.479  1.00  0.00     0.016 A 
ATOM     28  C   UNL A   1      40.399  25.578  28.260  1.00  0.00     0.016 A 
ATOM     29  C   UNL A   1      41.830  27.998  28.375  1.00  0.00     0.010 A 
ATOM     30  C   UNL A   1      40.034  26.568  29.178  1.00  0.00     0.010 A 
ATOM     31  C   UNL A   1      40.776  27.760  29.264  1.00  0.00    -0.014 A 
BRANCH  31  32
ATOM     32  C   UNL A   1      40.598  28.689  30.401  1.00  0.00     0.031 A 
ATOM     33  C   UNL A   1      41.503  28.541  31.593  1.00  0.00     0.074 A 
ATOM     34  C   UNL A   1      39.706  29.693  30.332  1.00  0.00     0.049 A 
ATOM     35  N   UNL A   1      41.538  29.236  32.697  1.00  0.00    -0.248 NA
ATOM     36  C   UNL A   1      42.508  27.466  31.525  1.00  0.00     0.031 C 
ATOM     37  C   UNL A   1      38.825  29.959  29.196  1.00  0.00     0.029 A 
ATOM     38  N   UNL A   1      39.399  30.675  31.237  1.00  0.00    -0.354 N 
ATOM     39  C   UNL A   1      42.557  28.677  33.462  1.00  0.00     0.074 A 
ATOM     40  C   UNL A   1      43.099  27.570  32.706  1.00  0.00     0.031 C 
ATOM     41  C   UNL A   1      38.064  31.031  29.478  1.00  0.00     0.029 A 
ATOM     42  C   UNL A   1      38.381  31.501  30.825  1.00  0.00     0.049 A 
ATOM     43  H   UNL A   1      39.862  30.779  32.098  1.00  0.00     0.167 HD
ATOM     44  C   UNL A   1      43.000  29.061  34.681  1.00  0.00     0.037 A 
ATOM     45  C   UNL A   1      37.760  32.503  31.477  1.00  0.00     0.037 A 
ATOM     46  C   UNL A   1      42.451  30.170  35.416  1.00  0.00     0.049 A 
ATOM     47  C   UNL A   1      38.226  32.870  32.861  1.00  0.00     0.074 A 
ATOM     48  C   UNL A   1      42.835  30.657  36.652  1.00  0.00     0.029 A 
ATOM     49  N   UNL A   1      41.395  30.961  34.985  1.00  0.00    -0.354 N 
ATOM     50  N   UNL A   1      39.198  32.344  33.571  1.00  0.00    -0.248 NA
ATOM     51  C   UNL A   1      37.520  33.968  33.533  1.00  0.00     0.031 C 
ATOM     52  C   UNL A   1      41.970  31.700  36.997  1.00  0.00     0.029 A 
ATOM     53  C   UNL A   1      41.093  31.912  35.946  1.00  0.00     0.049 A 
ATOM     54  H   UNL A   1      40.929  30.861  34.123  1.00  0.00     0.167 HD
ATOM     55  C   UNL A   1      39.236  33.064  34.760  1.00  0.00     0.074 A 
ATOM     56  C   UNL A   1      38.198  34.071  34.668  1.00  0.00     0.031 C 
ATOM     57  C   UNL A   1      40.056  32.908  35.831  1.00  0.00     0.037 A 
BRANCH  44  58
ATOM     58  C   UNL A   1      44.101  28.254  35.315  1.00  0.00     0.058 A 
ATOM     59  C   UNL A   1      45.456  28.574  35.144  1.00  0.00     0.135 A 
ATOM     60  C   UNL A   1      43.788  27.162  36.142  1.00  0.00     0.135 A 
ATOM     61  F   UNL A   1      45.816  29.593  34.347  1.00  0.00    -0.206 F 
ATOM     62  C   UNL A   1      46.462  27.830  35.752  1.00  0.00     0.059 A 
ATOM     63  C   UNL A   1      44.775  26.422  36.784  1.00  0.00     0.059 A 
ATOM     64  F   UNL A   1      42.508  26.805  36.334  1.00  0.00    -0.206 F 
ATOM     65  C   UNL A   1      46.112  26.757  36.575  1.00  0.00     0.060 A 
BRANCH  65  66
ATOM     66  S   UNL A   1      47.428  25.814  37.373  1.00  0.00     0.124 S 
ATOM     67  O   UNL A   1      48.559  26.089  36.494  1.00  0.00    -0.237 OA
ATOM     68  O   UNL A   1      47.489  26.428  38.696  1.00  0.00    -0.237 OA
ATOM     69  O   UNL A   1      46.931  24.442  37.344  1.00  0.00    -0.744 OA
ENDBRANCH  65  66
ENDBRANCH  44  58
BRANCH  45  70
ATOM     70  C   UNL A   1      36.618  33.208  30.834  1.00  0.00     0.058 A 
ATOM     71  C   UNL A   1      35.304  33.043  31.292  1.00  0.00     0.135 A 
ATOM     72  C   UNL A   1      36.827  34.077  29.750  1.00  0.00     0.135 A 
ATOM     73  F   UNL A   1      35.049  32.216  32.318  1.00  0.00    -0.206 F 
ATOM     74  C   UNL A   1      34.234  33.705  30.695  1.00  0.00     0.059 A 
ATOM     75  C   UNL A   1      35.780  34.772  29.156  1.00  0.00     0.059 A 
ATOM     76  F   UNL A   1      38.067  34.278  29.278  1.00  0.00    -0.206 F 
ATOM     77  C   UNL A   1      34.485  34.572  29.630  1.00  0.00     0.060 A 
BRANCH  77  78
ATOM     78  S   UNL A   1      33.097  35.469  28.899  1.00  0.00     0.124 S 
ATOM     79  O   UNL A   1      33.788  36.493  28.122  1.00  0.00    -0.237 OA
ATOM     80  O   UNL A   1      32.431  34.423  28.128  1.00  0.00    -0.237 OA
ATOM     81  O   UNL A   1      32.358  35.949  30.061  1.00  0.00    -0.744 OA
ENDBRANCH  77  78
ENDBRANCH  45  70
BRANCH  57  82
ATOM     82  C   UNL A   1      39.892  33.872  36.975  1.00  0.00     0.058 A 
ATOM     83  C   UNL A   1      39.140  33.548  38.115  1.00  0.00     0.135 A 
ATOM     84  C   UNL A   1      40.548  35.114  36.955  1.00  0.00     0.135 A 
ATOM     85  F   UNL A   1      38.488  32.377  38.186  1.00  0.00    -0.206 F 
ATOM     86  C   UNL A   1      39.022  34.433  39.182  1.00  0.00     0.059 A 
ATOM     87  C   UNL A   1      40.472  36.000  38.024  1.00  0.00     0.059 A 
ATOM     88  F   UNL A   1      41.292  35.468  35.894  1.00  0.00    -0.206 F 
ATOM     89  C   UNL A   1      39.695  35.656  39.128  1.00  0.00     0.060 A 
BRANCH  89  90
ATOM     90  S   UNL A   1      39.559  36.779  40.534  1.00  0.00     0.124 S 
ATOM     91  O   UNL A   1      40.790  36.492  41.261  1.00  0.00    -0.237 OA
ATOM     92  O   UNL A   1      39.498  38.085  39.883  1.00  0.00    -0.237 OA
ATOM     93  O   UNL A   1      38.327  36.355  41.192  1.00  0.00    -0.744 OA
ENDBRANCH  89  90
ENDBRANCH  57  82
ENDBRANCH  31  32
ENDBRANCH  24  26
ENDBRANCH  23  24
ENDBRANCH  22  23
ENDBRANCH  21  22
ENDBRANCH  20  21
ENDBRANCH   1  20
TORSDOF 21
ENDMDL
MODEL 3
REMARK VINA RESULT:      -9.7      1.959      8.860
REMARK SMILES C[C@@H]1CC[C@@H](C(=O)OCCOCCOC(=O)c2ccc(-c3c4nc(c(-c5c(F)cc(S(=O)(=O)[O-])cc5F)c5ccc([nH]5)c(-c5c(F)cc(S(=O)(=O)[O-])cc5F)c5nc(c(-c6c(F)cc(S(=O)(=O)[O-])cc6F)c6ccc3[nH]6)C=C5)C=C4)cc2)[C@H](SCC[NH+](C)C)C1
REMARK SMILES IDX 10 1 9 2 8 3 6 4 7 5 5 6 1 7 2 8 3 9 90 10 4 11 83 12 84 13
REMARK SMILES IDX 85 14 86 15 87 16 88 17 89 18 11 20 12 21 13 22 14 23 15 24
REMARK SMILES IDX 16 25 17 26 18 27 82 28 19 29 81 30 20 31 21 32 22 33 75 34
REMARK SMILES IDX 23 35 80 36 74 37 76 38 24 39 79 40 73 41 72 42 25 44 59 45
REMARK SMILES IDX 38 46 58 47 39 48 42 49 57 50 77 51 40 52 41 53 56 55 78 56
REMARK SMILES IDX 43 57 26 58 27 59 36 60 28 61 29 62 35 63 37 64 30 65 31 66
REMARK SMILES IDX 32 67 33 68 34 69 60 70 61 71 70 72 62 73 63 74 69 75 71 76
REMARK SMILES IDX 64 77 65 78 66 79 67 80 68 81 44 82 45 83 54 84 46 85 47 86
REMARK SMILES IDX 53 87 55 88 48 89 49 90 50 91 51 92 52 93
REMARK H PARENT 87 19 76 43 42 54
REMARK Flexibility Score: inf
ROOT
ATOM      1  C   UNL A   1      37.868  21.804  25.040  1.00  0.00     0.202 C 
ENDROOT
BRANCH   1   2
ATOM      2  C   UNL A   1      36.747  20.743  25.003  1.00  0.00     0.261 C 
BRANCH   2   3
ATOM      3  O   UNL A   1      35.525  21.211  25.622  1.00  0.00    -0.463 OA
BRANCH   3   4
ATOM      4  C   UNL A   1      34.350  20.716  25.110  1.00  0.00     0.310 C 
ATOM      5  O   UNL A   1      34.249  19.605  24.610  1.00  0.00    -0.252 OA
BRANCH   4   6
ATOM      6  C   UNL A   1      33.171  21.716  25.307  1.00  0.00     0.112 C 
ATOM      7  C   UNL A   1      32.955  24.457  22.059  1.00  0.00     0.007 C 
ATOM      8  C   UNL A   1      33.587  23.232  22.725  1.00  0.00    -0.013 C 
ATOM      9  C   UNL A   1      32.665  22.001  22.792  1.00  0.00     0.004 C 
ATOM     10  C   UNL A   1      34.304  23.620  24.017  1.00  0.00     0.018 C 
ATOM     11  C   UNL A   1      32.218  21.457  24.162  1.00  0.00     0.017 C 
ATOM     12  C   UNL A   1      33.634  23.202  25.338  1.00  0.00     0.061 C 
BRANCH  12  13
ATOM     13  S   UNL A   1      32.829  24.770  26.090  1.00  0.00    -0.152 SA
BRANCH  13  14
ATOM     14  C   UNL A   1      32.749  26.300  25.040  1.00  0.00     0.131 C 
BRANCH  14  15
ATOM     15  C   UNL A   1      33.642  27.560  25.383  1.00  0.00     0.272 C 
BRANCH  15  16
ATOM     16  N   UNL A   1      33.104  28.589  26.307  1.00  0.00    -0.339 N 
ATOM     17  C   UNL A   1      31.866  28.194  26.982  1.00  0.00     0.332 C 
ATOM     18  C   UNL A   1      34.093  28.932  27.284  1.00  0.00     0.332 C 
ATOM     19  H   UNL A   1      32.873  29.395  25.727  1.00  0.00     0.347 HD
ENDBRANCH  15  16
ENDBRANCH  14  15
ENDBRANCH  13  14
ENDBRANCH  12  13
ENDBRANCH   4   6
ENDBRANCH   3   4
ENDBRANCH   2   3
ENDBRANCH   1   2
BRANCH   1  20
ATOM     20  O   UNL A   1      38.473  22.161  26.290  1.00  0.00    -0.374 OA
BRANCH  20  21
ATOM     21  C   UNL A   1      39.888  22.067  26.369  1.00  0.00     0.202 C 
BRANCH  21  22
ATOM     22  C   UNL A   1      40.717  23.335  26.631  1.00  0.00     0.261 C 
BRANCH  22  23
ATOM     23  O   UNL A   1      39.952  24.542  26.552  1.00  0.00    -0.460 OA
BRANCH  23  24
ATOM     24  C   UNL A   1      40.713  25.646  26.367  1.00  0.00     0.338 C 
ATOM     25  O   UNL A   1      41.056  26.139  25.298  1.00  0.00    -0.246 OA
BRANCH  24  26
ATOM     26  C   UNL A   1      40.910  26.334  27.647  1.00  0.00     0.060 A 
ATOM     27  C   UNL A   1      39.926  26.135  28.624  1.00  0.00     0.016 A 
ATOM     28  C   UNL A   1      41.988  27.191  27.875  1.00  0.00     0.016 A 
ATOM     29  C   UNL A   1      39.988  26.832  29.821  1.00  0.00     0.010 A 
ATOM     30  C   UNL A   1      42.038  27.909  29.074  1.00  0.00     0.010 A 
ATOM     31  C   UNL A   1      41.014  27.760  30.029  1.00  0.00    -0.014 A 
BRANCH  31  32
ATOM     32  C   UNL A   1      40.886  28.703  31.161  1.00  0.00     0.031 A 
ATOM     33  C   UNL A   1      39.815  29.756  31.095  1.00  0.00     0.074 A 
ATOM     34  C   UNL A   1      41.652  28.564  32.258  1.00  0.00     0.049 A 
ATOM     35  N   UNL A   1      39.511  30.683  31.963  1.00  0.00    -0.248 NA
ATOM     36  C   UNL A   1      38.970  29.760  29.888  1.00  0.00     0.031 C 
ATOM     37  C   UNL A   1      42.676  27.538  32.445  1.00  0.00     0.029 A 
ATOM     38  N   UNL A   1      41.682  29.290  33.420  1.00  0.00    -0.354 N 
ATOM     39  C   UNL A   1      38.450  31.389  31.404  1.00  0.00     0.074 A 
ATOM     40  C   UNL A   1      38.179  30.799  30.112  1.00  0.00     0.031 C 
ATOM     41  C   UNL A   1      43.245  27.707  33.651  1.00  0.00     0.029 A 
ATOM     42  C   UNL A   1      42.651  28.873  34.302  1.00  0.00     0.049 A 
ATOM     43  H   UNL A   1      41.070  30.037  33.606  1.00  0.00     0.167 HD
ATOM     44  C   UNL A   1      37.764  32.430  31.929  1.00  0.00     0.037 A 
ATOM     45  C   UNL A   1      43.029  29.394  35.484  1.00  0.00     0.037 A 
ATOM     46  C   UNL A   1      38.045  33.000  33.220  1.00  0.00     0.049 A 
ATOM     47  C   UNL A   1      42.294  30.595  36.019  1.00  0.00     0.074 A 
ATOM     48  C   UNL A   1      37.401  34.046  33.857  1.00  0.00     0.029 A 
ATOM     49  N   UNL A   1      39.059  32.577  34.070  1.00  0.00    -0.354 N 
ATOM     50  N   UNL A   1      41.285  31.248  35.489  1.00  0.00    -0.248 NA
ATOM     51  C   UNL A   1      42.741  31.129  37.312  1.00  0.00     0.031 C 
ATOM     52  C   UNL A   1      38.066  34.297  35.062  1.00  0.00     0.029 A 
ATOM     53  C   UNL A   1      39.078  33.362  35.211  1.00  0.00     0.049 A 
ATOM     54  H   UNL A   1      39.672  31.828  33.889  1.00  0.00     0.167 HD
ATOM     55  C   UNL A   1      40.960  32.251  36.396  1.00  0.00     0.074 A 
ATOM     56  C   UNL A   1      41.872  32.111  37.513  1.00  0.00     0.031 C 
ATOM     57  C   UNL A   1      39.995  33.201  36.314  1.00  0.00     0.037 A 
BRANCH  44  58
ATOM     58  C   UNL A   1      36.675  33.047  31.094  1.00  0.00     0.058 A 
ATOM     59  C   UNL A   1      35.314  32.839  31.368  1.00  0.00     0.135 A 
ATOM     60  C   UNL A   1      37.003  33.893  30.022  1.00  0.00     0.135 A 
ATOM     61  F   UNL A   1      34.941  32.022  32.366  1.00  0.00    -0.206 F 
ATOM     62  C   UNL A   1      34.318  33.432  30.598  1.00  0.00     0.059 A 
ATOM     63  C   UNL A   1      36.024  34.520  29.257  1.00  0.00     0.059 A 
ATOM     64  F   UNL A   1      38.288  34.120  29.708  1.00  0.00    -0.206 F 
ATOM     65  C   UNL A   1      34.683  34.275  29.546  1.00  0.00     0.060 A 
BRANCH  65  66
ATOM     66  S   UNL A   1      33.379  35.052  28.570  1.00  0.00     0.124 S 
ATOM     67  O   UNL A   1      34.146  35.972  27.736  1.00  0.00    -0.237 OA
ATOM     68  O   UNL A   1      32.788  33.912  27.878  1.00  0.00    -0.237 OA
ATOM     69  O   UNL A   1      32.528  35.681  29.576  1.00  0.00    -0.744 OA
ENDBRANCH  65  66
ENDBRANCH  44  58
BRANCH  45  70
ATOM     70  C   UNL A   1      44.172  28.795  36.225  1.00  0.00     0.058 A 
ATOM     71  C   UNL A   1      44.002  27.678  37.055  1.00  0.00     0.135 A 
ATOM     72  C   UNL A   1      45.467  29.327  36.103  1.00  0.00     0.135 A 
ATOM     73  F   UNL A   1      42.784  27.138  37.214  1.00  0.00    -0.206 F 
ATOM     74  C   UNL A   1      45.071  27.114  37.746  1.00  0.00     0.059 A 
ATOM     75  C   UNL A   1      46.555  28.764  36.760  1.00  0.00     0.059 A 
ATOM     76  F   UNL A   1      45.686  30.390  35.314  1.00  0.00    -0.206 F 
ATOM     77  C   UNL A   1      46.346  27.663  37.587  1.00  0.00     0.060 A 
BRANCH  77  78
ATOM     78  S   UNL A   1      47.735  26.889  38.444  1.00  0.00     0.124 S 
ATOM     79  O   UNL A   1      48.052  25.782  37.548  1.00  0.00    -0.237 OA
ATOM     80  O   UNL A   1      48.709  27.975  38.488  1.00  0.00    -0.237 OA
ATOM     81  O   UNL A   1      47.166  26.513  39.735  1.00  0.00    -0.744 OA
ENDBRANCH  77  78
ENDBRANCH  45  70
BRANCH  57  82
ATOM     82  C   UNL A   1      39.847  34.142  37.479  1.00  0.00     0.058 A 
ATOM     83  C   UNL A   1      39.059  33.821  38.596  1.00  0.00     0.135 A 
ATOM     84  C   UNL A   1      40.553  35.356  37.504  1.00  0.00     0.135 A 
ATOM     85  F   UNL A   1      38.359  32.676  38.624  1.00  0.00    -0.206 F 
ATOM     86  C   UNL A   1      38.956  34.683  39.683  1.00  0.00     0.059 A 
ATOM     87  C   UNL A   1      40.491  36.217  38.594  1.00  0.00     0.059 A 
ATOM     88  F   UNL A   1      41.332  35.705  36.467  1.00  0.00    -0.206 F 
ATOM     89  C   UNL A   1      39.679  35.878  39.674  1.00  0.00     0.060 A 
BRANCH  89  90
ATOM     90  S   UNL A   1      39.560  36.971  41.104  1.00  0.00     0.124 S 
ATOM     91  O   UNL A   1      38.819  38.100  40.552  1.00  0.00    -0.237 OA
ATOM     92  O   UNL A   1      38.834  36.146  42.067  1.00  0.00    -0.237 OA
ATOM     93  O   UNL A   1      40.953  37.240  41.445  1.00  0.00    -0.744 OA
ENDBRANCH  89  90
ENDBRANCH  57  82
ENDBRANCH  31  32
ENDBRANCH  24  26
ENDBRANCH  23  24
ENDBRANCH  22  23
ENDBRANCH  21  22
ENDBRANCH  20  21
ENDBRANCH   1  20
TORSDOF 21
ENDMDL
