MODEL 1
REMARK VINA RESULT:     -11.6      0.000      0.000
REMARK SMILES Cc1cc2c(c(C)c1Cl)C=C(C(=O)OCCOCCOC(=O)c1ccc(-c3c4nc(c(-c5c(F)cc(S(=O)(=O)[O-])cc5F)c5ccc([nH]5)c(-c5c(F)cc(S(=O)(=O)[O-])cc5F)c5nc(c(-c6c(F)cc(S(=O)(=O)[O-])cc6F)c6ccc3[nH]6)C=C5)C=C4)cc1)[C@@H](C(F)(F)F)O2
REMARK SMILES IDX 18 1 17 2 16 3 15 4 14 5 12 6 13 7 11 8 1 9 2 10 3 11 8 12
REMARK SMILES IDX 4 13 6 14 9 15 5 16 94 17 7 18 10 19 89 20 90 21 91 22 92 23
REMARK SMILES IDX 93 24 19 25 20 26 21 27 22 28 23 29 24 30 88 31 25 32 87 33
REMARK SMILES IDX 26 34 27 35 28 36 81 37 29 38 86 39 80 40 82 41 30 42 85 43
REMARK SMILES IDX 79 44 78 45 31 47 65 48 44 49 64 50 45 51 48 52 63 53 83 54
REMARK SMILES IDX 46 55 47 56 62 58 84 59 49 60 32 61 33 62 42 63 34 64 35 65
REMARK SMILES IDX 41 66 43 67 36 68 37 69 38 70 39 71 40 72 66 73 67 74 76 75
REMARK SMILES IDX 68 76 69 77 75 78 77 79 70 80 71 81 72 82 73 83 74 84 50 85
REMARK SMILES IDX 51 86 60 87 52 88 53 89 59 90 61 91 54 92 55 93 56 94 57 95
REMARK SMILES IDX 58 96
REMARK H PARENT 82 46 48 57
REMARK Flexibility Score: inf
ROOT
ATOM      1  C   UNL A   1      39.648  21.240  26.125  1.00  0.00     0.202 C 
ENDROOT
BRANCH   1   2
ATOM      2  O   UNL A   1      38.587  20.543  25.470  1.00  0.00    -0.374 OA
BRANCH   2   3
ATOM      3  C   UNL A   1      37.637  21.317  24.739  1.00  0.00     0.202 C 
BRANCH   3   4
ATOM      4  C   UNL A   1      36.175  21.201  25.179  1.00  0.00     0.261 C 
BRANCH   4   5
ATOM      5  O   UNL A   1      35.310  21.988  24.344  1.00  0.00    -0.460 OA
BRANCH   5   6
ATOM      6  C   UNL A   1      33.992  21.738  24.504  1.00  0.00     0.338 C 
ATOM      7  O   UNL A   1      33.419  20.672  24.336  1.00  0.00    -0.246 OA
BRANCH   6   8
ATOM      8  C   UNL A   1      33.321  22.928  25.065  1.00  0.00     0.087 C 
ATOM      9  C   UNL A   1      31.718  28.906  26.928  1.00  0.00     0.046 C 
ATOM     10  C   UNL A   1      32.122  27.681  26.152  1.00  0.00    -0.028 A 
ATOM     11  C   UNL A   1      31.891  26.434  26.750  1.00  0.00     0.052 A 
ATOM     12  C   UNL A   1      32.675  27.722  24.858  1.00  0.00     0.047 A 
ATOM     13  C   UNL A   1      32.287  25.254  26.124  1.00  0.00     0.128 A 
ATOM     14  C   UNL A   1      33.074  26.533  24.202  1.00  0.00    -0.021 A 
ATOM     15  Cl  UNL A   1      32.865  29.261  24.074  1.00  0.00    -0.084 Cl
ATOM     16  C   UNL A   1      32.912  25.296  24.876  1.00  0.00     0.022 A 
ATOM     17  O   UNL A   1      32.010  24.106  26.813  1.00  0.00    -0.475 OA
ATOM     18  C   UNL A   1      33.669  26.548  22.810  1.00  0.00     0.047 C 
ATOM     19  C   UNL A   1      33.434  24.045  24.335  1.00  0.00     0.027 C 
ATOM     20  C   UNL A   1      32.594  22.850  26.374  1.00  0.00     0.316 C 
BRANCH  20  21
ATOM     21  C   UNL A   1      33.473  22.305  27.510  1.00  0.00     0.430 C 
ATOM     22  F   UNL A   1      34.686  22.908  27.520  1.00  0.00    -0.167 F 
ATOM     23  F   UNL A   1      32.916  22.522  28.723  1.00  0.00    -0.167 F 
ATOM     24  F   UNL A   1      33.682  20.974  27.389  1.00  0.00    -0.167 F 
ENDBRANCH  20  21
ENDBRANCH   6   8
ENDBRANCH   5   6
ENDBRANCH   4   5
ENDBRANCH   3   4
ENDBRANCH   2   3
ENDBRANCH   1   2
BRANCH   1  25
ATOM     25  C   UNL A   1      39.404  22.707  26.499  1.00  0.00     0.261 C 
BRANCH  25  26
ATOM     26  O   UNL A   1      40.289  23.164  27.539  1.00  0.00    -0.460 OA
BRANCH  26  27
ATOM     27  C   UNL A   1      41.110  24.179  27.177  1.00  0.00     0.338 C 
ATOM     28  O   UNL A   1      41.895  24.191  26.238  1.00  0.00    -0.246 OA
BRANCH  27  29
ATOM     29  C   UNL A   1      40.805  25.384  27.967  1.00  0.00     0.060 A 
ATOM     30  C   UNL A   1      41.815  26.347  28.100  1.00  0.00     0.016 A 
ATOM     31  C   UNL A   1      39.589  25.532  28.636  1.00  0.00     0.016 A 
ATOM     32  C   UNL A   1      41.627  27.441  28.940  1.00  0.00     0.010 A 
ATOM     33  C   UNL A   1      39.408  26.625  29.490  1.00  0.00     0.010 A 
ATOM     34  C   UNL A   1      40.438  27.565  29.671  1.00  0.00    -0.014 A 
BRANCH  34  35
ATOM     35  C   UNL A   1      40.336  28.598  30.729  1.00  0.00     0.031 A 
ATOM     36  C   UNL A   1      41.267  28.527  31.909  1.00  0.00     0.074 A 
ATOM     37  C   UNL A   1      39.454  29.608  30.619  1.00  0.00     0.049 A 
ATOM     38  N   UNL A   1      41.334  29.303  32.958  1.00  0.00    -0.248 NA
ATOM     39  C   UNL A   1      42.256  27.436  31.902  1.00  0.00     0.031 C 
ATOM     40  C   UNL A   1      38.541  29.809  29.496  1.00  0.00     0.029 A 
ATOM     41  N   UNL A   1      39.187  30.654  31.465  1.00  0.00    -0.354 N 
ATOM     42  C   UNL A   1      42.373  28.802  33.735  1.00  0.00     0.074 A 
ATOM     43  C   UNL A   1      42.885  27.633  33.052  1.00  0.00     0.031 C 
ATOM     44  C   UNL A   1      37.809  30.914  29.723  1.00  0.00     0.029 A 
ATOM     45  C   UNL A   1      38.181  31.478  31.020  1.00  0.00     0.049 A 
ATOM     46  H   UNL A   1      39.669  30.800  32.310  1.00  0.00     0.167 HD
ATOM     47  C   UNL A   1      42.862  29.281  34.902  1.00  0.00     0.037 A 
ATOM     48  C   UNL A   1      37.614  32.555  31.601  1.00  0.00     0.037 A 
ATOM     49  C   UNL A   1      42.343  30.440  35.579  1.00  0.00     0.049 A 
ATOM     50  C   UNL A   1      38.119  33.018  32.943  1.00  0.00     0.074 A 
ATOM     51  C   UNL A   1      42.763  30.999  36.774  1.00  0.00     0.029 A 
ATOM     52  N   UNL A   1      41.291  31.219  35.122  1.00  0.00    -0.354 N 
ATOM     53  N   UNL A   1      39.095  32.528  33.672  1.00  0.00    -0.248 NA
ATOM     54  C   UNL A   1      37.446  34.178  33.543  1.00  0.00     0.031 C 
ATOM     55  C   UNL A   1      41.937  32.090  37.060  1.00  0.00     0.029 A 
ATOM     56  C   UNL A   1      41.035  32.242  36.019  1.00  0.00     0.049 A 
ATOM     57  H   UNL A   1      40.798  31.067  34.283  1.00  0.00     0.167 HD
ATOM     58  C   UNL A   1      39.170  33.336  34.801  1.00  0.00     0.074 A 
ATOM     59  C   UNL A   1      38.146  34.351  34.657  1.00  0.00     0.031 C 
ATOM     60  C   UNL A   1      40.014  33.249  35.859  1.00  0.00     0.037 A 
BRANCH  47  61
ATOM     61  C   UNL A   1      44.009  28.541  35.533  1.00  0.00     0.058 A 
ATOM     62  C   UNL A   1      43.796  27.508  36.460  1.00  0.00     0.135 A 
ATOM     63  C   UNL A   1      45.334  28.835  35.173  1.00  0.00     0.135 A 
ATOM     64  F   UNL A   1      42.551  27.201  36.855  1.00  0.00    -0.206 F 
ATOM     65  C   UNL A   1      44.857  26.803  37.020  1.00  0.00     0.059 A 
ATOM     66  C   UNL A   1      46.409  28.127  35.701  1.00  0.00     0.059 A 
ATOM     67  F   UNL A   1      45.593  29.817  34.295  1.00  0.00    -0.206 F 
ATOM     68  C   UNL A   1      46.161  27.118  36.630  1.00  0.00     0.060 A 
BRANCH  68  69
ATOM     69  S   UNL A   1      47.524  26.182  37.355  1.00  0.00     0.124 S 
ATOM     70  O   UNL A   1      47.008  24.817  37.290  1.00  0.00    -0.237 OA
ATOM     71  O   UNL A   1      48.626  26.487  36.448  1.00  0.00    -0.237 OA
ATOM     72  O   UNL A   1      47.646  26.741  38.698  1.00  0.00    -0.744 OA
ENDBRANCH  68  69
ENDBRANCH  47  61
BRANCH  48  73
ATOM     73  C   UNL A   1      36.510  33.271  30.913  1.00  0.00     0.058 A 
ATOM     74  C   UNL A   1      35.183  33.146  31.351  1.00  0.00     0.135 A 
ATOM     75  C   UNL A   1      36.759  34.111  29.816  1.00  0.00     0.135 A 
ATOM     76  F   UNL A   1      34.893  32.344  32.388  1.00  0.00    -0.206 F 
ATOM     77  C   UNL A   1      34.142  33.824  30.726  1.00  0.00     0.059 A 
ATOM     78  C   UNL A   1      35.738  34.820  29.190  1.00  0.00     0.059 A 
ATOM     79  F   UNL A   1      38.012  34.272  29.363  1.00  0.00    -0.206 F 
ATOM     80  C   UNL A   1      34.431  34.665  29.650  1.00  0.00     0.060 A 
BRANCH  80  81
ATOM     81  S   UNL A   1      33.078  35.589  28.889  1.00  0.00     0.124 S 
ATOM     82  O   UNL A   1      32.373  36.096  30.060  1.00  0.00    -0.237 OA
ATOM     83  O   UNL A   1      33.796  36.581  28.095  1.00  0.00    -0.237 OA
ATOM     84  O   UNL A   1      32.369  34.572  28.118  1.00  0.00    -0.744 OA
ENDBRANCH  80  81
ENDBRANCH  48  73
BRANCH  60  85
ATOM     85  C   UNL A   1      39.894  34.291  36.937  1.00  0.00     0.058 A 
ATOM     86  C   UNL A   1      40.524  35.539  36.829  1.00  0.00     0.135 A 
ATOM     87  C   UNL A   1      39.078  34.062  38.057  1.00  0.00     0.135 A 
ATOM     88  F   UNL A   1      41.318  35.807  35.780  1.00  0.00    -0.206 F 
ATOM     89  C   UNL A   1      40.362  36.521  37.801  1.00  0.00     0.059 A 
ATOM     90  C   UNL A   1      38.881  35.039  39.029  1.00  0.00     0.059 A 
ATOM     91  F   UNL A   1      38.443  32.888  38.204  1.00  0.00    -0.206 F 
ATOM     92  C   UNL A   1      39.534  36.263  38.896  1.00  0.00     0.060 A 
BRANCH  92  93
ATOM     93  S   UNL A   1      39.299  37.562  40.127  1.00  0.00     0.124 S 
ATOM     94  O   UNL A   1      38.991  36.783  41.322  1.00  0.00    -0.237 OA
ATOM     95  O   UNL A   1      40.596  38.232  40.124  1.00  0.00    -0.237 OA
ATOM     96  O   UNL A   1      38.193  38.347  39.588  1.00  0.00    -0.744 OA
ENDBRANCH  92  93
ENDBRANCH  60  85
ENDBRANCH  34  35
ENDBRANCH  27  29
ENDBRANCH  26  27
ENDBRANCH  25  26
ENDBRANCH   1  25
TORSDOF 18
ENDMDL
MODEL 2
REMARK VINA RESULT:     -11.5      6.357     11.894
REMARK SMILES Cc1cc2c(c(C)c1Cl)C=C(C(=O)OCCOCCOC(=O)c1ccc(-c3c4nc(c(-c5c(F)cc(S(=O)(=O)[O-])cc5F)c5ccc([nH]5)c(-c5c(F)cc(S(=O)(=O)[O-])cc5F)c5nc(c(-c6c(F)cc(S(=O)(=O)[O-])cc6F)c6ccc3[nH]6)C=C5)C=C4)cc1)[C@@H](C(F)(F)F)O2
REMARK SMILES IDX 18 1 17 2 16 3 15 4 14 5 12 6 13 7 11 8 1 9 2 10 3 11 8 12
REMARK SMILES IDX 4 13 6 14 9 15 5 16 94 17 7 18 10 19 89 20 90 21 91 22 92 23
REMARK SMILES IDX 93 24 19 25 20 26 21 27 22 28 23 29 24 30 88 31 25 32 87 33
REMARK SMILES IDX 26 34 27 35 28 36 81 37 29 38 86 39 80 40 82 41 30 42 85 43
REMARK SMILES IDX 79 44 78 45 31 47 65 48 44 49 64 50 45 51 48 52 63 53 83 54
REMARK SMILES IDX 46 55 47 56 62 58 84 59 49 60 32 61 33 62 42 63 34 64 35 65
REMARK SMILES IDX 41 66 43 67 36 68 37 69 38 70 39 71 40 72 66 73 67 74 76 75
REMARK SMILES IDX 68 76 69 77 75 78 77 79 70 80 71 81 72 82 73 83 74 84 50 85
REMARK SMILES IDX 51 86 60 87 52 88 53 89 59 90 61 91 54 92 55 93 56 94 57 95
REMARK SMILES IDX 58 96
REMARK H PARENT 82 46 48 57
REMARK Flexibility Score: inf
ROOT
ATOM      1  C   UNL A   1      34.565  31.807  27.660  1.00  0.00     0.202 C 
ENDROOT
BRANCH   1   2
ATOM      2  O   UNL A   1      34.146  30.499  27.264  1.00  0.00    -0.374 OA
BRANCH   2   3
ATOM      3  C   UNL A   1      32.743  30.237  27.222  1.00  0.00     0.202 C 
BRANCH   3   4
ATOM      4  C   UNL A   1      32.292  29.062  26.351  1.00  0.00     0.261 C 
BRANCH   4   5
ATOM      5  O   UNL A   1      33.200  27.954  26.450  1.00  0.00    -0.460 OA
BRANCH   5   6
ATOM      6  C   UNL A   1      33.547  27.402  25.266  1.00  0.00     0.338 C 
ATOM      7  O   UNL A   1      34.030  27.973  24.301  1.00  0.00    -0.246 OA
BRANCH   6   8
ATOM      8  C   UNL A   1      33.394  25.935  25.335  1.00  0.00     0.087 C 
ATOM      9  C   UNL A   1      34.051  19.541  24.648  1.00  0.00     0.046 C 
ATOM     10  C   UNL A   1      34.262  21.007  24.919  1.00  0.00    -0.028 A 
ATOM     11  C   UNL A   1      33.121  21.809  25.055  1.00  0.00     0.052 A 
ATOM     12  C   UNL A   1      35.531  21.597  25.081  1.00  0.00     0.047 A 
ATOM     13  C   UNL A   1      33.229  23.184  25.251  1.00  0.00     0.128 A 
ATOM     14  C   UNL A   1      35.660  22.991  25.289  1.00  0.00    -0.021 A 
ATOM     15  Cl  UNL A   1      36.943  20.586  25.016  1.00  0.00    -0.084 Cl
ATOM     16  C   UNL A   1      34.487  23.786  25.328  1.00  0.00     0.022 A 
ATOM     17  O   UNL A   1      32.042  23.853  25.362  1.00  0.00    -0.475 OA
ATOM     18  C   UNL A   1      37.010  23.651  25.469  1.00  0.00     0.047 C 
ATOM     19  C   UNL A   1      34.539  25.243  25.388  1.00  0.00     0.027 C 
ATOM     20  C   UNL A   1      32.034  25.306  25.320  1.00  0.00     0.316 C 
BRANCH  20  21
ATOM     21  C   UNL A   1      31.188  25.747  24.116  1.00  0.00     0.430 C 
ATOM     22  F   UNL A   1      30.183  24.870  23.879  1.00  0.00    -0.167 F 
ATOM     23  F   UNL A   1      30.615  26.954  24.321  1.00  0.00    -0.167 F 
ATOM     24  F   UNL A   1      31.927  25.832  22.987  1.00  0.00    -0.167 F 
ENDBRANCH  20  21
ENDBRANCH   6   8
ENDBRANCH   5   6
ENDBRANCH   4   5
ENDBRANCH   3   4
ENDBRANCH   2   3
ENDBRANCH   1   2
BRANCH   1  25
ATOM     25  C   UNL A   1      34.706  32.080  29.162  1.00  0.00     0.261 C 
BRANCH  25  26
ATOM     26  O   UNL A   1      36.078  32.249  29.564  1.00  0.00    -0.460 OA
BRANCH  26  27
ATOM     27  C   UNL A   1      36.495  31.392  30.526  1.00  0.00     0.338 C 
ATOM     28  O   UNL A   1      35.923  31.129  31.576  1.00  0.00    -0.246 OA
BRANCH  27  29
ATOM     29  C   UNL A   1      37.676  30.644  30.062  1.00  0.00     0.060 A 
ATOM     30  C   UNL A   1      38.596  30.217  31.029  1.00  0.00     0.016 A 
ATOM     31  C   UNL A   1      37.925  30.439  28.704  1.00  0.00     0.016 A 
ATOM     32  C   UNL A   1      39.792  29.621  30.637  1.00  0.00     0.010 A 
ATOM     33  C   UNL A   1      39.133  29.852  28.312  1.00  0.00     0.010 A 
ATOM     34  C   UNL A   1      40.085  29.471  29.275  1.00  0.00    -0.014 A 
BRANCH  34  35
ATOM     35  C   UNL A   1      41.446  29.052  28.863  1.00  0.00     0.031 A 
ATOM     36  C   UNL A   1      42.559  30.064  28.887  1.00  0.00     0.074 A 
ATOM     37  C   UNL A   1      41.693  27.777  28.511  1.00  0.00     0.049 A 
ATOM     38  N   UNL A   1      43.812  29.924  28.543  1.00  0.00    -0.248 NA
ATOM     39  C   UNL A   1      42.212  31.412  29.368  1.00  0.00     0.031 C 
ATOM     40  C   UNL A   1      40.705  26.700  28.502  1.00  0.00     0.029 A 
ATOM     41  N   UNL A   1      42.854  27.176  28.096  1.00  0.00    -0.354 N 
ATOM     42  C   UNL A   1      44.407  31.160  28.769  1.00  0.00     0.074 A 
ATOM     43  C   UNL A   1      43.368  32.048  29.246  1.00  0.00     0.031 C 
ATOM     44  C   UNL A   1      41.303  25.565  28.098  1.00  0.00     0.029 A 
ATOM     45  C   UNL A   1      42.706  25.845  27.791  1.00  0.00     0.049 A 
ATOM     46  H   UNL A   1      43.711  27.654  28.023  1.00  0.00     0.167 HD
ATOM     47  C   UNL A   1      45.702  31.517  28.604  1.00  0.00     0.037 A 
ATOM     48  C   UNL A   1      43.596  24.957  27.304  1.00  0.00     0.037 A 
ATOM     49  C   UNL A   1      46.728  30.631  28.122  1.00  0.00     0.049 A 
ATOM     50  C   UNL A   1      45.013  25.401  27.048  1.00  0.00     0.074 A 
ATOM     51  C   UNL A   1      48.069  30.900  27.909  1.00  0.00     0.029 A 
ATOM     52  N   UNL A   1      46.528  29.302  27.776  1.00  0.00    -0.354 N 
ATOM     53  N   UNL A   1      45.560  26.576  27.255  1.00  0.00    -0.248 NA
ATOM     54  C   UNL A   1      45.934  24.401  26.490  1.00  0.00     0.031 C 
ATOM     55  C   UNL A   1      48.670  29.748  27.395  1.00  0.00     0.029 A 
ATOM     56  C   UNL A   1      47.716  28.745  27.334  1.00  0.00     0.049 A 
ATOM     57  H   UNL A   1      45.668  28.826  27.836  1.00  0.00     0.167 HD
ATOM     58  C   UNL A   1      46.893  26.448  26.880  1.00  0.00     0.074 A 
ATOM     59  C   UNL A   1      47.073  25.080  26.438  1.00  0.00     0.031 C 
ATOM     60  C   UNL A   1      47.880  27.378  26.903  1.00  0.00     0.037 A 
BRANCH  47  61
ATOM     61  C   UNL A   1      46.082  32.934  28.934  1.00  0.00     0.058 A 
ATOM     62  C   UNL A   1      46.582  33.285  30.198  1.00  0.00     0.135 A 
ATOM     63  C   UNL A   1      45.992  33.943  27.962  1.00  0.00     0.135 A 
ATOM     64  F   UNL A   1      46.668  32.363  31.170  1.00  0.00    -0.206 F 
ATOM     65  C   UNL A   1      46.963  34.590  30.493  1.00  0.00     0.059 A 
ATOM     66  C   UNL A   1      46.392  35.250  28.226  1.00  0.00     0.059 A 
ATOM     67  F   UNL A   1      45.517  33.662  26.738  1.00  0.00    -0.206 F 
ATOM     68  C   UNL A   1      46.867  35.565  29.498  1.00  0.00     0.060 A 
BRANCH  68  69
ATOM     69  S   UNL A   1      47.382  37.250  29.893  1.00  0.00     0.124 S 
ATOM     70  O   UNL A   1      48.624  37.362  29.132  1.00  0.00    -0.237 OA
ATOM     71  O   UNL A   1      46.261  38.041  29.397  1.00  0.00    -0.237 OA
ATOM     72  O   UNL A   1      47.538  37.228  31.344  1.00  0.00    -0.744 OA
ENDBRANCH  68  69
ENDBRANCH  47  61
BRANCH  48  73
ATOM     73  C   UNL A   1      43.174  23.558  27.034  1.00  0.00     0.058 A 
ATOM     74  C   UNL A   1      42.961  23.108  25.723  1.00  0.00     0.135 A 
ATOM     75  C   UNL A   1      42.996  22.637  28.079  1.00  0.00     0.135 A 
ATOM     76  F   UNL A   1      43.106  23.956  24.692  1.00  0.00    -0.206 F 
ATOM     77  C   UNL A   1      42.582  21.798  25.455  1.00  0.00     0.059 A 
ATOM     78  C   UNL A   1      42.641  21.314  27.835  1.00  0.00     0.059 A 
ATOM     79  F   UNL A   1      43.196  23.016  29.351  1.00  0.00    -0.206 F 
ATOM     80  C   UNL A   1      42.431  20.905  26.518  1.00  0.00     0.060 A 
BRANCH  80  81
ATOM     81  S   UNL A   1      42.003  19.190  26.151  1.00  0.00     0.124 S 
ATOM     82  O   UNL A   1      40.595  19.309  25.790  1.00  0.00    -0.237 OA
ATOM     83  O   UNL A   1      42.920  18.873  25.061  1.00  0.00    -0.237 OA
ATOM     84  O   UNL A   1      42.274  18.499  27.410  1.00  0.00    -0.744 OA
ENDBRANCH  80  81
ENDBRANCH  48  73
BRANCH  60  85
ATOM     85  C   UNL A   1      49.254  26.949  26.467  1.00  0.00     0.058 A 
ATOM     86  C   UNL A   1      50.137  26.303  27.345  1.00  0.00     0.135 A 
ATOM     87  C   UNL A   1      49.663  27.123  25.135  1.00  0.00     0.135 A 
ATOM     88  F   UNL A   1      49.798  26.117  28.630  1.00  0.00    -0.206 F 
ATOM     89  C   UNL A   1      51.385  25.856  26.921  1.00  0.00     0.059 A 
ATOM     90  C   UNL A   1      50.896  26.661  24.682  1.00  0.00     0.059 A 
ATOM     91  F   UNL A   1      48.851  27.725  24.251  1.00  0.00    -0.206 F 
ATOM     92  C   UNL A   1      51.753  26.036  25.586  1.00  0.00     0.060 A 
BRANCH  92  93
ATOM     93  S   UNL A   1      53.357  25.412  25.041  1.00  0.00     0.124 S 
ATOM     94  O   UNL A   1      53.250  25.551  23.592  1.00  0.00    -0.237 OA
ATOM     95  O   UNL A   1      54.286  26.326  25.699  1.00  0.00    -0.237 OA
ATOM     96  O   UNL A   1      53.377  24.040  25.540  1.00  0.00    -0.744 OA
ENDBRANCH  92  93
ENDBRANCH  60  85
ENDBRANCH  34  35
ENDBRANCH  27  29
ENDBRANCH  26  27
ENDBRANCH  25  26
ENDBRANCH   1  25
TORSDOF 18
ENDMDL
MODEL 3
REMARK VINA RESULT:     -11.4      1.377      2.153
REMARK SMILES Cc1cc2c(c(C)c1Cl)C=C(C(=O)OCCOCCOC(=O)c1ccc(-c3c4nc(c(-c5c(F)cc(S(=O)(=O)[O-])cc5F)c5ccc([nH]5)c(-c5c(F)cc(S(=O)(=O)[O-])cc5F)c5nc(c(-c6c(F)cc(S(=O)(=O)[O-])cc6F)c6ccc3[nH]6)C=C5)C=C4)cc1)[C@@H](C(F)(F)F)O2
REMARK SMILES IDX 18 1 17 2 16 3 15 4 14 5 12 6 13 7 11 8 1 9 2 10 3 11 8 12
REMARK SMILES IDX 4 13 6 14 9 15 5 16 94 17 7 18 10 19 89 20 90 21 91 22 92 23
REMARK SMILES IDX 93 24 19 25 20 26 21 27 22 28 23 29 24 30 88 31 25 32 87 33
REMARK SMILES IDX 26 34 27 35 28 36 81 37 29 38 86 39 80 40 82 41 30 42 85 43
REMARK SMILES IDX 79 44 78 45 31 47 65 48 44 49 64 50 45 51 48 52 63 53 83 54
REMARK SMILES IDX 46 55 47 56 62 58 84 59 49 60 32 61 33 62 42 63 34 64 35 65
REMARK SMILES IDX 41 66 43 67 36 68 37 69 38 70 39 71 40 72 66 73 67 74 76 75
REMARK SMILES IDX 68 76 69 77 75 78 77 79 70 80 71 81 72 82 73 83 74 84 50 85
REMARK SMILES IDX 51 86 60 87 52 88 53 89 59 90 61 91 54 92 55 93 56 94 57 95
REMARK SMILES IDX 58 96
REMARK H PARENT 82 46 48 57
REMARK Flexibility Score: inf
ROOT
ATOM      1  C   UNL A   1      39.169  21.495  25.805  1.00  0.00     0.202 C 
ENDROOT
BRANCH   1   2
ATOM      2  O   UNL A   1      37.743  21.574  25.793  1.00  0.00    -0.374 OA
BRANCH   2   3
ATOM      3  C   UNL A   1      37.111  21.972  24.577  1.00  0.00     0.202 C 
BRANCH   3   4
ATOM      4  C   UNL A   1      36.772  23.459  24.436  1.00  0.00     0.261 C 
BRANCH   4   5
ATOM      5  O   UNL A   1      35.398  23.652  24.064  1.00  0.00    -0.460 OA
BRANCH   5   6
ATOM      6  C   UNL A   1      34.607  24.120  25.055  1.00  0.00     0.338 C 
ATOM      7  O   UNL A   1      34.627  23.790  26.231  1.00  0.00    -0.246 OA
BRANCH   6   8
ATOM      8  C   UNL A   1      33.773  25.228  24.549  1.00  0.00     0.087 C 
ATOM      9  C   UNL A   1      29.844  30.325  23.940  1.00  0.00     0.046 C 
ATOM     10  C   UNL A   1      30.951  29.375  24.310  1.00  0.00    -0.028 A 
ATOM     11  C   UNL A   1      31.126  28.241  23.504  1.00  0.00     0.052 A 
ATOM     12  C   UNL A   1      31.835  29.586  25.387  1.00  0.00     0.047 A 
ATOM     13  C   UNL A   1      32.091  27.284  23.811  1.00  0.00     0.128 A 
ATOM     14  C   UNL A   1      32.827  28.629  25.708  1.00  0.00    -0.021 A 
ATOM     15  Cl  UNL A   1      31.686  31.042  26.324  1.00  0.00    -0.084 Cl
ATOM     16  C   UNL A   1      32.914  27.448  24.927  1.00  0.00     0.022 A 
ATOM     17  O   UNL A   1      32.156  26.224  22.950  1.00  0.00    -0.475 OA
ATOM     18  C   UNL A   1      33.791  28.831  26.857  1.00  0.00     0.047 C 
ATOM     19  C   UNL A   1      33.805  26.348  25.281  1.00  0.00     0.027 C 
ATOM     20  C   UNL A   1      32.947  25.059  23.309  1.00  0.00     0.316 C 
BRANCH  20  21
ATOM     21  C   UNL A   1      32.009  23.844  23.380  1.00  0.00     0.430 C 
ATOM     22  F   UNL A   1      32.546  22.776  22.746  1.00  0.00    -0.167 F 
ATOM     23  F   UNL A   1      31.774  23.467  24.657  1.00  0.00    -0.167 F 
ATOM     24  F   UNL A   1      30.812  24.099  22.804  1.00  0.00    -0.167 F 
ENDBRANCH  20  21
ENDBRANCH   6   8
ENDBRANCH   5   6
ENDBRANCH   4   5
ENDBRANCH   3   4
ENDBRANCH   2   3
ENDBRANCH   1   2
BRANCH   1  25
ATOM     25  C   UNL A   1      39.911  22.274  26.898  1.00  0.00     0.261 C 
BRANCH  25  26
ATOM     26  O   UNL A   1      39.910  23.694  26.658  1.00  0.00    -0.460 OA
BRANCH  26  27
ATOM     27  C   UNL A   1      41.046  24.331  27.029  1.00  0.00     0.338 C 
ATOM     28  O   UNL A   1      42.182  24.100  26.635  1.00  0.00    -0.246 OA
BRANCH  27  29
ATOM     29  C   UNL A   1      40.721  25.502  27.861  1.00  0.00     0.060 A 
ATOM     30  C   UNL A   1      41.649  26.553  27.894  1.00  0.00     0.016 A 
ATOM     31  C   UNL A   1      39.576  25.539  28.658  1.00  0.00     0.016 A 
ATOM     32  C   UNL A   1      41.455  27.625  28.761  1.00  0.00     0.010 A 
ATOM     33  C   UNL A   1      39.391  26.611  29.538  1.00  0.00     0.010 A 
ATOM     34  C   UNL A   1      40.346  27.641  29.616  1.00  0.00    -0.014 A 
BRANCH  34  35
ATOM     35  C   UNL A   1      40.266  28.659  30.691  1.00  0.00     0.031 A 
ATOM     36  C   UNL A   1      41.213  28.565  31.856  1.00  0.00     0.074 A 
ATOM     37  C   UNL A   1      39.390  29.676  30.607  1.00  0.00     0.049 A 
ATOM     38  N   UNL A   1      41.301  29.326  32.914  1.00  0.00    -0.248 NA
ATOM     39  C   UNL A   1      42.194  27.467  31.819  1.00  0.00     0.031 C 
ATOM     40  C   UNL A   1      38.462  29.900  29.500  1.00  0.00     0.029 A 
ATOM     41  N   UNL A   1      39.142  30.713  31.471  1.00  0.00    -0.354 N 
ATOM     42  C   UNL A   1      42.347  28.807  33.669  1.00  0.00     0.074 A 
ATOM     43  C   UNL A   1      42.840  27.644  32.963  1.00  0.00     0.031 C 
ATOM     44  C   UNL A   1      37.742  31.006  29.752  1.00  0.00     0.029 A 
ATOM     45  C   UNL A   1      38.136  31.550  31.052  1.00  0.00     0.049 A 
ATOM     46  H   UNL A   1      39.637  30.844  32.311  1.00  0.00     0.167 HD
ATOM     47  C   UNL A   1      42.855  29.266  34.836  1.00  0.00     0.037 A 
ATOM     48  C   UNL A   1      37.586  32.622  31.656  1.00  0.00     0.037 A 
ATOM     49  C   UNL A   1      42.355  30.419  35.536  1.00  0.00     0.049 A 
ATOM     50  C   UNL A   1      38.112  33.063  32.997  1.00  0.00     0.074 A 
ATOM     51  C   UNL A   1      42.795  30.958  36.733  1.00  0.00     0.029 A 
ATOM     52  N   UNL A   1      41.301  31.212  35.105  1.00  0.00    -0.354 N 
ATOM     53  N   UNL A   1      39.095  32.556  33.705  1.00  0.00    -0.248 NA
ATOM     54  C   UNL A   1      37.456  34.219  33.623  1.00  0.00     0.031 C 
ATOM     55  C   UNL A   1      41.982  32.051  37.046  1.00  0.00     0.029 A 
ATOM     56  C   UNL A   1      41.066  32.224  36.020  1.00  0.00     0.049 A 
ATOM     57  H   UNL A   1      40.796  31.075  34.271  1.00  0.00     0.167 HD
ATOM     58  C   UNL A   1      39.192  33.348  34.844  1.00  0.00     0.074 A 
ATOM     59  C   UNL A   1      38.173  34.371  34.729  1.00  0.00     0.031 C 
ATOM     60  C   UNL A   1      40.050  33.240  35.889  1.00  0.00     0.037 A 
BRANCH  47  61
ATOM     61  C   UNL A   1      44.006  28.509  35.441  1.00  0.00     0.058 A 
ATOM     62  C   UNL A   1      45.337  28.815  35.115  1.00  0.00     0.135 A 
ATOM     63  C   UNL A   1      43.779  27.502  36.391  1.00  0.00     0.135 A 
ATOM     64  F   UNL A   1      45.610  29.755  34.196  1.00  0.00    -0.206 F 
ATOM     65  C   UNL A   1      46.402  28.136  35.698  1.00  0.00     0.059 A 
ATOM     66  C   UNL A   1      44.829  26.827  37.006  1.00  0.00     0.059 A 
ATOM     67  F   UNL A   1      42.525  27.168  36.735  1.00  0.00    -0.206 F 
ATOM     68  C   UNL A   1      46.137  27.145  36.646  1.00  0.00     0.060 A 
BRANCH  68  69
ATOM     69  S   UNL A   1      47.532  26.286  37.405  1.00  0.00     0.124 S 
ATOM     70  O   UNL A   1      46.952  24.975  37.683  1.00  0.00    -0.237 OA
ATOM     71  O   UNL A   1      48.534  26.324  36.345  1.00  0.00    -0.237 OA
ATOM     72  O   UNL A   1      47.835  27.097  38.580  1.00  0.00    -0.744 OA
ENDBRANCH  68  69
ENDBRANCH  47  61
BRANCH  48  73
ATOM     73  C   UNL A   1      36.476  33.356  30.993  1.00  0.00     0.058 A 
ATOM     74  C   UNL A   1      36.710  34.152  29.863  1.00  0.00     0.135 A 
ATOM     75  C   UNL A   1      35.157  33.259  31.464  1.00  0.00     0.135 A 
ATOM     76  F   UNL A   1      37.957  34.286  29.384  1.00  0.00    -0.206 F 
ATOM     77  C   UNL A   1      35.678  34.830  29.224  1.00  0.00     0.059 A 
ATOM     78  C   UNL A   1      34.103  33.908  30.827  1.00  0.00     0.059 A 
ATOM     79  F   UNL A   1      34.879  32.503  32.537  1.00  0.00    -0.206 F 
ATOM     80  C   UNL A   1      34.376  34.697  29.709  1.00  0.00     0.060 A 
BRANCH  80  81
ATOM     81  S   UNL A   1      33.037  35.531  28.831  1.00  0.00     0.124 S 
ATOM     82  O   UNL A   1      32.224  36.027  29.935  1.00  0.00    -0.237 OA
ATOM     83  O   UNL A   1      33.759  36.540  28.062  1.00  0.00    -0.237 OA
ATOM     84  O   UNL A   1      32.437  34.460  28.039  1.00  0.00    -0.744 OA
ENDBRANCH  80  81
ENDBRANCH  48  73
BRANCH  60  85
ATOM     85  C   UNL A   1      39.953  34.267  36.982  1.00  0.00     0.058 A 
ATOM     86  C   UNL A   1      40.599  35.508  36.888  1.00  0.00     0.135 A 
ATOM     87  C   UNL A   1      39.142  34.033  38.105  1.00  0.00     0.135 A 
ATOM     88  F   UNL A   1      41.390  35.780  35.838  1.00  0.00    -0.206 F 
ATOM     89  C   UNL A   1      40.458  36.478  37.875  1.00  0.00     0.059 A 
ATOM     90  C   UNL A   1      38.966  34.999  39.093  1.00  0.00     0.059 A 
ATOM     91  F   UNL A   1      38.491  32.867  38.239  1.00  0.00    -0.206 F 
ATOM     92  C   UNL A   1      39.635  36.215  38.973  1.00  0.00     0.060 A 
BRANCH  92  93
ATOM     93  S   UNL A   1      39.428  37.500  40.224  1.00  0.00     0.124 S 
ATOM     94  O   UNL A   1      40.791  38.004  40.356  1.00  0.00    -0.237 OA
ATOM     95  O   UNL A   1      38.476  38.404  39.587  1.00  0.00    -0.237 OA
ATOM     96  O   UNL A   1      38.915  36.770  41.380  1.00  0.00    -0.744 OA
ENDBRANCH  92  93
ENDBRANCH  60  85
ENDBRANCH  34  35
ENDBRANCH  27  29
ENDBRANCH  26  27
ENDBRANCH  25  26
ENDBRANCH   1  25
TORSDOF 18
ENDMDL
