MODEL 1
REMARK VINA RESULT:     -11.2      0.000      0.000
REMARK SMILES O=C(OCCOCCOC(=O)[C@@H]1[C@@H](C(=O)NCCCn2ccnc2)[C@@H]2C=C[C@H]1C2)c1ccc(-c2c3nc(c(-c4c(F)cc(S(=O)(=O)[O-])cc4F)c4ccc([nH]4)c(-c4c(F)cc(S(=O)(=O)[O-])cc4F)c4nc(c(-c5c(F)cc(S(=O)(=O)[O-])cc5F)c5ccc2[nH]5)C=C4)C=C3)cc1
REMARK SMILES IDX 7 1 6 2 5 3 4 4 3 5 2 6 1 7 30 8 31 9 95 10 32 11 94 12
REMARK SMILES IDX 33 13 34 14 35 15 88 16 36 17 93 18 87 19 89 20 37 21 92 22
REMARK SMILES IDX 86 23 85 24 38 26 72 27 51 28 71 29 52 30 55 31 70 32 90 33
REMARK SMILES IDX 53 34 54 35 69 37 91 38 56 39 39 40 40 41 49 42 41 43 42 44
REMARK SMILES IDX 48 45 50 46 43 47 44 48 45 49 46 50 47 51 73 52 74 53 83 54
REMARK SMILES IDX 75 55 76 56 82 57 84 58 77 59 78 60 79 61 80 62 81 63 57 64
REMARK SMILES IDX 58 65 67 66 59 67 60 68 66 69 68 70 61 71 62 72 63 73 64 74
REMARK SMILES IDX 65 75 8 76 9 77 10 78 11 79 12 80 13 81 28 82 25 83 27 84
REMARK SMILES IDX 29 85 26 86 14 87 15 88 16 89 17 91 18 92 19 93 20 94 21 95
REMARK SMILES IDX 24 96 22 97 23 98
REMARK H PARENT 89 25 55 36 16 90
REMARK Flexibility Score: inf
ROOT
ATOM      1  C   UNL A   1      35.450  23.233  23.650  1.00  0.00     0.202 C 
ENDROOT
BRANCH   1   2
ATOM      2  O   UNL A   1      35.989  22.234  24.528  1.00  0.00    -0.374 OA
BRANCH   2   3
ATOM      3  C   UNL A   1      37.296  21.744  24.267  1.00  0.00     0.202 C 
BRANCH   3   4
ATOM      4  C   UNL A   1      38.281  21.472  25.408  1.00  0.00     0.261 C 
BRANCH   4   5
ATOM      5  O   UNL A   1      38.675  22.665  26.095  1.00  0.00    -0.460 OA
BRANCH   5   6
ATOM      6  C   UNL A   1      39.768  22.820  26.872  1.00  0.00     0.338 C 
ATOM      7  O   UNL A   1      40.389  21.823  27.238  1.00  0.00    -0.246 OA
BRANCH   6   8
ATOM      8  C   UNL A   1      40.323  24.164  27.182  1.00  0.00     0.060 A 
ATOM      9  C   UNL A   1      41.526  24.420  27.839  1.00  0.00     0.016 A 
ATOM     10  C   UNL A   1      39.480  25.242  26.874  1.00  0.00     0.016 A 
ATOM     11  C   UNL A   1      41.711  25.617  28.489  1.00  0.00     0.010 A 
ATOM     12  C   UNL A   1      39.714  26.483  27.427  1.00  0.00     0.010 A 
ATOM     13  C   UNL A   1      40.756  26.615  28.336  1.00  0.00    -0.014 A 
BRANCH  13  14
ATOM     14  C   UNL A   1      40.948  27.829  29.101  1.00  0.00     0.031 A 
ATOM     15  C   UNL A   1      42.088  28.659  28.623  1.00  0.00     0.074 A 
ATOM     16  C   UNL A   1      40.107  28.160  30.097  1.00  0.00     0.049 A 
ATOM     17  N   UNL A   1      43.164  28.989  29.259  1.00  0.00    -0.248 NA
ATOM     18  C   UNL A   1      42.115  28.997  27.188  1.00  0.00     0.031 C 
ATOM     19  C   UNL A   1      38.846  27.517  30.482  1.00  0.00     0.029 A 
ATOM     20  N   UNL A   1      40.161  29.230  30.928  1.00  0.00    -0.354 N 
ATOM     21  C   UNL A   1      43.899  29.771  28.370  1.00  0.00     0.074 A 
ATOM     22  C   UNL A   1      43.301  29.593  27.074  1.00  0.00     0.031 C 
ATOM     23  C   UNL A   1      38.144  28.352  31.282  1.00  0.00     0.029 A 
ATOM     24  C   UNL A   1      38.967  29.507  31.582  1.00  0.00     0.049 A 
ATOM     25  H   UNL A   1      40.977  29.765  31.056  1.00  0.00     0.167 HD
ATOM     26  C   UNL A   1      44.807  30.688  28.802  1.00  0.00     0.037 A 
ATOM     27  C   UNL A   1      38.676  30.664  32.229  1.00  0.00     0.037 A 
ATOM     28  C   UNL A   1      45.250  30.399  30.141  1.00  0.00     0.049 A 
ATOM     29  C   UNL A   1      39.978  31.320  32.539  1.00  0.00     0.074 A 
ATOM     30  C   UNL A   1      45.926  29.340  30.716  1.00  0.00     0.029 A 
ATOM     31  N   UNL A   1      44.654  31.070  31.181  1.00  0.00    -0.354 N 
ATOM     32  N   UNL A   1      40.861  30.812  33.361  1.00  0.00    -0.248 NA
ATOM     33  C   UNL A   1      40.511  32.258  31.561  1.00  0.00     0.031 C 
ATOM     34  C   UNL A   1      45.295  29.143  31.979  1.00  0.00     0.029 A 
ATOM     35  C   UNL A   1      44.328  30.137  32.137  1.00  0.00     0.049 A 
ATOM     36  H   UNL A   1      44.490  32.040  31.233  1.00  0.00     0.167 HD
ATOM     37  C   UNL A   1      42.091  31.039  32.757  1.00  0.00     0.074 A 
ATOM     38  C   UNL A   1      41.813  31.984  31.677  1.00  0.00     0.031 C 
ATOM     39  C   UNL A   1      43.167  30.230  32.997  1.00  0.00     0.037 A 
BRANCH  26  40
ATOM     40  C   UNL A   1      45.024  32.012  28.118  1.00  0.00     0.058 A 
ATOM     41  C   UNL A   1      46.280  32.329  27.567  1.00  0.00     0.135 A 
ATOM     42  C   UNL A   1      44.110  33.088  28.210  1.00  0.00     0.135 A 
ATOM     43  F   UNL A   1      47.234  31.391  27.458  1.00  0.00    -0.206 F 
ATOM     44  C   UNL A   1      46.614  33.626  27.171  1.00  0.00     0.059 A 
ATOM     45  C   UNL A   1      44.401  34.374  27.773  1.00  0.00     0.059 A 
ATOM     46  F   UNL A   1      42.922  32.967  28.816  1.00  0.00    -0.206 F 
ATOM     47  C   UNL A   1      45.668  34.643  27.287  1.00  0.00     0.060 A 
BRANCH  47  48
ATOM     48  S   UNL A   1      46.117  36.333  26.856  1.00  0.00     0.124 S 
ATOM     49  O   UNL A   1      46.693  36.153  25.528  1.00  0.00    -0.237 OA
ATOM     50  O   UNL A   1      44.826  37.011  26.907  1.00  0.00    -0.237 OA
ATOM     51  O   UNL A   1      47.057  36.710  27.907  1.00  0.00    -0.744 OA
ENDBRANCH  47  48
ENDBRANCH  26  40
BRANCH  27  52
ATOM     52  C   UNL A   1      37.385  31.404  32.172  1.00  0.00     0.058 A 
ATOM     53  C   UNL A   1      36.752  31.861  33.341  1.00  0.00     0.135 A 
ATOM     54  C   UNL A   1      36.882  31.915  30.956  1.00  0.00     0.135 A 
ATOM     55  F   UNL A   1      37.183  31.450  34.543  1.00  0.00    -0.206 F 
ATOM     56  C   UNL A   1      35.709  32.796  33.309  1.00  0.00     0.059 A 
ATOM     57  C   UNL A   1      35.839  32.838  30.899  1.00  0.00     0.059 A 
ATOM     58  F   UNL A   1      37.451  31.601  29.782  1.00  0.00    -0.206 F 
ATOM     59  C   UNL A   1      35.273  33.294  32.081  1.00  0.00     0.060 A 
BRANCH  59  60
ATOM     60  S   UNL A   1      34.047  34.623  32.039  1.00  0.00     0.124 S 
ATOM     61  O   UNL A   1      33.035  34.130  32.967  1.00  0.00    -0.237 OA
ATOM     62  O   UNL A   1      34.823  35.772  32.494  1.00  0.00    -0.237 OA
ATOM     63  O   UNL A   1      33.638  34.666  30.637  1.00  0.00    -0.744 OA
ENDBRANCH  59  60
ENDBRANCH  27  52
BRANCH  39  64
ATOM     64  C   UNL A   1      43.057  29.203  34.103  1.00  0.00     0.058 A 
ATOM     65  C   UNL A   1      43.231  29.488  35.472  1.00  0.00     0.135 A 
ATOM     66  C   UNL A   1      42.597  27.919  33.778  1.00  0.00     0.135 A 
ATOM     67  F   UNL A   1      43.558  30.720  35.882  1.00  0.00    -0.206 F 
ATOM     68  C   UNL A   1      43.001  28.530  36.463  1.00  0.00     0.059 A 
ATOM     69  C   UNL A   1      42.331  26.958  34.751  1.00  0.00     0.059 A 
ATOM     70  F   UNL A   1      42.345  27.602  32.497  1.00  0.00    -0.206 F 
ATOM     71  C   UNL A   1      42.549  27.265  36.092  1.00  0.00     0.060 A 
BRANCH  71  72
ATOM     72  S   UNL A   1      42.181  26.048  37.376  1.00  0.00     0.124 S 
ATOM     73  O   UNL A   1      42.405  24.787  36.678  1.00  0.00    -0.237 OA
ATOM     74  O   UNL A   1      43.152  26.378  38.416  1.00  0.00    -0.237 OA
ATOM     75  O   UNL A   1      40.791  26.330  37.724  1.00  0.00    -0.744 OA
ENDBRANCH  71  72
ENDBRANCH  39  64
ENDBRANCH  13  14
ENDBRANCH   6   8
ENDBRANCH   5   6
ENDBRANCH   4   5
ENDBRANCH   3   4
ENDBRANCH   2   3
ENDBRANCH   1   2
BRANCH   1  76
ATOM     76  C   UNL A   1      34.803  24.516  24.205  1.00  0.00     0.261 C 
BRANCH  76  77
ATOM     77  O   UNL A   1      33.906  25.177  23.289  1.00  0.00    -0.463 OA
BRANCH  77  78
ATOM     78  C   UNL A   1      32.593  24.831  23.433  1.00  0.00     0.310 C 
ATOM     79  O   UNL A   1      31.885  24.490  22.500  1.00  0.00    -0.252 OA
BRANCH  78  80
ATOM     80  C   UNL A   1      32.101  24.978  24.877  1.00  0.00     0.119 C 
ATOM     81  C   UNL A   1      30.724  24.305  25.338  1.00  0.00     0.100 C 
ATOM     82  C   UNL A   1      31.826  26.481  25.169  1.00  0.00     0.027 C 
ATOM     83  C   UNL A   1      29.935  25.522  25.870  1.00  0.00     0.025 C 
ATOM     84  C   UNL A   1      30.711  26.972  24.268  1.00  0.00    -0.027 C 
ATOM     85  C   UNL A   1      31.039  26.388  26.472  1.00  0.00     0.017 C 
ATOM     86  C   UNL A   1      29.581  26.376  24.668  1.00  0.00    -0.027 C 
BRANCH  81  87
ATOM     87  C   UNL A   1      31.006  23.141  26.289  1.00  0.00     0.224 C 
ATOM     88  O   UNL A   1      30.516  23.145  27.424  1.00  0.00    -0.275 OA
ATOM     89  N   UNL A   1      31.876  22.126  26.062  1.00  0.00    -0.356 N 
ATOM     90  H   UNL A   1      32.148  21.671  26.891  1.00  0.00     0.163 HD
BRANCH  89  91
ATOM     91  C   UNL A   1      32.500  21.555  24.879  1.00  0.00     0.117 C 
BRANCH  91  92
ATOM     92  C   UNL A   1      32.145  20.083  24.623  1.00  0.00     0.043 C 
BRANCH  92  93
ATOM     93  C   UNL A   1      32.802  19.022  25.512  1.00  0.00     0.125 C 
BRANCH  93  94
ATOM     94  N   UNL A   1      33.423  17.917  24.811  1.00  0.00    -0.337 N 
ATOM     95  C   UNL A   1      33.423  17.701  23.462  1.00  0.00     0.107 A 
ATOM     96  C   UNL A   1      33.996  16.822  25.399  1.00  0.00     0.199 A 
ATOM     97  C   UNL A   1      34.049  16.488  23.294  1.00  0.00     0.130 A 
ATOM     98  N   UNL A   1      34.408  15.954  24.503  1.00  0.00    -0.245 NA
ENDBRANCH  93  94
ENDBRANCH  92  93
ENDBRANCH  91  92
ENDBRANCH  89  91
ENDBRANCH  81  87
ENDBRANCH  78  80
ENDBRANCH  77  78
ENDBRANCH  76  77
ENDBRANCH   1  76
TORSDOF 22
ENDMDL
MODEL 2
REMARK VINA RESULT:     -11.1      3.259      9.654
REMARK SMILES O=C(OCCOCCOC(=O)[C@@H]1[C@@H](C(=O)NCCCn2ccnc2)[C@@H]2C=C[C@H]1C2)c1ccc(-c2c3nc(c(-c4c(F)cc(S(=O)(=O)[O-])cc4F)c4ccc([nH]4)c(-c4c(F)cc(S(=O)(=O)[O-])cc4F)c4nc(c(-c5c(F)cc(S(=O)(=O)[O-])cc5F)c5ccc2[nH]5)C=C4)C=C3)cc1
REMARK SMILES IDX 7 1 6 2 5 3 4 4 3 5 2 6 1 7 30 8 31 9 95 10 32 11 94 12
REMARK SMILES IDX 33 13 34 14 35 15 88 16 36 17 93 18 87 19 89 20 37 21 92 22
REMARK SMILES IDX 86 23 85 24 38 26 72 27 51 28 71 29 52 30 55 31 70 32 90 33
REMARK SMILES IDX 53 34 54 35 69 37 91 38 56 39 39 40 40 41 49 42 41 43 42 44
REMARK SMILES IDX 48 45 50 46 43 47 44 48 45 49 46 50 47 51 73 52 74 53 83 54
REMARK SMILES IDX 75 55 76 56 82 57 84 58 77 59 78 60 79 61 80 62 81 63 57 64
REMARK SMILES IDX 58 65 67 66 59 67 60 68 66 69 68 70 61 71 62 72 63 73 64 74
REMARK SMILES IDX 65 75 8 76 9 77 10 78 11 79 12 80 13 81 28 82 25 83 27 84
REMARK SMILES IDX 29 85 26 86 14 87 15 88 16 89 17 91 18 92 19 93 20 94 21 95
REMARK SMILES IDX 24 96 22 97 23 98
REMARK H PARENT 89 25 55 36 16 90
REMARK Flexibility Score: inf
ROOT
ATOM      1  C   UNL A   1      33.541  28.507  24.841  1.00  0.00     0.202 C 
ENDROOT
BRANCH   1   2
ATOM      2  O   UNL A   1      32.817  29.743  24.923  1.00  0.00    -0.374 OA
BRANCH   2   3
ATOM      3  C   UNL A   1      32.151  30.054  26.137  1.00  0.00     0.202 C 
BRANCH   3   4
ATOM      4  C   UNL A   1      32.785  30.991  27.169  1.00  0.00     0.261 C 
BRANCH   4   5
ATOM      5  O   UNL A   1      34.111  30.593  27.538  1.00  0.00    -0.460 OA
BRANCH   5   6
ATOM      6  C   UNL A   1      35.142  31.412  27.835  1.00  0.00     0.338 C 
ATOM      7  O   UNL A   1      35.043  32.613  27.586  1.00  0.00    -0.246 OA
BRANCH   6   8
ATOM      8  C   UNL A   1      36.335  30.929  28.579  1.00  0.00     0.060 A 
ATOM      9  C   UNL A   1      37.318  31.732  29.156  1.00  0.00     0.016 A 
ATOM     10  C   UNL A   1      36.512  29.538  28.583  1.00  0.00     0.016 A 
ATOM     11  C   UNL A   1      38.574  31.221  29.382  1.00  0.00     0.010 A 
ATOM     12  C   UNL A   1      37.735  28.998  28.917  1.00  0.00     0.010 A 
ATOM     13  C   UNL A   1      38.789  29.862  29.184  1.00  0.00    -0.014 A 
BRANCH  13  14
ATOM     14  C   UNL A   1      40.143  29.381  29.355  1.00  0.00     0.031 A 
ATOM     15  C   UNL A   1      40.549  29.242  30.780  1.00  0.00     0.074 A 
ATOM     16  C   UNL A   1      40.897  29.043  28.294  1.00  0.00     0.049 A 
ATOM     17  N   UNL A   1      41.496  29.857  31.410  1.00  0.00    -0.248 NA
ATOM     18  C   UNL A   1      39.657  28.461  31.658  1.00  0.00     0.031 C 
ATOM     19  C   UNL A   1      40.502  28.942  26.885  1.00  0.00     0.029 A 
ATOM     20  N   UNL A   1      42.182  28.613  28.274  1.00  0.00    -0.354 N 
ATOM     21  C   UNL A   1      41.459  29.365  32.713  1.00  0.00     0.074 A 
ATOM     22  C   UNL A   1      40.214  28.658  32.852  1.00  0.00     0.031 C 
ATOM     23  C   UNL A   1      41.439  28.242  26.206  1.00  0.00     0.029 A 
ATOM     24  C   UNL A   1      42.556  27.983  27.093  1.00  0.00     0.049 A 
ATOM     25  H   UNL A   1      42.798  28.737  29.031  1.00  0.00     0.167 HD
ATOM     26  C   UNL A   1      42.557  29.380  33.517  1.00  0.00     0.037 A 
ATOM     27  C   UNL A   1      43.669  27.223  26.926  1.00  0.00     0.037 A 
ATOM     28  C   UNL A   1      43.520  30.354  33.076  1.00  0.00     0.049 A 
ATOM     29  C   UNL A   1      44.614  27.605  28.013  1.00  0.00     0.074 A 
ATOM     30  C   UNL A   1      43.497  31.730  32.948  1.00  0.00     0.029 A 
ATOM     31  N   UNL A   1      44.570  29.925  32.301  1.00  0.00    -0.354 N 
ATOM     32  N   UNL A   1      45.158  28.791  28.109  1.00  0.00    -0.248 NA
ATOM     33  C   UNL A   1      44.552  26.851  29.257  1.00  0.00     0.031 C 
ATOM     34  C   UNL A   1      44.193  31.998  31.733  1.00  0.00     0.029 A 
ATOM     35  C   UNL A   1      44.668  30.785  31.232  1.00  0.00     0.049 A 
ATOM     36  H   UNL A   1      45.146  29.146  32.477  1.00  0.00     0.167 HD
ATOM     37  C   UNL A   1      45.132  29.094  29.464  1.00  0.00     0.074 A 
ATOM     38  C   UNL A   1      44.797  27.835  30.126  1.00  0.00     0.031 C 
ATOM     39  C   UNL A   1      45.098  30.387  29.908  1.00  0.00     0.037 A 
BRANCH  26  40
ATOM     40  C   UNL A   1      42.873  28.277  34.494  1.00  0.00     0.058 A 
ATOM     41  C   UNL A   1      42.979  28.555  35.869  1.00  0.00     0.135 A 
ATOM     42  C   UNL A   1      43.329  26.998  34.095  1.00  0.00     0.135 A 
ATOM     43  F   UNL A   1      42.603  29.748  36.355  1.00  0.00    -0.206 F 
ATOM     44  C   UNL A   1      43.531  27.645  36.774  1.00  0.00     0.059 A 
ATOM     45  C   UNL A   1      43.830  26.056  34.984  1.00  0.00     0.059 A 
ATOM     46  F   UNL A   1      43.398  26.634  32.808  1.00  0.00    -0.206 F 
ATOM     47  C   UNL A   1      43.961  26.400  36.317  1.00  0.00     0.060 A 
BRANCH  47  48
ATOM     48  S   UNL A   1      44.748  25.253  37.461  1.00  0.00     0.124 S 
ATOM     49  O   UNL A   1      44.194  25.688  38.738  1.00  0.00    -0.237 OA
ATOM     50  O   UNL A   1      44.278  23.964  36.966  1.00  0.00    -0.237 OA
ATOM     51  O   UNL A   1      46.171  25.509  37.269  1.00  0.00    -0.744 OA
ENDBRANCH  47  48
ENDBRANCH  26  40
BRANCH  27  52
ATOM     52  C   UNL A   1      43.748  25.928  26.195  1.00  0.00     0.058 A 
ATOM     53  C   UNL A   1      44.802  25.656  25.304  1.00  0.00     0.135 A 
ATOM     54  C   UNL A   1      42.943  24.827  26.557  1.00  0.00     0.135 A 
ATOM     55  F   UNL A   1      45.635  26.637  24.928  1.00  0.00    -0.206 F 
ATOM     56  C   UNL A   1      45.064  24.363  24.832  1.00  0.00     0.059 A 
ATOM     57  C   UNL A   1      43.179  23.534  26.091  1.00  0.00     0.059 A 
ATOM     58  F   UNL A   1      41.951  24.956  27.450  1.00  0.00    -0.206 F 
ATOM     59  C   UNL A   1      44.257  23.304  25.248  1.00  0.00     0.060 A 
BRANCH  59  60
ATOM     60  S   UNL A   1      44.689  21.611  24.780  1.00  0.00     0.124 S 
ATOM     61  O   UNL A   1      44.745  21.706  23.325  1.00  0.00    -0.237 OA
ATOM     62  O   UNL A   1      45.968  21.423  25.456  1.00  0.00    -0.237 OA
ATOM     63  O   UNL A   1      43.583  20.818  25.310  1.00  0.00    -0.744 OA
ENDBRANCH  59  60
ENDBRANCH  27  52
BRANCH  39  64
ATOM     64  C   UNL A   1      45.308  31.495  28.900  1.00  0.00     0.058 A 
ATOM     65  C   UNL A   1      46.570  31.946  28.466  1.00  0.00     0.135 A 
ATOM     66  C   UNL A   1      44.189  32.007  28.228  1.00  0.00     0.135 A 
ATOM     67  F   UNL A   1      47.697  31.429  28.973  1.00  0.00    -0.206 F 
ATOM     68  C   UNL A   1      46.710  32.890  27.446  1.00  0.00     0.059 A 
ATOM     69  C   UNL A   1      44.305  32.925  27.186  1.00  0.00     0.059 A 
ATOM     70  F   UNL A   1      42.959  31.570  28.545  1.00  0.00    -0.206 F 
ATOM     71  C   UNL A   1      45.568  33.374  26.809  1.00  0.00     0.060 A 
BRANCH  71  72
ATOM     72  S   UNL A   1      45.749  34.539  25.440  1.00  0.00     0.124 S 
ATOM     73  O   UNL A   1      45.292  35.789  26.037  1.00  0.00    -0.237 OA
ATOM     74  O   UNL A   1      47.177  34.463  25.143  1.00  0.00    -0.237 OA
ATOM     75  O   UNL A   1      44.878  33.988  24.405  1.00  0.00    -0.744 OA
ENDBRANCH  71  72
ENDBRANCH  39  64
ENDBRANCH  13  14
ENDBRANCH   6   8
ENDBRANCH   5   6
ENDBRANCH   4   5
ENDBRANCH   3   4
ENDBRANCH   2   3
ENDBRANCH   1   2
BRANCH   1  76
ATOM     76  C   UNL A   1      34.047  27.968  23.490  1.00  0.00     0.261 C 
BRANCH  76  77
ATOM     77  O   UNL A   1      33.502  26.684  23.117  1.00  0.00    -0.463 OA
BRANCH  77  78
ATOM     78  C   UNL A   1      33.631  25.715  24.070  1.00  0.00     0.310 C 
ATOM     79  O   UNL A   1      34.646  25.555  24.727  1.00  0.00    -0.252 OA
BRANCH  78  80
ATOM     80  C   UNL A   1      32.389  24.825  24.175  1.00  0.00     0.119 C 
ATOM     81  C   UNL A   1      32.231  23.793  25.388  1.00  0.00     0.100 C 
ATOM     82  C   UNL A   1      32.342  23.871  22.948  1.00  0.00     0.027 C 
ATOM     83  C   UNL A   1      32.056  22.450  24.646  1.00  0.00     0.025 C 
ATOM     84  C   UNL A   1      33.549  22.955  22.976  1.00  0.00    -0.027 C 
ATOM     85  C   UNL A   1      31.285  22.867  23.395  1.00  0.00     0.017 C 
ATOM     86  C   UNL A   1      33.393  22.121  24.011  1.00  0.00    -0.027 C 
BRANCH  81  87
ATOM     87  C   UNL A   1      31.119  24.260  26.329  1.00  0.00     0.224 C 
ATOM     88  O   UNL A   1      30.801  23.561  27.297  1.00  0.00    -0.275 OA
ATOM     89  N   UNL A   1      30.321  25.339  26.137  1.00  0.00    -0.356 N 
ATOM     90  H   UNL A   1      29.490  25.292  26.661  1.00  0.00     0.163 HD
BRANCH  89  91
ATOM     91  C   UNL A   1      30.409  26.550  25.336  1.00  0.00     0.117 C 
BRANCH  91  92
ATOM     92  C   UNL A   1      29.401  26.620  24.179  1.00  0.00     0.043 C 
BRANCH  92  93
ATOM     93  C   UNL A   1      29.697  27.589  23.028  1.00  0.00     0.125 C 
BRANCH  93  94
ATOM     94  N   UNL A   1      29.003  28.858  23.088  1.00  0.00    -0.337 N 
ATOM     95  C   UNL A   1      29.528  30.062  23.466  1.00  0.00     0.107 A 
ATOM     96  C   UNL A   1      27.658  29.039  22.910  1.00  0.00     0.199 A 
ATOM     97  C   UNL A   1      28.466  30.936  23.451  1.00  0.00     0.130 A 
ATOM     98  N   UNL A   1      27.311  30.292  23.098  1.00  0.00    -0.245 NA
ENDBRANCH  93  94
ENDBRANCH  92  93
ENDBRANCH  91  92
ENDBRANCH  89  91
ENDBRANCH  81  87
ENDBRANCH  78  80
ENDBRANCH  77  78
ENDBRANCH  76  77
ENDBRANCH   1  76
TORSDOF 22
ENDMDL
MODEL 3
REMARK VINA RESULT:     -11.1      2.518      4.710
REMARK SMILES O=C(OCCOCCOC(=O)[C@@H]1[C@@H](C(=O)NCCCn2ccnc2)[C@@H]2C=C[C@H]1C2)c1ccc(-c2c3nc(c(-c4c(F)cc(S(=O)(=O)[O-])cc4F)c4ccc([nH]4)c(-c4c(F)cc(S(=O)(=O)[O-])cc4F)c4nc(c(-c5c(F)cc(S(=O)(=O)[O-])cc5F)c5ccc2[nH]5)C=C4)C=C3)cc1
REMARK SMILES IDX 7 1 6 2 5 3 4 4 3 5 2 6 1 7 30 8 31 9 95 10 32 11 94 12
REMARK SMILES IDX 33 13 34 14 35 15 88 16 36 17 93 18 87 19 89 20 37 21 92 22
REMARK SMILES IDX 86 23 85 24 38 26 72 27 51 28 71 29 52 30 55 31 70 32 90 33
REMARK SMILES IDX 53 34 54 35 69 37 91 38 56 39 39 40 40 41 49 42 41 43 42 44
REMARK SMILES IDX 48 45 50 46 43 47 44 48 45 49 46 50 47 51 73 52 74 53 83 54
REMARK SMILES IDX 75 55 76 56 82 57 84 58 77 59 78 60 79 61 80 62 81 63 57 64
REMARK SMILES IDX 58 65 67 66 59 67 60 68 66 69 68 70 61 71 62 72 63 73 64 74
REMARK SMILES IDX 65 75 8 76 9 77 10 78 11 79 12 80 13 81 28 82 25 83 27 84
REMARK SMILES IDX 29 85 26 86 14 87 15 88 16 89 17 91 18 92 19 93 20 94 21 95
REMARK SMILES IDX 24 96 22 97 23 98
REMARK H PARENT 89 25 55 36 16 90
REMARK Flexibility Score: inf
ROOT
ATOM      1  C   UNL A   1      36.639  23.149  23.792  1.00  0.00     0.202 C 
ENDROOT
BRANCH   1   2
ATOM      2  O   UNL A   1      37.605  23.250  24.848  1.00  0.00    -0.374 OA
BRANCH   2   3
ATOM      3  C   UNL A   1      37.780  22.135  25.709  1.00  0.00     0.202 C 
BRANCH   3   4
ATOM      4  C   UNL A   1      39.109  21.375  25.759  1.00  0.00     0.261 C 
BRANCH   4   5
ATOM      5  O   UNL A   1      40.066  21.989  26.630  1.00  0.00    -0.460 OA
BRANCH   5   6
ATOM      6  C   UNL A   1      41.258  22.510  26.273  1.00  0.00     0.338 C 
ATOM      7  O   UNL A   1      41.974  21.887  25.490  1.00  0.00    -0.246 OA
BRANCH   6   8
ATOM      8  C   UNL A   1      41.670  23.877  26.689  1.00  0.00     0.060 A 
ATOM      9  C   UNL A   1      42.652  24.183  27.631  1.00  0.00     0.016 A 
ATOM     10  C   UNL A   1      40.905  24.921  26.149  1.00  0.00     0.016 A 
ATOM     11  C   UNL A   1      42.623  25.394  28.281  1.00  0.00     0.010 A 
ATOM     12  C   UNL A   1      40.947  26.176  26.717  1.00  0.00     0.010 A 
ATOM     13  C   UNL A   1      41.710  26.356  27.864  1.00  0.00    -0.014 A 
BRANCH  13  14
ATOM     14  C   UNL A   1      41.658  27.585  28.626  1.00  0.00     0.031 A 
ATOM     15  C   UNL A   1      42.861  28.444  28.453  1.00  0.00     0.074 A 
ATOM     16  C   UNL A   1      40.572  27.902  29.354  1.00  0.00     0.049 A 
ATOM     17  N   UNL A   1      43.718  28.817  29.347  1.00  0.00    -0.248 NA
ATOM     18  C   UNL A   1      43.262  28.764  27.071  1.00  0.00     0.031 C 
ATOM     19  C   UNL A   1      39.271  27.225  29.401  1.00  0.00     0.029 A 
ATOM     20  N   UNL A   1      40.373  28.984  30.146  1.00  0.00    -0.354 N 
ATOM     21  C   UNL A   1      44.643  29.609  28.670  1.00  0.00     0.074 A 
ATOM     22  C   UNL A   1      44.419  29.396  27.266  1.00  0.00     0.031 C 
ATOM     23  C   UNL A   1      38.359  28.048  29.967  1.00  0.00     0.029 A 
ATOM     24  C   UNL A   1      39.040  29.232  30.451  1.00  0.00     0.049 A 
ATOM     25  H   UNL A   1      41.110  29.547  30.476  1.00  0.00     0.167 HD
ATOM     26  C   UNL A   1      45.377  30.560  29.310  1.00  0.00     0.037 A 
ATOM     27  C   UNL A   1      38.555  30.388  30.973  1.00  0.00     0.037 A 
ATOM     28  C   UNL A   1      45.453  30.303  30.724  1.00  0.00     0.049 A 
ATOM     29  C   UNL A   1      39.709  31.088  31.606  1.00  0.00     0.074 A 
ATOM     30  C   UNL A   1      45.978  29.273  31.482  1.00  0.00     0.029 A 
ATOM     31  N   UNL A   1      44.583  30.969  31.553  1.00  0.00    -0.354 N 
ATOM     32  N   UNL A   1      40.353  30.619  32.644  1.00  0.00    -0.248 NA
ATOM     33  C   UNL A   1      40.458  32.029  30.786  1.00  0.00     0.031 C 
ATOM     34  C   UNL A   1      45.038  29.073  32.534  1.00  0.00     0.029 A 
ATOM     35  C   UNL A   1      44.038  30.038  32.406  1.00  0.00     0.049 A 
ATOM     36  H   UNL A   1      44.385  31.934  31.539  1.00  0.00     0.167 HD
ATOM     37  C   UNL A   1      41.693  30.877  32.386  1.00  0.00     0.074 A 
ATOM     38  C   UNL A   1      41.689  31.799  31.251  1.00  0.00     0.031 C 
ATOM     39  C   UNL A   1      42.686  30.105  32.922  1.00  0.00     0.037 A 
BRANCH  26  40
ATOM     40  C   UNL A   1      45.734  31.881  28.681  1.00  0.00     0.058 A 
ATOM     41  C   UNL A   1      44.725  32.802  28.343  1.00  0.00     0.135 A 
ATOM     42  C   UNL A   1      47.019  32.169  28.163  1.00  0.00     0.135 A 
ATOM     43  F   UNL A   1      43.462  32.614  28.757  1.00  0.00    -0.206 F 
ATOM     44  C   UNL A   1      44.968  33.906  27.522  1.00  0.00     0.059 A 
ATOM     45  C   UNL A   1      47.295  33.289  27.390  1.00  0.00     0.059 A 
ATOM     46  F   UNL A   1      48.051  31.327  28.303  1.00  0.00    -0.206 F 
ATOM     47  C   UNL A   1      46.257  34.134  27.044  1.00  0.00     0.060 A 
BRANCH  47  48
ATOM     48  S   UNL A   1      46.562  35.507  25.919  1.00  0.00     0.124 S 
ATOM     49  O   UNL A   1      46.632  34.821  24.634  1.00  0.00    -0.237 OA
ATOM     50  O   UNL A   1      45.384  36.341  26.134  1.00  0.00    -0.237 OA
ATOM     51  O   UNL A   1      47.817  36.069  26.405  1.00  0.00    -0.744 OA
ENDBRANCH  47  48
ENDBRANCH  26  40
BRANCH  27  52
ATOM     52  C   UNL A   1      37.307  31.086  30.557  1.00  0.00     0.058 A 
ATOM     53  C   UNL A   1      36.350  31.495  31.501  1.00  0.00     0.135 A 
ATOM     54  C   UNL A   1      37.154  31.607  29.254  1.00  0.00     0.135 A 
ATOM     55  F   UNL A   1      36.434  31.072  32.771  1.00  0.00    -0.206 F 
ATOM     56  C   UNL A   1      35.325  32.396  31.183  1.00  0.00     0.059 A 
ATOM     57  C   UNL A   1      36.137  32.496  28.911  1.00  0.00     0.059 A 
ATOM     58  F   UNL A   1      38.046  31.338  28.289  1.00  0.00    -0.206 F 
ATOM     59  C   UNL A   1      35.239  32.906  29.887  1.00  0.00     0.060 A 
BRANCH  59  60
ATOM     60  S   UNL A   1      34.026  34.195  29.511  1.00  0.00     0.124 S 
ATOM     61  O   UNL A   1      34.835  35.167  28.783  1.00  0.00    -0.237 OA
ATOM     62  O   UNL A   1      33.039  33.468  28.722  1.00  0.00    -0.237 OA
ATOM     63  O   UNL A   1      33.570  34.628  30.830  1.00  0.00    -0.744 OA
ENDBRANCH  59  60
ENDBRANCH  27  52
BRANCH  39  64
ATOM     64  C   UNL A   1      42.312  29.091  33.980  1.00  0.00     0.058 A 
ATOM     65  C   UNL A   1      41.752  27.827  33.706  1.00  0.00     0.135 A 
ATOM     66  C   UNL A   1      42.686  29.341  35.307  1.00  0.00     0.135 A 
ATOM     67  F   UNL A   1      41.468  27.458  32.450  1.00  0.00    -0.206 F 
ATOM     68  C   UNL A   1      41.534  26.880  34.709  1.00  0.00     0.059 A 
ATOM     69  C   UNL A   1      42.509  28.400  36.319  1.00  0.00     0.059 A 
ATOM     70  F   UNL A   1      43.288  30.499  35.627  1.00  0.00    -0.206 F 
ATOM     71  C   UNL A   1      41.918  27.176  36.017  1.00  0.00     0.060 A 
BRANCH  71  72
ATOM     72  S   UNL A   1      41.707  25.924  37.302  1.00  0.00     0.124 S 
ATOM     73  O   UNL A   1      40.302  26.085  37.660  1.00  0.00    -0.237 OA
ATOM     74  O   UNL A   1      42.045  24.688  36.603  1.00  0.00    -0.237 OA
ATOM     75  O   UNL A   1      42.662  26.327  38.331  1.00  0.00    -0.744 OA
ENDBRANCH  71  72
ENDBRANCH  39  64
ENDBRANCH  13  14
ENDBRANCH   6   8
ENDBRANCH   5   6
ENDBRANCH   4   5
ENDBRANCH   3   4
ENDBRANCH   2   3
ENDBRANCH   1   2
BRANCH   1  76
ATOM     76  C   UNL A   1      35.238  22.563  24.048  1.00  0.00     0.261 C 
BRANCH  76  77
ATOM     77  O   UNL A   1      34.172  23.536  24.034  1.00  0.00    -0.463 OA
BRANCH  77  78
ATOM     78  C   UNL A   1      33.073  23.161  23.317  1.00  0.00     0.310 C 
ATOM     79  O   UNL A   1      32.882  22.019  22.934  1.00  0.00    -0.252 OA
BRANCH  78  80
ATOM     80  C   UNL A   1      32.147  24.341  23.000  1.00  0.00     0.119 C 
ATOM     81  C   UNL A   1      32.504  25.813  23.516  1.00  0.00     0.100 C 
ATOM     82  C   UNL A   1      30.768  24.100  23.678  1.00  0.00     0.027 C 
ATOM     83  C   UNL A   1      31.247  26.179  24.336  1.00  0.00     0.025 C 
ATOM     84  C   UNL A   1      30.945  24.066  25.182  1.00  0.00    -0.027 C 
ATOM     85  C   UNL A   1      30.135  25.481  23.556  1.00  0.00     0.017 C 
ATOM     86  C   UNL A   1      31.262  25.305  25.575  1.00  0.00    -0.027 C 
BRANCH  81  87
ATOM     87  C   UNL A   1      32.891  26.701  22.332  1.00  0.00     0.224 C 
ATOM     88  O   UNL A   1      33.529  26.220  21.389  1.00  0.00    -0.275 OA
ATOM     89  N   UNL A   1      32.717  28.043  22.260  1.00  0.00    -0.356 N 
ATOM     90  H   UNL A   1      33.298  28.463  21.585  1.00  0.00     0.163 HD
BRANCH  89  91
ATOM     91  C   UNL A   1      31.870  29.006  22.946  1.00  0.00     0.117 C 
BRANCH  91  92
ATOM     92  C   UNL A   1      30.449  29.123  22.374  1.00  0.00     0.043 C 
BRANCH  92  93
ATOM     93  C   UNL A   1      29.435  29.976  23.145  1.00  0.00     0.125 C 
BRANCH  93  94
ATOM     94  N   UNL A   1      28.811  31.039  22.386  1.00  0.00    -0.337 N 
ATOM     95  C   UNL A   1      28.377  30.977  21.091  1.00  0.00     0.107 A 
ATOM     96  C   UNL A   1      28.678  32.338  22.797  1.00  0.00     0.199 A 
ATOM     97  C   UNL A   1      27.952  32.250  20.794  1.00  0.00     0.130 A 
ATOM     98  N   UNL A   1      28.137  33.087  21.862  1.00  0.00    -0.245 NA
ENDBRANCH  93  94
ENDBRANCH  92  93
ENDBRANCH  91  92
ENDBRANCH  89  91
ENDBRANCH  81  87
ENDBRANCH  78  80
ENDBRANCH  77  78
ENDBRANCH  76  77
ENDBRANCH   1  76
TORSDOF 22
ENDMDL
