MODEL 1
REMARK VINA RESULT:     -10.1      0.000      0.000
REMARK SMILES O=C(C[C@H](C(=O)OC[C@H]1CCCO1)[NH+]1CCOCC1)OCCOCCOC(=O)c1ccc(-c2c3nc(c(-c4c(F)cc(S(=O)(=O)[O-])cc4F)c4ccc([nH]4)c(-c4c(F)cc(S(=O)(=O)[O-])cc4F)c4nc(c(-c5c(F)cc(S(=O)(=O)[O-])cc5F)c5ccc2[nH]5)C=C4)C=C3)cc1
REMARK SMILES IDX 22 1 21 2 20 3 2 4 1 5 3 6 4 7 14 8 15 9 19 10 16 12 18 13
REMARK SMILES IDX 17 14 5 15 6 16 7 17 8 18 9 19 10 20 13 21 11 22 12 23 23 24
REMARK SMILES IDX 24 25 25 26 26 27 27 28 28 29 29 30 30 31 94 32 31 33 93 34
REMARK SMILES IDX 32 35 33 36 34 37 87 38 35 39 92 40 86 41 88 42 36 43 91 44
REMARK SMILES IDX 85 45 84 46 37 48 71 49 50 50 70 51 51 52 54 53 69 54 89 55
REMARK SMILES IDX 52 56 53 57 68 59 90 60 55 61 38 62 39 63 48 64 40 65 41 66
REMARK SMILES IDX 47 67 49 68 42 69 43 70 44 71 45 72 46 73 72 74 73 75 82 76
REMARK SMILES IDX 74 77 75 78 81 79 83 80 76 81 77 82 78 83 79 84 80 85 56 86
REMARK SMILES IDX 57 87 66 88 58 89 59 90 65 91 67 92 60 93 61 94 62 95 63 96
REMARK SMILES IDX 64 97
REMARK H PARENT 14 11 88 47 54 58
REMARK Flexibility Score: inf
ROOT
ATOM      1  C   UNL A   1      32.097  27.786  25.719  1.00  0.00     0.202 C 
ENDROOT
BRANCH   1   2
ATOM      2  C   UNL A   1      30.918  26.920  25.258  1.00  0.00     0.261 C 
BRANCH   2   3
ATOM      3  O   UNL A   1      30.486  25.898  26.162  1.00  0.00    -0.463 OA
BRANCH   3   4
ATOM      4  C   UNL A   1      30.878  24.618  26.179  1.00  0.00     0.312 C 
ATOM      5  O   UNL A   1      31.145  24.094  27.262  1.00  0.00    -0.252 OA
BRANCH   4   6
ATOM      6  C   UNL A   1      30.991  23.834  24.905  1.00  0.00     0.200 C 
BRANCH   6   7
ATOM      7  C   UNL A   1      32.296  23.081  24.561  1.00  0.00     0.306 C 
BRANCH   7   8
ATOM      8  N   UNL A   1      33.639  23.643  24.792  1.00  0.00    -0.319 N 
ATOM      9  C   UNL A   1      34.552  23.979  23.697  1.00  0.00     0.291 C 
ATOM     10  C   UNL A   1      34.387  23.428  26.029  1.00  0.00     0.291 C 
ATOM     11  H   UNL A   1      33.033  24.448  24.947  1.00  0.00     0.348 HD
ATOM     12  C   UNL A   1      35.660  22.919  23.548  1.00  0.00     0.221 C 
ATOM     13  C   UNL A   1      35.505  22.387  25.848  1.00  0.00     0.221 C 
ATOM     14  O   UNL A   1      36.386  22.762  24.779  1.00  0.00    -0.370 OA
ENDBRANCH   7   8
BRANCH   7  15
ATOM     15  C   UNL A   1      32.068  21.572  24.806  1.00  0.00     0.365 C 
ATOM     16  O   UNL A   1      31.336  21.162  25.705  1.00  0.00    -0.245 OA
BRANCH  15  17
ATOM     17  O   UNL A   1      32.793  20.742  24.016  1.00  0.00    -0.459 OA
BRANCH  17  18
ATOM     18  C   UNL A   1      33.484  19.660  24.688  1.00  0.00     0.265 C 
BRANCH  18  19
ATOM     19  C   UNL A   1      32.802  18.309  24.425  1.00  0.00     0.156 C 
ATOM     20  C   UNL A   1      32.926  17.814  22.988  1.00  0.00     0.038 C 
ATOM     21  O   UNL A   1      33.399  17.299  25.262  1.00  0.00    -0.375 OA
ATOM     22  C   UNL A   1      34.015  16.775  23.059  1.00  0.00     0.031 C 
ATOM     23  C   UNL A   1      33.812  16.201  24.438  1.00  0.00     0.161 C 
ENDBRANCH  18  19
ENDBRANCH  17  18
ENDBRANCH  15  17
ENDBRANCH   7  15
ENDBRANCH   6   7
ENDBRANCH   4   6
ENDBRANCH   3   4
ENDBRANCH   2   3
ENDBRANCH   1   2
BRANCH   1  24
ATOM     24  O   UNL A   1      31.894  29.100  26.219  1.00  0.00    -0.374 OA
BRANCH  24  25
ATOM     25  C   UNL A   1      32.959  30.037  26.252  1.00  0.00     0.202 C 
BRANCH  25  26
ATOM     26  C   UNL A   1      33.382  30.630  27.598  1.00  0.00     0.261 C 
BRANCH  26  27
ATOM     27  O   UNL A   1      34.685  31.229  27.612  1.00  0.00    -0.460 OA
BRANCH  27  28
ATOM     28  C   UNL A   1      35.250  31.348  28.833  1.00  0.00     0.338 C 
ATOM     29  O   UNL A   1      34.771  31.895  29.823  1.00  0.00    -0.246 OA
BRANCH  28  30
ATOM     30  C   UNL A   1      36.533  30.634  28.860  1.00  0.00     0.060 A 
ATOM     31  C   UNL A   1      37.163  30.429  30.091  1.00  0.00     0.016 A 
ATOM     32  C   UNL A   1      37.161  30.260  27.669  1.00  0.00     0.016 A 
ATOM     33  C   UNL A   1      38.438  29.866  30.132  1.00  0.00     0.010 A 
ATOM     34  C   UNL A   1      38.446  29.708  27.715  1.00  0.00     0.010 A 
ATOM     35  C   UNL A   1      39.100  29.530  28.945  1.00  0.00    -0.014 A 
BRANCH  35  36
ATOM     36  C   UNL A   1      40.523  29.113  28.985  1.00  0.00     0.031 A 
ATOM     37  C   UNL A   1      41.574  30.140  29.308  1.00  0.00     0.074 A 
ATOM     38  C   UNL A   1      40.876  27.836  28.750  1.00  0.00     0.049 A 
ATOM     39  N   UNL A   1      42.875  30.035  29.260  1.00  0.00    -0.248 NA
ATOM     40  C   UNL A   1      41.090  31.459  29.751  1.00  0.00     0.031 C 
ATOM     41  C   UNL A   1      39.949  26.733  28.503  1.00  0.00     0.029 A 
ATOM     42  N   UNL A   1      42.119  27.257  28.663  1.00  0.00    -0.354 N 
ATOM     43  C   UNL A   1      43.369  31.276  29.641  1.00  0.00     0.074 A 
ATOM     44  C   UNL A   1      42.228  32.120  29.922  1.00  0.00     0.031 C 
ATOM     45  C   UNL A   1      40.655  25.615  28.261  1.00  0.00     0.029 A 
ATOM     46  C   UNL A   1      42.082  25.934  28.289  1.00  0.00     0.049 A 
ATOM     47  H   UNL A   1      42.955  27.742  28.849  1.00  0.00     0.167 HD
ATOM     48  C   UNL A   1      44.658  31.675  29.741  1.00  0.00     0.037 A 
ATOM     49  C   UNL A   1      43.083  25.093  27.959  1.00  0.00     0.037 A 
ATOM     50  C   UNL A   1      45.790  30.829  29.477  1.00  0.00     0.049 A 
ATOM     51  C   UNL A   1      44.506  25.591  27.983  1.00  0.00     0.074 A 
ATOM     52  C   UNL A   1      47.136  31.137  29.575  1.00  0.00     0.029 A 
ATOM     53  N   UNL A   1      45.711  29.512  29.053  1.00  0.00    -0.354 N 
ATOM     54  N   UNL A   1      44.963  26.767  28.342  1.00  0.00    -0.248 NA
ATOM     55  C   UNL A   1      45.549  24.655  27.538  1.00  0.00     0.031 C 
ATOM     56  C   UNL A   1      47.871  30.019  29.167  1.00  0.00     0.029 A 
ATOM     57  C   UNL A   1      46.983  29.004  28.851  1.00  0.00     0.049 A 
ATOM     58  H   UNL A   1      44.874  29.012  28.915  1.00  0.00     0.167 HD
ATOM     59  C   UNL A   1      46.343  26.708  28.171  1.00  0.00     0.074 A 
ATOM     60  C   UNL A   1      46.651  25.375  27.699  1.00  0.00     0.031 C 
ATOM     61  C   UNL A   1      47.272  27.674  28.380  1.00  0.00     0.037 A 
BRANCH  48  62
ATOM     62  C   UNL A   1      44.923  33.103  30.119  1.00  0.00     0.058 A 
ATOM     63  C   UNL A   1      44.995  34.121  29.158  1.00  0.00     0.135 A 
ATOM     64  C   UNL A   1      45.036  33.463  31.472  1.00  0.00     0.135 A 
ATOM     65  F   UNL A   1      44.913  33.825  27.851  1.00  0.00    -0.206 F 
ATOM     66  C   UNL A   1      45.171  35.451  29.526  1.00  0.00     0.059 A 
ATOM     67  C   UNL A   1      45.195  34.788  31.863  1.00  0.00     0.059 A 
ATOM     68  F   UNL A   1      44.980  32.522  32.428  1.00  0.00    -0.206 F 
ATOM     69  C   UNL A   1      45.267  35.774  30.881  1.00  0.00     0.060 A 
BRANCH  69  70
ATOM     70  S   UNL A   1      45.459  37.509  31.345  1.00  0.00     0.124 S 
ATOM     71  O   UNL A   1      44.082  37.880  31.658  1.00  0.00    -0.237 OA
ATOM     72  O   UNL A   1      46.369  37.431  32.483  1.00  0.00    -0.237 OA
ATOM     73  O   UNL A   1      46.016  38.123  30.143  1.00  0.00    -0.744 OA
ENDBRANCH  69  70
ENDBRANCH  48  62
BRANCH  49  74
ATOM     74  C   UNL A   1      42.782  23.713  27.494  1.00  0.00     0.058 A 
ATOM     75  C   UNL A   1      42.693  22.643  28.396  1.00  0.00     0.135 A 
ATOM     76  C   UNL A   1      42.622  23.431  26.128  1.00  0.00     0.135 A 
ATOM     77  F   UNL A   1      42.855  22.860  29.711  1.00  0.00    -0.206 F 
ATOM     78  C   UNL A   1      42.479  21.339  27.962  1.00  0.00     0.059 A 
ATOM     79  C   UNL A   1      42.381  22.139  25.671  1.00  0.00     0.059 A 
ATOM     80  F   UNL A   1      42.693  24.419  25.223  1.00  0.00    -0.206 F 
ATOM     81  C   UNL A   1      42.329  21.097  26.595  1.00  0.00     0.060 A 
BRANCH  81  82
ATOM     82  S   UNL A   1      42.033  19.405  26.036  1.00  0.00     0.124 S 
ATOM     83  O   UNL A   1      42.862  19.345  24.837  1.00  0.00    -0.237 OA
ATOM     84  O   UNL A   1      42.497  18.618  27.173  1.00  0.00    -0.237 OA
ATOM     85  O   UNL A   1      40.591  19.376  25.811  1.00  0.00    -0.744 OA
ENDBRANCH  81  82
ENDBRANCH  49  74
BRANCH  61  86
ATOM     86  C   UNL A   1      48.708  27.328  28.105  1.00  0.00     0.058 A 
ATOM     87  C   UNL A   1      49.325  27.686  26.896  1.00  0.00     0.135 A 
ATOM     88  C   UNL A   1      49.492  26.694  29.082  1.00  0.00     0.135 A 
ATOM     89  F   UNL A   1      48.615  28.286  25.927  1.00  0.00    -0.206 F 
ATOM     90  C   UNL A   1      50.669  27.417  26.661  1.00  0.00     0.059 A 
ATOM     91  C   UNL A   1      50.843  26.436  28.877  1.00  0.00     0.059 A 
ATOM     92  F   UNL A   1      48.950  26.341  30.259  1.00  0.00    -0.206 F 
ATOM     93  C   UNL A   1      51.421  26.794  27.659  1.00  0.00     0.060 A 
BRANCH  93  94
ATOM     94  S   UNL A   1      53.177  26.495  27.363  1.00  0.00     0.124 S 
ATOM     95  O   UNL A   1      53.744  26.747  28.684  1.00  0.00    -0.237 OA
ATOM     96  O   UNL A   1      53.190  25.103  26.922  1.00  0.00    -0.237 OA
ATOM     97  O   UNL A   1      53.518  27.474  26.336  1.00  0.00    -0.744 OA
ENDBRANCH  93  94
ENDBRANCH  61  86
ENDBRANCH  35  36
ENDBRANCH  28  30
ENDBRANCH  27  28
ENDBRANCH  26  27
ENDBRANCH  25  26
ENDBRANCH  24  25
ENDBRANCH   1  24
TORSDOF 23
ENDMDL
MODEL 2
REMARK VINA RESULT:     -10.0      2.099      2.975
REMARK SMILES O=C(C[C@H](C(=O)OC[C@H]1CCCO1)[NH+]1CCOCC1)OCCOCCOC(=O)c1ccc(-c2c3nc(c(-c4c(F)cc(S(=O)(=O)[O-])cc4F)c4ccc([nH]4)c(-c4c(F)cc(S(=O)(=O)[O-])cc4F)c4nc(c(-c5c(F)cc(S(=O)(=O)[O-])cc5F)c5ccc2[nH]5)C=C4)C=C3)cc1
REMARK SMILES IDX 22 1 21 2 20 3 2 4 1 5 3 6 4 7 14 8 15 9 19 10 16 12 18 13
REMARK SMILES IDX 17 14 5 15 6 16 7 17 8 18 9 19 10 20 13 21 11 22 12 23 23 24
REMARK SMILES IDX 24 25 25 26 26 27 27 28 28 29 29 30 30 31 94 32 31 33 93 34
REMARK SMILES IDX 32 35 33 36 34 37 87 38 35 39 92 40 86 41 88 42 36 43 91 44
REMARK SMILES IDX 85 45 84 46 37 48 71 49 50 50 70 51 51 52 54 53 69 54 89 55
REMARK SMILES IDX 52 56 53 57 68 59 90 60 55 61 38 62 39 63 48 64 40 65 41 66
REMARK SMILES IDX 47 67 49 68 42 69 43 70 44 71 45 72 46 73 72 74 73 75 82 76
REMARK SMILES IDX 74 77 75 78 81 79 83 80 76 81 77 82 78 83 79 84 80 85 56 86
REMARK SMILES IDX 57 87 66 88 58 89 59 90 65 91 67 92 60 93 61 94 62 95 63 96
REMARK SMILES IDX 64 97
REMARK H PARENT 14 11 88 47 54 58
REMARK Flexibility Score: inf
ROOT
ATOM      1  C   UNL A   1      31.613  29.768  25.626  1.00  0.00     0.202 C 
ENDROOT
BRANCH   1   2
ATOM      2  C   UNL A   1      31.765  28.642  24.596  1.00  0.00     0.261 C 
BRANCH   2   3
ATOM      3  O   UNL A   1      31.150  27.393  24.921  1.00  0.00    -0.463 OA
BRANCH   3   4
ATOM      4  C   UNL A   1      31.561  26.502  25.833  1.00  0.00     0.312 C 
ATOM      5  O   UNL A   1      30.754  26.094  26.669  1.00  0.00    -0.252 OA
BRANCH   4   6
ATOM      6  C   UNL A   1      32.979  26.013  25.839  1.00  0.00     0.200 C 
BRANCH   6   7
ATOM      7  C   UNL A   1      33.386  24.778  25.005  1.00  0.00     0.306 C 
BRANCH   7   8
ATOM      8  N   UNL A   1      33.963  24.871  23.651  1.00  0.00    -0.319 N 
ATOM      9  C   UNL A   1      33.749  26.030  22.782  1.00  0.00     0.291 C 
ATOM     10  C   UNL A   1      34.313  23.697  22.854  1.00  0.00     0.291 C 
ATOM     11  H   UNL A   1      34.765  25.075  24.247  1.00  0.00     0.348 HD
ATOM     12  C   UNL A   1      32.712  25.722  21.685  1.00  0.00     0.221 C 
ATOM     13  C   UNL A   1      33.278  23.426  21.750  1.00  0.00     0.221 C 
ATOM     14  O   UNL A   1      33.112  24.578  20.910  1.00  0.00    -0.370 OA
ENDBRANCH   7   8
BRANCH   7  15
ATOM     15  C   UNL A   1      33.919  23.692  25.967  1.00  0.00     0.365 C 
ATOM     16  O   UNL A   1      33.173  22.876  26.505  1.00  0.00    -0.245 OA
BRANCH  15  17
ATOM     17  O   UNL A   1      35.247  23.756  26.233  1.00  0.00    -0.459 OA
BRANCH  17  18
ATOM     18  C   UNL A   1      35.979  22.507  26.150  1.00  0.00     0.265 C 
BRANCH  18  19
ATOM     19  C   UNL A   1      37.318  22.689  25.421  1.00  0.00     0.156 C 
ATOM     20  C   UNL A   1      38.327  23.554  26.169  1.00  0.00     0.038 C 
ATOM     21  O   UNL A   1      37.938  21.402  25.231  1.00  0.00    -0.375 OA
ATOM     22  C   UNL A   1      39.274  22.553  26.780  1.00  0.00     0.031 C 
ATOM     23  C   UNL A   1      39.274  21.452  25.750  1.00  0.00     0.161 C 
ENDBRANCH  18  19
ENDBRANCH  17  18
ENDBRANCH  15  17
ENDBRANCH   7  15
ENDBRANCH   6   7
ENDBRANCH   4   6
ENDBRANCH   3   4
ENDBRANCH   2   3
ENDBRANCH   1   2
BRANCH   1  24
ATOM     24  O   UNL A   1      32.418  29.810  26.795  1.00  0.00    -0.374 OA
BRANCH  24  25
ATOM     25  C   UNL A   1      32.957  31.036  27.263  1.00  0.00     0.202 C 
BRANCH  25  26
ATOM     26  C   UNL A   1      34.477  31.181  27.379  1.00  0.00     0.261 C 
BRANCH  26  27
ATOM     27  O   UNL A   1      35.097  30.307  28.331  1.00  0.00    -0.460 OA
BRANCH  27  28
ATOM     28  C   UNL A   1      36.051  30.878  29.098  1.00  0.00     0.338 C 
ATOM     29  O   UNL A   1      35.912  31.807  29.889  1.00  0.00    -0.246 OA
BRANCH  28  30
ATOM     30  C   UNL A   1      37.321  30.161  28.928  1.00  0.00     0.060 A 
ATOM     31  C   UNL A   1      38.078  29.853  30.062  1.00  0.00     0.016 A 
ATOM     32  C   UNL A   1      37.814  29.885  27.649  1.00  0.00     0.016 A 
ATOM     33  C   UNL A   1      39.343  29.285  29.919  1.00  0.00     0.010 A 
ATOM     34  C   UNL A   1      39.090  29.328  27.511  1.00  0.00     0.010 A 
ATOM     35  C   UNL A   1      39.870  29.046  28.645  1.00  0.00    -0.014 A 
BRANCH  35  36
ATOM     36  C   UNL A   1      41.284  28.625  28.496  1.00  0.00     0.031 A 
ATOM     37  C   UNL A   1      42.367  29.665  28.578  1.00  0.00     0.074 A 
ATOM     38  C   UNL A   1      41.603  27.331  28.305  1.00  0.00     0.049 A 
ATOM     39  N   UNL A   1      43.646  29.548  28.339  1.00  0.00    -0.248 NA
ATOM     40  C   UNL A   1      41.951  31.016  28.991  1.00  0.00     0.031 C 
ATOM     41  C   UNL A   1      40.654  26.219  28.285  1.00  0.00     0.029 A 
ATOM     42  N   UNL A   1      42.820  26.739  28.071  1.00  0.00    -0.354 N 
ATOM     43  C   UNL A   1      44.187  30.811  28.547  1.00  0.00     0.074 A 
ATOM     44  C   UNL A   1      43.098  31.680  28.936  1.00  0.00     0.031 C 
ATOM     45  C   UNL A   1      41.320  25.082  28.021  1.00  0.00     0.029 A 
ATOM     46  C   UNL A   1      42.733  25.392  27.806  1.00  0.00     0.049 A 
ATOM     47  H   UNL A   1      43.673  27.231  28.091  1.00  0.00     0.167 HD
ATOM     48  C   UNL A   1      45.474  31.207  28.418  1.00  0.00     0.037 A 
ATOM     49  C   UNL A   1      43.675  24.523  27.389  1.00  0.00     0.037 A 
ATOM     50  C   UNL A   1      46.556  30.336  28.047  1.00  0.00     0.049 A 
ATOM     51  C   UNL A   1      45.082  25.012  27.158  1.00  0.00     0.074 A 
ATOM     52  C   UNL A   1      47.900  30.642  27.914  1.00  0.00     0.029 A 
ATOM     53  N   UNL A   1      46.419  28.993  27.738  1.00  0.00    -0.354 N 
ATOM     54  N   UNL A   1      45.583  26.208  27.355  1.00  0.00    -0.248 NA
ATOM     55  C   UNL A   1      46.049  24.038  26.628  1.00  0.00     0.031 C 
ATOM     56  C   UNL A   1      48.569  29.492  27.481  1.00  0.00     0.029 A 
ATOM     57  C   UNL A   1      47.647  28.462  27.382  1.00  0.00     0.049 A 
ATOM     58  H   UNL A   1      45.573  28.489  27.768  1.00  0.00     0.167 HD
ATOM     59  C   UNL A   1      46.921  26.127  26.979  1.00  0.00     0.074 A 
ATOM     60  C   UNL A   1      47.159  24.761  26.565  1.00  0.00     0.031 C 
ATOM     61  C   UNL A   1      47.866  27.099  26.971  1.00  0.00     0.037 A 
BRANCH  48  62
ATOM     62  C   UNL A   1      45.787  32.657  28.645  1.00  0.00     0.058 A 
ATOM     63  C   UNL A   1      46.087  33.157  29.920  1.00  0.00     0.135 A 
ATOM     64  C   UNL A   1      45.854  33.541  27.556  1.00  0.00     0.135 A 
ATOM     65  F   UNL A   1      46.017  32.357  30.996  1.00  0.00    -0.206 F 
ATOM     66  C   UNL A   1      46.443  34.489  30.108  1.00  0.00     0.059 A 
ATOM     67  C   UNL A   1      46.225  34.872  27.719  1.00  0.00     0.059 A 
ATOM     68  F   UNL A   1      45.568  33.110  26.318  1.00  0.00    -0.206 F 
ATOM     69  C   UNL A   1      46.513  35.337  29.001  1.00  0.00     0.060 A 
BRANCH  69  70
ATOM     70  S   UNL A   1      47.013  37.053  29.256  1.00  0.00     0.124 S 
ATOM     71  O   UNL A   1      48.246  37.115  28.478  1.00  0.00    -0.237 OA
ATOM     72  O   UNL A   1      45.881  37.794  28.709  1.00  0.00    -0.237 OA
ATOM     73  O   UNL A   1      47.179  37.148  30.704  1.00  0.00    -0.744 OA
ENDBRANCH  69  70
ENDBRANCH  48  62
BRANCH  49  74
ATOM     74  C   UNL A   1      43.312  23.114  27.079  1.00  0.00     0.058 A 
ATOM     75  C   UNL A   1      43.048  22.189  28.098  1.00  0.00     0.135 A 
ATOM     76  C   UNL A   1      43.269  22.656  25.752  1.00  0.00     0.135 A 
ATOM     77  F   UNL A   1      43.093  22.575  29.383  1.00  0.00    -0.206 F 
ATOM     78  C   UNL A   1      42.775  20.854  27.818  1.00  0.00     0.059 A 
ATOM     79  C   UNL A   1      42.973  21.332  25.445  1.00  0.00     0.059 A 
ATOM     80  F   UNL A   1      43.510  23.502  24.739  1.00  0.00    -0.206 F 
ATOM     81  C   UNL A   1      42.744  20.434  26.486  1.00  0.00     0.060 A 
BRANCH  81  82
ATOM     82  S   UNL A   1      42.372  18.704  26.125  1.00  0.00     0.124 S 
ATOM     83  O   UNL A   1      42.666  18.069  27.404  1.00  0.00    -0.237 OA
ATOM     84  O   UNL A   1      40.963  18.762  25.751  1.00  0.00    -0.237 OA
ATOM     85  O   UNL A   1      43.288  18.387  25.035  1.00  0.00    -0.744 OA
ENDBRANCH  81  82
ENDBRANCH  49  74
BRANCH  61  86
ATOM     86  C   UNL A   1      49.245  26.725  26.505  1.00  0.00     0.058 A 
ATOM     87  C   UNL A   1      50.156  26.088  27.362  1.00  0.00     0.135 A 
ATOM     88  C   UNL A   1      49.636  26.944  25.175  1.00  0.00     0.135 A 
ATOM     89  F   UNL A   1      49.832  25.864  28.646  1.00  0.00    -0.206 F 
ATOM     90  C   UNL A   1      51.412  25.690  26.918  1.00  0.00     0.059 A 
ATOM     91  C   UNL A   1      50.878  26.533  24.703  1.00  0.00     0.059 A 
ATOM     92  F   UNL A   1      48.796  27.541  24.313  1.00  0.00    -0.206 F 
ATOM     93  C   UNL A   1      51.763  25.915  25.586  1.00  0.00     0.060 A 
BRANCH  93  94
ATOM     94  S   UNL A   1      53.378  25.349  25.007  1.00  0.00     0.124 S 
ATOM     95  O   UNL A   1      54.280  26.194  25.781  1.00  0.00    -0.237 OA
ATOM     96  O   UNL A   1      53.365  23.935  25.370  1.00  0.00    -0.237 OA
ATOM     97  O   UNL A   1      53.338  25.621  23.573  1.00  0.00    -0.744 OA
ENDBRANCH  93  94
ENDBRANCH  61  86
ENDBRANCH  35  36
ENDBRANCH  28  30
ENDBRANCH  27  28
ENDBRANCH  26  27
ENDBRANCH  25  26
ENDBRANCH  24  25
ENDBRANCH   1  24
TORSDOF 23
ENDMDL
MODEL 3
REMARK VINA RESULT:     -10.0      1.168      2.179
REMARK SMILES O=C(C[C@H](C(=O)OC[C@H]1CCCO1)[NH+]1CCOCC1)OCCOCCOC(=O)c1ccc(-c2c3nc(c(-c4c(F)cc(S(=O)(=O)[O-])cc4F)c4ccc([nH]4)c(-c4c(F)cc(S(=O)(=O)[O-])cc4F)c4nc(c(-c5c(F)cc(S(=O)(=O)[O-])cc5F)c5ccc2[nH]5)C=C4)C=C3)cc1
REMARK SMILES IDX 22 1 21 2 20 3 2 4 1 5 3 6 4 7 14 8 15 9 19 10 16 12 18 13
REMARK SMILES IDX 17 14 5 15 6 16 7 17 8 18 9 19 10 20 13 21 11 22 12 23 23 24
REMARK SMILES IDX 24 25 25 26 26 27 27 28 28 29 29 30 30 31 94 32 31 33 93 34
REMARK SMILES IDX 32 35 33 36 34 37 87 38 35 39 92 40 86 41 88 42 36 43 91 44
REMARK SMILES IDX 85 45 84 46 37 48 71 49 50 50 70 51 51 52 54 53 69 54 89 55
REMARK SMILES IDX 52 56 53 57 68 59 90 60 55 61 38 62 39 63 48 64 40 65 41 66
REMARK SMILES IDX 47 67 49 68 42 69 43 70 44 71 45 72 46 73 72 74 73 75 82 76
REMARK SMILES IDX 74 77 75 78 81 79 83 80 76 81 77 82 78 83 79 84 80 85 56 86
REMARK SMILES IDX 57 87 66 88 58 89 59 90 65 91 67 92 60 93 61 94 62 95 63 96
REMARK SMILES IDX 64 97
REMARK H PARENT 14 11 88 47 54 58
REMARK Flexibility Score: inf
ROOT
ATOM      1  C   UNL A   1      31.316  26.351  25.999  1.00  0.00     0.202 C 
ENDROOT
BRANCH   1   2
ATOM      2  C   UNL A   1      30.369  25.939  24.865  1.00  0.00     0.261 C 
BRANCH   2   3
ATOM      3  O   UNL A   1      30.547  24.624  24.332  1.00  0.00    -0.463 OA
BRANCH   3   4
ATOM      4  C   UNL A   1      31.214  24.285  23.221  1.00  0.00     0.312 C 
ATOM      5  O   UNL A   1      31.469  25.160  22.393  1.00  0.00    -0.252 OA
BRANCH   4   6
ATOM      6  C   UNL A   1      31.642  22.866  22.988  1.00  0.00     0.200 C 
BRANCH   6   7
ATOM      7  C   UNL A   1      32.639  22.179  23.948  1.00  0.00     0.306 C 
BRANCH   7   8
ATOM      8  N   UNL A   1      33.914  22.791  24.363  1.00  0.00    -0.319 N 
ATOM      9  C   UNL A   1      35.212  22.311  23.881  1.00  0.00     0.291 C 
ATOM     10  C   UNL A   1      34.076  23.513  25.623  1.00  0.00     0.291 C 
ATOM     11  H   UNL A   1      33.560  23.461  23.680  1.00  0.00     0.348 HD
ATOM     12  C   UNL A   1      35.934  21.479  24.958  1.00  0.00     0.221 C 
ATOM     13  C   UNL A   1      34.823  22.672  26.672  1.00  0.00     0.221 C 
ATOM     14  O   UNL A   1      36.095  22.238  26.168  1.00  0.00    -0.370 OA
ENDBRANCH   7   8
BRANCH   7  15
ATOM     15  C   UNL A   1      31.834  21.362  24.984  1.00  0.00     0.365 C 
ATOM     16  O   UNL A   1      31.069  21.897  25.784  1.00  0.00    -0.245 OA
BRANCH  15  17
ATOM     17  O   UNL A   1      32.095  20.031  24.999  1.00  0.00    -0.459 OA
BRANCH  17  18
ATOM     18  C   UNL A   1      32.533  19.450  23.744  1.00  0.00     0.265 C 
BRANCH  18  19
ATOM     19  C   UNL A   1      32.451  17.916  23.777  1.00  0.00     0.156 C 
ATOM     20  C   UNL A   1      33.765  17.212  23.460  1.00  0.00     0.038 C 
ATOM     21  O   UNL A   1      32.059  17.486  25.096  1.00  0.00    -0.375 OA
ATOM     22  C   UNL A   1      34.284  16.795  24.812  1.00  0.00     0.031 C 
ATOM     23  C   UNL A   1      33.008  16.520  25.567  1.00  0.00     0.161 C 
ENDBRANCH  18  19
ENDBRANCH  17  18
ENDBRANCH  15  17
ENDBRANCH   7  15
ENDBRANCH   6   7
ENDBRANCH   4   6
ENDBRANCH   3   4
ENDBRANCH   2   3
ENDBRANCH   1   2
BRANCH   1  24
ATOM     24  O   UNL A   1      30.845  27.084  27.121  1.00  0.00    -0.374 OA
BRANCH  24  25
ATOM     25  C   UNL A   1      31.582  28.183  27.633  1.00  0.00     0.202 C 
BRANCH  25  26
ATOM     26  C   UNL A   1      32.798  28.687  26.852  1.00  0.00     0.261 C 
BRANCH  26  27
ATOM     27  O   UNL A   1      34.026  28.710  27.592  1.00  0.00    -0.460 OA
BRANCH  27  28
ATOM     28  C   UNL A   1      34.457  29.938  27.952  1.00  0.00     0.338 C 
ATOM     29  O   UNL A   1      33.785  30.959  28.063  1.00  0.00    -0.246 OA
BRANCH  28  30
ATOM     30  C   UNL A   1      35.884  29.883  28.296  1.00  0.00     0.060 A 
ATOM     31  C   UNL A   1      36.828  30.111  27.290  1.00  0.00     0.016 A 
ATOM     32  C   UNL A   1      36.290  29.506  29.579  1.00  0.00     0.016 A 
ATOM     33  C   UNL A   1      38.185  29.943  27.562  1.00  0.00     0.010 A 
ATOM     34  C   UNL A   1      37.652  29.325  29.842  1.00  0.00     0.010 A 
ATOM     35  C   UNL A   1      38.605  29.520  28.828  1.00  0.00    -0.014 A 
BRANCH  35  36
ATOM     36  C   UNL A   1      40.026  29.158  29.054  1.00  0.00     0.031 A 
ATOM     37  C   UNL A   1      40.977  30.213  29.549  1.00  0.00     0.074 A 
ATOM     38  C   UNL A   1      40.462  27.903  28.836  1.00  0.00     0.049 A 
ATOM     39  N   UNL A   1      42.275  30.159  29.680  1.00  0.00    -0.248 NA
ATOM     40  C   UNL A   1      40.381  31.497  29.955  1.00  0.00     0.031 C 
ATOM     41  C   UNL A   1      39.626  26.774  28.433  1.00  0.00     0.029 A 
ATOM     42  N   UNL A   1      41.728  27.376  28.908  1.00  0.00    -0.354 N 
ATOM     43  C   UNL A   1      42.658  31.406  30.159  1.00  0.00     0.074 A 
ATOM     44  C   UNL A   1      41.454  32.195  30.301  1.00  0.00     0.031 C 
ATOM     45  C   UNL A   1      40.405  25.693  28.262  1.00  0.00     0.029 A 
ATOM     46  C   UNL A   1      41.799  26.065  28.497  1.00  0.00     0.049 A 
ATOM     47  H   UNL A   1      42.509  27.887  29.222  1.00  0.00     0.167 HD
ATOM     48  C   UNL A   1      43.903  31.851  30.449  1.00  0.00     0.037 A 
ATOM     49  C   UNL A   1      42.872  25.275  28.287  1.00  0.00     0.037 A 
ATOM     50  C   UNL A   1      45.096  31.057  30.322  1.00  0.00     0.049 A 
ATOM     51  C   UNL A   1      44.255  25.826  28.523  1.00  0.00     0.074 A 
ATOM     52  C   UNL A   1      46.401  31.414  30.615  1.00  0.00     0.029 A 
ATOM     53  N   UNL A   1      45.133  29.753  29.856  1.00  0.00    -0.354 N 
ATOM     54  N   UNL A   1      44.607  27.006  28.974  1.00  0.00    -0.248 NA
ATOM     55  C   UNL A   1      45.389  24.945  28.202  1.00  0.00     0.031 C 
ATOM     56  C   UNL A   1      47.233  30.339  30.283  1.00  0.00     0.029 A 
ATOM     57  C   UNL A   1      46.441  29.301  29.820  1.00  0.00     0.049 A 
ATOM     58  H   UNL A   1      44.345  29.226  29.590  1.00  0.00     0.167 HD
ATOM     59  C   UNL A   1      45.999  27.006  28.995  1.00  0.00     0.074 A 
ATOM     60  C   UNL A   1      46.425  25.702  28.535  1.00  0.00     0.031 C 
ATOM     61  C   UNL A   1      46.848  27.999  29.358  1.00  0.00     0.037 A 
BRANCH  48  62
ATOM     62  C   UNL A   1      44.052  33.274  30.899  1.00  0.00     0.058 A 
ATOM     63  C   UNL A   1      43.994  33.631  32.253  1.00  0.00     0.135 A 
ATOM     64  C   UNL A   1      44.326  34.283  29.961  1.00  0.00     0.135 A 
ATOM     65  F   UNL A   1      43.715  32.706  33.186  1.00  0.00    -0.206 F 
ATOM     66  C   UNL A   1      44.202  34.943  32.665  1.00  0.00     0.059 A 
ATOM     67  C   UNL A   1      44.555  35.598  30.352  1.00  0.00     0.059 A 
ATOM     68  F   UNL A   1      44.384  33.991  28.652  1.00  0.00    -0.206 F 
ATOM     69  C   UNL A   1      44.485  35.919  31.706  1.00  0.00     0.060 A 
BRANCH  69  70
ATOM     70  S   UNL A   1      44.790  37.611  32.259  1.00  0.00     0.124 S 
ATOM     71  O   UNL A   1      43.748  38.342  31.545  1.00  0.00    -0.237 OA
ATOM     72  O   UNL A   1      44.613  37.505  33.704  1.00  0.00    -0.237 OA
ATOM     73  O   UNL A   1      46.156  37.873  31.816  1.00  0.00    -0.744 OA
ENDBRANCH  69  70
ENDBRANCH  48  62
BRANCH  49  74
ATOM     74  C   UNL A   1      42.697  23.900  27.748  1.00  0.00     0.058 A 
ATOM     75  C   UNL A   1      42.589  23.665  26.370  1.00  0.00     0.135 A 
ATOM     76  C   UNL A   1      42.588  22.796  28.609  1.00  0.00     0.135 A 
ATOM     77  F   UNL A   1      42.670  24.690  25.507  1.00  0.00    -0.206 F 
ATOM     78  C   UNL A   1      42.356  22.391  25.864  1.00  0.00     0.059 A 
ATOM     79  C   UNL A   1      42.382  21.508  28.126  1.00  0.00     0.059 A 
ATOM     80  F   UNL A   1      42.689  22.965  29.937  1.00  0.00    -0.206 F 
ATOM     81  C   UNL A   1      42.250  21.318  26.752  1.00  0.00     0.060 A 
BRANCH  81  82
ATOM     82  S   UNL A   1      41.967  19.661  26.089  1.00  0.00     0.124 S 
ATOM     83  O   UNL A   1      42.351  18.826  27.221  1.00  0.00    -0.237 OA
ATOM     84  O   UNL A   1      40.542  19.694  25.774  1.00  0.00    -0.237 OA
ATOM     85  O   UNL A   1      42.855  19.609  24.933  1.00  0.00    -0.744 OA
ENDBRANCH  81  82
ENDBRANCH  49  74
BRANCH  61  86
ATOM     86  C   UNL A   1      48.322  27.718  29.277  1.00  0.00     0.058 A 
ATOM     87  C   UNL A   1      49.051  27.319  30.407  1.00  0.00     0.135 A 
ATOM     88  C   UNL A   1      48.997  27.785  28.048  1.00  0.00     0.135 A 
ATOM     89  F   UNL A   1      48.452  27.248  31.607  1.00  0.00    -0.206 F 
ATOM     90  C   UNL A   1      50.403  27.003  30.324  1.00  0.00     0.059 A 
ATOM     91  C   UNL A   1      50.343  27.453  27.936  1.00  0.00     0.059 A 
ATOM     92  F   UNL A   1      48.341  28.153  26.935  1.00  0.00    -0.206 F 
ATOM     93  C   UNL A   1      51.040  27.071  29.083  1.00  0.00     0.060 A 
BRANCH  93  94
ATOM     94  S   UNL A   1      52.783  26.612  28.977  1.00  0.00     0.124 S 
ATOM     95  O   UNL A   1      52.810  25.851  27.732  1.00  0.00    -0.237 OA
ATOM     96  O   UNL A   1      53.450  27.911  28.941  1.00  0.00    -0.237 OA
ATOM     97  O   UNL A   1      53.003  25.836  30.193  1.00  0.00    -0.744 OA
ENDBRANCH  93  94
ENDBRANCH  61  86
ENDBRANCH  35  36
ENDBRANCH  28  30
ENDBRANCH  27  28
ENDBRANCH  26  27
ENDBRANCH  25  26
ENDBRANCH  24  25
ENDBRANCH   1  24
TORSDOF 23
ENDMDL
