MODEL 1
REMARK VINA RESULT:     -11.0      0.000      0.000
REMARK SMILES O=C(CCCc1nc(-c2ccc(Cl)c(Cl)c2)c(-c2ccccc2)o1)OCCOCCOC(=O)c1ccc(-c2c3nc(c(-c4c(F)cc(S(=O)(=O)[O-])cc4F)c4ccc([nH]4)c(-c4c(F)cc(S(=O)(=O)[O-])cc4F)c4nc(c(-c5c(F)cc(S(=O)(=O)[O-])cc5F)c5ccc2[nH]5)C=C4)C=C3)cc1
REMARK SMILES IDX 27 1 26 2 25 3 2 4 1 5 3 6 4 7 5 8 6 9 7 10 24 11 8 12 17 13
REMARK SMILES IDX 9 14 10 15 16 16 11 17 14 18 12 19 15 20 13 21 18 22 19 23
REMARK SMILES IDX 23 24 20 25 22 26 21 27 28 28 29 29 30 30 31 31 32 32 33 33
REMARK SMILES IDX 34 34 35 35 99 36 36 37 98 38 37 39 38 40 39 41 92 42 40 43
REMARK SMILES IDX 97 44 91 45 93 46 41 47 96 48 90 49 89 50 42 52 76 53 55 54
REMARK SMILES IDX 75 55 56 56 59 57 74 58 94 59 57 60 58 61 73 63 95 64 60 65
REMARK SMILES IDX 43 66 44 67 53 68 45 69 46 70 52 71 54 72 47 73 48 74 49 75
REMARK SMILES IDX 50 76 51 77 77 78 78 79 87 80 79 81 80 82 86 83 88 84 81 85
REMARK SMILES IDX 82 86 83 87 84 88 85 89 61 90 62 91 71 92 63 93 64 94 70 95
REMARK SMILES IDX 72 96 65 97 66 98 67 99 68 100 69 101
REMARK H PARENT 93 51 59 62
REMARK Flexibility Score: inf
ROOT
ATOM      1  C   UNL A   1      31.331  30.118  24.705  1.00  0.00     0.202 C 
ENDROOT
BRANCH   1   2
ATOM      2  C   UNL A   1      30.181  29.523  23.900  1.00  0.00     0.261 C 
BRANCH   2   3
ATOM      3  O   UNL A   1      30.478  28.898  22.644  1.00  0.00    -0.463 OA
BRANCH   3   4
ATOM      4  C   UNL A   1      30.387  27.557  22.551  1.00  0.00     0.305 C 
ATOM      5  O   UNL A   1      31.018  26.933  21.703  1.00  0.00    -0.252 OA
BRANCH   4   6
ATOM      6  C   UNL A   1      29.511  26.872  23.582  1.00  0.00     0.123 C 
BRANCH   6   7
ATOM      7  C   UNL A   1      30.108  25.756  24.434  1.00  0.00     0.021 C 
BRANCH   7   8
ATOM      8  C   UNL A   1      31.595  25.788  24.801  1.00  0.00     0.098 C 
BRANCH   8   9
ATOM      9  C   UNL A   1      32.383  24.514  24.765  1.00  0.00     0.195 A 
ATOM     10  N   UNL A   1      31.902  23.292  24.585  1.00  0.00    -0.213 NA
ATOM     11  O   UNL A   1      33.734  24.558  24.998  1.00  0.00    -0.440 OA
ATOM     12  C   UNL A   1      32.998  22.477  24.732  1.00  0.00     0.117 A 
ATOM     13  C   UNL A   1      34.129  23.244  24.927  1.00  0.00     0.162 A 
BRANCH  12  14
ATOM     14  C   UNL A   1      32.965  21.025  24.731  1.00  0.00     0.006 A 
ATOM     15  C   UNL A   1      33.102  20.312  25.922  1.00  0.00     0.012 A 
ATOM     16  C   UNL A   1      32.713  20.312  23.557  1.00  0.00     0.032 A 
ATOM     17  C   UNL A   1      33.010  18.920  25.963  1.00  0.00     0.023 A 
ATOM     18  C   UNL A   1      32.600  18.913  23.587  1.00  0.00     0.060 A 
ATOM     19  C   UNL A   1      32.753  18.215  24.792  1.00  0.00     0.059 A 
ATOM     20  Cl  UNL A   1      32.242  18.108  22.101  1.00  0.00    -0.083 Cl
ATOM     21  Cl  UNL A   1      32.606  16.499  24.905  1.00  0.00    -0.083 Cl
ENDBRANCH  12  14
BRANCH  13  22
ATOM     22  C   UNL A   1      35.540  22.944  25.075  1.00  0.00     0.020 A 
ATOM     23  C   UNL A   1      36.399  23.821  25.743  1.00  0.00     0.012 A 
ATOM     24  C   UNL A   1      36.046  21.718  24.617  1.00  0.00     0.012 A 
ATOM     25  C   UNL A   1      37.732  23.463  25.971  1.00  0.00     0.001 A 
ATOM     26  C   UNL A   1      37.377  21.364  24.836  1.00  0.00     0.001 A 
ATOM     27  C   UNL A   1      38.218  22.235  25.522  1.00  0.00     0.000 A 
ENDBRANCH  13  22
ENDBRANCH   8   9
ENDBRANCH   7   8
ENDBRANCH   6   7
ENDBRANCH   4   6
ENDBRANCH   3   4
ENDBRANCH   2   3
ENDBRANCH   1   2
BRANCH   1  28
ATOM     28  O   UNL A   1      31.936  29.242  25.648  1.00  0.00    -0.374 OA
BRANCH  28  29
ATOM     29  C   UNL A   1      33.334  29.043  25.401  1.00  0.00     0.202 C 
BRANCH  29  30
ATOM     30  C   UNL A   1      34.032  28.158  26.442  1.00  0.00     0.261 C 
BRANCH  30  31
ATOM     31  O   UNL A   1      33.925  28.718  27.767  1.00  0.00    -0.460 OA
BRANCH  31  32
ATOM     32  C   UNL A   1      34.469  29.944  27.917  1.00  0.00     0.338 C 
ATOM     33  O   UNL A   1      33.883  31.025  27.925  1.00  0.00    -0.246 OA
BRANCH  32  34
ATOM     34  C   UNL A   1      35.883  29.838  28.303  1.00  0.00     0.060 A 
ATOM     35  C   UNL A   1      36.840  30.089  27.312  1.00  0.00     0.016 A 
ATOM     36  C   UNL A   1      36.280  29.415  29.568  1.00  0.00     0.016 A 
ATOM     37  C   UNL A   1      38.180  29.829  27.530  1.00  0.00     0.010 A 
ATOM     38  C   UNL A   1      37.641  29.204  29.810  1.00  0.00     0.010 A 
ATOM     39  C   UNL A   1      38.591  29.383  28.783  1.00  0.00    -0.014 A 
BRANCH  39  40
ATOM     40  C   UNL A   1      40.015  29.055  28.996  1.00  0.00     0.031 A 
ATOM     41  C   UNL A   1      40.950  30.137  29.445  1.00  0.00     0.074 A 
ATOM     42  C   UNL A   1      40.447  27.794  28.810  1.00  0.00     0.049 A 
ATOM     43  N   UNL A   1      42.253  30.141  29.468  1.00  0.00    -0.248 NA
ATOM     44  C   UNL A   1      40.333  31.385  29.930  1.00  0.00     0.031 C 
ATOM     45  C   UNL A   1      39.596  26.647  28.475  1.00  0.00     0.029 A 
ATOM     46  N   UNL A   1      41.711  27.267  28.858  1.00  0.00    -0.354 N 
ATOM     47  C   UNL A   1      42.618  31.404  29.913  1.00  0.00     0.074 A 
ATOM     48  C   UNL A   1      41.399  32.137  30.171  1.00  0.00     0.031 C 
ATOM     49  C   UNL A   1      40.366  25.558  28.324  1.00  0.00     0.029 A 
ATOM     50  C   UNL A   1      41.763  25.950  28.465  1.00  0.00     0.049 A 
ATOM     51  H   UNL A   1      42.501  27.779  29.145  1.00  0.00     0.167 HD
ATOM     52  C   UNL A   1      43.866  31.899  30.072  1.00  0.00     0.037 A 
ATOM     53  C   UNL A   1      42.824  25.172  28.175  1.00  0.00     0.037 A 
ATOM     54  C   UNL A   1      45.059  31.126  29.846  1.00  0.00     0.049 A 
ATOM     55  C   UNL A   1      44.199  25.770  28.284  1.00  0.00     0.074 A 
ATOM     56  C   UNL A   1      46.377  31.511  30.003  1.00  0.00     0.029 A 
ATOM     57  N   UNL A   1      45.073  29.805  29.420  1.00  0.00    -0.354 N 
ATOM     58  N   UNL A   1      44.542  26.978  28.665  1.00  0.00    -0.248 NA
ATOM     59  C   UNL A   1      45.328  24.915  27.899  1.00  0.00     0.031 C 
ATOM     60  C   UNL A   1      47.190  30.438  29.623  1.00  0.00     0.029 A 
ATOM     61  C   UNL A   1      46.377  29.370  29.273  1.00  0.00     0.049 A 
ATOM     62  H   UNL A   1      44.272  29.259  29.246  1.00  0.00     0.167 HD
ATOM     63  C   UNL A   1      45.927  27.027  28.570  1.00  0.00     0.074 A 
ATOM     64  C   UNL A   1      46.359  25.719  28.121  1.00  0.00     0.031 C 
ATOM     65  C   UNL A   1      46.769  28.059  28.823  1.00  0.00     0.037 A 
BRANCH  52  66
ATOM     66  C   UNL A   1      44.016  33.342  30.454  1.00  0.00     0.058 A 
ATOM     67  C   UNL A   1      44.138  33.754  31.789  1.00  0.00     0.135 A 
ATOM     68  C   UNL A   1      44.114  34.323  29.453  1.00  0.00     0.135 A 
ATOM     69  F   UNL A   1      44.025  32.861  32.785  1.00  0.00    -0.206 F 
ATOM     70  C   UNL A   1      44.355  35.089  32.119  1.00  0.00     0.059 A 
ATOM     71  C   UNL A   1      44.351  35.659  29.758  1.00  0.00     0.059 A 
ATOM     72  F   UNL A   1      43.990  33.982  28.161  1.00  0.00    -0.206 F 
ATOM     73  C   UNL A   1      44.469  36.034  31.096  1.00  0.00     0.060 A 
BRANCH  73  74
ATOM     74  S   UNL A   1      44.804  37.752  31.536  1.00  0.00     0.124 S 
ATOM     75  O   UNL A   1      46.083  37.633  32.228  1.00  0.00    -0.237 OA
ATOM     76  O   UNL A   1      44.846  38.405  30.232  1.00  0.00    -0.237 OA
ATOM     77  O   UNL A   1      43.667  38.115  32.379  1.00  0.00    -0.744 OA
ENDBRANCH  73  74
ENDBRANCH  52  66
BRANCH  53  78
ATOM     78  C   UNL A   1      42.622  23.794  27.653  1.00  0.00     0.058 A 
ATOM     79  C   UNL A   1      42.494  23.546  26.280  1.00  0.00     0.135 A 
ATOM     80  C   UNL A   1      42.545  22.694  28.525  1.00  0.00     0.135 A 
ATOM     81  F   UNL A   1      42.551  24.563  25.406  1.00  0.00    -0.206 F 
ATOM     82  C   UNL A   1      42.273  22.262  25.790  1.00  0.00     0.059 A 
ATOM     83  C   UNL A   1      42.355  21.399  28.057  1.00  0.00     0.059 A 
ATOM     84  F   UNL A   1      42.676  22.874  29.849  1.00  0.00    -0.206 F 
ATOM     85  C   UNL A   1      42.203  21.195  26.687  1.00  0.00     0.060 A 
BRANCH  85  86
ATOM     86  S   UNL A   1      41.940  19.529  26.044  1.00  0.00     0.124 S 
ATOM     87  O   UNL A   1      40.508  19.547  25.765  1.00  0.00    -0.237 OA
ATOM     88  O   UNL A   1      42.818  19.506  24.877  1.00  0.00    -0.237 OA
ATOM     89  O   UNL A   1      42.360  18.673  27.150  1.00  0.00    -0.744 OA
ENDBRANCH  85  86
ENDBRANCH  53  78
BRANCH  65  90
ATOM     90  C   UNL A   1      48.234  27.806  28.628  1.00  0.00     0.058 A 
ATOM     91  C   UNL A   1      48.884  28.169  27.439  1.00  0.00     0.135 A 
ATOM     92  C   UNL A   1      49.005  27.250  29.662  1.00  0.00     0.135 A 
ATOM     93  F   UNL A   1      48.185  28.694  26.420  1.00  0.00    -0.206 F 
ATOM     94  C   UNL A   1      50.250  27.975  27.276  1.00  0.00     0.059 A 
ATOM     95  C   UNL A   1      50.376  27.072  29.529  1.00  0.00     0.059 A 
ATOM     96  F   UNL A   1      48.426  26.897  30.821  1.00  0.00    -0.206 F 
ATOM     97  C   UNL A   1      50.988  27.429  28.328  1.00  0.00     0.060 A 
BRANCH  97  98
ATOM     98  S   UNL A   1      52.769  27.225  28.119  1.00  0.00     0.124 S 
ATOM     99  O   UNL A   1      53.271  27.717  29.398  1.00  0.00    -0.237 OA
ATOM    100  O   UNL A   1      52.896  25.788  27.898  1.00  0.00    -0.237 OA
ATOM    101  O   UNL A   1      53.072  28.061  26.961  1.00  0.00    -0.744 OA
ENDBRANCH  97  98
ENDBRANCH  65  90
ENDBRANCH  39  40
ENDBRANCH  32  34
ENDBRANCH  31  32
ENDBRANCH  30  31
ENDBRANCH  29  30
ENDBRANCH  28  29
ENDBRANCH   1  28
TORSDOF 22
ENDMDL
MODEL 2
REMARK VINA RESULT:     -10.4      1.313      2.386
REMARK SMILES O=C(CCCc1nc(-c2ccc(Cl)c(Cl)c2)c(-c2ccccc2)o1)OCCOCCOC(=O)c1ccc(-c2c3nc(c(-c4c(F)cc(S(=O)(=O)[O-])cc4F)c4ccc([nH]4)c(-c4c(F)cc(S(=O)(=O)[O-])cc4F)c4nc(c(-c5c(F)cc(S(=O)(=O)[O-])cc5F)c5ccc2[nH]5)C=C4)C=C3)cc1
REMARK SMILES IDX 27 1 26 2 25 3 2 4 1 5 3 6 4 7 5 8 6 9 7 10 24 11 8 12 17 13
REMARK SMILES IDX 9 14 10 15 16 16 11 17 14 18 12 19 15 20 13 21 18 22 19 23
REMARK SMILES IDX 23 24 20 25 22 26 21 27 28 28 29 29 30 30 31 31 32 32 33 33
REMARK SMILES IDX 34 34 35 35 99 36 36 37 98 38 37 39 38 40 39 41 92 42 40 43
REMARK SMILES IDX 97 44 91 45 93 46 41 47 96 48 90 49 89 50 42 52 76 53 55 54
REMARK SMILES IDX 75 55 56 56 59 57 74 58 94 59 57 60 58 61 73 63 95 64 60 65
REMARK SMILES IDX 43 66 44 67 53 68 45 69 46 70 52 71 54 72 47 73 48 74 49 75
REMARK SMILES IDX 50 76 51 77 77 78 78 79 87 80 79 81 80 82 86 83 88 84 81 85
REMARK SMILES IDX 82 86 83 87 84 88 85 89 61 90 62 91 71 92 63 93 64 94 70 95
REMARK SMILES IDX 72 96 65 97 66 98 67 99 68 100 69 101
REMARK H PARENT 93 51 59 62
REMARK Flexibility Score: inf
ROOT
ATOM      1  C   UNL A   1      31.895  28.903  24.013  1.00  0.00     0.202 C 
ENDROOT
BRANCH   1   2
ATOM      2  C   UNL A   1      30.478  29.446  23.859  1.00  0.00     0.261 C 
BRANCH   2   3
ATOM      3  O   UNL A   1      29.690  28.992  22.750  1.00  0.00    -0.463 OA
BRANCH   3   4
ATOM      4  C   UNL A   1      28.579  28.272  22.999  1.00  0.00     0.305 C 
ATOM      5  O   UNL A   1      27.533  28.480  22.389  1.00  0.00    -0.252 OA
BRANCH   4   6
ATOM      6  C   UNL A   1      28.713  27.164  24.026  1.00  0.00     0.123 C 
BRANCH   6   7
ATOM      7  C   UNL A   1      29.264  25.811  23.585  1.00  0.00     0.021 C 
BRANCH   7   8
ATOM      8  C   UNL A   1      30.657  25.723  22.954  1.00  0.00     0.098 C 
BRANCH   8   9
ATOM      9  C   UNL A   1      31.628  24.704  23.469  1.00  0.00     0.195 A 
ATOM     10  N   UNL A   1      32.825  24.944  23.983  1.00  0.00    -0.213 NA
ATOM     11  O   UNL A   1      31.317  23.372  23.362  1.00  0.00    -0.440 OA
ATOM     12  C   UNL A   1      33.348  23.693  24.208  1.00  0.00     0.117 A 
ATOM     13  C   UNL A   1      32.414  22.730  23.886  1.00  0.00     0.162 A 
BRANCH  12  14
ATOM     14  C   UNL A   1      34.698  23.424  24.670  1.00  0.00     0.006 A 
ATOM     15  C   UNL A   1      35.318  24.275  25.584  1.00  0.00     0.012 A 
ATOM     16  C   UNL A   1      35.376  22.268  24.278  1.00  0.00     0.032 A 
ATOM     17  C   UNL A   1      36.589  24.011  26.095  1.00  0.00     0.023 A 
ATOM     18  C   UNL A   1      36.647  21.979  24.798  1.00  0.00     0.060 A 
ATOM     19  C   UNL A   1      37.257  22.854  25.706  1.00  0.00     0.059 A 
ATOM     20  Cl  UNL A   1      37.400  20.506  24.299  1.00  0.00    -0.083 Cl
ATOM     21  Cl  UNL A   1      38.808  22.552  26.401  1.00  0.00    -0.083 Cl
ENDBRANCH  12  14
BRANCH  13  22
ATOM     22  C   UNL A   1      32.382  21.283  23.975  1.00  0.00     0.020 A 
ATOM     23  C   UNL A   1      32.212  20.492  22.836  1.00  0.00     0.012 A 
ATOM     24  C   UNL A   1      32.607  20.653  25.209  1.00  0.00     0.012 A 
ATOM     25  C   UNL A   1      32.294  19.099  22.927  1.00  0.00     0.001 A 
ATOM     26  C   UNL A   1      32.680  19.264  25.302  1.00  0.00     0.001 A 
ATOM     27  C   UNL A   1      32.532  18.487  24.158  1.00  0.00     0.000 A 
ENDBRANCH  13  22
ENDBRANCH   8   9
ENDBRANCH   7   8
ENDBRANCH   6   7
ENDBRANCH   4   6
ENDBRANCH   3   4
ENDBRANCH   2   3
ENDBRANCH   1   2
BRANCH   1  28
ATOM     28  O   UNL A   1      32.573  29.292  25.200  1.00  0.00    -0.374 OA
BRANCH  28  29
ATOM     29  C   UNL A   1      33.913  28.785  25.262  1.00  0.00     0.202 C 
BRANCH  29  30
ATOM     30  C   UNL A   1      34.230  28.017  26.552  1.00  0.00     0.261 C 
BRANCH  30  31
ATOM     31  O   UNL A   1      33.877  28.782  27.723  1.00  0.00    -0.460 OA
BRANCH  31  32
ATOM     32  C   UNL A   1      34.450  30.001  27.806  1.00  0.00     0.338 C 
ATOM     33  O   UNL A   1      33.893  31.095  27.727  1.00  0.00    -0.246 OA
BRANCH  32  34
ATOM     34  C   UNL A   1      35.851  29.885  28.235  1.00  0.00     0.060 A 
ATOM     35  C   UNL A   1      36.839  30.145  27.278  1.00  0.00     0.016 A 
ATOM     36  C   UNL A   1      36.206  29.444  29.506  1.00  0.00     0.016 A 
ATOM     37  C   UNL A   1      38.171  29.878  27.535  1.00  0.00     0.010 A 
ATOM     38  C   UNL A   1      37.558  29.226  29.788  1.00  0.00     0.010 A 
ATOM     39  C   UNL A   1      38.541  29.414  28.794  1.00  0.00    -0.014 A 
BRANCH  39  40
ATOM     40  C   UNL A   1      39.956  29.078  29.048  1.00  0.00     0.031 A 
ATOM     41  C   UNL A   1      40.879  30.151  29.543  1.00  0.00     0.074 A 
ATOM     42  C   UNL A   1      40.390  27.819  28.856  1.00  0.00     0.049 A 
ATOM     43  N   UNL A   1      42.181  30.149  29.608  1.00  0.00    -0.248 NA
ATOM     44  C   UNL A   1      40.251  31.393  30.027  1.00  0.00     0.031 C 
ATOM     45  C   UNL A   1      39.548  26.680  28.477  1.00  0.00     0.029 A 
ATOM     46  N   UNL A   1      41.651  27.287  28.937  1.00  0.00    -0.354 N 
ATOM     47  C   UNL A   1      42.535  31.404  30.085  1.00  0.00     0.074 A 
ATOM     48  C   UNL A   1      41.310  32.137  30.314  1.00  0.00     0.031 C 
ATOM     49  C   UNL A   1      40.320  25.591  28.334  1.00  0.00     0.029 A 
ATOM     50  C   UNL A   1      41.712  25.976  28.527  1.00  0.00     0.049 A 
ATOM     51  H   UNL A   1      42.433  27.792  29.257  1.00  0.00     0.167 HD
ATOM     52  C   UNL A   1      43.778  31.893  30.291  1.00  0.00     0.037 A 
ATOM     53  C   UNL A   1      42.779  25.199  28.258  1.00  0.00     0.037 A 
ATOM     54  C   UNL A   1      44.976  31.119  30.092  1.00  0.00     0.049 A 
ATOM     55  C   UNL A   1      44.152  25.791  28.421  1.00  0.00     0.074 A 
ATOM     56  C   UNL A   1      46.290  31.498  30.297  1.00  0.00     0.029 A 
ATOM     57  N   UNL A   1      45.000  29.805  29.646  1.00  0.00    -0.354 N 
ATOM     58  N   UNL A   1      44.486  26.992  28.831  1.00  0.00    -0.248 NA
ATOM     59  C   UNL A   1      45.291  24.938  28.060  1.00  0.00     0.031 C 
ATOM     60  C   UNL A   1      47.111  30.427  29.928  1.00  0.00     0.029 A 
ATOM     61  C   UNL A   1      46.307  29.368  29.535  1.00  0.00     0.049 A 
ATOM     62  H   UNL A   1      44.204  29.264  29.438  1.00  0.00     0.167 HD
ATOM     63  C   UNL A   1      45.873  27.037  28.782  1.00  0.00     0.074 A 
ATOM     64  C   UNL A   1      46.316  25.735  28.327  1.00  0.00     0.031 C 
ATOM     65  C   UNL A   1      46.709  28.063  29.078  1.00  0.00     0.037 A 
BRANCH  52  66
ATOM     66  C   UNL A   1      43.921  33.329  30.700  1.00  0.00     0.058 A 
ATOM     67  C   UNL A   1      44.055  33.716  32.041  1.00  0.00     0.135 A 
ATOM     68  C   UNL A   1      43.996  34.331  29.717  1.00  0.00     0.135 A 
ATOM     69  F   UNL A   1      43.964  32.802  33.021  1.00  0.00    -0.206 F 
ATOM     70  C   UNL A   1      44.265  35.046  32.395  1.00  0.00     0.059 A 
ATOM     71  C   UNL A   1      44.224  35.662  30.046  1.00  0.00     0.059 A 
ATOM     72  F   UNL A   1      43.858  34.014  28.420  1.00  0.00    -0.206 F 
ATOM     73  C   UNL A   1      44.356  36.012  31.389  1.00  0.00     0.060 A 
BRANCH  73  74
ATOM     74  S   UNL A   1      44.681  37.724  31.859  1.00  0.00     0.124 S 
ATOM     75  O   UNL A   1      44.305  38.438  30.642  1.00  0.00    -0.237 OA
ATOM     76  O   UNL A   1      43.793  37.907  33.002  1.00  0.00    -0.237 OA
ATOM     77  O   UNL A   1      46.108  37.727  32.170  1.00  0.00    -0.744 OA
ENDBRANCH  73  74
ENDBRANCH  52  66
BRANCH  53  78
ATOM     78  C   UNL A   1      42.591  23.830  27.709  1.00  0.00     0.058 A 
ATOM     79  C   UNL A   1      42.492  23.605  26.330  1.00  0.00     0.135 A 
ATOM     80  C   UNL A   1      42.496  22.715  28.561  1.00  0.00     0.135 A 
ATOM     81  F   UNL A   1      42.567  24.636  25.475  1.00  0.00    -0.206 F 
ATOM     82  C   UNL A   1      42.284  22.329  25.813  1.00  0.00     0.059 A 
ATOM     83  C   UNL A   1      42.319  21.428  28.067  1.00  0.00     0.059 A 
ATOM     84  F   UNL A   1      42.599  22.873  29.890  1.00  0.00    -0.206 F 
ATOM     85  C   UNL A   1      42.196  21.246  26.691  1.00  0.00     0.060 A 
BRANCH  85  86
ATOM     86  S   UNL A   1      41.949  19.592  26.014  1.00  0.00     0.124 S 
ATOM     87  O   UNL A   1      42.388  18.753  27.124  1.00  0.00    -0.237 OA
ATOM     88  O   UNL A   1      40.516  19.583  25.735  1.00  0.00    -0.237 OA
ATOM     89  O   UNL A   1      42.808  19.582  24.834  1.00  0.00    -0.744 OA
ENDBRANCH  85  86
ENDBRANCH  53  78
BRANCH  65  90
ATOM     90  C   UNL A   1      48.179  27.808  28.926  1.00  0.00     0.058 A 
ATOM     91  C   UNL A   1      48.849  28.099  27.729  1.00  0.00     0.135 A 
ATOM     92  C   UNL A   1      48.934  27.325  30.008  1.00  0.00     0.135 A 
ATOM     93  F   UNL A   1      48.167  28.552  26.665  1.00  0.00    -0.206 F 
ATOM     94  C   UNL A   1      50.219  27.904  27.603  1.00  0.00     0.059 A 
ATOM     95  C   UNL A   1      50.308  27.148  29.911  1.00  0.00     0.059 A 
ATOM     96  F   UNL A   1      48.336  27.042  31.176  1.00  0.00    -0.206 F 
ATOM     97  C   UNL A   1      50.941  27.431  28.701  1.00  0.00     0.060 A 
BRANCH  97  98
ATOM     98  S   UNL A   1      52.727  27.227  28.539  1.00  0.00     0.124 S 
ATOM     99  O   UNL A   1      53.005  26.250  29.587  1.00  0.00    -0.237 OA
ATOM    100  O   UNL A   1      52.863  26.743  27.168  1.00  0.00    -0.237 OA
ATOM    101  O   UNL A   1      53.244  28.571  28.777  1.00  0.00    -0.744 OA
ENDBRANCH  97  98
ENDBRANCH  65  90
ENDBRANCH  39  40
ENDBRANCH  32  34
ENDBRANCH  31  32
ENDBRANCH  30  31
ENDBRANCH  29  30
ENDBRANCH  28  29
ENDBRANCH   1  28
TORSDOF 22
ENDMDL
MODEL 3
REMARK VINA RESULT:      -9.5      2.931      3.510
REMARK SMILES O=C(CCCc1nc(-c2ccc(Cl)c(Cl)c2)c(-c2ccccc2)o1)OCCOCCOC(=O)c1ccc(-c2c3nc(c(-c4c(F)cc(S(=O)(=O)[O-])cc4F)c4ccc([nH]4)c(-c4c(F)cc(S(=O)(=O)[O-])cc4F)c4nc(c(-c5c(F)cc(S(=O)(=O)[O-])cc5F)c5ccc2[nH]5)C=C4)C=C3)cc1
REMARK SMILES IDX 27 1 26 2 25 3 2 4 1 5 3 6 4 7 5 8 6 9 7 10 24 11 8 12 17 13
REMARK SMILES IDX 9 14 10 15 16 16 11 17 14 18 12 19 15 20 13 21 18 22 19 23
REMARK SMILES IDX 23 24 20 25 22 26 21 27 28 28 29 29 30 30 31 31 32 32 33 33
REMARK SMILES IDX 34 34 35 35 99 36 36 37 98 38 37 39 38 40 39 41 92 42 40 43
REMARK SMILES IDX 97 44 91 45 93 46 41 47 96 48 90 49 89 50 42 52 76 53 55 54
REMARK SMILES IDX 75 55 56 56 59 57 74 58 94 59 57 60 58 61 73 63 95 64 60 65
REMARK SMILES IDX 43 66 44 67 53 68 45 69 46 70 52 71 54 72 47 73 48 74 49 75
REMARK SMILES IDX 50 76 51 77 77 78 78 79 87 80 79 81 80 82 86 83 88 84 81 85
REMARK SMILES IDX 82 86 83 87 84 88 85 89 61 90 62 91 71 92 63 93 64 94 70 95
REMARK SMILES IDX 72 96 65 97 66 98 67 99 68 100 69 101
REMARK H PARENT 93 51 59 62
REMARK Flexibility Score: inf
ROOT
ATOM      1  C   UNL A   1      32.208  28.949  23.921  1.00  0.00     0.202 C 
ENDROOT
BRANCH   1   2
ATOM      2  C   UNL A   1      30.896  29.663  23.611  1.00  0.00     0.261 C 
BRANCH   2   3
ATOM      3  O   UNL A   1      30.013  29.079  22.643  1.00  0.00    -0.463 OA
BRANCH   3   4
ATOM      4  C   UNL A   1      28.894  28.465  23.077  1.00  0.00     0.305 C 
ATOM      5  O   UNL A   1      27.805  28.681  22.553  1.00  0.00    -0.252 OA
BRANCH   4   6
ATOM      6  C   UNL A   1      29.072  27.463  24.201  1.00  0.00     0.123 C 
BRANCH   6   7
ATOM      7  C   UNL A   1      29.313  25.997  23.853  1.00  0.00     0.021 C 
BRANCH   7   8
ATOM      8  C   UNL A   1      30.416  25.620  22.858  1.00  0.00     0.098 C 
BRANCH   8   9
ATOM      9  C   UNL A   1      31.376  24.526  23.213  1.00  0.00     0.195 A 
ATOM     10  N   UNL A   1      31.116  23.227  23.246  1.00  0.00    -0.213 NA
ATOM     11  O   UNL A   1      32.647  24.856  23.611  1.00  0.00    -0.440 OA
ATOM     12  C   UNL A   1      32.279  22.666  23.717  1.00  0.00     0.117 A 
ATOM     13  C   UNL A   1      33.235  23.646  23.888  1.00  0.00     0.162 A 
BRANCH  12  14
ATOM     14  C   UNL A   1      32.458  21.260  24.034  1.00  0.00     0.006 A 
ATOM     15  C   UNL A   1      32.652  20.850  25.352  1.00  0.00     0.012 A 
ATOM     16  C   UNL A   1      32.359  20.281  23.044  1.00  0.00     0.032 A 
ATOM     17  C   UNL A   1      32.765  19.502  25.697  1.00  0.00     0.023 A 
ATOM     18  C   UNL A   1      32.451  18.921  23.379  1.00  0.00     0.060 A 
ATOM     19  C   UNL A   1      32.658  18.531  24.708  1.00  0.00     0.059 A 
ATOM     20  Cl  UNL A   1      32.271  17.769  22.103  1.00  0.00    -0.083 Cl
ATOM     21  Cl  UNL A   1      32.760  16.877  25.193  1.00  0.00    -0.083 Cl
ENDBRANCH  12  14
BRANCH  13  22
ATOM     22  C   UNL A   1      34.629  23.638  24.289  1.00  0.00     0.020 A 
ATOM     23  C   UNL A   1      35.018  24.057  25.564  1.00  0.00     0.012 A 
ATOM     24  C   UNL A   1      35.604  23.126  23.418  1.00  0.00     0.012 A 
ATOM     25  C   UNL A   1      36.351  23.938  25.968  1.00  0.00     0.001 A 
ATOM     26  C   UNL A   1      36.935  23.016  23.817  1.00  0.00     0.001 A 
ATOM     27  C   UNL A   1      37.307  23.415  25.097  1.00  0.00     0.000 A 
ENDBRANCH  13  22
ENDBRANCH   8   9
ENDBRANCH   7   8
ENDBRANCH   6   7
ENDBRANCH   4   6
ENDBRANCH   3   4
ENDBRANCH   2   3
ENDBRANCH   1   2
BRANCH   1  28
ATOM     28  O   UNL A   1      32.982  29.519  24.967  1.00  0.00    -0.374 OA
BRANCH  28  29
ATOM     29  C   UNL A   1      34.176  28.774  25.241  1.00  0.00     0.202 C 
BRANCH  29  30
ATOM     30  C   UNL A   1      34.276  28.265  26.685  1.00  0.00     0.261 C 
BRANCH  30  31
ATOM     31  O   UNL A   1      33.849  29.269  27.629  1.00  0.00    -0.460 OA
BRANCH  31  32
ATOM     32  C   UNL A   1      34.590  30.397  27.642  1.00  0.00     0.338 C 
ATOM     33  O   UNL A   1      34.273  31.503  27.206  1.00  0.00    -0.246 OA
BRANCH  32  34
ATOM     34  C   UNL A   1      35.794  30.214  28.463  1.00  0.00     0.060 A 
ATOM     35  C   UNL A   1      37.005  30.687  27.942  1.00  0.00     0.016 A 
ATOM     36  C   UNL A   1      35.775  29.521  29.669  1.00  0.00     0.016 A 
ATOM     37  C   UNL A   1      38.209  30.392  28.552  1.00  0.00     0.010 A 
ATOM     38  C   UNL A   1      36.987  29.268  30.319  1.00  0.00     0.010 A 
ATOM     39  C   UNL A   1      38.209  29.678  29.748  1.00  0.00    -0.014 A 
BRANCH  39  40
ATOM     40  C   UNL A   1      39.500  29.318  30.368  1.00  0.00     0.031 A 
ATOM     41  C   UNL A   1      40.002  30.131  31.523  1.00  0.00     0.074 A 
ATOM     42  C   UNL A   1      40.192  28.260  29.908  1.00  0.00     0.049 A 
ATOM     43  N   UNL A   1      41.188  30.149  32.062  1.00  0.00    -0.248 NA
ATOM     44  C   UNL A   1      39.037  31.049  32.155  1.00  0.00     0.031 C 
ATOM     45  C   UNL A   1      39.739  27.342  28.857  1.00  0.00     0.029 A 
ATOM     46  N   UNL A   1      41.431  27.784  30.252  1.00  0.00    -0.354 N 
ATOM     47  C   UNL A   1      41.135  31.116  33.057  1.00  0.00     0.074 A 
ATOM     48  C   UNL A   1      39.792  31.650  33.064  1.00  0.00     0.031 C 
ATOM     49  C   UNL A   1      40.698  26.431  28.626  1.00  0.00     0.029 A 
ATOM     50  C   UNL A   1      41.858  26.754  29.448  1.00  0.00     0.049 A 
ATOM     51  H   UNL A   1      41.961  28.144  30.999  1.00  0.00     0.167 HD
ATOM     52  C   UNL A   1      42.133  31.522  33.872  1.00  0.00     0.037 A 
ATOM     53  C   UNL A   1      43.075  26.189  29.333  1.00  0.00     0.037 A 
ATOM     54  C   UNL A   1      43.449  30.937  33.866  1.00  0.00     0.049 A 
ATOM     55  C   UNL A   1      44.189  26.713  30.196  1.00  0.00     0.074 A 
ATOM     56  C   UNL A   1      44.533  31.247  34.667  1.00  0.00     0.029 A 
ATOM     57  N   UNL A   1      43.853  29.917  33.017  1.00  0.00    -0.354 N 
ATOM     58  N   UNL A   1      44.149  27.657  31.107  1.00  0.00    -0.248 NA
ATOM     59  C   UNL A   1      45.517  26.119  30.001  1.00  0.00     0.031 C 
ATOM     60  C   UNL A   1      45.608  30.446  34.268  1.00  0.00     0.029 A 
ATOM     61  C   UNL A   1      45.181  29.608  33.249  1.00  0.00     0.049 A 
ATOM     62  H   UNL A   1      43.280  29.479  32.347  1.00  0.00     0.167 HD
ATOM     63  C   UNL A   1      45.444  27.767  31.598  1.00  0.00     0.074 A 
ATOM     64  C   UNL A   1      46.238  26.775  30.900  1.00  0.00     0.031 C 
ATOM     65  C   UNL A   1      45.939  28.614  32.533  1.00  0.00     0.037 A 
BRANCH  52  66
ATOM     66  C   UNL A   1      41.873  32.675  34.797  1.00  0.00     0.058 A 
ATOM     67  C   UNL A   1      41.485  32.492  36.131  1.00  0.00     0.135 A 
ATOM     68  C   UNL A   1      42.090  33.990  34.351  1.00  0.00     0.135 A 
ATOM     69  F   UNL A   1      41.238  31.258  36.601  1.00  0.00    -0.206 F 
ATOM     70  C   UNL A   1      41.323  33.572  36.995  1.00  0.00     0.059 A 
ATOM     71  C   UNL A   1      41.955  35.082  35.201  1.00  0.00     0.059 A 
ATOM     72  F   UNL A   1      42.449  34.220  33.078  1.00  0.00    -0.206 F 
ATOM     73  C   UNL A   1      41.570  34.864  36.523  1.00  0.00     0.060 A 
BRANCH  73  74
ATOM     74  S   UNL A   1      41.409  36.250  37.667  1.00  0.00     0.124 S 
ATOM     75  O   UNL A   1      40.069  36.737  37.351  1.00  0.00    -0.237 OA
ATOM     76  O   UNL A   1      41.558  35.602  38.966  1.00  0.00    -0.237 OA
ATOM     77  O   UNL A   1      42.504  37.138  37.283  1.00  0.00    -0.744 OA
ENDBRANCH  73  74
ENDBRANCH  52  66
BRANCH  53  78
ATOM     78  C   UNL A   1      43.327  25.153  28.296  1.00  0.00     0.058 A 
ATOM     79  C   UNL A   1      43.622  25.503  26.972  1.00  0.00     0.135 A 
ATOM     80  C   UNL A   1      43.266  23.785  28.612  1.00  0.00     0.135 A 
ATOM     81  F   UNL A   1      43.682  26.796  26.617  1.00  0.00    -0.206 F 
ATOM     82  C   UNL A   1      43.826  24.536  25.992  1.00  0.00     0.059 A 
ATOM     83  C   UNL A   1      43.495  22.801  27.657  1.00  0.00     0.059 A 
ATOM     84  F   UNL A   1      43.001  23.395  29.869  1.00  0.00    -0.206 F 
ATOM     85  C   UNL A   1      43.759  23.186  26.344  1.00  0.00     0.060 A 
BRANCH  85  86
ATOM     86  S   UNL A   1      44.047  21.937  25.073  1.00  0.00     0.124 S 
ATOM     87  O   UNL A   1      45.401  21.501  25.394  1.00  0.00    -0.237 OA
ATOM     88  O   UNL A   1      42.984  20.973  25.342  1.00  0.00    -0.237 OA
ATOM     89  O   UNL A   1      43.900  22.687  23.829  1.00  0.00    -0.744 OA
ENDBRANCH  85  86
ENDBRANCH  53  78
BRANCH  65  90
ATOM     90  C   UNL A   1      47.398  28.493  32.857  1.00  0.00     0.058 A 
ATOM     91  C   UNL A   1      48.358  29.271  32.193  1.00  0.00     0.135 A 
ATOM     92  C   UNL A   1      47.832  27.636  33.882  1.00  0.00     0.135 A 
ATOM     93  F   UNL A   1      47.990  30.096  31.200  1.00  0.00    -0.206 F 
ATOM     94  C   UNL A   1      49.705  29.192  32.524  1.00  0.00     0.059 A 
ATOM     95  C   UNL A   1      49.170  27.561  34.246  1.00  0.00     0.059 A 
ATOM     96  F   UNL A   1      46.947  26.881  34.551  1.00  0.00    -0.206 F 
ATOM     97  C   UNL A   1      50.101  28.336  33.555  1.00  0.00     0.060 A 
BRANCH  97  98
ATOM     98  S   UNL A   1      51.847  28.277  34.005  1.00  0.00     0.124 S 
ATOM     99  O   UNL A   1      51.856  27.211  35.002  1.00  0.00    -0.237 OA
ATOM    100  O   UNL A   1      52.489  27.961  32.732  1.00  0.00    -0.237 OA
ATOM    101  O   UNL A   1      52.111  29.619  34.517  1.00  0.00    -0.744 OA
ENDBRANCH  97  98
ENDBRANCH  65  90
ENDBRANCH  39  40
ENDBRANCH  32  34
ENDBRANCH  31  32
ENDBRANCH  30  31
ENDBRANCH  29  30
ENDBRANCH  28  29
ENDBRANCH   1  28
TORSDOF 22
ENDMDL
