MODEL 1
REMARK VINA RESULT:     -10.2      0.000      0.000
REMARK SMILES O=C(C[C@H]1C[C@H]2CC[C@@H](C1)N2C(=O)NCCC1CC1)OCCOCCOC(=O)c1ccc(-c2c3nc(c(-c4c(F)cc(S(=O)(=O)[O-])cc4F)c4ccc([nH]4)c(-c4c(F)cc(S(=O)(=O)[O-])cc4F)c4nc(c(-c5c(F)cc(S(=O)(=O)[O-])cc5F)c5ccc2[nH]5)C=C4)C=C3)cc1
REMARK SMILES IDX 22 1 21 2 20 3 2 4 1 5 3 6 4 7 5 8 10 9 6 10 9 11 7 12 11 13
REMARK SMILES IDX 8 14 12 15 13 16 14 17 15 19 16 20 17 21 18 22 19 23 23 24
REMARK SMILES IDX 24 25 25 26 26 27 27 28 28 29 29 30 30 31 94 32 31 33 93 34
REMARK SMILES IDX 32 35 33 36 34 37 87 38 35 39 92 40 86 41 88 42 36 43 91 44
REMARK SMILES IDX 85 45 84 46 37 48 71 49 50 50 70 51 51 52 54 53 69 54 89 55
REMARK SMILES IDX 52 56 53 57 68 59 90 60 55 61 38 62 39 63 48 64 40 65 41 66
REMARK SMILES IDX 47 67 49 68 42 69 43 70 44 71 45 72 46 73 72 74 73 75 82 76
REMARK SMILES IDX 74 77 75 78 81 79 83 80 76 81 77 82 78 83 79 84 80 85 56 86
REMARK SMILES IDX 57 87 66 88 58 89 59 90 65 91 67 92 60 93 61 94 62 95 63 96
REMARK SMILES IDX 64 97
REMARK H PARENT 14 18 88 47 54 58
REMARK Flexibility Score: inf
ROOT
ATOM      1  C   UNL A   1      33.242  28.996  24.330  1.00  0.00     0.202 C 
ENDROOT
BRANCH   1   2
ATOM      2  C   UNL A   1      31.785  29.301  24.664  1.00  0.00     0.261 C 
BRANCH   2   3
ATOM      3  O   UNL A   1      30.938  29.202  23.509  1.00  0.00    -0.463 OA
BRANCH   3   4
ATOM      4  C   UNL A   1      30.214  28.097  23.239  1.00  0.00     0.306 C 
ATOM      5  O   UNL A   1      28.989  28.158  23.143  1.00  0.00    -0.252 OA
BRANCH   4   6
ATOM      6  C   UNL A   1      30.939  26.788  23.053  1.00  0.00     0.126 C 
BRANCH   6   7
ATOM      7  C   UNL A   1      30.514  25.710  24.044  1.00  0.00     0.004 C 
ATOM      8  C   UNL A   1      30.556  24.303  23.376  1.00  0.00     0.029 C 
ATOM      9  C   UNL A   1      31.294  25.781  25.373  1.00  0.00     0.029 C 
ATOM     10  C   UNL A   1      31.854  23.518  23.665  1.00  0.00     0.087 C 
ATOM     11  C   UNL A   1      32.553  24.903  25.376  1.00  0.00     0.087 C 
ATOM     12  C   UNL A   1      33.084  24.231  23.100  1.00  0.00     0.027 C 
ATOM     13  N   UNL A   1      32.070  23.569  25.104  1.00  0.00    -0.319 N 
ATOM     14  C   UNL A   1      33.520  25.181  24.220  1.00  0.00     0.027 C 
BRANCH  13  15
ATOM     15  C   UNL A   1      31.533  22.633  25.927  1.00  0.00     0.317 C 
ATOM     16  O   UNL A   1      30.401  22.770  26.398  1.00  0.00    -0.249 OA
ATOM     17  N   UNL A   1      32.203  21.523  26.300  1.00  0.00    -0.338 N 
ATOM     18  H   UNL A   1      31.633  20.912  26.820  1.00  0.00     0.165 HD
BRANCH  17  19
ATOM     19  C   UNL A   1      33.553  20.991  26.134  1.00  0.00     0.118 C 
BRANCH  19  20
ATOM     20  C   UNL A   1      34.621  22.002  26.558  1.00  0.00     0.025 C 
BRANCH  20  21
ATOM     21  C   UNL A   1      35.529  22.380  25.421  1.00  0.00    -0.009 C 
ATOM     22  C   UNL A   1      37.021  22.371  25.640  1.00  0.00     0.004 C 
ATOM     23  C   UNL A   1      36.386  21.331  24.764  1.00  0.00     0.004 C 
ENDBRANCH  20  21
ENDBRANCH  19  20
ENDBRANCH  17  19
ENDBRANCH  13  15
ENDBRANCH   6   7
ENDBRANCH   4   6
ENDBRANCH   3   4
ENDBRANCH   2   3
ENDBRANCH   1   2
BRANCH   1  24
ATOM     24  O   UNL A   1      34.061  28.465  25.374  1.00  0.00    -0.374 OA
BRANCH  24  25
ATOM     25  C   UNL A   1      33.595  28.677  26.713  1.00  0.00     0.202 C 
BRANCH  25  26
ATOM     26  C   UNL A   1      34.330  29.760  27.506  1.00  0.00     0.261 C 
BRANCH  26  27
ATOM     27  O   UNL A   1      35.409  29.196  28.266  1.00  0.00    -0.460 OA
BRANCH  27  28
ATOM     28  C   UNL A   1      36.078  30.073  29.055  1.00  0.00     0.338 C 
ATOM     29  O   UNL A   1      35.602  30.821  29.893  1.00  0.00    -0.246 OA
BRANCH  28  30
ATOM     30  C   UNL A   1      37.524  29.776  28.943  1.00  0.00     0.060 A 
ATOM     31  C   UNL A   1      38.078  29.718  27.654  1.00  0.00     0.016 A 
ATOM     32  C   UNL A   1      38.336  29.653  30.072  1.00  0.00     0.016 A 
ATOM     33  C   UNL A   1      39.446  29.525  27.489  1.00  0.00     0.010 A 
ATOM     34  C   UNL A   1      39.701  29.424  29.906  1.00  0.00     0.010 A 
ATOM     35  C   UNL A   1      40.253  29.336  28.615  1.00  0.00    -0.014 A 
BRANCH  35  36
ATOM     36  C   UNL A   1      41.637  28.846  28.456  1.00  0.00     0.031 A 
ATOM     37  C   UNL A   1      42.740  29.864  28.480  1.00  0.00     0.074 A 
ATOM     38  C   UNL A   1      41.893  27.540  28.268  1.00  0.00     0.049 A 
ATOM     39  N   UNL A   1      44.012  29.711  28.235  1.00  0.00    -0.248 NA
ATOM     40  C   UNL A   1      42.353  31.246  28.817  1.00  0.00     0.031 C 
ATOM     41  C   UNL A   1      40.892  26.473  28.265  1.00  0.00     0.029 A 
ATOM     42  N   UNL A   1      43.075  26.894  28.015  1.00  0.00    -0.354 N 
ATOM     43  C   UNL A   1      44.574  30.975  28.367  1.00  0.00     0.074 A 
ATOM     44  C   UNL A   1      43.506  31.888  28.704  1.00  0.00     0.031 C 
ATOM     45  C   UNL A   1      41.501  25.306  27.985  1.00  0.00     0.029 A 
ATOM     46  C   UNL A   1      42.922  25.553  27.751  1.00  0.00     0.049 A 
ATOM     47  H   UNL A   1      43.950  27.347  28.021  1.00  0.00     0.167 HD
ATOM     48  C   UNL A   1      45.868  31.334  28.219  1.00  0.00     0.037 A 
ATOM     49  C   UNL A   1      43.824  24.647  27.325  1.00  0.00     0.037 A 
ATOM     50  C   UNL A   1      46.917  30.407  27.889  1.00  0.00     0.049 A 
ATOM     51  C   UNL A   1      45.249  25.089  27.103  1.00  0.00     0.074 A 
ATOM     52  C   UNL A   1      48.271  30.655  27.760  1.00  0.00     0.029 A 
ATOM     53  N   UNL A   1      46.726  29.060  27.624  1.00  0.00    -0.354 N 
ATOM     54  N   UNL A   1      45.782  26.277  27.281  1.00  0.00    -0.248 NA
ATOM     55  C   UNL A   1      46.196  24.075  26.618  1.00  0.00     0.031 C 
ATOM     56  C   UNL A   1      48.891  29.469  27.358  1.00  0.00     0.029 A 
ATOM     57  C   UNL A   1      47.932  28.470  27.292  1.00  0.00     0.049 A 
ATOM     58  H   UNL A   1      45.860  28.593  27.666  1.00  0.00     0.167 HD
ATOM     59  C   UNL A   1      47.126  26.145  26.947  1.00  0.00     0.074 A 
ATOM     60  C   UNL A   1      47.330  24.760  26.579  1.00  0.00     0.031 C 
ATOM     61  C   UNL A   1      48.105  27.084  26.936  1.00  0.00     0.037 A 
BRANCH  48  62
ATOM     62  C   UNL A   1      46.225  32.783  28.380  1.00  0.00     0.058 A 
ATOM     63  C   UNL A   1      46.223  33.672  27.295  1.00  0.00     0.135 A 
ATOM     64  C   UNL A   1      46.496  33.304  29.656  1.00  0.00     0.135 A 
ATOM     65  F   UNL A   1      45.998  33.220  26.051  1.00  0.00    -0.206 F 
ATOM     66  C   UNL A   1      46.472  35.028  27.468  1.00  0.00     0.059 A 
ATOM     67  C   UNL A   1      46.724  34.662  29.857  1.00  0.00     0.059 A 
ATOM     68  F   UNL A   1      46.526  32.493  30.725  1.00  0.00    -0.206 F 
ATOM     69  C   UNL A   1      46.709  35.516  28.755  1.00  0.00     0.060 A 
BRANCH  69  70
ATOM     70  S   UNL A   1      46.965  37.290  28.970  1.00  0.00     0.124 S 
ATOM     71  O   UNL A   1      45.624  37.738  29.332  1.00  0.00    -0.237 OA
ATOM     72  O   UNL A   1      47.958  37.332  30.038  1.00  0.00    -0.237 OA
ATOM     73  O   UNL A   1      47.440  37.727  27.660  1.00  0.00    -0.744 OA
ENDBRANCH  69  70
ENDBRANCH  48  62
BRANCH  49  74
ATOM     74  C   UNL A   1      43.408  23.248  27.027  1.00  0.00     0.058 A 
ATOM     75  C   UNL A   1      43.166  22.325  28.055  1.00  0.00     0.135 A 
ATOM     76  C   UNL A   1      43.282  22.795  25.703  1.00  0.00     0.135 A 
ATOM     77  F   UNL A   1      43.283  22.704  29.337  1.00  0.00    -0.206 F 
ATOM     78  C   UNL A   1      42.844  20.999  27.784  1.00  0.00     0.059 A 
ATOM     79  C   UNL A   1      42.931  21.481  25.408  1.00  0.00     0.059 A 
ATOM     80  F   UNL A   1      43.492  23.637  24.680  1.00  0.00    -0.206 F 
ATOM     81  C   UNL A   1      42.731  20.585  26.456  1.00  0.00     0.060 A 
BRANCH  81  82
ATOM     82  S   UNL A   1      42.298  18.865  26.116  1.00  0.00     0.124 S 
ATOM     83  O   UNL A   1      40.887  18.982  25.765  1.00  0.00    -0.237 OA
ATOM     84  O   UNL A   1      43.204  18.533  25.020  1.00  0.00    -0.237 OA
ATOM     85  O   UNL A   1      42.583  18.192  27.379  1.00  0.00    -0.744 OA
ENDBRANCH  81  82
ENDBRANCH  49  74
BRANCH  61  86
ATOM     86  C   UNL A   1      49.485  26.643  26.533  1.00  0.00     0.058 A 
ATOM     87  C   UNL A   1      50.295  25.891  27.397  1.00  0.00     0.135 A 
ATOM     88  C   UNL A   1      49.972  26.917  25.245  1.00  0.00     0.135 A 
ATOM     89  F   UNL A   1      49.878  25.608  28.641  1.00  0.00    -0.206 F 
ATOM     90  C   UNL A   1      51.551  25.441  27.004  1.00  0.00     0.059 A 
ATOM     91  C   UNL A   1      51.212  26.451  24.820  1.00  0.00     0.059 A 
ATOM     92  F   UNL A   1      49.230  27.622  24.376  1.00  0.00    -0.206 F 
ATOM     93  C   UNL A   1      51.998  25.722  25.712  1.00  0.00     0.060 A 
BRANCH  93  94
ATOM     94  S   UNL A   1      53.612  25.095  25.201  1.00  0.00     0.124 S 
ATOM     95  O   UNL A   1      53.696  25.582  23.829  1.00  0.00    -0.237 OA
ATOM     96  O   UNL A   1      54.510  25.733  26.158  1.00  0.00    -0.237 OA
ATOM     97  O   UNL A   1      53.476  23.648  25.347  1.00  0.00    -0.744 OA
ENDBRANCH  93  94
ENDBRANCH  61  86
ENDBRANCH  35  36
ENDBRANCH  28  30
ENDBRANCH  27  28
ENDBRANCH  26  27
ENDBRANCH  25  26
ENDBRANCH  24  25
ENDBRANCH   1  24
TORSDOF 22
ENDMDL
MODEL 2
REMARK VINA RESULT:     -10.2      1.505      2.328
REMARK SMILES O=C(C[C@H]1C[C@H]2CC[C@@H](C1)N2C(=O)NCCC1CC1)OCCOCCOC(=O)c1ccc(-c2c3nc(c(-c4c(F)cc(S(=O)(=O)[O-])cc4F)c4ccc([nH]4)c(-c4c(F)cc(S(=O)(=O)[O-])cc4F)c4nc(c(-c5c(F)cc(S(=O)(=O)[O-])cc5F)c5ccc2[nH]5)C=C4)C=C3)cc1
REMARK SMILES IDX 22 1 21 2 20 3 2 4 1 5 3 6 4 7 5 8 10 9 6 10 9 11 7 12 11 13
REMARK SMILES IDX 8 14 12 15 13 16 14 17 15 19 16 20 17 21 18 22 19 23 23 24
REMARK SMILES IDX 24 25 25 26 26 27 27 28 28 29 29 30 30 31 94 32 31 33 93 34
REMARK SMILES IDX 32 35 33 36 34 37 87 38 35 39 92 40 86 41 88 42 36 43 91 44
REMARK SMILES IDX 85 45 84 46 37 48 71 49 50 50 70 51 51 52 54 53 69 54 89 55
REMARK SMILES IDX 52 56 53 57 68 59 90 60 55 61 38 62 39 63 48 64 40 65 41 66
REMARK SMILES IDX 47 67 49 68 42 69 43 70 44 71 45 72 46 73 72 74 73 75 82 76
REMARK SMILES IDX 74 77 75 78 81 79 83 80 76 81 77 82 78 83 79 84 80 85 56 86
REMARK SMILES IDX 57 87 66 88 58 89 59 90 65 91 67 92 60 93 61 94 62 95 63 96
REMARK SMILES IDX 64 97
REMARK H PARENT 14 18 88 47 54 58
REMARK Flexibility Score: inf
ROOT
ATOM      1  C   UNL A   1      32.351  29.014  24.661  1.00  0.00     0.202 C 
ENDROOT
BRANCH   1   2
ATOM      2  C   UNL A   1      32.434  28.331  23.299  1.00  0.00     0.261 C 
BRANCH   2   3
ATOM      3  O   UNL A   1      33.618  27.529  23.173  1.00  0.00    -0.463 OA
BRANCH   3   4
ATOM      4  C   UNL A   1      33.577  26.237  22.793  1.00  0.00     0.306 C 
ATOM      5  O   UNL A   1      33.715  25.925  21.612  1.00  0.00    -0.252 OA
BRANCH   4   6
ATOM      6  C   UNL A   1      33.362  25.182  23.850  1.00  0.00     0.126 C 
BRANCH   6   7
ATOM      7  C   UNL A   1      34.248  23.954  23.674  1.00  0.00     0.004 C 
ATOM      8  C   UNL A   1      35.298  23.864  24.820  1.00  0.00     0.029 C 
ATOM      9  C   UNL A   1      33.436  22.656  23.483  1.00  0.00     0.029 C 
ATOM     10  C   UNL A   1      34.880  22.924  25.973  1.00  0.00     0.087 C 
ATOM     11  C   UNL A   1      33.155  21.926  24.803  1.00  0.00     0.087 C 
ATOM     12  C   UNL A   1      33.611  23.416  26.671  1.00  0.00     0.027 C 
ATOM     13  N   UNL A   1      34.461  21.669  25.365  1.00  0.00    -0.319 N 
ATOM     14  C   UNL A   1      32.467  22.788  25.868  1.00  0.00     0.027 C 
BRANCH  13  15
ATOM     15  C   UNL A   1      35.354  20.677  25.119  1.00  0.00     0.317 C 
ATOM     16  O   UNL A   1      36.570  20.881  25.183  1.00  0.00    -0.249 OA
ATOM     17  N   UNL A   1      34.978  19.430  24.768  1.00  0.00    -0.338 N 
ATOM     18  H   UNL A   1      35.746  18.818  24.721  1.00  0.00     0.165 HD
BRANCH  17  19
ATOM     19  C   UNL A   1      33.726  18.752  24.441  1.00  0.00     0.118 C 
BRANCH  19  20
ATOM     20  C   UNL A   1      33.950  17.563  23.504  1.00  0.00     0.025 C 
BRANCH  20  21
ATOM     21  C   UNL A   1      33.853  16.247  24.224  1.00  0.00    -0.009 C 
ATOM     22  C   UNL A   1      34.890  15.902  25.264  1.00  0.00     0.004 C 
ATOM     23  C   UNL A   1      33.483  16.214  25.683  1.00  0.00     0.004 C 
ENDBRANCH  20  21
ENDBRANCH  19  20
ENDBRANCH  17  19
ENDBRANCH  13  15
ENDBRANCH   6   7
ENDBRANCH   4   6
ENDBRANCH   3   4
ENDBRANCH   2   3
ENDBRANCH   1   2
BRANCH   1  24
ATOM     24  O   UNL A   1      33.578  29.420  25.272  1.00  0.00    -0.374 OA
BRANCH  24  25
ATOM     25  C   UNL A   1      33.479  29.935  26.606  1.00  0.00     0.202 C 
BRANCH  25  26
ATOM     26  C   UNL A   1      34.411  29.289  27.635  1.00  0.00     0.261 C 
BRANCH  26  27
ATOM     27  O   UNL A   1      35.710  29.898  27.603  1.00  0.00    -0.460 OA
BRANCH  27  28
ATOM     28  C   UNL A   1      36.278  30.108  28.817  1.00  0.00     0.338 C 
ATOM     29  O   UNL A   1      35.702  30.297  29.876  1.00  0.00    -0.246 OA
BRANCH  28  30
ATOM     30  C   UNL A   1      37.718  29.788  28.709  1.00  0.00     0.060 A 
ATOM     31  C   UNL A   1      38.261  29.654  27.419  1.00  0.00     0.016 A 
ATOM     32  C   UNL A   1      38.539  29.715  29.835  1.00  0.00     0.016 A 
ATOM     33  C   UNL A   1      39.625  29.435  27.254  1.00  0.00     0.010 A 
ATOM     34  C   UNL A   1      39.900  29.459  29.670  1.00  0.00     0.010 A 
ATOM     35  C   UNL A   1      40.439  29.296  28.382  1.00  0.00    -0.014 A 
BRANCH  35  36
ATOM     36  C   UNL A   1      41.816  28.781  28.237  1.00  0.00     0.031 A 
ATOM     37  C   UNL A   1      42.935  29.781  28.245  1.00  0.00     0.074 A 
ATOM     38  C   UNL A   1      42.051  27.467  28.077  1.00  0.00     0.049 A 
ATOM     39  N   UNL A   1      44.205  29.602  28.007  1.00  0.00    -0.248 NA
ATOM     40  C   UNL A   1      42.569  31.175  28.551  1.00  0.00     0.031 C 
ATOM     41  C   UNL A   1      41.033  26.416  28.092  1.00  0.00     0.029 A 
ATOM     42  N   UNL A   1      43.223  26.797  27.841  1.00  0.00    -0.354 N 
ATOM     43  C   UNL A   1      44.787  30.859  28.115  1.00  0.00     0.074 A 
ATOM     44  C   UNL A   1      43.733  31.796  28.430  1.00  0.00     0.031 C 
ATOM     45  C   UNL A   1      41.624  25.235  27.838  1.00  0.00     0.029 A 
ATOM     46  C   UNL A   1      43.049  25.453  27.604  1.00  0.00     0.049 A 
ATOM     47  H   UNL A   1      44.105  27.236  27.841  1.00  0.00     0.167 HD
ATOM     48  C   UNL A   1      46.087  31.194  27.964  1.00  0.00     0.037 A 
ATOM     49  C   UNL A   1      43.938  24.524  27.199  1.00  0.00     0.037 A 
ATOM     50  C   UNL A   1      47.122  30.244  27.657  1.00  0.00     0.049 A 
ATOM     51  C   UNL A   1      45.371  24.939  26.973  1.00  0.00     0.074 A 
ATOM     52  C   UNL A   1      48.480  30.468  27.528  1.00  0.00     0.029 A 
ATOM     53  N   UNL A   1      46.910  28.895  27.419  1.00  0.00    -0.354 N 
ATOM     54  N   UNL A   1      45.922  26.121  27.129  1.00  0.00    -0.248 NA
ATOM     55  C   UNL A   1      46.302  23.900  26.513  1.00  0.00     0.031 C 
ATOM     56  C   UNL A   1      49.082  29.265  27.152  1.00  0.00     0.029 A 
ATOM     57  C   UNL A   1      48.107  28.280  27.103  1.00  0.00     0.049 A 
ATOM     58  H   UNL A   1      46.036  28.443  27.467  1.00  0.00     0.167 HD
ATOM     59  C   UNL A   1      47.265  25.962  26.803  1.00  0.00     0.074 A 
ATOM     60  C   UNL A   1      47.448  24.565  26.464  1.00  0.00     0.031 C 
ATOM     61  C   UNL A   1      48.259  26.884  26.776  1.00  0.00     0.037 A 
BRANCH  48  62
ATOM     62  C   UNL A   1      46.467  32.641  28.097  1.00  0.00     0.058 A 
ATOM     63  C   UNL A   1      46.329  33.544  27.032  1.00  0.00     0.135 A 
ATOM     64  C   UNL A   1      46.901  33.145  29.335  1.00  0.00     0.135 A 
ATOM     65  F   UNL A   1      45.945  33.108  25.822  1.00  0.00    -0.206 F 
ATOM     66  C   UNL A   1      46.603  34.897  27.190  1.00  0.00     0.059 A 
ATOM     67  C   UNL A   1      47.157  34.499  29.522  1.00  0.00     0.059 A 
ATOM     68  F   UNL A   1      47.065  32.319  30.380  1.00  0.00    -0.206 F 
ATOM     69  C   UNL A   1      47.004  35.368  28.442  1.00  0.00     0.060 A 
BRANCH  69  70
ATOM     70  S   UNL A   1      47.292  37.138  28.645  1.00  0.00     0.124 S 
ATOM     71  O   UNL A   1      46.450  37.694  27.591  1.00  0.00    -0.237 OA
ATOM     72  O   UNL A   1      46.835  37.371  30.011  1.00  0.00    -0.237 OA
ATOM     73  O   UNL A   1      48.730  37.276  28.436  1.00  0.00    -0.744 OA
ENDBRANCH  69  70
ENDBRANCH  48  62
BRANCH  49  74
ATOM     74  C   UNL A   1      43.501  23.127  26.929  1.00  0.00     0.058 A 
ATOM     75  C   UNL A   1      43.212  22.237  27.974  1.00  0.00     0.135 A 
ATOM     76  C   UNL A   1      43.399  22.640  25.614  1.00  0.00     0.135 A 
ATOM     77  F   UNL A   1      43.303  22.650  29.248  1.00  0.00    -0.206 F 
ATOM     78  C   UNL A   1      42.869  20.911  27.732  1.00  0.00     0.059 A 
ATOM     79  C   UNL A   1      43.028  21.326  25.346  1.00  0.00     0.059 A 
ATOM     80  F   UNL A   1      43.654  23.448  24.575  1.00  0.00    -0.206 F 
ATOM     81  C   UNL A   1      42.782  20.463  26.413  1.00  0.00     0.060 A 
BRANCH  81  82
ATOM     82  S   UNL A   1      42.322  18.744  26.108  1.00  0.00     0.124 S 
ATOM     83  O   UNL A   1      40.914  18.877  25.750  1.00  0.00    -0.237 OA
ATOM     84  O   UNL A   1      43.226  18.373  25.023  1.00  0.00    -0.237 OA
ATOM     85  O   UNL A   1      42.591  18.094  27.387  1.00  0.00    -0.744 OA
ENDBRANCH  81  82
ENDBRANCH  49  74
BRANCH  61  86
ATOM     86  C   UNL A   1      49.633  26.413  26.387  1.00  0.00     0.058 A 
ATOM     87  C   UNL A   1      50.103  26.533  25.070  1.00  0.00     0.135 A 
ATOM     88  C   UNL A   1      50.511  25.901  27.355  1.00  0.00     0.135 A 
ATOM     89  F   UNL A   1      49.299  27.011  24.106  1.00  0.00    -0.206 F 
ATOM     90  C   UNL A   1      51.391  26.144  24.722  1.00  0.00     0.059 A 
ATOM     91  C   UNL A   1      51.814  25.534  27.036  1.00  0.00     0.059 A 
ATOM     92  F   UNL A   1      50.114  25.777  28.632  1.00  0.00    -0.206 F 
ATOM     93  C   UNL A   1      52.241  25.650  25.714  1.00  0.00     0.060 A 
BRANCH  93  94
ATOM     94  S   UNL A   1      53.925  25.189  25.256  1.00  0.00     0.124 S 
ATOM     95  O   UNL A   1      54.173  26.072  24.122  1.00  0.00    -0.237 OA
ATOM     96  O   UNL A   1      54.672  25.491  26.472  1.00  0.00    -0.237 OA
ATOM     97  O   UNL A   1      53.814  23.769  24.933  1.00  0.00    -0.744 OA
ENDBRANCH  93  94
ENDBRANCH  61  86
ENDBRANCH  35  36
ENDBRANCH  28  30
ENDBRANCH  27  28
ENDBRANCH  26  27
ENDBRANCH  25  26
ENDBRANCH  24  25
ENDBRANCH   1  24
TORSDOF 22
ENDMDL
MODEL 3
REMARK VINA RESULT:     -10.2      1.345      2.078
REMARK SMILES O=C(C[C@H]1C[C@H]2CC[C@@H](C1)N2C(=O)NCCC1CC1)OCCOCCOC(=O)c1ccc(-c2c3nc(c(-c4c(F)cc(S(=O)(=O)[O-])cc4F)c4ccc([nH]4)c(-c4c(F)cc(S(=O)(=O)[O-])cc4F)c4nc(c(-c5c(F)cc(S(=O)(=O)[O-])cc5F)c5ccc2[nH]5)C=C4)C=C3)cc1
REMARK SMILES IDX 22 1 21 2 20 3 2 4 1 5 3 6 4 7 5 8 10 9 6 10 9 11 7 12 11 13
REMARK SMILES IDX 8 14 12 15 13 16 14 17 15 19 16 20 17 21 18 22 19 23 23 24
REMARK SMILES IDX 24 25 25 26 26 27 27 28 28 29 29 30 30 31 94 32 31 33 93 34
REMARK SMILES IDX 32 35 33 36 34 37 87 38 35 39 92 40 86 41 88 42 36 43 91 44
REMARK SMILES IDX 85 45 84 46 37 48 71 49 50 50 70 51 51 52 54 53 69 54 89 55
REMARK SMILES IDX 52 56 53 57 68 59 90 60 55 61 38 62 39 63 48 64 40 65 41 66
REMARK SMILES IDX 47 67 49 68 42 69 43 70 44 71 45 72 46 73 72 74 73 75 82 76
REMARK SMILES IDX 74 77 75 78 81 79 83 80 76 81 77 82 78 83 79 84 80 85 56 86
REMARK SMILES IDX 57 87 66 88 58 89 59 90 65 91 67 92 60 93 61 94 62 95 63 96
REMARK SMILES IDX 64 97
REMARK H PARENT 14 18 88 47 54 58
REMARK Flexibility Score: inf
ROOT
ATOM      1  C   UNL A   1      33.429  29.271  25.289  1.00  0.00     0.202 C 
ENDROOT
BRANCH   1   2
ATOM      2  C   UNL A   1      32.378  28.520  24.478  1.00  0.00     0.261 C 
BRANCH   2   3
ATOM      3  O   UNL A   1      31.407  27.880  25.320  1.00  0.00    -0.463 OA
BRANCH   3   4
ATOM      4  C   UNL A   1      31.759  27.112  26.370  1.00  0.00     0.306 C 
ATOM      5  O   UNL A   1      31.298  27.330  27.489  1.00  0.00    -0.252 OA
BRANCH   4   6
ATOM      6  C   UNL A   1      32.726  25.978  26.141  1.00  0.00     0.126 C 
BRANCH   6   7
ATOM      7  C   UNL A   1      32.166  24.868  25.258  1.00  0.00     0.004 C 
ATOM      8  C   UNL A   1      33.188  24.479  24.149  1.00  0.00     0.029 C 
ATOM      9  C   UNL A   1      31.653  23.662  26.071  1.00  0.00     0.029 C 
ATOM     10  C   UNL A   1      34.044  23.242  24.502  1.00  0.00     0.087 C 
ATOM     11  C   UNL A   1      32.723  22.581  26.278  1.00  0.00     0.087 C 
ATOM     12  C   UNL A   1      34.913  23.489  25.736  1.00  0.00     0.027 C 
ATOM     13  N   UNL A   1      33.125  22.202  24.943  1.00  0.00    -0.319 N 
ATOM     14  C   UNL A   1      34.020  23.092  26.916  1.00  0.00     0.027 C 
BRANCH  13  15
ATOM     15  C   UNL A   1      32.565  21.339  24.058  1.00  0.00     0.317 C 
ATOM     16  O   UNL A   1      32.025  21.745  23.025  1.00  0.00    -0.249 OA
ATOM     17  N   UNL A   1      32.537  20.006  24.261  1.00  0.00    -0.338 N 
ATOM     18  H   UNL A   1      32.179  19.527  23.480  1.00  0.00     0.165 HD
BRANCH  17  19
ATOM     19  C   UNL A   1      32.901  19.088  25.337  1.00  0.00     0.118 C 
BRANCH  19  20
ATOM     20  C   UNL A   1      32.438  17.658  25.049  1.00  0.00     0.025 C 
BRANCH  20  21
ATOM     21  C   UNL A   1      33.563  16.782  24.573  1.00  0.00    -0.009 C 
ATOM     22  C   UNL A   1      34.022  16.892  23.141  1.00  0.00     0.004 C 
ATOM     23  C   UNL A   1      34.902  17.389  24.250  1.00  0.00     0.004 C 
ENDBRANCH  20  21
ENDBRANCH  19  20
ENDBRANCH  17  19
ENDBRANCH  13  15
ENDBRANCH   6   7
ENDBRANCH   4   6
ENDBRANCH   3   4
ENDBRANCH   2   3
ENDBRANCH   1   2
BRANCH   1  24
ATOM     24  O   UNL A   1      32.990  30.387  26.066  1.00  0.00    -0.374 OA
BRANCH  24  25
ATOM     25  C   UNL A   1      33.328  30.359  27.459  1.00  0.00     0.202 C 
BRANCH  25  26
ATOM     26  C   UNL A   1      34.600  31.117  27.847  1.00  0.00     0.261 C 
BRANCH  26  27
ATOM     27  O   UNL A   1      35.662  30.206  28.166  1.00  0.00    -0.460 OA
BRANCH  27  28
ATOM     28  C   UNL A   1      36.297  30.449  29.339  1.00  0.00     0.338 C 
ATOM     29  O   UNL A   1      35.781  30.670  30.423  1.00  0.00    -0.246 OA
BRANCH  28  30
ATOM     30  C   UNL A   1      37.729  30.121  29.161  1.00  0.00     0.060 A 
ATOM     31  C   UNL A   1      38.164  29.786  27.868  1.00  0.00     0.016 A 
ATOM     32  C   UNL A   1      38.642  30.230  30.211  1.00  0.00     0.016 A 
ATOM     33  C   UNL A   1      39.513  29.548  27.624  1.00  0.00     0.010 A 
ATOM     34  C   UNL A   1      39.988  29.957  29.973  1.00  0.00     0.010 A 
ATOM     35  C   UNL A   1      40.420  29.593  28.686  1.00  0.00    -0.014 A 
BRANCH  35  36
ATOM     36  C   UNL A   1      41.789  29.066  28.507  1.00  0.00     0.031 A 
ATOM     37  C   UNL A   1      42.920  30.053  28.526  1.00  0.00     0.074 A 
ATOM     38  C   UNL A   1      42.006  27.755  28.308  1.00  0.00     0.049 A 
ATOM     39  N   UNL A   1      44.184  29.866  28.265  1.00  0.00    -0.248 NA
ATOM     40  C   UNL A   1      42.575  31.443  28.876  1.00  0.00     0.031 C 
ATOM     41  C   UNL A   1      40.976  26.715  28.309  1.00  0.00     0.029 A 
ATOM     42  N   UNL A   1      43.167  27.078  28.038  1.00  0.00    -0.354 N 
ATOM     43  C   UNL A   1      44.782  31.113  28.399  1.00  0.00     0.074 A 
ATOM     44  C   UNL A   1      43.744  32.053  28.755  1.00  0.00     0.031 C 
ATOM     45  C   UNL A   1      41.549  25.535  28.015  1.00  0.00     0.029 A 
ATOM     46  C   UNL A   1      42.974  25.743  27.766  1.00  0.00     0.049 A 
ATOM     47  H   UNL A   1      44.054  27.506  28.037  1.00  0.00     0.167 HD
ATOM     48  C   UNL A   1      46.084  31.437  28.239  1.00  0.00     0.037 A 
ATOM     49  C   UNL A   1      43.846  24.816  27.325  1.00  0.00     0.037 A 
ATOM     50  C   UNL A   1      47.103  30.484  27.892  1.00  0.00     0.049 A 
ATOM     51  C   UNL A   1      45.280  25.220  27.089  1.00  0.00     0.074 A 
ATOM     52  C   UNL A   1      48.462  30.696  27.749  1.00  0.00     0.029 A 
ATOM     53  N   UNL A   1      46.872  29.145  27.620  1.00  0.00    -0.354 N 
ATOM     54  N   UNL A   1      45.847  26.391  27.269  1.00  0.00    -0.248 NA
ATOM     55  C   UNL A   1      46.193  24.183  26.588  1.00  0.00     0.031 C 
ATOM     56  C   UNL A   1      49.045  29.496  27.332  1.00  0.00     0.029 A 
ATOM     57  C   UNL A   1      48.057  28.524  27.271  1.00  0.00     0.049 A 
ATOM     58  H   UNL A   1      45.994  28.701  27.668  1.00  0.00     0.167 HD
ATOM     59  C   UNL A   1      47.184  26.225  26.920  1.00  0.00     0.074 A 
ATOM     60  C   UNL A   1      47.345  24.837  26.540  1.00  0.00     0.031 C 
ATOM     61  C   UNL A   1      48.188  27.136  26.904  1.00  0.00     0.037 A 
BRANCH  48  62
ATOM     62  C   UNL A   1      46.483  32.875  28.406  1.00  0.00     0.058 A 
ATOM     63  C   UNL A   1      46.889  33.392  29.645  1.00  0.00     0.135 A 
ATOM     64  C   UNL A   1      46.533  33.727  27.290  1.00  0.00     0.135 A 
ATOM     65  F   UNL A   1      46.833  32.627  30.748  1.00  0.00    -0.206 F 
ATOM     66  C   UNL A   1      47.337  34.701  29.773  1.00  0.00     0.059 A 
ATOM     67  C   UNL A   1      47.000  35.034  27.390  1.00  0.00     0.059 A 
ATOM     68  F   UNL A   1      46.139  33.286  26.085  1.00  0.00    -0.206 F 
ATOM     69  C   UNL A   1      47.401  35.511  28.637  1.00  0.00     0.060 A 
BRANCH  69  70
ATOM     70  S   UNL A   1      48.047  37.188  28.810  1.00  0.00     0.124 S 
ATOM     71  O   UNL A   1      49.136  37.183  27.840  1.00  0.00    -0.237 OA
ATOM     72  O   UNL A   1      46.888  38.003  28.460  1.00  0.00    -0.237 OA
ATOM     73  O   UNL A   1      48.454  37.253  30.210  1.00  0.00    -0.744 OA
ENDBRANCH  69  70
ENDBRANCH  48  62
BRANCH  49  74
ATOM     74  C   UNL A   1      43.388  23.431  27.022  1.00  0.00     0.058 A 
ATOM     75  C   UNL A   1      43.121  22.511  28.047  1.00  0.00     0.135 A 
ATOM     76  C   UNL A   1      43.245  22.987  25.697  1.00  0.00     0.135 A 
ATOM     77  F   UNL A   1      43.252  22.882  29.330  1.00  0.00    -0.206 F 
ATOM     78  C   UNL A   1      42.759  21.196  27.773  1.00  0.00     0.059 A 
ATOM     79  C   UNL A   1      42.855  21.685  25.398  1.00  0.00     0.059 A 
ATOM     80  F   UNL A   1      43.478  23.826  24.677  1.00  0.00    -0.206 F 
ATOM     81  C   UNL A   1      42.631  20.791  26.443  1.00  0.00     0.060 A 
BRANCH  81  82
ATOM     82  S   UNL A   1      42.147  19.086  26.097  1.00  0.00     0.124 S 
ATOM     83  O   UNL A   1      40.738  19.246  25.755  1.00  0.00    -0.237 OA
ATOM     84  O   UNL A   1      43.036  18.733  24.995  1.00  0.00    -0.237 OA
ATOM     85  O   UNL A   1      42.419  18.399  27.356  1.00  0.00    -0.744 OA
ENDBRANCH  81  82
ENDBRANCH  49  74
BRANCH  61  86
ATOM     86  C   UNL A   1      49.551  26.660  26.483  1.00  0.00     0.058 A 
ATOM     87  C   UNL A   1      50.435  26.066  27.396  1.00  0.00     0.135 A 
ATOM     88  C   UNL A   1      49.947  26.736  25.138  1.00  0.00     0.135 A 
ATOM     89  F   UNL A   1      50.105  25.975  28.695  1.00  0.00    -0.206 F 
ATOM     90  C   UNL A   1      51.674  25.581  26.995  1.00  0.00     0.059 A 
ATOM     91  C   UNL A   1      51.169  26.230  24.708  1.00  0.00     0.059 A 
ATOM     92  F   UNL A   1      49.133  27.284  24.222  1.00  0.00    -0.206 F 
ATOM     93  C   UNL A   1      52.030  25.663  25.647  1.00  0.00     0.060 A 
BRANCH  93  94
ATOM     94  S   UNL A   1      53.624  24.990  25.133  1.00  0.00     0.124 S 
ATOM     95  O   UNL A   1      54.476  25.363  26.257  1.00  0.00    -0.237 OA
ATOM     96  O   UNL A   1      53.333  23.566  25.003  1.00  0.00    -0.237 OA
ATOM     97  O   UNL A   1      53.899  25.684  23.879  1.00  0.00    -0.744 OA
ENDBRANCH  93  94
ENDBRANCH  61  86
ENDBRANCH  35  36
ENDBRANCH  28  30
ENDBRANCH  27  28
ENDBRANCH  26  27
ENDBRANCH  25  26
ENDBRANCH  24  25
ENDBRANCH   1  24
TORSDOF 22
ENDMDL
