MODEL 1
REMARK VINA RESULT:      -9.9      0.000      0.000
REMARK SMILES O=C(OCCOCCOC(=O)c1cnc(OCC2CC2)c(Cl)c1)c1ccc(-c2c3nc(c(-c4c(F)cc(S(=O)(=O)[O-])cc4F)c4ccc([nH]4)c(-c4c(F)cc(S(=O)(=O)[O-])cc4F)c4nc(c(-c5c(F)cc(S(=O)(=O)[O-])cc5F)c5ccc2[nH]5)C=C4)C=C3)cc1
REMARK SMILES IDX 6 1 5 2 4 3 3 4 2 5 1 6 24 7 25 8 89 9 26 10 88 11 27 12
REMARK SMILES IDX 28 13 29 14 82 15 30 16 87 17 81 18 83 19 31 20 86 21 80 22
REMARK SMILES IDX 79 23 32 25 66 26 45 27 65 28 46 29 49 30 64 31 84 32 47 33
REMARK SMILES IDX 48 34 63 36 85 37 50 38 33 39 34 40 43 41 35 42 36 43 42 44
REMARK SMILES IDX 44 45 37 46 38 47 39 48 40 49 41 50 67 51 68 52 77 53 69 54
REMARK SMILES IDX 70 55 76 56 78 57 71 58 72 59 73 60 74 61 75 62 51 63 52 64
REMARK SMILES IDX 61 65 53 66 54 67 60 68 62 69 55 70 56 71 57 72 58 73 59 74
REMARK SMILES IDX 7 75 8 76 9 77 10 78 11 79 12 80 13 81 23 82 14 83 21 84
REMARK SMILES IDX 15 85 22 86 16 87 17 88 18 89 19 90 20 91
REMARK H PARENT 83 24 49 35
REMARK Flexibility Score: inf
ROOT
ATOM      1  O   UNL A   1      37.077  21.820  24.896  1.00  0.00    -0.374 OA
ENDROOT
BRANCH   1   2
ATOM      2  C   UNL A   1      38.151  22.256  25.727  1.00  0.00     0.202 C 
BRANCH   2   3
ATOM      3  C   UNL A   1      38.039  23.693  26.251  1.00  0.00     0.261 C 
BRANCH   3   4
ATOM      4  O   UNL A   1      39.175  24.478  25.847  1.00  0.00    -0.460 OA
BRANCH   4   5
ATOM      5  C   UNL A   1      40.264  24.806  26.587  1.00  0.00     0.338 C 
ATOM      6  O   UNL A   1      41.340  24.272  26.328  1.00  0.00    -0.246 OA
BRANCH   5   7
ATOM      7  C   UNL A   1      40.215  25.786  27.713  1.00  0.00     0.060 A 
ATOM      8  C   UNL A   1      39.288  25.726  28.749  1.00  0.00     0.016 A 
ATOM      9  C   UNL A   1      41.208  26.776  27.779  1.00  0.00     0.016 A 
ATOM     10  C   UNL A   1      39.270  26.647  29.769  1.00  0.00     0.010 A 
ATOM     11  C   UNL A   1      41.246  27.677  28.851  1.00  0.00     0.010 A 
ATOM     12  C   UNL A   1      40.262  27.613  29.845  1.00  0.00    -0.014 A 
BRANCH  12  13
ATOM     13  C   UNL A   1      40.127  28.571  30.950  1.00  0.00     0.031 A 
ATOM     14  C   UNL A   1      41.120  28.506  32.065  1.00  0.00     0.074 A 
ATOM     15  C   UNL A   1      39.280  29.609  30.799  1.00  0.00     0.049 A 
ATOM     16  N   UNL A   1      41.227  29.269  33.114  1.00  0.00    -0.248 NA
ATOM     17  C   UNL A   1      42.147  27.452  31.974  1.00  0.00     0.031 C 
ATOM     18  C   UNL A   1      38.393  29.811  29.644  1.00  0.00     0.029 A 
ATOM     19  N   UNL A   1      39.067  30.716  31.572  1.00  0.00    -0.354 N 
ATOM     20  C   UNL A   1      42.319  28.781  33.818  1.00  0.00     0.074 A 
ATOM     21  C   UNL A   1      42.831  27.644  33.090  1.00  0.00     0.031 C 
ATOM     22  C   UNL A   1      37.758  30.985  29.775  1.00  0.00     0.029 A 
ATOM     23  C   UNL A   1      38.123  31.573  31.056  1.00  0.00     0.049 A 
ATOM     24  H   UNL A   1      39.543  30.884  32.417  1.00  0.00     0.167 HD
ATOM     25  C   UNL A   1      42.839  29.257  34.971  1.00  0.00     0.037 A 
ATOM     26  C   UNL A   1      37.585  32.684  31.590  1.00  0.00     0.037 A 
ATOM     27  C   UNL A   1      42.293  30.394  35.659  1.00  0.00     0.049 A 
ATOM     28  C   UNL A   1      38.101  33.116  32.936  1.00  0.00     0.074 A 
ATOM     29  C   UNL A   1      42.656  30.921  36.883  1.00  0.00     0.029 A 
ATOM     30  N   UNL A   1      41.262  31.187  35.167  1.00  0.00    -0.354 N 
ATOM     31  N   UNL A   1      39.068  32.589  33.654  1.00  0.00    -0.248 NA
ATOM     32  C   UNL A   1      37.456  34.278  33.552  1.00  0.00     0.031 C 
ATOM     33  C   UNL A   1      41.812  32.005  37.152  1.00  0.00     0.029 A 
ATOM     34  C   UNL A   1      40.965  32.192  36.068  1.00  0.00     0.049 A 
ATOM     35  H   UNL A   1      40.811  31.053  34.302  1.00  0.00     0.167 HD
ATOM     36  C   UNL A   1      39.156  33.362  34.803  1.00  0.00     0.074 A 
ATOM     37  C   UNL A   1      38.165  34.413  34.664  1.00  0.00     0.031 C 
ATOM     38  C   UNL A   1      39.968  33.219  35.880  1.00  0.00     0.037 A 
BRANCH  25  39
ATOM     39  C   UNL A   1      43.992  28.503  35.566  1.00  0.00     0.058 A 
ATOM     40  C   UNL A   1      43.806  27.443  36.468  1.00  0.00     0.135 A 
ATOM     41  C   UNL A   1      45.311  28.865  35.247  1.00  0.00     0.135 A 
ATOM     42  F   UNL A   1      42.567  27.083  36.841  1.00  0.00    -0.206 F 
ATOM     43  C   UNL A   1      44.885  26.778  37.041  1.00  0.00     0.059 A 
ATOM     44  C   UNL A   1      46.405  28.198  35.788  1.00  0.00     0.059 A 
ATOM     45  F   UNL A   1      45.547  29.888  34.410  1.00  0.00    -0.206 F 
ATOM     46  C   UNL A   1      46.182  27.161  36.692  1.00  0.00     0.060 A 
BRANCH  46  47
ATOM     47  S   UNL A   1      47.570  26.278  37.434  1.00  0.00     0.124 S 
ATOM     48  O   UNL A   1      48.138  25.599  36.274  1.00  0.00    -0.237 OA
ATOM     49  O   UNL A   1      48.370  27.367  37.985  1.00  0.00    -0.237 OA
ATOM     50  O   UNL A   1      46.934  25.408  38.420  1.00  0.00    -0.744 OA
ENDBRANCH  46  47
ENDBRANCH  25  39
BRANCH  26  51
ATOM     51  C   UNL A   1      36.459  33.388  30.914  1.00  0.00     0.058 A 
ATOM     52  C   UNL A   1      36.657  34.194  29.784  1.00  0.00     0.135 A 
ATOM     53  C   UNL A   1      35.148  33.289  31.415  1.00  0.00     0.135 A 
ATOM     54  F   UNL A   1      37.885  34.330  29.263  1.00  0.00    -0.206 F 
ATOM     55  C   UNL A   1      35.608  34.905  29.199  1.00  0.00     0.059 A 
ATOM     56  C   UNL A   1      34.079  33.958  30.827  1.00  0.00     0.059 A 
ATOM     57  F   UNL A   1      34.890  32.524  32.487  1.00  0.00    -0.206 F 
ATOM     58  C   UNL A   1      34.324  34.782  29.731  1.00  0.00     0.060 A 
BRANCH  58  59
ATOM     59  S   UNL A   1      32.971  35.709  28.975  1.00  0.00     0.124 S 
ATOM     60  O   UNL A   1      33.690  36.808  28.338  1.00  0.00    -0.237 OA
ATOM     61  O   UNL A   1      32.387  34.721  28.074  1.00  0.00    -0.237 OA
ATOM     62  O   UNL A   1      32.138  36.078  30.115  1.00  0.00    -0.744 OA
ENDBRANCH  58  59
ENDBRANCH  26  51
BRANCH  38  63
ATOM     63  C   UNL A   1      39.829  34.246  36.965  1.00  0.00     0.058 A 
ATOM     64  C   UNL A   1      40.431  35.510  36.865  1.00  0.00     0.135 A 
ATOM     65  C   UNL A   1      39.056  33.969  38.103  1.00  0.00     0.135 A 
ATOM     66  F   UNL A   1      41.185  35.818  35.798  1.00  0.00    -0.206 F 
ATOM     67  C   UNL A   1      40.303  36.452  37.878  1.00  0.00     0.059 A 
ATOM     68  C   UNL A   1      38.884  34.910  39.111  1.00  0.00     0.059 A 
ATOM     69  F   UNL A   1      38.448  32.779  38.238  1.00  0.00    -0.206 F 
ATOM     70  C   UNL A   1      39.528  36.142  38.996  1.00  0.00     0.060 A 
BRANCH  70  71
ATOM     71  S   UNL A   1      39.358  37.379  40.297  1.00  0.00     0.124 S 
ATOM     72  O   UNL A   1      38.545  36.665  41.275  1.00  0.00    -0.237 OA
ATOM     73  O   UNL A   1      40.746  37.620  40.679  1.00  0.00    -0.237 OA
ATOM     74  O   UNL A   1      38.698  38.493  39.622  1.00  0.00    -0.744 OA
ENDBRANCH  70  71
ENDBRANCH  38  63
ENDBRANCH  12  13
ENDBRANCH   5   7
ENDBRANCH   4   5
ENDBRANCH   3   4
ENDBRANCH   2   3
ENDBRANCH   1   2
BRANCH   1  75
ATOM     75  C   UNL A   1      36.665  20.457  25.031  1.00  0.00     0.202 C 
BRANCH  75  76
ATOM     76  C   UNL A   1      35.138  20.384  24.973  1.00  0.00     0.261 C 
BRANCH  76  77
ATOM     77  O   UNL A   1      34.614  21.709  25.157  1.00  0.00    -0.460 OA
BRANCH  77  78
ATOM     78  C   UNL A   1      33.835  21.854  26.258  1.00  0.00     0.339 C 
ATOM     79  O   UNL A   1      33.776  21.143  27.248  1.00  0.00    -0.246 OA
BRANCH  78  80
ATOM     80  C   UNL A   1      33.167  23.149  26.152  1.00  0.00     0.080 A 
ATOM     81  C   UNL A   1      32.056  23.414  26.923  1.00  0.00     0.131 A 
ATOM     82  C   UNL A   1      33.625  24.130  25.286  1.00  0.00     0.043 A 
ATOM     83  N   UNL A   1      31.431  24.614  26.917  1.00  0.00    -0.220 NA
ATOM     84  C   UNL A   1      32.933  25.338  25.183  1.00  0.00     0.104 A 
ATOM     85  C   UNL A   1      31.861  25.575  26.052  1.00  0.00     0.232 A 
ATOM     86  Cl  UNL A   1      33.465  26.338  23.881  1.00  0.00    -0.078 Cl
BRANCH  85  87
ATOM     87  O   UNL A   1      31.092  26.679  26.204  1.00  0.00    -0.476 OA
BRANCH  87  88
ATOM     88  C   UNL A   1      31.360  27.919  25.570  1.00  0.00     0.235 C 
BRANCH  88  89
ATOM     89  C   UNL A   1      31.992  28.911  26.505  1.00  0.00     0.027 C 
ATOM     90  C   UNL A   1      33.254  28.564  27.251  1.00  0.00     0.007 C 
ATOM     91  C   UNL A   1      33.286  29.597  26.159  1.00  0.00     0.007 C 
ENDBRANCH  88  89
ENDBRANCH  87  88
ENDBRANCH  85  87
ENDBRANCH  78  80
ENDBRANCH  77  78
ENDBRANCH  76  77
ENDBRANCH  75  76
ENDBRANCH   1  75
TORSDOF 20
ENDMDL
MODEL 2
REMARK VINA RESULT:      -9.8      7.000     13.347
REMARK SMILES O=C(OCCOCCOC(=O)c1cnc(OCC2CC2)c(Cl)c1)c1ccc(-c2c3nc(c(-c4c(F)cc(S(=O)(=O)[O-])cc4F)c4ccc([nH]4)c(-c4c(F)cc(S(=O)(=O)[O-])cc4F)c4nc(c(-c5c(F)cc(S(=O)(=O)[O-])cc5F)c5ccc2[nH]5)C=C4)C=C3)cc1
REMARK SMILES IDX 6 1 5 2 4 3 3 4 2 5 1 6 24 7 25 8 89 9 26 10 88 11 27 12
REMARK SMILES IDX 28 13 29 14 82 15 30 16 87 17 81 18 83 19 31 20 86 21 80 22
REMARK SMILES IDX 79 23 32 25 66 26 45 27 65 28 46 29 49 30 64 31 84 32 47 33
REMARK SMILES IDX 48 34 63 36 85 37 50 38 33 39 34 40 43 41 35 42 36 43 42 44
REMARK SMILES IDX 44 45 37 46 38 47 39 48 40 49 41 50 67 51 68 52 77 53 69 54
REMARK SMILES IDX 70 55 76 56 78 57 71 58 72 59 73 60 74 61 75 62 51 63 52 64
REMARK SMILES IDX 61 65 53 66 54 67 60 68 62 69 55 70 56 71 57 72 58 73 59 74
REMARK SMILES IDX 7 75 8 76 9 77 10 78 11 79 12 80 13 81 23 82 14 83 21 84
REMARK SMILES IDX 15 85 22 86 16 87 17 88 18 89 19 90 20 91
REMARK H PARENT 83 24 49 35
REMARK Flexibility Score: inf
ROOT
ATOM      1  O   UNL A   1      34.709  34.675  28.394  1.00  0.00    -0.374 OA
ENDROOT
BRANCH   1   2
ATOM      2  C   UNL A   1      35.174  33.394  27.973  1.00  0.00     0.202 C 
BRANCH   2   3
ATOM      3  C   UNL A   1      36.134  32.690  28.941  1.00  0.00     0.261 C 
BRANCH   3   4
ATOM      4  O   UNL A   1      35.730  31.328  29.166  1.00  0.00    -0.460 OA
BRANCH   4   5
ATOM      5  C   UNL A   1      36.433  30.342  29.778  1.00  0.00     0.338 C 
ATOM      6  O   UNL A   1      35.931  29.767  30.742  1.00  0.00    -0.246 OA
BRANCH   5   7
ATOM      7  C   UNL A   1      37.798  29.927  29.340  1.00  0.00     0.060 A 
ATOM      8  C   UNL A   1      38.813  29.558  30.218  1.00  0.00     0.016 A 
ATOM      9  C   UNL A   1      38.053  29.820  27.963  1.00  0.00     0.016 A 
ATOM     10  C   UNL A   1      40.061  29.183  29.780  1.00  0.00     0.010 A 
ATOM     11  C   UNL A   1      39.297  29.369  27.501  1.00  0.00     0.010 A 
ATOM     12  C   UNL A   1      40.306  29.059  28.420  1.00  0.00    -0.014 A 
BRANCH  12  13
ATOM     13  C   UNL A   1      41.682  28.691  28.058  1.00  0.00     0.031 A 
ATOM     14  C   UNL A   1      42.749  29.726  28.208  1.00  0.00     0.074 A 
ATOM     15  C   UNL A   1      41.962  27.391  27.844  1.00  0.00     0.049 A 
ATOM     16  N   UNL A   1      44.030  29.620  27.996  1.00  0.00    -0.248 NA
ATOM     17  C   UNL A   1      42.321  31.053  28.685  1.00  0.00     0.031 C 
ATOM     18  C   UNL A   1      40.973  26.304  27.844  1.00  0.00     0.029 A 
ATOM     19  N   UNL A   1      43.154  26.748  27.650  1.00  0.00    -0.354 N 
ATOM     20  C   UNL A   1      44.559  30.867  28.294  1.00  0.00     0.074 A 
ATOM     21  C   UNL A   1      43.463  31.723  28.685  1.00  0.00     0.031 C 
ATOM     22  C   UNL A   1      41.605  25.130  27.691  1.00  0.00     0.029 A 
ATOM     23  C   UNL A   1      43.024  25.388  27.493  1.00  0.00     0.049 A 
ATOM     24  H   UNL A   1      44.020  27.214  27.626  1.00  0.00     0.167 HD
ATOM     25  C   UNL A   1      45.855  31.249  28.246  1.00  0.00     0.037 A 
ATOM     26  C   UNL A   1      43.951  24.465  27.177  1.00  0.00     0.037 A 
ATOM     27  C   UNL A   1      46.913  30.360  27.851  1.00  0.00     0.049 A 
ATOM     28  C   UNL A   1      45.366  24.947  27.009  1.00  0.00     0.074 A 
ATOM     29  C   UNL A   1      48.252  30.638  27.661  1.00  0.00     0.029 A 
ATOM     30  N   UNL A   1      46.741  29.004  27.592  1.00  0.00    -0.354 N 
ATOM     31  N   UNL A   1      45.851  26.156  27.189  1.00  0.00    -0.248 NA
ATOM     32  C   UNL A   1      46.359  23.956  26.583  1.00  0.00     0.031 C 
ATOM     33  C   UNL A   1      48.881  29.461  27.241  1.00  0.00     0.029 A 
ATOM     34  C   UNL A   1      47.947  28.434  27.230  1.00  0.00     0.049 A 
ATOM     35  H   UNL A   1      45.886  28.521  27.658  1.00  0.00     0.167 HD
ATOM     36  C   UNL A   1      47.208  26.069  26.912  1.00  0.00     0.074 A 
ATOM     37  C   UNL A   1      47.470  24.679  26.585  1.00  0.00     0.031 C 
ATOM     38  C   UNL A   1      48.155  27.040  26.915  1.00  0.00     0.037 A 
BRANCH  25  39
ATOM     39  C   UNL A   1      46.160  32.685  28.558  1.00  0.00     0.058 A 
ATOM     40  C   UNL A   1      46.412  33.126  29.868  1.00  0.00     0.135 A 
ATOM     41  C   UNL A   1      46.179  33.641  27.531  1.00  0.00     0.135 A 
ATOM     42  F   UNL A   1      46.364  32.261  30.893  1.00  0.00    -0.206 F 
ATOM     43  C   UNL A   1      46.657  34.467  30.147  1.00  0.00     0.059 A 
ATOM     44  C   UNL A   1      46.447  34.983  27.784  1.00  0.00     0.059 A 
ATOM     45  F   UNL A   1      45.921  33.278  26.265  1.00  0.00    -0.206 F 
ATOM     46  C   UNL A   1      46.675  35.388  29.098  1.00  0.00     0.060 A 
BRANCH  46  47
ATOM     47  S   UNL A   1      47.009  37.120  29.478  1.00  0.00     0.124 S 
ATOM     48  O   UNL A   1      48.461  37.112  29.627  1.00  0.00    -0.237 OA
ATOM     49  O   UNL A   1      46.498  37.801  28.292  1.00  0.00    -0.237 OA
ATOM     50  O   UNL A   1      46.254  37.352  30.706  1.00  0.00    -0.744 OA
ENDBRANCH  46  47
ENDBRANCH  25  39
BRANCH  26  51
ATOM     51  C   UNL A   1      43.562  23.052  26.912  1.00  0.00     0.058 A 
ATOM     52  C   UNL A   1      43.255  22.157  27.947  1.00  0.00     0.135 A 
ATOM     53  C   UNL A   1      43.520  22.554  25.597  1.00  0.00     0.135 A 
ATOM     54  F   UNL A   1      43.281  22.572  29.223  1.00  0.00    -0.206 F 
ATOM     55  C   UNL A   1      42.959  20.818  27.694  1.00  0.00     0.059 A 
ATOM     56  C   UNL A   1      43.191  21.232  25.315  1.00  0.00     0.059 A 
ATOM     57  F   UNL A   1      43.792  23.363  24.560  1.00  0.00    -0.206 F 
ATOM     58  C   UNL A   1      42.934  20.365  26.374  1.00  0.00     0.060 A 
BRANCH  58  59
ATOM     59  S   UNL A   1      42.557  18.629  26.052  1.00  0.00     0.124 S 
ATOM     60  O   UNL A   1      42.871  18.017  27.339  1.00  0.00    -0.237 OA
ATOM     61  O   UNL A   1      41.142  18.681  25.698  1.00  0.00    -0.237 OA
ATOM     62  O   UNL A   1      43.458  18.287  24.955  1.00  0.00    -0.744 OA
ENDBRANCH  58  59
ENDBRANCH  26  51
BRANCH  38  63
ATOM     63  C   UNL A   1      49.555  26.614  26.585  1.00  0.00     0.058 A 
ATOM     64  C   UNL A   1      50.454  26.201  27.580  1.00  0.00     0.135 A 
ATOM     65  C   UNL A   1      49.987  26.588  25.251  1.00  0.00     0.135 A 
ATOM     66  F   UNL A   1      50.087  26.215  28.872  1.00  0.00    -0.206 F 
ATOM     67  C   UNL A   1      51.751  25.815  27.266  1.00  0.00     0.059 A 
ATOM     68  C   UNL A   1      51.268  26.170  24.910  1.00  0.00     0.059 A 
ATOM     69  F   UNL A   1      49.159  26.959  24.261  1.00  0.00    -0.206 F 
ATOM     70  C   UNL A   1      52.147  25.803  25.928  1.00  0.00     0.060 A 
BRANCH  70  71
ATOM     71  S   UNL A   1      53.828  25.285  25.533  1.00  0.00     0.124 S 
ATOM     72  O   UNL A   1      54.324  24.875  26.842  1.00  0.00    -0.237 OA
ATOM     73  O   UNL A   1      53.604  24.208  24.574  1.00  0.00    -0.237 OA
ATOM     74  O   UNL A   1      54.434  26.493  24.980  1.00  0.00    -0.744 OA
ENDBRANCH  70  71
ENDBRANCH  38  63
ENDBRANCH  12  13
ENDBRANCH   5   7
ENDBRANCH   4   5
ENDBRANCH   3   4
ENDBRANCH   2   3
ENDBRANCH   1   2
BRANCH   1  75
ATOM     75  C   UNL A   1      33.328  34.777  28.753  1.00  0.00     0.202 C 
BRANCH  75  76
ATOM     76  C   UNL A   1      33.194  35.669  29.989  1.00  0.00     0.261 C 
BRANCH  76  77
ATOM     77  O   UNL A   1      33.075  34.825  31.145  1.00  0.00    -0.460 OA
BRANCH  77  78
ATOM     78  C   UNL A   1      33.531  35.384  32.294  1.00  0.00     0.339 C 
ATOM     79  O   UNL A   1      33.159  36.409  32.842  1.00  0.00    -0.246 OA
BRANCH  78  80
ATOM     80  C   UNL A   1      34.463  34.436  32.899  1.00  0.00     0.080 A 
ATOM     81  C   UNL A   1      34.762  33.256  32.252  1.00  0.00     0.131 A 
ATOM     82  C   UNL A   1      35.062  34.693  34.123  1.00  0.00     0.043 A 
ATOM     83  N   UNL A   1      35.663  32.368  32.729  1.00  0.00    -0.220 NA
ATOM     84  C   UNL A   1      35.914  33.741  34.688  1.00  0.00     0.104 A 
ATOM     85  C   UNL A   1      36.238  32.601  33.942  1.00  0.00     0.232 A 
ATOM     86  Cl  UNL A   1      36.361  34.086  36.318  1.00  0.00    -0.078 Cl
BRANCH  85  87
ATOM     87  O   UNL A   1      37.088  31.587  34.228  1.00  0.00    -0.476 OA
BRANCH  87  88
ATOM     88  C   UNL A   1      37.943  30.983  33.271  1.00  0.00     0.235 C 
BRANCH  88  89
ATOM     89  C   UNL A   1      39.374  30.945  33.729  1.00  0.00     0.027 C 
ATOM     90  C   UNL A   1      40.456  31.603  32.915  1.00  0.00     0.007 C 
ATOM     91  C   UNL A   1      40.061  32.180  34.246  1.00  0.00     0.007 C 
ENDBRANCH  88  89
ENDBRANCH  87  88
ENDBRANCH  85  87
ENDBRANCH  78  80
ENDBRANCH  77  78
ENDBRANCH  76  77
ENDBRANCH  75  76
ENDBRANCH   1  75
TORSDOF 20
ENDMDL
MODEL 3
REMARK VINA RESULT:      -9.8      6.930     12.345
REMARK SMILES O=C(OCCOCCOC(=O)c1cnc(OCC2CC2)c(Cl)c1)c1ccc(-c2c3nc(c(-c4c(F)cc(S(=O)(=O)[O-])cc4F)c4ccc([nH]4)c(-c4c(F)cc(S(=O)(=O)[O-])cc4F)c4nc(c(-c5c(F)cc(S(=O)(=O)[O-])cc5F)c5ccc2[nH]5)C=C4)C=C3)cc1
REMARK SMILES IDX 6 1 5 2 4 3 3 4 2 5 1 6 24 7 25 8 89 9 26 10 88 11 27 12
REMARK SMILES IDX 28 13 29 14 82 15 30 16 87 17 81 18 83 19 31 20 86 21 80 22
REMARK SMILES IDX 79 23 32 25 66 26 45 27 65 28 46 29 49 30 64 31 84 32 47 33
REMARK SMILES IDX 48 34 63 36 85 37 50 38 33 39 34 40 43 41 35 42 36 43 42 44
REMARK SMILES IDX 44 45 37 46 38 47 39 48 40 49 41 50 67 51 68 52 77 53 69 54
REMARK SMILES IDX 70 55 76 56 78 57 71 58 72 59 73 60 74 61 75 62 51 63 52 64
REMARK SMILES IDX 61 65 53 66 54 67 60 68 62 69 55 70 56 71 57 72 58 73 59 74
REMARK SMILES IDX 7 75 8 76 9 77 10 78 11 79 12 80 13 81 23 82 14 83 21 84
REMARK SMILES IDX 15 85 22 86 16 87 17 88 18 89 19 90 20 91
REMARK H PARENT 83 24 49 35
REMARK Flexibility Score: inf
ROOT
ATOM      1  O   UNL A   1      35.993  33.299  29.198  1.00  0.00    -0.374 OA
ENDROOT
BRANCH   1   2
ATOM      2  C   UNL A   1      35.415  33.819  30.395  1.00  0.00     0.202 C 
BRANCH   2   3
ATOM      3  C   UNL A   1      35.451  32.881  31.608  1.00  0.00     0.261 C 
BRANCH   3   4
ATOM      4  O   UNL A   1      36.714  32.198  31.691  1.00  0.00    -0.460 OA
BRANCH   4   5
ATOM      5  C   UNL A   1      36.989  30.914  31.348  1.00  0.00     0.338 C 
ATOM      6  O   UNL A   1      36.159  30.043  31.600  1.00  0.00    -0.246 OA
BRANCH   5   7
ATOM      7  C   UNL A   1      38.261  30.507  30.681  1.00  0.00     0.060 A 
ATOM      8  C   UNL A   1      39.381  30.049  31.369  1.00  0.00     0.016 A 
ATOM      9  C   UNL A   1      38.308  30.505  29.278  1.00  0.00     0.016 A 
ATOM     10  C   UNL A   1      40.539  29.684  30.723  1.00  0.00     0.010 A 
ATOM     11  C   UNL A   1      39.456  30.067  28.604  1.00  0.00     0.010 A 
ATOM     12  C   UNL A   1      40.578  29.663  29.337  1.00  0.00    -0.014 A 
BRANCH  12  13
ATOM     13  C   UNL A   1      41.873  29.298  28.748  1.00  0.00     0.031 A 
ATOM     14  C   UNL A   1      42.972  30.309  28.780  1.00  0.00     0.074 A 
ATOM     15  C   UNL A   1      42.091  28.006  28.430  1.00  0.00     0.049 A 
ATOM     16  N   UNL A   1      44.202  30.198  28.366  1.00  0.00    -0.248 NA
ATOM     17  C   UNL A   1      42.651  31.616  29.382  1.00  0.00     0.031 C 
ATOM     18  C   UNL A   1      41.091  26.933  28.531  1.00  0.00     0.029 A 
ATOM     19  N   UNL A   1      43.224  27.359  28.022  1.00  0.00    -0.354 N 
ATOM     20  C   UNL A   1      44.797  31.422  28.639  1.00  0.00     0.074 A 
ATOM     21  C   UNL A   1      43.792  32.270  29.237  1.00  0.00     0.031 C 
ATOM     22  C   UNL A   1      41.668  25.761  28.224  1.00  0.00     0.029 A 
ATOM     23  C   UNL A   1      43.044  26.010  27.820  1.00  0.00     0.049 A 
ATOM     24  H   UNL A   1      44.086  27.814  27.886  1.00  0.00     0.167 HD
ATOM     25  C   UNL A   1      46.077  31.789  28.409  1.00  0.00     0.037 A 
ATOM     26  C   UNL A   1      43.892  25.094  27.320  1.00  0.00     0.037 A 
ATOM     27  C   UNL A   1      47.042  30.908  27.811  1.00  0.00     0.049 A 
ATOM     28  C   UNL A   1      45.274  25.565  26.957  1.00  0.00     0.074 A 
ATOM     29  C   UNL A   1      48.342  31.179  27.429  1.00  0.00     0.029 A 
ATOM     30  N   UNL A   1      46.805  29.570  27.516  1.00  0.00    -0.354 N 
ATOM     31  N   UNL A   1      45.806  26.757  27.119  1.00  0.00    -0.248 NA
ATOM     32  C   UNL A   1      46.168  24.585  26.335  1.00  0.00     0.031 C 
ATOM     33  C   UNL A   1      48.874  30.017  26.860  1.00  0.00     0.029 A 
ATOM     34  C   UNL A   1      47.928  29.004  26.944  1.00  0.00     0.049 A 
ATOM     35  H   UNL A   1      45.960  29.095  27.691  1.00  0.00     0.167 HD
ATOM     36  C   UNL A   1      47.101  26.667  26.630  1.00  0.00     0.074 A 
ATOM     37  C   UNL A   1      47.280  25.293  26.199  1.00  0.00     0.031 C 
ATOM     38  C   UNL A   1      48.056  27.625  26.533  1.00  0.00     0.037 A 
BRANCH  25  39
ATOM     39  C   UNL A   1      46.456  33.203  28.739  1.00  0.00     0.058 A 
ATOM     40  C   UNL A   1      46.977  33.562  29.993  1.00  0.00     0.135 A 
ATOM     41  C   UNL A   1      46.274  34.222  27.791  1.00  0.00     0.135 A 
ATOM     42  F   UNL A   1      47.132  32.634  30.951  1.00  0.00    -0.206 F 
ATOM     43  C   UNL A   1      47.289  34.883  30.299  1.00  0.00     0.059 A 
ATOM     44  C   UNL A   1      46.603  35.546  28.066  1.00  0.00     0.059 A 
ATOM     45  F   UNL A   1      45.756  33.938  26.585  1.00  0.00    -0.206 F 
ATOM     46  C   UNL A   1      47.102  35.868  29.327  1.00  0.00     0.060 A 
BRANCH  46  47
ATOM     47  S   UNL A   1      47.526  37.573  29.736  1.00  0.00     0.124 S 
ATOM     48  O   UNL A   1      48.255  37.401  30.988  1.00  0.00    -0.237 OA
ATOM     49  O   UNL A   1      48.328  37.977  28.586  1.00  0.00    -0.237 OA
ATOM     50  O   UNL A   1      46.227  38.230  29.853  1.00  0.00    -0.744 OA
ENDBRANCH  46  47
ENDBRANCH  25  39
BRANCH  26  51
ATOM     51  C   UNL A   1      43.437  23.701  27.050  1.00  0.00     0.058 A 
ATOM     52  C   UNL A   1      43.117  23.260  25.758  1.00  0.00     0.135 A 
ATOM     53  C   UNL A   1      43.281  22.781  28.103  1.00  0.00     0.135 A 
ATOM     54  F   UNL A   1      43.243  24.092  24.714  1.00  0.00    -0.206 F 
ATOM     55  C   UNL A   1      42.626  21.975  25.523  1.00  0.00     0.059 A 
ATOM     56  C   UNL A   1      42.828  21.483  27.891  1.00  0.00     0.059 A 
ATOM     57  F   UNL A   1      43.581  23.138  29.362  1.00  0.00    -0.206 F 
ATOM     58  C   UNL A   1      42.482  21.096  26.598  1.00  0.00     0.060 A 
BRANCH  58  59
ATOM     59  S   UNL A   1      41.838  19.437  26.291  1.00  0.00     0.124 S 
ATOM     60  O   UNL A   1      42.514  19.087  25.046  1.00  0.00    -0.237 OA
ATOM     61  O   UNL A   1      42.274  18.712  27.480  1.00  0.00    -0.237 OA
ATOM     62  O   UNL A   1      40.397  19.649  26.187  1.00  0.00    -0.744 OA
ENDBRANCH  58  59
ENDBRANCH  26  51
BRANCH  38  63
ATOM     63  C   UNL A   1      49.380  27.199  25.969  1.00  0.00     0.058 A 
ATOM     64  C   UNL A   1      50.394  26.674  26.784  1.00  0.00     0.135 A 
ATOM     65  C   UNL A   1      49.619  27.287  24.589  1.00  0.00     0.135 A 
ATOM     66  F   UNL A   1      50.213  26.576  28.111  1.00  0.00    -0.206 F 
ATOM     67  C   UNL A   1      51.619  26.288  26.254  1.00  0.00     0.059 A 
ATOM     68  C   UNL A   1      50.822  26.872  24.033  1.00  0.00     0.059 A 
ATOM     69  F   UNL A   1      48.673  27.769  23.766  1.00  0.00    -0.206 F 
ATOM     70  C   UNL A   1      51.822  26.391  24.878  1.00  0.00     0.060 A 
BRANCH  70  71
ATOM     71  S   UNL A   1      53.411  25.874  24.201  1.00  0.00     0.124 S 
ATOM     72  O   UNL A   1      53.151  25.931  22.767  1.00  0.00    -0.237 OA
ATOM     73  O   UNL A   1      54.318  26.891  24.723  1.00  0.00    -0.237 OA
ATOM     74  O   UNL A   1      53.596  24.535  24.753  1.00  0.00    -0.744 OA
ENDBRANCH  70  71
ENDBRANCH  38  63
ENDBRANCH  12  13
ENDBRANCH   5   7
ENDBRANCH   4   5
ENDBRANCH   3   4
ENDBRANCH   2   3
ENDBRANCH   1   2
BRANCH   1  75
ATOM     75  C   UNL A   1      35.092  32.943  28.146  1.00  0.00     0.202 C 
BRANCH  75  76
ATOM     76  C   UNL A   1      34.473  31.578  28.453  1.00  0.00     0.261 C 
BRANCH  76  77
ATOM     77  O   UNL A   1      33.931  31.042  27.236  1.00  0.00    -0.460 OA
BRANCH  77  78
ATOM     78  C   UNL A   1      34.290  29.759  26.982  1.00  0.00     0.339 C 
ATOM     79  O   UNL A   1      35.107  29.067  27.567  1.00  0.00    -0.246 OA
BRANCH  78  80
ATOM     80  C   UNL A   1      33.380  29.246  25.961  1.00  0.00     0.080 A 
ATOM     81  C   UNL A   1      32.044  29.075  26.253  1.00  0.00     0.131 A 
ATOM     82  C   UNL A   1      33.829  28.920  24.691  1.00  0.00     0.043 A 
ATOM     83  N   UNL A   1      31.140  28.664  25.334  1.00  0.00    -0.220 NA
ATOM     84  C   UNL A   1      32.935  28.391  23.756  1.00  0.00     0.104 A 
ATOM     85  C   UNL A   1      31.577  28.319  24.091  1.00  0.00     0.232 A 
ATOM     86  Cl  UNL A   1      33.694  27.791  22.328  1.00  0.00    -0.078 Cl
BRANCH  85  87
ATOM     87  O   UNL A   1      30.518  27.927  23.346  1.00  0.00    -0.476 OA
BRANCH  87  88
ATOM     88  C   UNL A   1      29.902  28.743  22.363  1.00  0.00     0.235 C 
BRANCH  88  89
ATOM     89  C   UNL A   1      28.644  29.392  22.868  1.00  0.00     0.027 C 
ATOM     90  C   UNL A   1      28.679  30.779  23.452  1.00  0.00     0.007 C 
ATOM     91  C   UNL A   1      28.005  30.538  22.130  1.00  0.00     0.007 C 
ENDBRANCH  88  89
ENDBRANCH  87  88
ENDBRANCH  85  87
ENDBRANCH  78  80
ENDBRANCH  77  78
ENDBRANCH  76  77
ENDBRANCH  75  76
ENDBRANCH   1  75
TORSDOF 20
ENDMDL
