MODEL 1
REMARK VINA RESULT:     -11.9      0.000      0.000
REMARK SMILES O=C(OCCOCCOC(=O)c1cc(N2C(=O)[C@H]3[C@@H]4C=C[C@@H]([C@@H]5C[C@H]45)[C@@H]3C2=O)ccc1Cl)c1ccc(-c2c3nc(c(-c4c(F)cc(S(=O)(=O)[O-])cc4F)c4ccc([nH]4)c(-c4c(F)cc(S(=O)(=O)[O-])cc4F)c4nc(c(-c5c(F)cc(S(=O)(=O)[O-])cc5F)c5ccc2[nH]5)C=C4)C=C3)cc1
REMARK SMILES IDX 5 1 4 2 3 3 2 4 1 5 33 6 34 7 98 8 35 9 97 10 36 11 37 12
REMARK SMILES IDX 38 13 91 14 39 15 96 16 90 17 92 18 40 19 95 20 89 21 88 22
REMARK SMILES IDX 41 24 75 25 54 26 74 27 55 28 58 29 73 30 93 31 56 32 57 33
REMARK SMILES IDX 72 35 94 36 59 37 42 38 43 39 52 40 44 41 45 42 51 43 53 44
REMARK SMILES IDX 46 45 47 46 48 47 49 48 50 49 76 50 77 51 86 52 78 53 79 54
REMARK SMILES IDX 85 55 87 56 80 57 81 58 82 59 83 60 84 61 60 62 61 63 70 64
REMARK SMILES IDX 62 65 63 66 69 67 71 68 64 69 65 70 66 71 67 72 68 73 6 74
REMARK SMILES IDX 7 75 8 76 9 77 10 78 11 79 12 80 13 81 31 82 14 83 30 84
REMARK SMILES IDX 32 85 29 86 15 87 16 88 27 89 17 90 18 91 26 92 28 93 19 94
REMARK SMILES IDX 22 95 20 96 25 97 21 98 23 99 24 100
REMARK H PARENT 92 23 58 34
REMARK Flexibility Score: inf
ROOT
ATOM      1  C   UNL A   1      35.624  32.669  33.232  1.00  0.00     0.202 C 
ENDROOT
BRANCH   1   2
ATOM      2  C   UNL A   1      36.868  32.015  32.623  1.00  0.00     0.261 C 
BRANCH   2   3
ATOM      3  O   UNL A   1      36.584  30.656  32.243  1.00  0.00    -0.460 OA
BRANCH   3   4
ATOM      4  C   UNL A   1      37.368  29.562  32.379  1.00  0.00     0.338 C 
ATOM      5  O   UNL A   1      37.028  28.693  33.181  1.00  0.00    -0.246 OA
BRANCH   4   6
ATOM      6  C   UNL A   1      38.635  29.353  31.615  1.00  0.00     0.060 A 
ATOM      7  C   UNL A   1      38.787  29.592  30.248  1.00  0.00     0.016 A 
ATOM      8  C   UNL A   1      39.776  28.986  32.349  1.00  0.00     0.016 A 
ATOM      9  C   UNL A   1      40.004  29.414  29.609  1.00  0.00     0.010 A 
ATOM     10  C   UNL A   1      41.019  28.849  31.723  1.00  0.00     0.010 A 
ATOM     11  C   UNL A   1      41.127  29.050  30.343  1.00  0.00    -0.014 A 
BRANCH  11  12
ATOM     12  C   UNL A   1      42.384  28.820  29.610  1.00  0.00     0.031 A 
ATOM     13  C   UNL A   1      42.584  27.501  28.934  1.00  0.00     0.074 A 
ATOM     14  C   UNL A   1      43.254  29.836  29.464  1.00  0.00     0.049 A 
ATOM     15  N   UNL A   1      43.610  27.069  28.257  1.00  0.00    -0.248 NA
ATOM     16  C   UNL A   1      41.469  26.543  29.023  1.00  0.00     0.031 C 
ATOM     17  C   UNL A   1      43.069  31.187  30.004  1.00  0.00     0.029 A 
ATOM     18  N   UNL A   1      44.448  29.905  28.798  1.00  0.00    -0.354 N 
ATOM     19  C   UNL A   1      43.280  25.779  27.861  1.00  0.00     0.074 A 
ATOM     20  C   UNL A   1      41.958  25.498  28.373  1.00  0.00     0.031 C 
ATOM     21  C   UNL A   1      44.108  31.952  29.638  1.00  0.00     0.029 A 
ATOM     22  C   UNL A   1      45.059  31.133  28.895  1.00  0.00     0.049 A 
ATOM     23  H   UNL A   1      44.832  29.148  28.300  1.00  0.00     0.167 HD
ATOM     24  C   UNL A   1      44.029  24.911  27.144  1.00  0.00     0.037 A 
ATOM     25  C   UNL A   1      46.270  31.530  28.461  1.00  0.00     0.037 A 
ATOM     26  C   UNL A   1      45.346  25.228  26.660  1.00  0.00     0.049 A 
ATOM     27  C   UNL A   1      47.116  30.523  27.729  1.00  0.00     0.074 A 
ATOM     28  C   UNL A   1      46.234  24.422  25.975  1.00  0.00     0.029 A 
ATOM     29  N   UNL A   1      45.962  26.464  26.820  1.00  0.00    -0.354 N 
ATOM     30  N   UNL A   1      46.823  29.283  27.408  1.00  0.00    -0.248 NA
ATOM     31  C   UNL A   1      48.455  30.953  27.315  1.00  0.00     0.031 C 
ATOM     32  C   UNL A   1      47.405  25.158  25.757  1.00  0.00     0.029 A 
ATOM     33  C   UNL A   1      47.228  26.439  26.264  1.00  0.00     0.049 A 
ATOM     34  H   UNL A   1      45.557  27.243  27.264  1.00  0.00     0.167 HD
ATOM     35  C   UNL A   1      47.937  28.785  26.748  1.00  0.00     0.074 A 
ATOM     36  C   UNL A   1      48.903  29.867  26.697  1.00  0.00     0.031 C 
ATOM     37  C   UNL A   1      48.153  27.548  26.236  1.00  0.00     0.037 A 
BRANCH  24  38
ATOM     38  C   UNL A   1      43.463  23.536  26.929  1.00  0.00     0.058 A 
ATOM     39  C   UNL A   1      43.410  22.580  27.957  1.00  0.00     0.135 A 
ATOM     40  C   UNL A   1      43.015  23.151  25.655  1.00  0.00     0.135 A 
ATOM     41  F   UNL A   1      43.853  22.884  29.187  1.00  0.00    -0.206 F 
ATOM     42  C   UNL A   1      42.973  21.280  27.719  1.00  0.00     0.059 A 
ATOM     43  C   UNL A   1      42.552  21.864  25.400  1.00  0.00     0.059 A 
ATOM     44  F   UNL A   1      43.054  24.022  24.634  1.00  0.00    -0.206 F 
ATOM     45  C   UNL A   1      42.556  20.929  26.433  1.00  0.00     0.060 A 
BRANCH  45  46
ATOM     46  S   UNL A   1      42.038  19.227  26.125  1.00  0.00     0.124 S 
ATOM     47  O   UNL A   1      40.624  19.406  25.811  1.00  0.00    -0.237 OA
ATOM     48  O   UNL A   1      42.889  18.837  25.006  1.00  0.00    -0.237 OA
ATOM     49  O   UNL A   1      42.320  18.552  27.388  1.00  0.00    -0.744 OA
ENDBRANCH  45  46
ENDBRANCH  24  38
BRANCH  25  50
ATOM     50  C   UNL A   1      46.759  32.903  28.762  1.00  0.00     0.058 A 
ATOM     51  C   UNL A   1      47.499  33.185  29.919  1.00  0.00     0.135 A 
ATOM     52  C   UNL A   1      46.513  33.965  27.875  1.00  0.00     0.135 A 
ATOM     53  F   UNL A   1      47.756  32.210  30.804  1.00  0.00    -0.206 F 
ATOM     54  C   UNL A   1      47.970  34.468  30.191  1.00  0.00     0.059 A 
ATOM     55  C   UNL A   1      46.996  35.250  28.111  1.00  0.00     0.059 A 
ATOM     56  F   UNL A   1      45.818  33.753  26.746  1.00  0.00    -0.206 F 
ATOM     57  C   UNL A   1      47.716  35.494  29.278  1.00  0.00     0.060 A 
BRANCH  57  58
ATOM     58  S   UNL A   1      48.366  37.145  29.614  1.00  0.00     0.124 S 
ATOM     59  O   UNL A   1      47.620  37.954  28.657  1.00  0.00    -0.237 OA
ATOM     60  O   UNL A   1      48.017  37.334  31.019  1.00  0.00    -0.237 OA
ATOM     61  O   UNL A   1      49.794  37.006  29.345  1.00  0.00    -0.744 OA
ENDBRANCH  57  58
ENDBRANCH  25  50
BRANCH  37  62
ATOM     62  C   UNL A   1      49.473  27.313  25.562  1.00  0.00     0.058 A 
ATOM     63  C   UNL A   1      50.613  26.951  26.293  1.00  0.00     0.135 A 
ATOM     64  C   UNL A   1      49.575  27.382  24.163  1.00  0.00     0.135 A 
ATOM     65  F   UNL A   1      50.565  26.880  27.633  1.00  0.00    -0.206 F 
ATOM     66  C   UNL A   1      51.819  26.676  25.659  1.00  0.00     0.059 A 
ATOM     67  C   UNL A   1      50.763  27.087  23.509  1.00  0.00     0.059 A 
ATOM     68  F   UNL A   1      48.506  27.715  23.423  1.00  0.00    -0.206 F 
ATOM     69  C   UNL A   1      51.882  26.742  24.266  1.00  0.00     0.060 A 
BRANCH  69  70
ATOM     70  S   UNL A   1      53.438  26.330  23.450  1.00  0.00     0.124 S 
ATOM     71  O   UNL A   1      53.901  25.203  24.252  1.00  0.00    -0.237 OA
ATOM     72  O   UNL A   1      53.005  26.009  22.093  1.00  0.00    -0.237 OA
ATOM     73  O   UNL A   1      54.222  27.555  23.577  1.00  0.00    -0.744 OA
ENDBRANCH  69  70
ENDBRANCH  37  62
ENDBRANCH  11  12
ENDBRANCH   4   6
ENDBRANCH   3   4
ENDBRANCH   2   3
ENDBRANCH   1   2
BRANCH   1  74
ATOM     74  O   UNL A   1      35.135  33.802  32.513  1.00  0.00    -0.374 OA
BRANCH  74  75
ATOM     75  C   UNL A   1      35.443  33.825  31.111  1.00  0.00     0.202 C 
BRANCH  75  76
ATOM     76  C   UNL A   1      34.255  34.405  30.344  1.00  0.00     0.261 C 
BRANCH  76  77
ATOM     77  O   UNL A   1      33.727  33.355  29.521  1.00  0.00    -0.460 OA
BRANCH  77  78
ATOM     78  C   UNL A   1      34.250  33.275  28.275  1.00  0.00     0.339 C 
ATOM     79  O   UNL A   1      34.733  34.173  27.605  1.00  0.00    -0.246 OA
BRANCH  78  80
ATOM     80  C   UNL A   1      34.400  31.849  27.940  1.00  0.00     0.080 A 
ATOM     81  C   UNL A   1      33.267  31.209  27.397  1.00  0.00     0.044 A 
ATOM     82  C   UNL A   1      35.612  31.162  28.069  1.00  0.00     0.055 A 
ATOM     83  C   UNL A   1      33.365  29.891  26.964  1.00  0.00     0.053 A 
ATOM     84  C   UNL A   1      35.700  29.840  27.629  1.00  0.00     0.023 A 
ATOM     85  Cl  UNL A   1      37.029  31.846  28.782  1.00  0.00    -0.083 Cl
ATOM     86  C   UNL A   1      34.585  29.210  27.080  1.00  0.00     0.028 A 
BRANCH  83  87
ATOM     87  N   UNL A   1      32.285  29.240  26.334  1.00  0.00    -0.250 N 
ATOM     88  C   UNL A   1      32.253  29.109  24.929  1.00  0.00     0.238 C 
ATOM     89  C   UNL A   1      31.648  28.154  26.970  1.00  0.00     0.238 C 
ATOM     90  O   UNL A   1      32.922  29.672  24.083  1.00  0.00    -0.274 OA
ATOM     91  C   UNL A   1      31.211  28.057  24.697  1.00  0.00     0.100 C 
ATOM     92  C   UNL A   1      31.569  27.149  25.875  1.00  0.00     0.100 C 
ATOM     93  O   UNL A   1      31.453  27.952  28.155  1.00  0.00    -0.274 OA
ATOM     94  C   UNL A   1      30.906  27.184  23.467  1.00  0.00     0.028 C 
ATOM     95  C   UNL A   1      30.917  25.787  25.692  1.00  0.00     0.028 C 
ATOM     96  C   UNL A   1      29.521  26.620  23.882  1.00  0.00    -0.026 C 
ATOM     97  C   UNL A   1      31.782  25.927  23.298  1.00  0.00     0.001 C 
ATOM     98  C   UNL A   1      29.529  25.952  25.060  1.00  0.00    -0.026 C 
ATOM     99  C   UNL A   1      31.794  25.091  24.587  1.00  0.00     0.001 C 
ATOM    100  C   UNL A   1      33.089  25.612  23.961  1.00  0.00     0.009 C 
ENDBRANCH  83  87
ENDBRANCH  78  80
ENDBRANCH  77  78
ENDBRANCH  76  77
ENDBRANCH  75  76
ENDBRANCH  74  75
ENDBRANCH   1  74
TORSDOF 18
ENDMDL
MODEL 2
REMARK VINA RESULT:     -11.9      2.043      3.436
REMARK SMILES O=C(OCCOCCOC(=O)c1cc(N2C(=O)[C@H]3[C@@H]4C=C[C@@H]([C@@H]5C[C@H]45)[C@@H]3C2=O)ccc1Cl)c1ccc(-c2c3nc(c(-c4c(F)cc(S(=O)(=O)[O-])cc4F)c4ccc([nH]4)c(-c4c(F)cc(S(=O)(=O)[O-])cc4F)c4nc(c(-c5c(F)cc(S(=O)(=O)[O-])cc5F)c5ccc2[nH]5)C=C4)C=C3)cc1
REMARK SMILES IDX 5 1 4 2 3 3 2 4 1 5 33 6 34 7 98 8 35 9 97 10 36 11 37 12
REMARK SMILES IDX 38 13 91 14 39 15 96 16 90 17 92 18 40 19 95 20 89 21 88 22
REMARK SMILES IDX 41 24 75 25 54 26 74 27 55 28 58 29 73 30 93 31 56 32 57 33
REMARK SMILES IDX 72 35 94 36 59 37 42 38 43 39 52 40 44 41 45 42 51 43 53 44
REMARK SMILES IDX 46 45 47 46 48 47 49 48 50 49 76 50 77 51 86 52 78 53 79 54
REMARK SMILES IDX 85 55 87 56 80 57 81 58 82 59 83 60 84 61 60 62 61 63 70 64
REMARK SMILES IDX 62 65 63 66 69 67 71 68 64 69 65 70 66 71 67 72 68 73 6 74
REMARK SMILES IDX 7 75 8 76 9 77 10 78 11 79 12 80 13 81 31 82 14 83 30 84
REMARK SMILES IDX 32 85 29 86 15 87 16 88 27 89 17 90 18 91 26 92 28 93 19 94
REMARK SMILES IDX 22 95 20 96 25 97 21 98 23 99 24 100
REMARK H PARENT 92 23 58 34
REMARK Flexibility Score: inf
ROOT
ATOM      1  C   UNL A   1      34.220  32.215  28.423  1.00  0.00     0.202 C 
ENDROOT
BRANCH   1   2
ATOM      2  C   UNL A   1      35.445  31.993  29.313  1.00  0.00     0.261 C 
BRANCH   2   3
ATOM      3  O   UNL A   1      35.642  30.587  29.554  1.00  0.00    -0.460 OA
BRANCH   3   4
ATOM      4  C   UNL A   1      36.578  29.988  30.325  1.00  0.00     0.338 C 
ATOM      5  O   UNL A   1      36.278  29.678  31.477  1.00  0.00    -0.246 OA
BRANCH   4   6
ATOM      6  C   UNL A   1      37.966  29.688  29.858  1.00  0.00     0.060 A 
ATOM      7  C   UNL A   1      38.395  29.778  28.533  1.00  0.00     0.016 A 
ATOM      8  C   UNL A   1      38.925  29.394  30.842  1.00  0.00     0.016 A 
ATOM      9  C   UNL A   1      39.709  29.522  28.175  1.00  0.00     0.010 A 
ATOM     10  C   UNL A   1      40.264  29.180  30.497  1.00  0.00     0.010 A 
ATOM     11  C   UNL A   1      40.652  29.231  29.155  1.00  0.00    -0.014 A 
BRANCH  11  12
ATOM     12  C   UNL A   1      42.022  28.914  28.718  1.00  0.00     0.031 A 
ATOM     13  C   UNL A   1      42.316  27.528  28.241  1.00  0.00     0.074 A 
ATOM     14  C   UNL A   1      42.933  29.902  28.643  1.00  0.00     0.049 A 
ATOM     15  N   UNL A   1      43.444  27.017  27.834  1.00  0.00    -0.248 NA
ATOM     16  C   UNL A   1      41.179  26.592  28.205  1.00  0.00     0.031 C 
ATOM     17  C   UNL A   1      42.682  31.305  28.988  1.00  0.00     0.029 A 
ATOM     18  N   UNL A   1      44.237  29.890  28.228  1.00  0.00    -0.354 N 
ATOM     19  C   UNL A   1      43.163  25.693  27.520  1.00  0.00     0.074 A 
ATOM     20  C   UNL A   1      41.757  25.479  27.782  1.00  0.00     0.031 C 
ATOM     21  C   UNL A   1      43.795  32.019  28.759  1.00  0.00     0.029 A 
ATOM     22  C   UNL A   1      44.851  31.117  28.315  1.00  0.00     0.049 A 
ATOM     23  H   UNL A   1      44.691  29.080  27.901  1.00  0.00     0.167 HD
ATOM     24  C   UNL A   1      44.015  24.747  27.064  1.00  0.00     0.037 A 
ATOM     25  C   UNL A   1      46.135  31.456  28.094  1.00  0.00     0.037 A 
ATOM     26  C   UNL A   1      45.410  25.001  26.824  1.00  0.00     0.049 A 
ATOM     27  C   UNL A   1      47.081  30.370  27.659  1.00  0.00     0.074 A 
ATOM     28  C   UNL A   1      46.394  24.118  26.422  1.00  0.00     0.029 A 
ATOM     29  N   UNL A   1      46.017  26.243  26.973  1.00  0.00    -0.354 N 
ATOM     30  N   UNL A   1      46.823  29.104  27.419  1.00  0.00    -0.248 NA
ATOM     31  C   UNL A   1      48.487  30.743  27.479  1.00  0.00     0.031 C 
ATOM     32  C   UNL A   1      47.605  24.819  26.367  1.00  0.00     0.029 A 
ATOM     33  C   UNL A   1      47.367  26.149  26.689  1.00  0.00     0.049 A 
ATOM     34  H   UNL A   1      45.554  27.069  27.241  1.00  0.00     0.167 HD
ATOM     35  C   UNL A   1      48.032  28.529  27.054  1.00  0.00     0.074 A 
ATOM     36  C   UNL A   1      49.019  29.593  27.083  1.00  0.00     0.031 C 
ATOM     37  C   UNL A   1      48.311  27.241  26.730  1.00  0.00     0.037 A 
BRANCH  24  38
ATOM     38  C   UNL A   1      43.464  23.360  26.887  1.00  0.00     0.058 A 
ATOM     39  C   UNL A   1      43.215  22.510  27.977  1.00  0.00     0.135 A 
ATOM     40  C   UNL A   1      43.233  22.855  25.597  1.00  0.00     0.135 A 
ATOM     41  F   UNL A   1      43.447  22.931  29.231  1.00  0.00    -0.206 F 
ATOM     42  C   UNL A   1      42.797  21.195  27.792  1.00  0.00     0.059 A 
ATOM     43  C   UNL A   1      42.793  21.551  25.391  1.00  0.00     0.059 A 
ATOM     44  F   UNL A   1      43.466  23.621  24.520  1.00  0.00    -0.206 F 
ATOM     45  C   UNL A   1      42.599  20.722  26.493  1.00  0.00     0.060 A 
BRANCH  45  46
ATOM     46  S   UNL A   1      42.105  19.000  26.265  1.00  0.00     0.124 S 
ATOM     47  O   UNL A   1      42.265  18.471  27.615  1.00  0.00    -0.237 OA
ATOM     48  O   UNL A   1      40.729  19.128  25.795  1.00  0.00    -0.237 OA
ATOM     49  O   UNL A   1      43.056  18.501  25.277  1.00  0.00    -0.744 OA
ENDBRANCH  45  46
ENDBRANCH  24  38
BRANCH  25  50
ATOM     50  C   UNL A   1      46.593  32.851  28.339  1.00  0.00     0.058 A 
ATOM     51  C   UNL A   1      46.949  33.295  29.621  1.00  0.00     0.135 A 
ATOM     52  C   UNL A   1      46.707  33.768  27.281  1.00  0.00     0.135 A 
ATOM     53  F   UNL A   1      46.852  32.464  30.669  1.00  0.00    -0.206 F 
ATOM     54  C   UNL A   1      47.393  34.597  29.846  1.00  0.00     0.059 A 
ATOM     55  C   UNL A   1      47.174  35.065  27.475  1.00  0.00     0.059 A 
ATOM     56  F   UNL A   1      46.389  33.396  26.030  1.00  0.00    -0.206 F 
ATOM     57  C   UNL A   1      47.505  35.474  28.765  1.00  0.00     0.060 A 
BRANCH  57  58
ATOM     58  S   UNL A   1      48.123  37.146  29.056  1.00  0.00     0.124 S 
ATOM     59  O   UNL A   1      48.830  36.982  30.321  1.00  0.00    -0.237 OA
ATOM     60  O   UNL A   1      48.960  37.374  27.881  1.00  0.00    -0.237 OA
ATOM     61  O   UNL A   1      46.906  37.950  29.112  1.00  0.00    -0.744 OA
ENDBRANCH  57  58
ENDBRANCH  25  50
BRANCH  37  62
ATOM     62  C   UNL A   1      49.731  26.926  26.365  1.00  0.00     0.058 A 
ATOM     63  C   UNL A   1      50.633  26.415  27.309  1.00  0.00     0.135 A 
ATOM     64  C   UNL A   1      50.168  27.069  25.038  1.00  0.00     0.135 A 
ATOM     65  F   UNL A   1      50.261  26.268  28.590  1.00  0.00    -0.206 F 
ATOM     66  C   UNL A   1      51.930  26.068  26.953  1.00  0.00     0.059 A 
ATOM     67  C   UNL A   1      51.452  26.705  24.656  1.00  0.00     0.059 A 
ATOM     68  F   UNL A   1      49.336  27.545  24.100  1.00  0.00    -0.206 F 
ATOM     69  C   UNL A   1      52.329  26.212  25.622  1.00  0.00     0.060 A 
BRANCH  69  70
ATOM     70  S   UNL A   1      53.998  25.706  25.160  1.00  0.00     0.124 S 
ATOM     71  O   UNL A   1      54.042  24.339  25.666  1.00  0.00    -0.237 OA
ATOM     72  O   UNL A   1      53.976  25.846  23.706  1.00  0.00    -0.237 OA
ATOM     73  O   UNL A   1      54.848  26.663  25.861  1.00  0.00    -0.744 OA
ENDBRANCH  69  70
ENDBRANCH  37  62
ENDBRANCH  11  12
ENDBRANCH   4   6
ENDBRANCH   3   4
ENDBRANCH   2   3
ENDBRANCH   1   2
BRANCH   1  74
ATOM     74  O   UNL A   1      34.167  31.381  27.264  1.00  0.00    -0.374 OA
BRANCH  74  75
ATOM     75  C   UNL A   1      33.058  30.471  27.206  1.00  0.00     0.202 C 
BRANCH  75  76
ATOM     76  C   UNL A   1      33.273  29.489  26.056  1.00  0.00     0.261 C 
BRANCH  76  77
ATOM     77  O   UNL A   1      32.279  29.773  25.062  1.00  0.00    -0.460 OA
BRANCH  77  78
ATOM     78  C   UNL A   1      32.437  29.131  23.881  1.00  0.00     0.339 C 
ATOM     79  O   UNL A   1      33.343  29.259  23.073  1.00  0.00    -0.246 OA
BRANCH  78  80
ATOM     80  C   UNL A   1      31.466  28.026  23.835  1.00  0.00     0.080 A 
ATOM     81  C   UNL A   1      31.954  26.748  24.178  1.00  0.00     0.044 A 
ATOM     82  C   UNL A   1      30.110  28.217  23.549  1.00  0.00     0.055 A 
ATOM     83  C   UNL A   1      31.072  25.675  24.255  1.00  0.00     0.053 A 
ATOM     84  C   UNL A   1      29.234  27.134  23.631  1.00  0.00     0.023 A 
ATOM     85  Cl  UNL A   1      29.440  29.731  23.058  1.00  0.00    -0.083 Cl
ATOM     86  C   UNL A   1      29.711  25.872  23.982  1.00  0.00     0.028 A 
BRANCH  83  87
ATOM     87  N   UNL A   1      31.498  24.400  24.678  1.00  0.00    -0.250 N 
ATOM     88  C   UNL A   1      32.227  23.565  23.804  1.00  0.00     0.238 C 
ATOM     89  C   UNL A   1      31.867  24.190  26.023  1.00  0.00     0.238 C 
ATOM     90  O   UNL A   1      32.390  23.657  22.601  1.00  0.00    -0.274 OA
ATOM     91  C   UNL A   1      32.814  22.530  24.714  1.00  0.00     0.100 C 
ATOM     92  C   UNL A   1      33.153  23.453  25.886  1.00  0.00     0.100 C 
ATOM     93  O   UNL A   1      31.427  24.696  27.039  1.00  0.00    -0.274 OA
ATOM     94  C   UNL A   1      33.972  21.536  24.509  1.00  0.00     0.028 C 
ATOM     95  C   UNL A   1      34.112  22.749  26.834  1.00  0.00     0.028 C 
ATOM     96  C   UNL A   1      33.745  20.612  25.734  1.00  0.00    -0.026 C 
ATOM     97  C   UNL A   1      35.390  22.099  24.726  1.00  0.00     0.001 C 
ATOM     98  C   UNL A   1      33.761  21.259  26.923  1.00  0.00    -0.026 C 
ATOM     99  C   UNL A   1      35.496  22.805  26.087  1.00  0.00     0.001 C 
ATOM    100  C   UNL A   1      35.820  23.534  24.781  1.00  0.00     0.009 C 
ENDBRANCH  83  87
ENDBRANCH  78  80
ENDBRANCH  77  78
ENDBRANCH  76  77
ENDBRANCH  75  76
ENDBRANCH  74  75
ENDBRANCH   1  74
TORSDOF 18
ENDMDL
MODEL 3
REMARK VINA RESULT:     -11.6      6.470     12.283
REMARK SMILES O=C(OCCOCCOC(=O)c1cc(N2C(=O)[C@H]3[C@@H]4C=C[C@@H]([C@@H]5C[C@H]45)[C@@H]3C2=O)ccc1Cl)c1ccc(-c2c3nc(c(-c4c(F)cc(S(=O)(=O)[O-])cc4F)c4ccc([nH]4)c(-c4c(F)cc(S(=O)(=O)[O-])cc4F)c4nc(c(-c5c(F)cc(S(=O)(=O)[O-])cc5F)c5ccc2[nH]5)C=C4)C=C3)cc1
REMARK SMILES IDX 5 1 4 2 3 3 2 4 1 5 33 6 34 7 98 8 35 9 97 10 36 11 37 12
REMARK SMILES IDX 38 13 91 14 39 15 96 16 90 17 92 18 40 19 95 20 89 21 88 22
REMARK SMILES IDX 41 24 75 25 54 26 74 27 55 28 58 29 73 30 93 31 56 32 57 33
REMARK SMILES IDX 72 35 94 36 59 37 42 38 43 39 52 40 44 41 45 42 51 43 53 44
REMARK SMILES IDX 46 45 47 46 48 47 49 48 50 49 76 50 77 51 86 52 78 53 79 54
REMARK SMILES IDX 85 55 87 56 80 57 81 58 82 59 83 60 84 61 60 62 61 63 70 64
REMARK SMILES IDX 62 65 63 66 69 67 71 68 64 69 65 70 66 71 67 72 68 73 6 74
REMARK SMILES IDX 7 75 8 76 9 77 10 78 11 79 12 80 13 81 31 82 14 83 30 84
REMARK SMILES IDX 32 85 29 86 15 87 16 88 27 89 17 90 18 91 26 92 28 93 19 94
REMARK SMILES IDX 22 95 20 96 25 97 21 98 23 99 24 100
REMARK H PARENT 92 23 58 34
REMARK Flexibility Score: inf
ROOT
ATOM      1  C   UNL A   1      41.366  21.868  26.306  1.00  0.00     0.202 C 
ENDROOT
BRANCH   1   2
ATOM      2  C   UNL A   1      41.186  23.226  26.991  1.00  0.00     0.261 C 
BRANCH   2   3
ATOM      3  O   UNL A   1      41.895  24.250  26.268  1.00  0.00    -0.460 OA
BRANCH   3   4
ATOM      4  C   UNL A   1      41.637  25.577  26.217  1.00  0.00     0.338 C 
ATOM      5  O   UNL A   1      41.567  26.119  25.115  1.00  0.00    -0.246 OA
BRANCH   4   6
ATOM      6  C   UNL A   1      41.439  26.427  27.430  1.00  0.00     0.060 A 
ATOM      7  C   UNL A   1      40.498  26.177  28.431  1.00  0.00     0.016 A 
ATOM      8  C   UNL A   1      42.334  27.494  27.620  1.00  0.00     0.016 A 
ATOM      9  C   UNL A   1      40.395  26.987  29.551  1.00  0.00     0.010 A 
ATOM     10  C   UNL A   1      42.269  28.289  28.769  1.00  0.00     0.010 A 
ATOM     11  C   UNL A   1      41.284  28.041  29.731  1.00  0.00    -0.014 A 
BRANCH  11  12
ATOM     12  C   UNL A   1      41.098  28.904  30.909  1.00  0.00     0.031 A 
ATOM     13  C   UNL A   1      39.963  29.879  30.908  1.00  0.00     0.074 A 
ATOM     14  C   UNL A   1      41.869  28.710  31.994  1.00  0.00     0.049 A 
ATOM     15  N   UNL A   1      39.622  30.749  31.816  1.00  0.00    -0.248 NA
ATOM     16  C   UNL A   1      39.085  29.860  29.725  1.00  0.00     0.031 C 
ATOM     17  C   UNL A   1      42.926  27.698  32.105  1.00  0.00     0.029 A 
ATOM     18  N   UNL A   1      41.870  29.326  33.216  1.00  0.00    -0.354 N 
ATOM     19  C   UNL A   1      38.507  31.403  31.306  1.00  0.00     0.074 A 
ATOM     20  C   UNL A   1      38.228  30.829  30.009  1.00  0.00     0.031 C 
ATOM     21  C   UNL A   1      43.463  27.757  33.333  1.00  0.00     0.029 A 
ATOM     22  C   UNL A   1      42.836  28.849  34.070  1.00  0.00     0.049 A 
ATOM     23  H   UNL A   1      41.241  30.042  33.459  1.00  0.00     0.167 HD
ATOM     24  C   UNL A   1      37.795  32.401  31.877  1.00  0.00     0.037 A 
ATOM     25  C   UNL A   1      43.192  29.278  35.295  1.00  0.00     0.037 A 
ATOM     26  C   UNL A   1      38.112  32.950  33.168  1.00  0.00     0.049 A 
ATOM     27  C   UNL A   1      42.434  30.439  35.878  1.00  0.00     0.074 A 
ATOM     28  C   UNL A   1      37.512  34.001  33.834  1.00  0.00     0.029 A 
ATOM     29  N   UNL A   1      39.133  32.481  33.988  1.00  0.00    -0.354 N 
ATOM     30  N   UNL A   1      41.416  31.095  35.366  1.00  0.00    -0.248 NA
ATOM     31  C   UNL A   1      42.872  30.933  37.187  1.00  0.00     0.031 C 
ATOM     32  C   UNL A   1      38.197  34.195  35.040  1.00  0.00     0.029 A 
ATOM     33  C   UNL A   1      39.193  33.233  35.147  1.00  0.00     0.049 A 
ATOM     34  H   UNL A   1      39.726  31.725  33.776  1.00  0.00     0.167 HD
ATOM     35  C   UNL A   1      41.086  32.074  36.293  1.00  0.00     0.074 A 
ATOM     36  C   UNL A   1      42.001  31.910  37.408  1.00  0.00     0.031 C 
ATOM     37  C   UNL A   1      40.124  33.028  36.233  1.00  0.00     0.037 A 
BRANCH  24  38
ATOM     38  C   UNL A   1      36.679  32.994  31.064  1.00  0.00     0.058 A 
ATOM     39  C   UNL A   1      36.918  33.870  29.993  1.00  0.00     0.135 A 
ATOM     40  C   UNL A   1      35.344  32.721  31.401  1.00  0.00     0.135 A 
ATOM     41  F   UNL A   1      38.176  34.190  29.648  1.00  0.00    -0.206 F 
ATOM     42  C   UNL A   1      35.872  34.488  29.312  1.00  0.00     0.059 A 
ATOM     43  C   UNL A   1      34.282  33.309  30.718  1.00  0.00     0.059 A 
ATOM     44  F   UNL A   1      35.058  31.900  32.423  1.00  0.00    -0.206 F 
ATOM     45  C   UNL A   1      34.557  34.208  29.690  1.00  0.00     0.060 A 
BRANCH  45  46
ATOM     46  S   UNL A   1      33.212  35.052  28.832  1.00  0.00     0.124 S 
ATOM     47  O   UNL A   1      32.297  35.335  29.934  1.00  0.00    -0.237 OA
ATOM     48  O   UNL A   1      33.885  36.212  28.256  1.00  0.00    -0.237 OA
ATOM     49  O   UNL A   1      32.747  34.059  27.869  1.00  0.00    -0.744 OA
ENDBRANCH  45  46
ENDBRANCH  24  38
BRANCH  25  50
ATOM     50  C   UNL A   1      44.342  28.651  36.002  1.00  0.00     0.058 A 
ATOM     51  C   UNL A   1      44.167  27.574  36.884  1.00  0.00     0.135 A 
ATOM     52  C   UNL A   1      45.654  29.107  35.789  1.00  0.00     0.135 A 
ATOM     53  F   UNL A   1      42.936  27.103  37.131  1.00  0.00    -0.206 F 
ATOM     54  C   UNL A   1      45.247  26.978  37.533  1.00  0.00     0.059 A 
ATOM     55  C   UNL A   1      46.752  28.512  36.404  1.00  0.00     0.059 A 
ATOM     56  F   UNL A   1      45.884  30.129  34.949  1.00  0.00    -0.206 F 
ATOM     57  C   UNL A   1      46.537  27.453  37.284  1.00  0.00     0.060 A 
BRANCH  57  58
ATOM     58  S   UNL A   1      47.937  26.648  38.094  1.00  0.00     0.124 S 
ATOM     59  O   UNL A   1      48.000  27.373  39.358  1.00  0.00    -0.237 OA
ATOM     60  O   UNL A   1      47.491  25.261  38.175  1.00  0.00    -0.237 OA
ATOM     61  O   UNL A   1      49.043  26.889  37.172  1.00  0.00    -0.744 OA
ENDBRANCH  57  58
ENDBRANCH  25  50
BRANCH  37  62
ATOM     62  C   UNL A   1      40.005  33.948  37.412  1.00  0.00     0.058 A 
ATOM     63  C   UNL A   1      40.653  35.191  37.438  1.00  0.00     0.135 A 
ATOM     64  C   UNL A   1      39.175  33.608  38.492  1.00  0.00     0.135 A 
ATOM     65  F   UNL A   1      41.462  35.555  36.430  1.00  0.00    -0.206 F 
ATOM     66  C   UNL A   1      40.492  36.065  38.506  1.00  0.00     0.059 A 
ATOM     67  C   UNL A   1      38.981  34.477  39.557  1.00  0.00     0.059 A 
ATOM     68  F   UNL A   1      38.528  32.432  38.504  1.00  0.00    -0.206 F 
ATOM     69  C   UNL A   1      39.650  35.701  39.559  1.00  0.00     0.060 A 
BRANCH  69  70
ATOM     70  S   UNL A   1      39.405  36.867  40.914  1.00  0.00     0.124 S 
ATOM     71  O   UNL A   1      40.781  37.176  41.288  1.00  0.00    -0.237 OA
ATOM     72  O   UNL A   1      38.665  37.948  40.267  1.00  0.00    -0.237 OA
ATOM     73  O   UNL A   1      38.645  36.095  41.892  1.00  0.00    -0.744 OA
ENDBRANCH  69  70
ENDBRANCH  37  62
ENDBRANCH  11  12
ENDBRANCH   4   6
ENDBRANCH   3   4
ENDBRANCH   2   3
ENDBRANCH   1   2
BRANCH   1  74
ATOM     74  O   UNL A   1      40.149  21.164  26.052  1.00  0.00    -0.374 OA
BRANCH  74  75
ATOM     75  C   UNL A   1      38.949  21.945  26.154  1.00  0.00     0.202 C 
BRANCH  75  76
ATOM     76  C   UNL A   1      37.874  21.335  25.256  1.00  0.00     0.261 C 
BRANCH  76  77
ATOM     77  O   UNL A   1      36.739  22.212  25.293  1.00  0.00    -0.460 OA
BRANCH  77  78
ATOM     78  C   UNL A   1      36.166  22.472  24.095  1.00  0.00     0.339 C 
ATOM     79  O   UNL A   1      36.701  22.511  22.999  1.00  0.00    -0.246 OA
BRANCH  78  80
ATOM     80  C   UNL A   1      34.706  22.436  24.277  1.00  0.00     0.080 A 
ATOM     81  C   UNL A   1      34.025  23.663  24.142  1.00  0.00     0.044 A 
ATOM     82  C   UNL A   1      33.996  21.249  24.495  1.00  0.00     0.055 A 
ATOM     83  C   UNL A   1      32.635  23.689  24.201  1.00  0.00     0.053 A 
ATOM     84  C   UNL A   1      32.602  21.286  24.550  1.00  0.00     0.023 A 
ATOM     85  Cl  UNL A   1      34.750  19.715  24.737  1.00  0.00    -0.083 Cl
ATOM     86  C   UNL A   1      31.927  22.496  24.403  1.00  0.00     0.028 A 
BRANCH  83  87
ATOM     87  N   UNL A   1      31.910  24.877  23.983  1.00  0.00    -0.250 N 
ATOM     88  C   UNL A   1      31.588  25.724  25.065  1.00  0.00     0.238 C 
ATOM     89  C   UNL A   1      32.093  25.607  22.790  1.00  0.00     0.238 C 
ATOM     90  O   UNL A   1      31.640  25.506  26.262  1.00  0.00    -0.274 OA
ATOM     91  C   UNL A   1      31.197  27.010  24.402  1.00  0.00     0.100 C 
ATOM     92  C   UNL A   1      32.251  26.999  23.293  1.00  0.00     0.100 C 
ATOM     93  O   UNL A   1      32.337  25.211  21.666  1.00  0.00    -0.274 OA
ATOM     94  C   UNL A   1      31.068  28.440  24.956  1.00  0.00     0.028 C 
ATOM     95  C   UNL A   1      32.350  28.380  22.664  1.00  0.00     0.028 C 
ATOM     96  C   UNL A   1      30.315  29.111  23.777  1.00  0.00    -0.026 C 
ATOM     97  C   UNL A   1      32.380  29.242  25.063  1.00  0.00     0.001 C 
ATOM     98  C   UNL A   1      30.959  29.022  22.590  1.00  0.00    -0.026 C 
ATOM     99  C   UNL A   1      33.141  29.227  23.728  1.00  0.00     0.001 C 
ATOM    100  C   UNL A   1      33.788  28.728  25.022  1.00  0.00     0.009 C 
ENDBRANCH  83  87
ENDBRANCH  78  80
ENDBRANCH  77  78
ENDBRANCH  76  77
ENDBRANCH  75  76
ENDBRANCH  74  75
ENDBRANCH   1  74
TORSDOF 18
ENDMDL
