MODEL 1
REMARK VINA RESULT:     -11.7      0.000      0.000
REMARK SMILES C[C@H](NC(=O)c1c(C(=O)OCCOCCOC(=O)c2ccc(-c3c4nc(c(-c5c(F)cc(S(=O)(=O)[O-])cc5F)c5ccc([nH]5)c(-c5c(F)cc(S(=O)(=O)[O-])cc5F)c5nc(c(-c6c(F)cc(S(=O)(=O)[O-])cc6F)c6ccc3[nH]6)C=C5)C=C4)cc2)cnn1C)[C@]12C[C@H]3C[C@H](C[C@H](C3)C1)C2
REMARK SMILES IDX 13 1 12 2 11 3 10 4 8 5 9 6 7 7 6 8 87 9 85 10 86 11 88 12
REMARK SMILES IDX 4 13 3 14 5 16 2 17 1 18 89 19 90 20 97 21 98 22 91 23 95 24
REMARK SMILES IDX 93 25 92 26 96 27 94 28 14 29 15 30 16 31 17 32 18 33 19 34
REMARK SMILES IDX 20 35 84 36 21 37 83 38 22 39 23 40 24 41 77 42 25 43 82 44
REMARK SMILES IDX 76 45 78 46 26 47 81 48 75 49 74 50 27 52 61 53 40 54 60 55
REMARK SMILES IDX 41 56 44 57 59 58 79 59 42 60 43 61 58 63 80 64 45 65 28 66
REMARK SMILES IDX 29 67 38 68 30 69 31 70 37 71 39 72 32 73 33 74 34 75 35 76
REMARK SMILES IDX 36 77 62 78 63 79 72 80 64 81 65 82 71 83 73 84 66 85 67 86
REMARK SMILES IDX 68 87 69 88 70 89 46 90 47 91 56 92 48 93 49 94 55 95 57 96
REMARK SMILES IDX 50 97 51 98 52 99 53 100 54 101
REMARK H PARENT 3 15 78 51 44 62
REMARK Flexibility Score: inf
ROOT
ATOM      1  O   UNL A   1      39.723  21.496  26.670  1.00  0.00    -0.374 OA
ENDROOT
BRANCH   1   2
ATOM      2  C   UNL A   1      38.738  21.081  25.724  1.00  0.00     0.202 C 
BRANCH   2   3
ATOM      3  C   UNL A   1      37.806  22.185  25.219  1.00  0.00     0.261 C 
BRANCH   3   4
ATOM      4  O   UNL A   1      36.711  21.640  24.464  1.00  0.00    -0.460 OA
BRANCH   4   5
ATOM      5  C   UNL A   1      35.942  22.574  23.837  1.00  0.00     0.342 C 
ATOM      6  O   UNL A   1      36.193  23.061  22.745  1.00  0.00    -0.246 OA
BRANCH   5   7
ATOM      7  C   UNL A   1      34.719  22.906  24.542  1.00  0.00     0.111 A 
ATOM      8  C   UNL A   1      33.388  22.941  24.130  1.00  0.00     0.140 A 
ATOM      9  N   UNL A   1      32.690  22.989  25.316  1.00  0.00    -0.262 N 
ATOM     10  C   UNL A   1      34.676  23.272  25.907  1.00  0.00     0.151 A 
ATOM     11  N   UNL A   1      33.431  23.393  26.365  1.00  0.00    -0.180 NA
ATOM     12  C   UNL A   1      31.375  22.443  25.578  1.00  0.00     0.174 C 
BRANCH   8  13
ATOM     13  C   UNL A   1      32.781  22.641  22.866  1.00  0.00     0.270 C 
ATOM     14  N   UNL A   1      32.307  23.663  22.079  1.00  0.00    -0.348 N 
ATOM     15  H   UNL A   1      31.642  23.377  21.414  1.00  0.00     0.164 HD
ATOM     16  O   UNL A   1      32.588  21.487  22.495  1.00  0.00    -0.267 OA
BRANCH  14  17
ATOM     17  C   UNL A   1      32.606  25.111  22.039  1.00  0.00     0.085 C 
ATOM     18  C   UNL A   1      32.578  25.517  20.560  1.00  0.00     0.031 C 
BRANCH  17  19
ATOM     19  C   UNL A   1      31.642  25.990  22.941  1.00  0.00    -0.009 C 
ATOM     20  C   UNL A   1      31.130  27.294  22.245  1.00  0.00     0.012 C 
ATOM     21  C   UNL A   1      32.425  26.465  24.194  1.00  0.00     0.012 C 
ATOM     22  C   UNL A   1      30.382  25.200  23.399  1.00  0.00     0.012 C 
ATOM     23  C   UNL A   1      30.248  28.136  23.192  1.00  0.00    -0.010 C 
ATOM     24  C   UNL A   1      31.547  27.276  25.155  1.00  0.00    -0.010 C 
ATOM     25  C   UNL A   1      29.510  26.035  24.354  1.00  0.00    -0.010 C 
ATOM     26  C   UNL A   1      29.035  27.304  23.635  1.00  0.00     0.007 C 
ATOM     27  C   UNL A   1      31.056  28.537  24.434  1.00  0.00     0.007 C 
ATOM     28  C   UNL A   1      30.343  26.425  25.585  1.00  0.00     0.007 C 
ENDBRANCH  17  19
ENDBRANCH  14  17
ENDBRANCH   8  13
ENDBRANCH   5   7
ENDBRANCH   4   5
ENDBRANCH   3   4
ENDBRANCH   2   3
ENDBRANCH   1   2
BRANCH   1  29
ATOM     29  C   UNL A   1      41.071  21.572  26.197  1.00  0.00     0.202 C 
BRANCH  29  30
ATOM     30  C   UNL A   1      41.730  22.951  26.304  1.00  0.00     0.261 C 
BRANCH  30  31
ATOM     31  O   UNL A   1      40.738  23.990  26.409  1.00  0.00    -0.460 OA
BRANCH  31  32
ATOM     32  C   UNL A   1      41.179  25.238  26.119  1.00  0.00     0.338 C 
ATOM     33  O   UNL A   1      41.363  25.711  25.011  1.00  0.00    -0.246 OA
BRANCH  32  34
ATOM     34  C   UNL A   1      41.238  26.045  27.355  1.00  0.00     0.060 A 
ATOM     35  C   UNL A   1      40.216  25.861  28.295  1.00  0.00     0.016 A 
ATOM     36  C   UNL A   1      42.237  26.997  27.576  1.00  0.00     0.016 A 
ATOM     37  C   UNL A   1      40.163  26.662  29.435  1.00  0.00     0.010 A 
ATOM     38  C   UNL A   1      42.182  27.798  28.721  1.00  0.00     0.010 A 
ATOM     39  C   UNL A   1      41.125  27.660  29.636  1.00  0.00    -0.014 A 
BRANCH  39  40
ATOM     40  C   UNL A   1      40.930  28.659  30.717  1.00  0.00     0.031 A 
ATOM     41  C   UNL A   1      41.824  28.601  31.926  1.00  0.00     0.074 A 
ATOM     42  C   UNL A   1      39.991  29.617  30.613  1.00  0.00     0.049 A 
ATOM     43  N   UNL A   1      41.818  29.349  32.999  1.00  0.00    -0.248 NA
ATOM     44  C   UNL A   1      42.862  27.556  31.927  1.00  0.00     0.031 C 
ATOM     45  C   UNL A   1      39.083  29.792  29.481  1.00  0.00     0.029 A 
ATOM     46  N   UNL A   1      39.644  30.620  31.483  1.00  0.00    -0.354 N 
ATOM     47  C   UNL A   1      42.841  28.864  33.805  1.00  0.00     0.074 A 
ATOM     48  C   UNL A   1      43.429  27.738  33.112  1.00  0.00     0.031 C 
ATOM     49  C   UNL A   1      38.275  30.838  29.729  1.00  0.00     0.029 A 
ATOM     50  C   UNL A   1      38.592  31.388  31.045  1.00  0.00     0.049 A 
ATOM     51  H   UNL A   1      40.105  30.776  32.338  1.00  0.00     0.167 HD
ATOM     52  C   UNL A   1      43.260  29.321  35.009  1.00  0.00     0.037 A 
ATOM     53  C   UNL A   1      37.947  32.408  31.648  1.00  0.00     0.037 A 
ATOM     54  C   UNL A   1      42.682  30.448  35.691  1.00  0.00     0.049 A 
ATOM     55  C   UNL A   1      38.402  32.870  33.009  1.00  0.00     0.074 A 
ATOM     56  C   UNL A   1      43.053  31.003  36.903  1.00  0.00     0.029 A 
ATOM     57  N   UNL A   1      41.607  31.189  35.224  1.00  0.00    -0.354 N 
ATOM     58  N   UNL A   1      39.387  32.417  33.747  1.00  0.00    -0.248 NA
ATOM     59  C   UNL A   1      37.658  33.982  33.617  1.00  0.00     0.031 C 
ATOM     60  C   UNL A   1      42.177  32.057  37.188  1.00  0.00     0.029 A 
ATOM     61  C   UNL A   1      41.287  32.183  36.133  1.00  0.00     0.049 A 
ATOM     62  H   UNL A   1      41.140  31.031  34.372  1.00  0.00     0.167 HD
ATOM     63  C   UNL A   1      39.396  33.205  34.895  1.00  0.00     0.074 A 
ATOM     64  C   UNL A   1      38.325  34.167  34.749  1.00  0.00     0.031 C 
ATOM     65  C   UNL A   1      40.221  33.139  35.969  1.00  0.00     0.037 A 
BRANCH  52  66
ATOM     66  C   UNL A   1      44.390  28.587  35.672  1.00  0.00     0.058 A 
ATOM     67  C   UNL A   1      45.731  28.922  35.430  1.00  0.00     0.135 A 
ATOM     68  C   UNL A   1      44.127  27.550  36.582  1.00  0.00     0.135 A 
ATOM     69  F   UNL A   1      46.038  29.893  34.555  1.00  0.00    -0.206 F 
ATOM     70  C   UNL A   1      46.774  28.237  36.046  1.00  0.00     0.059 A 
ATOM     71  C   UNL A   1      45.153  26.866  37.227  1.00  0.00     0.059 A 
ATOM     72  F   UNL A   1      42.861  27.188  36.845  1.00  0.00    -0.206 F 
ATOM     73  C   UNL A   1      46.475  27.209  36.941  1.00  0.00     0.060 A 
BRANCH  73  74
ATOM     74  S   UNL A   1      47.836  26.325  37.732  1.00  0.00     0.124 S 
ATOM     75  O   UNL A   1      47.500  26.480  39.144  1.00  0.00    -0.237 OA
ATOM     76  O   UNL A   1      47.692  24.978  37.191  1.00  0.00    -0.237 OA
ATOM     77  O   UNL A   1      49.019  27.054  37.285  1.00  0.00    -0.744 OA
ENDBRANCH  73  74
ENDBRANCH  52  66
BRANCH  53  78
ATOM     78  C   UNL A   1      36.794  33.059  30.973  1.00  0.00     0.058 A 
ATOM     79  C   UNL A   1      35.477  32.809  31.384  1.00  0.00     0.135 A 
ATOM     80  C   UNL A   1      36.989  33.942  29.899  1.00  0.00     0.135 A 
ATOM     81  F   UNL A   1      35.241  31.963  32.398  1.00  0.00    -0.206 F 
ATOM     82  C   UNL A   1      34.391  33.400  30.746  1.00  0.00     0.059 A 
ATOM     83  C   UNL A   1      35.920  34.564  29.261  1.00  0.00     0.059 A 
ATOM     84  F   UNL A   1      38.231  34.221  29.474  1.00  0.00    -0.206 F 
ATOM     85  C   UNL A   1      34.623  34.277  29.685  1.00  0.00     0.060 A 
BRANCH  85  86
ATOM     86  S   UNL A   1      33.209  35.075  28.893  1.00  0.00     0.124 S 
ATOM     87  O   UNL A   1      33.837  36.238  28.277  1.00  0.00    -0.237 OA
ATOM     88  O   UNL A   1      32.746  34.040  27.975  1.00  0.00    -0.237 OA
ATOM     89  O   UNL A   1      32.315  35.356  30.011  1.00  0.00    -0.744 OA
ENDBRANCH  85  86
ENDBRANCH  53  78
BRANCH  65  90
ATOM     90  C   UNL A   1      40.019  34.152  37.061  1.00  0.00     0.058 A 
ATOM     91  C   UNL A   1      40.582  35.435  36.989  1.00  0.00     0.135 A 
ATOM     92  C   UNL A   1      39.207  33.852  38.167  1.00  0.00     0.135 A 
ATOM     93  F   UNL A   1      41.370  35.769  35.955  1.00  0.00    -0.206 F 
ATOM     94  C   UNL A   1      40.362  36.381  37.985  1.00  0.00     0.059 A 
ATOM     95  C   UNL A   1      38.954  34.789  39.164  1.00  0.00     0.059 A 
ATOM     96  F   UNL A   1      38.636  32.641  38.278  1.00  0.00    -0.206 F 
ATOM     97  C   UNL A   1      39.546  36.049  39.069  1.00  0.00     0.060 A 
BRANCH  97  98
ATOM     98  S   UNL A   1      39.236  37.296  40.338  1.00  0.00     0.124 S 
ATOM     99  O   UNL A   1      40.594  37.664  40.724  1.00  0.00    -0.237 OA
ATOM    100  O   UNL A   1      38.490  38.313  39.604  1.00  0.00    -0.237 OA
ATOM    101  O   UNL A   1      38.470  36.570  41.346  1.00  0.00    -0.744 OA
ENDBRANCH  97  98
ENDBRANCH  65  90
ENDBRANCH  39  40
ENDBRANCH  32  34
ENDBRANCH  31  32
ENDBRANCH  30  31
ENDBRANCH  29  30
ENDBRANCH   1  29
TORSDOF 20
ENDMDL
MODEL 2
REMARK VINA RESULT:     -11.6      1.066      1.771
REMARK SMILES C[C@H](NC(=O)c1c(C(=O)OCCOCCOC(=O)c2ccc(-c3c4nc(c(-c5c(F)cc(S(=O)(=O)[O-])cc5F)c5ccc([nH]5)c(-c5c(F)cc(S(=O)(=O)[O-])cc5F)c5nc(c(-c6c(F)cc(S(=O)(=O)[O-])cc6F)c6ccc3[nH]6)C=C5)C=C4)cc2)cnn1C)[C@]12C[C@H]3C[C@H](C[C@H](C3)C1)C2
REMARK SMILES IDX 13 1 12 2 11 3 10 4 8 5 9 6 7 7 6 8 87 9 85 10 86 11 88 12
REMARK SMILES IDX 4 13 3 14 5 16 2 17 1 18 89 19 90 20 97 21 98 22 91 23 95 24
REMARK SMILES IDX 93 25 92 26 96 27 94 28 14 29 15 30 16 31 17 32 18 33 19 34
REMARK SMILES IDX 20 35 84 36 21 37 83 38 22 39 23 40 24 41 77 42 25 43 82 44
REMARK SMILES IDX 76 45 78 46 26 47 81 48 75 49 74 50 27 52 61 53 40 54 60 55
REMARK SMILES IDX 41 56 44 57 59 58 79 59 42 60 43 61 58 63 80 64 45 65 28 66
REMARK SMILES IDX 29 67 38 68 30 69 31 70 37 71 39 72 32 73 33 74 34 75 35 76
REMARK SMILES IDX 36 77 62 78 63 79 72 80 64 81 65 82 71 83 73 84 66 85 67 86
REMARK SMILES IDX 68 87 69 88 70 89 46 90 47 91 56 92 48 93 49 94 55 95 57 96
REMARK SMILES IDX 50 97 51 98 52 99 53 100 54 101
REMARK H PARENT 3 15 78 51 44 62
REMARK Flexibility Score: inf
ROOT
ATOM      1  O   UNL A   1      37.864  22.180  26.042  1.00  0.00    -0.374 OA
ENDROOT
BRANCH   1   2
ATOM      2  C   UNL A   1      37.206  21.991  24.789  1.00  0.00     0.202 C 
BRANCH   2   3
ATOM      3  C   UNL A   1      36.692  23.268  24.118  1.00  0.00     0.261 C 
BRANCH   3   4
ATOM      4  O   UNL A   1      35.902  22.965  22.957  1.00  0.00    -0.460 OA
BRANCH   4   5
ATOM      5  C   UNL A   1      34.620  23.423  23.016  1.00  0.00     0.342 C 
ATOM      6  O   UNL A   1      34.215  24.429  22.453  1.00  0.00    -0.246 OA
BRANCH   5   7
ATOM      7  C   UNL A   1      33.715  22.563  23.755  1.00  0.00     0.111 A 
ATOM      8  C   UNL A   1      33.231  22.624  25.059  1.00  0.00     0.140 A 
ATOM      9  N   UNL A   1      32.173  21.744  25.048  1.00  0.00    -0.262 N 
ATOM     10  C   UNL A   1      33.105  21.411  23.206  1.00  0.00     0.151 A 
ATOM     11  N   UNL A   1      32.210  20.866  24.026  1.00  0.00    -0.180 NA
ATOM     12  C   UNL A   1      30.962  21.821  25.837  1.00  0.00     0.174 C 
BRANCH   8  13
ATOM     13  C   UNL A   1      33.455  23.577  26.108  1.00  0.00     0.270 C 
ATOM     14  N   UNL A   1      32.900  24.831  26.018  1.00  0.00    -0.348 N 
ATOM     15  H   UNL A   1      33.344  25.503  26.581  1.00  0.00     0.164 HD
ATOM     16  O   UNL A   1      34.205  23.341  27.051  1.00  0.00    -0.267 OA
BRANCH  14  17
ATOM     17  C   UNL A   1      31.762  25.364  25.238  1.00  0.00     0.085 C 
ATOM     18  C   UNL A   1      30.526  25.243  26.140  1.00  0.00     0.031 C 
BRANCH  17  19
ATOM     19  C   UNL A   1      31.990  26.836  24.694  1.00  0.00    -0.009 C 
ATOM     20  C   UNL A   1      33.492  27.265  24.625  1.00  0.00     0.012 C 
ATOM     21  C   UNL A   1      31.313  27.839  25.665  1.00  0.00     0.012 C 
ATOM     22  C   UNL A   1      31.400  27.034  23.268  1.00  0.00     0.012 C 
ATOM     23  C   UNL A   1      33.647  28.725  24.147  1.00  0.00    -0.010 C 
ATOM     24  C   UNL A   1      31.435  29.290  25.181  1.00  0.00    -0.010 C 
ATOM     25  C   UNL A   1      31.541  28.493  22.797  1.00  0.00    -0.010 C 
ATOM     26  C   UNL A   1      33.027  28.873  22.749  1.00  0.00     0.007 C 
ATOM     27  C   UNL A   1      32.920  29.667  25.116  1.00  0.00     0.007 C 
ATOM     28  C   UNL A   1      30.808  29.414  23.785  1.00  0.00     0.007 C 
ENDBRANCH  17  19
ENDBRANCH  14  17
ENDBRANCH   8  13
ENDBRANCH   5   7
ENDBRANCH   4   5
ENDBRANCH   3   4
ENDBRANCH   2   3
ENDBRANCH   1   2
BRANCH   1  29
ATOM     29  C   UNL A   1      39.251  21.833  26.094  1.00  0.00     0.202 C 
BRANCH  29  30
ATOM     30  C   UNL A   1      40.177  22.906  26.674  1.00  0.00     0.261 C 
BRANCH  30  31
ATOM     31  O   UNL A   1      39.607  24.220  26.519  1.00  0.00    -0.460 OA
BRANCH  31  32
ATOM     32  C   UNL A   1      40.502  25.217  26.322  1.00  0.00     0.338 C 
ATOM     33  O   UNL A   1      41.044  25.519  25.272  1.00  0.00    -0.246 OA
BRANCH  32  34
ATOM     34  C   UNL A   1      40.607  26.041  27.544  1.00  0.00     0.060 A 
ATOM     35  C   UNL A   1      39.559  25.959  28.469  1.00  0.00     0.016 A 
ATOM     36  C   UNL A   1      41.677  26.912  27.765  1.00  0.00     0.016 A 
ATOM     37  C   UNL A   1      39.554  26.783  29.594  1.00  0.00     0.010 A 
ATOM     38  C   UNL A   1      41.671  27.737  28.894  1.00  0.00     0.010 A 
ATOM     39  C   UNL A   1      40.591  27.704  29.794  1.00  0.00    -0.014 A 
BRANCH  39  40
ATOM     40  C   UNL A   1      40.461  28.735  30.853  1.00  0.00     0.031 A 
ATOM     41  C   UNL A   1      41.359  28.652  32.058  1.00  0.00     0.074 A 
ATOM     42  C   UNL A   1      39.579  29.744  30.732  1.00  0.00     0.049 A 
ATOM     43  N   UNL A   1      41.402  29.423  33.114  1.00  0.00    -0.248 NA
ATOM     44  C   UNL A   1      42.333  27.549  32.078  1.00  0.00     0.031 C 
ATOM     45  C   UNL A   1      38.677  29.948  29.601  1.00  0.00     0.029 A 
ATOM     46  N   UNL A   1      39.297  30.785  31.580  1.00  0.00    -0.354 N 
ATOM     47  C   UNL A   1      42.400  28.896  33.926  1.00  0.00     0.074 A 
ATOM     48  C   UNL A   1      42.917  27.723  33.255  1.00  0.00     0.031 C 
ATOM     49  C   UNL A   1      37.932  31.044  29.829  1.00  0.00     0.029 A 
ATOM     50  C   UNL A   1      38.289  31.604  31.131  1.00  0.00     0.049 A 
ATOM     51  H   UNL A   1      39.772  30.932  32.430  1.00  0.00     0.167 HD
ATOM     52  C   UNL A   1      42.853  29.355  35.117  1.00  0.00     0.037 A 
ATOM     53  C   UNL A   1      37.709  32.672  31.713  1.00  0.00     0.037 A 
ATOM     54  C   UNL A   1      42.345  30.528  35.777  1.00  0.00     0.049 A 
ATOM     55  C   UNL A   1      38.198  33.137  33.062  1.00  0.00     0.074 A 
ATOM     56  C   UNL A   1      42.756  31.087  36.974  1.00  0.00     0.029 A 
ATOM     57  N   UNL A   1      41.313  31.320  35.299  1.00  0.00    -0.354 N 
ATOM     58  N   UNL A   1      39.159  32.643  33.805  1.00  0.00    -0.248 NA
ATOM     59  C   UNL A   1      37.524  34.304  33.649  1.00  0.00     0.031 C 
ATOM     60  C   UNL A   1      41.945  32.196  37.239  1.00  0.00     0.029 A 
ATOM     61  C   UNL A   1      41.058  32.351  36.186  1.00  0.00     0.049 A 
ATOM     62  H   UNL A   1      40.832  31.171  34.453  1.00  0.00     0.167 HD
ATOM     63  C   UNL A   1      39.222  33.454  34.935  1.00  0.00     0.074 A 
ATOM     64  C   UNL A   1      38.208  34.475  34.773  1.00  0.00     0.031 C 
ATOM     65  C   UNL A   1      40.048  33.364  36.006  1.00  0.00     0.037 A 
BRANCH  52  66
ATOM     66  C   UNL A   1      43.942  28.570  35.792  1.00  0.00     0.058 A 
ATOM     67  C   UNL A   1      45.299  28.835  35.552  1.00  0.00     0.135 A 
ATOM     68  C   UNL A   1      43.624  27.555  36.708  1.00  0.00     0.135 A 
ATOM     69  F   UNL A   1      45.658  29.782  34.670  1.00  0.00    -0.206 F 
ATOM     70  C   UNL A   1      46.304  28.104  36.177  1.00  0.00     0.059 A 
ATOM     71  C   UNL A   1      44.611  26.827  37.363  1.00  0.00     0.059 A 
ATOM     72  F   UNL A   1      42.341  27.260  36.970  1.00  0.00    -0.206 F 
ATOM     73  C   UNL A   1      45.950  27.100  37.080  1.00  0.00     0.060 A 
BRANCH  73  74
ATOM     74  S   UNL A   1      47.262  26.156  37.884  1.00  0.00     0.124 S 
ATOM     75  O   UNL A   1      48.268  27.190  38.107  1.00  0.00    -0.237 OA
ATOM     76  O   UNL A   1      46.597  25.651  39.081  1.00  0.00    -0.237 OA
ATOM     77  O   UNL A   1      47.611  25.145  36.891  1.00  0.00    -0.744 OA
ENDBRANCH  73  74
ENDBRANCH  52  66
BRANCH  53  78
ATOM     78  C   UNL A   1      36.592  33.375  31.030  1.00  0.00     0.058 A 
ATOM     79  C   UNL A   1      35.267  33.226  31.465  1.00  0.00     0.135 A 
ATOM     80  C   UNL A   1      36.829  34.206  29.924  1.00  0.00     0.135 A 
ATOM     81  F   UNL A   1      34.990  32.433  32.510  1.00  0.00    -0.206 F 
ATOM     82  C   UNL A   1      34.213  33.866  30.820  1.00  0.00     0.059 A 
ATOM     83  C   UNL A   1      35.794  34.875  29.277  1.00  0.00     0.059 A 
ATOM     84  F   UNL A   1      38.081  34.388  29.474  1.00  0.00    -0.206 F 
ATOM     85  C   UNL A   1      34.487  34.690  29.726  1.00  0.00     0.060 A 
BRANCH  85  86
ATOM     86  S   UNL A   1      33.118  35.551  28.923  1.00  0.00     0.124 S 
ATOM     87  O   UNL A   1      32.444  34.454  28.239  1.00  0.00    -0.237 OA
ATOM     88  O   UNL A   1      32.407  36.128  30.059  1.00  0.00    -0.237 OA
ATOM     89  O   UNL A   1      33.792  36.516  28.059  1.00  0.00    -0.744 OA
ENDBRANCH  85  86
ENDBRANCH  53  78
BRANCH  65  90
ATOM     90  C   UNL A   1      39.913  34.411  37.077  1.00  0.00     0.058 A 
ATOM     91  C   UNL A   1      40.671  35.591  37.053  1.00  0.00     0.135 A 
ATOM     92  C   UNL A   1      38.973  34.254  38.109  1.00  0.00     0.135 A 
ATOM     93  F   UNL A   1      41.586  35.787  36.090  1.00  0.00    -0.206 F 
ATOM     94  C   UNL A   1      40.515  36.573  38.026  1.00  0.00     0.059 A 
ATOM     95  C   UNL A   1      38.784  35.233  39.079  1.00  0.00     0.059 A 
ATOM     96  F   UNL A   1      38.215  33.147  38.171  1.00  0.00    -0.206 F 
ATOM     97  C   UNL A   1      39.568  36.386  39.035  1.00  0.00     0.060 A 
BRANCH  97  98
ATOM     98  S   UNL A   1      39.348  37.683  40.272  1.00  0.00     0.124 S 
ATOM     99  O   UNL A   1      40.504  38.534  40.012  1.00  0.00    -0.237 OA
ATOM    100  O   UNL A   1      38.052  38.247  39.909  1.00  0.00    -0.237 OA
ATOM    101  O   UNL A   1      39.374  36.953  41.536  1.00  0.00    -0.744 OA
ENDBRANCH  97  98
ENDBRANCH  65  90
ENDBRANCH  39  40
ENDBRANCH  32  34
ENDBRANCH  31  32
ENDBRANCH  30  31
ENDBRANCH  29  30
ENDBRANCH   1  29
TORSDOF 20
ENDMDL
MODEL 3
REMARK VINA RESULT:     -11.5      0.479      7.944
REMARK SMILES C[C@H](NC(=O)c1c(C(=O)OCCOCCOC(=O)c2ccc(-c3c4nc(c(-c5c(F)cc(S(=O)(=O)[O-])cc5F)c5ccc([nH]5)c(-c5c(F)cc(S(=O)(=O)[O-])cc5F)c5nc(c(-c6c(F)cc(S(=O)(=O)[O-])cc6F)c6ccc3[nH]6)C=C5)C=C4)cc2)cnn1C)[C@]12C[C@H]3C[C@H](C[C@H](C3)C1)C2
REMARK SMILES IDX 13 1 12 2 11 3 10 4 8 5 9 6 7 7 6 8 87 9 85 10 86 11 88 12
REMARK SMILES IDX 4 13 3 14 5 16 2 17 1 18 89 19 90 20 97 21 98 22 91 23 95 24
REMARK SMILES IDX 93 25 92 26 96 27 94 28 14 29 15 30 16 31 17 32 18 33 19 34
REMARK SMILES IDX 20 35 84 36 21 37 83 38 22 39 23 40 24 41 77 42 25 43 82 44
REMARK SMILES IDX 76 45 78 46 26 47 81 48 75 49 74 50 27 52 61 53 40 54 60 55
REMARK SMILES IDX 41 56 44 57 59 58 79 59 42 60 43 61 58 63 80 64 45 65 28 66
REMARK SMILES IDX 29 67 38 68 30 69 31 70 37 71 39 72 32 73 33 74 34 75 35 76
REMARK SMILES IDX 36 77 62 78 63 79 72 80 64 81 65 82 71 83 73 84 66 85 67 86
REMARK SMILES IDX 68 87 69 88 70 89 46 90 47 91 56 92 48 93 49 94 55 95 57 96
REMARK SMILES IDX 50 97 51 98 52 99 53 100 54 101
REMARK H PARENT 3 15 78 51 44 62
REMARK Flexibility Score: inf
ROOT
ATOM      1  O   UNL A   1      39.808  21.825  26.639  1.00  0.00    -0.374 OA
ENDROOT
BRANCH   1   2
ATOM      2  C   UNL A   1      38.824  21.333  25.730  1.00  0.00     0.202 C 
BRANCH   2   3
ATOM      3  C   UNL A   1      37.875  22.387  25.155  1.00  0.00     0.261 C 
BRANCH   3   4
ATOM      4  O   UNL A   1      36.723  21.779  24.549  1.00  0.00    -0.460 OA
BRANCH   4   5
ATOM      5  C   UNL A   1      35.895  22.655  23.914  1.00  0.00     0.342 C 
ATOM      6  O   UNL A   1      36.103  23.129  22.807  1.00  0.00    -0.246 OA
BRANCH   5   7
ATOM      7  C   UNL A   1      34.666  22.937  24.631  1.00  0.00     0.111 A 
ATOM      8  C   UNL A   1      33.332  22.931  24.228  1.00  0.00     0.140 A 
ATOM      9  N   UNL A   1      32.641  22.941  25.419  1.00  0.00    -0.262 N 
ATOM     10  C   UNL A   1      34.620  23.284  26.001  1.00  0.00     0.151 A 
ATOM     11  N   UNL A   1      33.376  23.357  26.468  1.00  0.00    -0.180 NA
ATOM     12  C   UNL A   1      31.348  22.348  25.683  1.00  0.00     0.174 C 
BRANCH   8  13
ATOM     13  C   UNL A   1      32.727  22.626  22.964  1.00  0.00     0.270 C 
ATOM     14  N   UNL A   1      32.298  23.648  22.151  1.00  0.00    -0.348 N 
ATOM     15  H   UNL A   1      31.629  23.371  21.485  1.00  0.00     0.164 HD
ATOM     16  O   UNL A   1      32.496  21.472  22.616  1.00  0.00    -0.267 OA
BRANCH  14  17
ATOM     17  C   UNL A   1      32.648  25.083  22.084  1.00  0.00     0.085 C 
ATOM     18  C   UNL A   1      32.573  25.477  20.603  1.00  0.00     0.031 C 
BRANCH  17  19
ATOM     19  C   UNL A   1      31.757  26.005  23.016  1.00  0.00    -0.009 C 
ATOM     20  C   UNL A   1      32.471  26.464  24.330  1.00  0.00     0.012 C 
ATOM     21  C   UNL A   1      30.513  25.199  23.476  1.00  0.00     0.012 C 
ATOM     22  C   UNL A   1      31.283  27.297  22.288  1.00  0.00     0.012 C 
ATOM     23  C   UNL A   1      31.534  27.306  25.223  1.00  0.00    -0.010 C 
ATOM     24  C   UNL A   1      29.562  26.039  24.339  1.00  0.00    -0.010 C 
ATOM     25  C   UNL A   1      30.339  28.130  23.173  1.00  0.00    -0.010 C 
ATOM     26  C   UNL A   1      31.076  28.552  24.451  1.00  0.00     0.007 C 
ATOM     27  C   UNL A   1      30.301  26.478  25.608  1.00  0.00     0.007 C 
ATOM     28  C   UNL A   1      29.116  27.277  23.546  1.00  0.00     0.007 C 
ENDBRANCH  17  19
ENDBRANCH  14  17
ENDBRANCH   8  13
ENDBRANCH   5   7
ENDBRANCH   4   5
ENDBRANCH   3   4
ENDBRANCH   2   3
ENDBRANCH   1   2
BRANCH   1  29
ATOM     29  C   UNL A   1      41.155  21.868  26.161  1.00  0.00     0.202 C 
BRANCH  29  30
ATOM     30  C   UNL A   1      41.858  23.223  26.291  1.00  0.00     0.261 C 
BRANCH  30  31
ATOM     31  O   UNL A   1      40.900  24.298  26.339  1.00  0.00    -0.460 OA
BRANCH  31  32
ATOM     32  C   UNL A   1      41.412  25.535  26.125  1.00  0.00     0.338 C 
ATOM     33  O   UNL A   1      41.634  26.060  25.048  1.00  0.00    -0.246 OA
BRANCH  32  34
ATOM     34  C   UNL A   1      41.500  26.265  27.407  1.00  0.00     0.060 A 
ATOM     35  C   UNL A   1      40.585  25.921  28.410  1.00  0.00     0.016 A 
ATOM     36  C   UNL A   1      42.420  27.297  27.614  1.00  0.00     0.016 A 
ATOM     37  C   UNL A   1      40.555  26.640  29.604  1.00  0.00     0.010 A 
ATOM     38  C   UNL A   1      42.390  28.015  28.813  1.00  0.00     0.010 A 
ATOM     39  C   UNL A   1      41.432  27.716  29.798  1.00  0.00    -0.014 A 
BRANCH  39  40
ATOM     40  C   UNL A   1      41.238  28.620  30.958  1.00  0.00     0.031 A 
ATOM     41  C   UNL A   1      40.139  29.648  30.900  1.00  0.00     0.074 A 
ATOM     42  C   UNL A   1      42.007  28.512  32.057  1.00  0.00     0.049 A 
ATOM     43  N   UNL A   1      39.806  30.556  31.779  1.00  0.00    -0.248 NA
ATOM     44  C   UNL A   1      39.310  29.655  29.683  1.00  0.00     0.031 C 
ATOM     45  C   UNL A   1      43.083  27.540  32.243  1.00  0.00     0.029 A 
ATOM     46  N   UNL A   1      42.001  29.237  33.222  1.00  0.00    -0.354 N 
ATOM     47  C   UNL A   1      38.736  31.246  31.224  1.00  0.00     0.074 A 
ATOM     48  C   UNL A   1      38.494  30.673  29.917  1.00  0.00     0.031 C 
ATOM     49  C   UNL A   1      43.641  27.735  33.451  1.00  0.00     0.029 A 
ATOM     50  C   UNL A   1      42.979  28.858  34.111  1.00  0.00     0.049 A 
ATOM     51  H   UNL A   1      41.358  29.959  33.405  1.00  0.00     0.167 HD
ATOM     52  C   UNL A   1      38.012  32.259  31.757  1.00  0.00     0.037 A 
ATOM     53  C   UNL A   1      43.311  29.373  35.312  1.00  0.00     0.037 A 
ATOM     54  C   UNL A   1      38.247  32.822  33.060  1.00  0.00     0.049 A 
ATOM     55  C   UNL A   1      42.522  30.532  35.865  1.00  0.00     0.074 A 
ATOM     56  C   UNL A   1      37.552  33.834  33.699  1.00  0.00     0.029 A 
ATOM     57  N   UNL A   1      39.257  32.423  33.923  1.00  0.00    -0.354 N 
ATOM     58  N   UNL A   1      41.496  31.158  35.338  1.00  0.00    -0.248 NA
ATOM     59  C   UNL A   1      42.934  31.053  37.176  1.00  0.00     0.031 C 
ATOM     60  C   UNL A   1      38.167  34.074  34.933  1.00  0.00     0.029 A 
ATOM     61  C   UNL A   1      39.218  33.183  35.079  1.00  0.00     0.049 A 
ATOM     62  H   UNL A   1      39.906  31.706  33.739  1.00  0.00     0.167 HD
ATOM     63  C   UNL A   1      41.125  32.128  36.264  1.00  0.00     0.074 A 
ATOM     64  C   UNL A   1      42.031  32.002  37.386  1.00  0.00     0.031 C 
ATOM     65  C   UNL A   1      40.124  33.039  36.192  1.00  0.00     0.037 A 
BRANCH  52  66
ATOM     66  C   UNL A   1      36.908  32.838  30.917  1.00  0.00     0.058 A 
ATOM     67  C   UNL A   1      37.154  33.834  29.960  1.00  0.00     0.135 A 
ATOM     68  C   UNL A   1      35.591  32.372  31.056  1.00  0.00     0.135 A 
ATOM     69  F   UNL A   1      38.393  34.328  29.800  1.00  0.00    -0.206 F 
ATOM     70  C   UNL A   1      36.129  34.367  29.186  1.00  0.00     0.059 A 
ATOM     71  C   UNL A   1      34.553  32.874  30.278  1.00  0.00     0.059 A 
ATOM     72  F   UNL A   1      35.302  31.423  31.961  1.00  0.00    -0.206 F 
ATOM     73  C   UNL A   1      34.830  33.882  29.355  1.00  0.00     0.060 A 
BRANCH  73  74
ATOM     74  S   UNL A   1      33.506  34.584  28.347  1.00  0.00     0.124 S 
ATOM     75  O   UNL A   1      34.248  35.507  27.496  1.00  0.00    -0.237 OA
ATOM     76  O   UNL A   1      32.962  33.406  27.680  1.00  0.00    -0.237 OA
ATOM     77  O   UNL A   1      32.625  35.207  29.330  1.00  0.00    -0.744 OA
ENDBRANCH  73  74
ENDBRANCH  52  66
BRANCH  53  78
ATOM     78  C   UNL A   1      44.453  28.803  36.073  1.00  0.00     0.058 A 
ATOM     79  C   UNL A   1      44.270  27.739  36.967  1.00  0.00     0.135 A 
ATOM     80  C   UNL A   1      45.751  29.318  35.925  1.00  0.00     0.135 A 
ATOM     81  F   UNL A   1      43.046  27.222  37.152  1.00  0.00    -0.206 F 
ATOM     82  C   UNL A   1      45.329  27.211  37.699  1.00  0.00     0.059 A 
ATOM     83  C   UNL A   1      46.831  28.791  36.627  1.00  0.00     0.059 A 
ATOM     84  F   UNL A   1      45.980  30.331  35.075  1.00  0.00    -0.206 F 
ATOM     85  C   UNL A   1      46.608  27.744  37.520  1.00  0.00     0.060 A 
BRANCH  85  86
ATOM     86  S   UNL A   1      47.985  27.024  38.440  1.00  0.00     0.124 S 
ATOM     87  O   UNL A   1      47.284  26.271  39.474  1.00  0.00    -0.237 OA
ATOM     88  O   UNL A   1      48.657  26.230  37.418  1.00  0.00    -0.237 OA
ATOM     89  O   UNL A   1      48.726  28.194  38.902  1.00  0.00    -0.744 OA
ENDBRANCH  85  86
ENDBRANCH  53  78
BRANCH  65  90
ATOM     90  C   UNL A   1      39.931  33.953  37.369  1.00  0.00     0.058 A 
ATOM     91  C   UNL A   1      40.533  35.219  37.425  1.00  0.00     0.135 A 
ATOM     92  C   UNL A   1      39.087  33.579  38.428  1.00  0.00     0.135 A 
ATOM     93  F   UNL A   1      41.352  35.622  36.440  1.00  0.00    -0.206 F 
ATOM     94  C   UNL A   1      40.321  36.076  38.500  1.00  0.00     0.059 A 
ATOM     95  C   UNL A   1      38.843  34.429  39.502  1.00  0.00     0.059 A 
ATOM     96  F   UNL A   1      38.478  32.382  38.418  1.00  0.00    -0.206 F 
ATOM     97  C   UNL A   1      39.474  35.673  39.535  1.00  0.00     0.060 A 
BRANCH  97  98
ATOM     98  S   UNL A   1      39.176  36.808  40.907  1.00  0.00     0.124 S 
ATOM     99  O   UNL A   1      40.536  37.194  41.268  1.00  0.00    -0.237 OA
ATOM    100  O   UNL A   1      38.366  37.849  40.284  1.00  0.00    -0.237 OA
ATOM    101  O   UNL A   1      38.477  35.980  41.885  1.00  0.00    -0.744 OA
ENDBRANCH  97  98
ENDBRANCH  65  90
ENDBRANCH  39  40
ENDBRANCH  32  34
ENDBRANCH  31  32
ENDBRANCH  30  31
ENDBRANCH  29  30
ENDBRANCH   1  29
TORSDOF 20
ENDMDL
