MODEL 1
REMARK VINA RESULT:     -10.3      0.000      0.000
REMARK SMILES CCOc1cc(/C=C(/F)C(=O)OCCOCCOC(=O)c2ccc(-c3c4nc(c(-c5c(F)cc(S(=O)(=O)[O-])cc5F)c5ccc([nH]5)c(-c5c(F)cc(S(=O)(=O)[O-])cc5F)c5nc(c(-c6c(F)cc(S(=O)(=O)[O-])cc6F)c6ccc3[nH]6)C=C5)C=C4)cc2)ccc1O
REMARK SMILES IDX 15 1 14 2 13 3 12 4 10 5 11 6 8 7 7 8 9 9 6 10 4 11 5 12
REMARK SMILES IDX 89 13 88 14 87 15 3 16 2 17 1 18 90 19 16 21 17 22 18 23
REMARK SMILES IDX 19 24 20 25 21 26 22 27 86 28 23 29 85 30 24 31 25 32 26 33
REMARK SMILES IDX 79 34 27 35 84 36 78 37 80 38 28 39 83 40 77 41 76 42 29 44
REMARK SMILES IDX 63 45 42 46 62 47 43 48 46 49 61 50 81 51 44 52 45 53 60 55
REMARK SMILES IDX 82 56 47 57 30 58 31 59 40 60 32 61 33 62 39 63 41 64 34 65
REMARK SMILES IDX 35 66 36 67 37 68 38 69 64 70 65 71 74 72 66 73 67 74 73 75
REMARK SMILES IDX 75 76 68 77 69 78 70 79 71 80 72 81 48 82 49 83 58 84 50 85
REMARK SMILES IDX 51 86 57 87 59 88 52 89 53 90 54 91 55 92 56 93
REMARK H PARENT 90 20 80 43 46 54
REMARK Flexibility Score: inf
ROOT
ATOM      1  O   UNL A   1      34.308  31.480  27.421  1.00  0.00    -0.374 OA
ENDROOT
BRANCH   1   2
ATOM      2  C   UNL A   1      33.229  30.655  26.973  1.00  0.00     0.202 C 
BRANCH   2   3
ATOM      3  C   UNL A   1      33.607  29.428  26.134  1.00  0.00     0.261 C 
BRANCH   3   4
ATOM      4  O   UNL A   1      32.618  29.190  25.122  1.00  0.00    -0.458 OA
BRANCH   4   5
ATOM      5  C   UNL A   1      33.101  28.796  23.917  1.00  0.00     0.367 C 
ATOM      6  O   UNL A   1      33.741  29.469  23.126  1.00  0.00    -0.243 OA
BRANCH   5   7
ATOM      7  C   UNL A   1      32.888  27.340  23.794  1.00  0.00     0.208 C 
ATOM      8  C   UNL A   1      31.706  26.721  23.638  1.00  0.00     0.055 C 
ATOM      9  F   UNL A   1      34.025  26.610  23.743  1.00  0.00    -0.199 F 
BRANCH   8  10
ATOM     10  C   UNL A   1      30.340  27.271  23.506  1.00  0.00    -0.019 A 
ATOM     11  C   UNL A   1      28.696  28.840  22.529  1.00  0.00     0.161 A 
ATOM     12  C   UNL A   1      30.016  28.401  22.745  1.00  0.00     0.058 A 
ATOM     13  C   UNL A   1      27.664  28.118  23.116  1.00  0.00     0.157 A 
ATOM     14  C   UNL A   1      27.956  26.986  23.884  1.00  0.00     0.051 A 
ATOM     15  C   UNL A   1      29.277  26.566  24.077  1.00  0.00     0.012 A 
BRANCH  11  16
ATOM     16  O   UNL A   1      28.676  29.931  21.715  1.00  0.00    -0.490 OA
BRANCH  16  17
ATOM     17  C   UNL A   1      29.020  31.230  22.158  1.00  0.00     0.226 C 
ATOM     18  C   UNL A   1      27.918  31.698  23.096  1.00  0.00     0.049 C 
ENDBRANCH  16  17
ENDBRANCH  11  16
BRANCH  13  19
ATOM     19  O   UNL A   1      26.334  28.401  23.012  1.00  0.00    -0.504 OA
ATOM     20  H   UNL A   1      26.056  29.270  22.798  1.00  0.00     0.293 HD
ENDBRANCH  13  19
ENDBRANCH   8  10
ENDBRANCH   5   7
ENDBRANCH   4   5
ENDBRANCH   3   4
ENDBRANCH   2   3
ENDBRANCH   1   2
BRANCH   1  21
ATOM     21  C   UNL A   1      34.108  32.226  28.624  1.00  0.00     0.202 C 
BRANCH  21  22
ATOM     22  C   UNL A   1      35.029  31.919  29.807  1.00  0.00     0.261 C 
BRANCH  22  23
ATOM     23  O   UNL A   1      35.932  30.844  29.525  1.00  0.00    -0.460 OA
BRANCH  23  24
ATOM     24  C   UNL A   1      36.655  30.429  30.595  1.00  0.00     0.338 C 
ATOM     25  O   UNL A   1      36.233  30.075  31.680  1.00  0.00    -0.246 OA
BRANCH  24  26
ATOM     26  C   UNL A   1      38.064  30.275  30.189  1.00  0.00     0.060 A 
ATOM     27  C   UNL A   1      38.330  30.127  28.821  1.00  0.00     0.016 A 
ATOM     28  C   UNL A   1      39.099  30.242  31.126  1.00  0.00     0.016 A 
ATOM     29  C   UNL A   1      39.630  29.892  28.389  1.00  0.00     0.010 A 
ATOM     30  C   UNL A   1      40.403  30.000  30.691  1.00  0.00     0.010 A 
ATOM     31  C   UNL A   1      40.666  29.786  29.326  1.00  0.00    -0.014 A 
BRANCH  31  32
ATOM     32  C   UNL A   1      41.993  29.294  28.896  1.00  0.00     0.031 A 
ATOM     33  C   UNL A   1      43.138  30.267  28.838  1.00  0.00     0.074 A 
ATOM     34  C   UNL A   1      42.174  27.999  28.582  1.00  0.00     0.049 A 
ATOM     35  N   UNL A   1      44.369  30.076  28.444  1.00  0.00    -0.248 NA
ATOM     36  C   UNL A   1      42.853  31.643  29.279  1.00  0.00     0.031 C 
ATOM     37  C   UNL A   1      41.141  26.965  28.638  1.00  0.00     0.029 A 
ATOM     38  N   UNL A   1      43.291  27.336  28.143  1.00  0.00    -0.354 N 
ATOM     39  C   UNL A   1      45.003  31.305  28.579  1.00  0.00     0.074 A 
ATOM     40  C   UNL A   1      44.013  32.244  29.060  1.00  0.00     0.031 C 
ATOM     41  C   UNL A   1      41.672  25.797  28.236  1.00  0.00     0.029 A 
ATOM     42  C   UNL A   1      43.069  26.011  27.862  1.00  0.00     0.049 A 
ATOM     43  H   UNL A   1      44.170  27.770  28.041  1.00  0.00     0.167 HD
ATOM     44  C   UNL A   1      46.296  31.619  28.332  1.00  0.00     0.037 A 
ATOM     45  C   UNL A   1      43.895  25.083  27.337  1.00  0.00     0.037 A 
ATOM     46  C   UNL A   1      47.270  30.672  27.855  1.00  0.00     0.049 A 
ATOM     47  C   UNL A   1      45.314  25.471  27.012  1.00  0.00     0.074 A 
ATOM     48  C   UNL A   1      48.613  30.878  27.591  1.00  0.00     0.029 A 
ATOM     49  N   UNL A   1      47.004  29.342  27.561  1.00  0.00    -0.354 N 
ATOM     50  N   UNL A   1      45.910  26.630  27.167  1.00  0.00    -0.248 NA
ATOM     51  C   UNL A   1      46.176  24.424  26.445  1.00  0.00     0.031 C 
ATOM     52  C   UNL A   1      49.146  29.687  27.086  1.00  0.00     0.029 A 
ATOM     53  C   UNL A   1      48.151  28.722  27.094  1.00  0.00     0.049 A 
ATOM     54  H   UNL A   1      46.129  28.904  27.670  1.00  0.00     0.167 HD
ATOM     55  C   UNL A   1      47.223  26.444  26.745  1.00  0.00     0.074 A 
ATOM     56  C   UNL A   1      47.335  25.057  26.338  1.00  0.00     0.031 C 
ATOM     57  C   UNL A   1      48.244  27.337  26.701  1.00  0.00     0.037 A 
BRANCH  44  58
ATOM     58  C   UNL A   1      46.723  33.045  28.547  1.00  0.00     0.058 A 
ATOM     59  C   UNL A   1      46.478  34.046  27.592  1.00  0.00     0.135 A 
ATOM     60  C   UNL A   1      47.361  33.423  29.739  1.00  0.00     0.135 A 
ATOM     61  F   UNL A   1      45.890  33.737  26.425  1.00  0.00    -0.206 F 
ATOM     62  C   UNL A   1      46.873  35.363  27.801  1.00  0.00     0.059 A 
ATOM     63  C   UNL A   1      47.738  34.741  29.983  1.00  0.00     0.059 A 
ATOM     64  F   UNL A   1      47.624  32.507  30.684  1.00  0.00    -0.206 F 
ATOM     65  C   UNL A   1      47.502  35.701  29.001  1.00  0.00     0.060 A 
BRANCH  65  66
ATOM     66  S   UNL A   1      48.001  37.417  29.259  1.00  0.00     0.124 S 
ATOM     67  O   UNL A   1      48.777  37.312  30.491  1.00  0.00    -0.237 OA
ATOM     68  O   UNL A   1      48.766  37.703  28.050  1.00  0.00    -0.237 OA
ATOM     69  O   UNL A   1      46.731  38.127  29.377  1.00  0.00    -0.744 OA
ENDBRANCH  65  66
ENDBRANCH  44  58
BRANCH  45  70
ATOM     70  C   UNL A   1      43.397  23.705  27.082  1.00  0.00     0.058 A 
ATOM     71  C   UNL A   1      43.307  22.762  28.116  1.00  0.00     0.135 A 
ATOM     72  C   UNL A   1      42.996  23.305  25.798  1.00  0.00     0.135 A 
ATOM     73  F   UNL A   1      43.688  23.093  29.360  1.00  0.00    -0.206 F 
ATOM     74  C   UNL A   1      42.853  21.468  27.886  1.00  0.00     0.059 A 
ATOM     75  C   UNL A   1      42.511  22.025  25.547  1.00  0.00     0.059 A 
ATOM     76  F   UNL A   1      43.051  24.172  24.774  1.00  0.00    -0.206 F 
ATOM     77  C   UNL A   1      42.453  21.109  26.597  1.00  0.00     0.060 A 
BRANCH  77  78
ATOM     78  S   UNL A   1      41.818  19.442  26.320  1.00  0.00     0.124 S 
ATOM     79  O   UNL A   1      42.152  18.788  27.580  1.00  0.00    -0.237 OA
ATOM     80  O   UNL A   1      40.399  19.690  26.085  1.00  0.00    -0.237 OA
ATOM     81  O   UNL A   1      42.569  18.987  25.154  1.00  0.00    -0.744 OA
ENDBRANCH  77  78
ENDBRANCH  45  70
BRANCH  57  82
ATOM     82  C   UNL A   1      49.584  26.836  26.235  1.00  0.00     0.058 A 
ATOM     83  C   UNL A   1      50.041  27.050  24.925  1.00  0.00     0.135 A 
ATOM     84  C   UNL A   1      50.447  26.183  27.131  1.00  0.00     0.135 A 
ATOM     85  F   UNL A   1      49.254  27.664  24.026  1.00  0.00    -0.206 F 
ATOM     86  C   UNL A   1      51.296  26.612  24.513  1.00  0.00     0.059 A 
ATOM     87  C   UNL A   1      51.718  25.766  26.750  1.00  0.00     0.059 A 
ATOM     88  F   UNL A   1      50.065  25.965  28.399  1.00  0.00    -0.206 F 
ATOM     89  C   UNL A   1      52.128  25.975  25.434  1.00  0.00     0.060 A 
BRANCH  89  90
ATOM     90  S   UNL A   1      53.768  25.444  24.896  1.00  0.00     0.124 S 
ATOM     91  O   UNL A   1      54.633  26.217  25.782  1.00  0.00    -0.237 OA
ATOM     92  O   UNL A   1      53.728  24.006  25.145  1.00  0.00    -0.237 OA
ATOM     93  O   UNL A   1      53.806  25.830  23.488  1.00  0.00    -0.744 OA
ENDBRANCH  89  90
ENDBRANCH  57  82
ENDBRANCH  31  32
ENDBRANCH  24  26
ENDBRANCH  23  24
ENDBRANCH  22  23
ENDBRANCH  21  22
ENDBRANCH   1  21
TORSDOF 21
ENDMDL
MODEL 2
REMARK VINA RESULT:     -10.3      3.861      5.614
REMARK SMILES CCOc1cc(/C=C(/F)C(=O)OCCOCCOC(=O)c2ccc(-c3c4nc(c(-c5c(F)cc(S(=O)(=O)[O-])cc5F)c5ccc([nH]5)c(-c5c(F)cc(S(=O)(=O)[O-])cc5F)c5nc(c(-c6c(F)cc(S(=O)(=O)[O-])cc6F)c6ccc3[nH]6)C=C5)C=C4)cc2)ccc1O
REMARK SMILES IDX 15 1 14 2 13 3 12 4 10 5 11 6 8 7 7 8 9 9 6 10 4 11 5 12
REMARK SMILES IDX 89 13 88 14 87 15 3 16 2 17 1 18 90 19 16 21 17 22 18 23
REMARK SMILES IDX 19 24 20 25 21 26 22 27 86 28 23 29 85 30 24 31 25 32 26 33
REMARK SMILES IDX 79 34 27 35 84 36 78 37 80 38 28 39 83 40 77 41 76 42 29 44
REMARK SMILES IDX 63 45 42 46 62 47 43 48 46 49 61 50 81 51 44 52 45 53 60 55
REMARK SMILES IDX 82 56 47 57 30 58 31 59 40 60 32 61 33 62 39 63 41 64 34 65
REMARK SMILES IDX 35 66 36 67 37 68 38 69 64 70 65 71 74 72 66 73 67 74 73 75
REMARK SMILES IDX 75 76 68 77 69 78 70 79 71 80 72 81 48 82 49 83 58 84 50 85
REMARK SMILES IDX 51 86 57 87 59 88 52 89 53 90 54 91 55 92 56 93
REMARK H PARENT 90 20 80 43 46 54
REMARK Flexibility Score: inf
ROOT
ATOM      1  O   UNL A   1      32.302  28.628  25.487  1.00  0.00    -0.374 OA
ENDROOT
BRANCH   1   2
ATOM      2  C   UNL A   1      31.383  27.535  25.552  1.00  0.00     0.202 C 
BRANCH   2   3
ATOM      3  C   UNL A   1      31.567  26.421  24.514  1.00  0.00     0.261 C 
BRANCH   3   4
ATOM      4  O   UNL A   1      32.026  25.218  25.148  1.00  0.00    -0.458 OA
BRANCH   4   5
ATOM      5  C   UNL A   1      31.145  24.185  25.144  1.00  0.00     0.367 C 
ATOM      6  O   UNL A   1      30.403  23.850  26.053  1.00  0.00    -0.243 OA
BRANCH   5   7
ATOM      7  C   UNL A   1      31.091  23.637  23.775  1.00  0.00     0.208 C 
ATOM      8  C   UNL A   1      31.904  22.699  23.262  1.00  0.00     0.055 C 
ATOM      9  F   UNL A   1      30.049  24.080  23.035  1.00  0.00    -0.199 F 
BRANCH   8  10
ATOM     10  C   UNL A   1      33.011  21.940  23.883  1.00  0.00    -0.019 A 
ATOM     11  C   UNL A   1      34.042  19.844  24.698  1.00  0.00     0.161 A 
ATOM     12  C   UNL A   1      32.942  20.584  24.224  1.00  0.00     0.058 A 
ATOM     13  C   UNL A   1      35.256  20.505  24.847  1.00  0.00     0.157 A 
ATOM     14  C   UNL A   1      35.356  21.860  24.517  1.00  0.00     0.051 A 
ATOM     15  C   UNL A   1      34.248  22.570  24.039  1.00  0.00     0.012 A 
BRANCH  11  16
ATOM     16  O   UNL A   1      33.699  18.543  24.904  1.00  0.00    -0.490 OA
BRANCH  16  17
ATOM     17  C   UNL A   1      32.884  17.810  24.009  1.00  0.00     0.226 C 
ATOM     18  C   UNL A   1      33.800  16.918  23.186  1.00  0.00     0.049 C 
ENDBRANCH  16  17
ENDBRANCH  11  16
BRANCH  13  19
ATOM     19  O   UNL A   1      36.417  19.946  25.292  1.00  0.00    -0.504 OA
ATOM     20  H   UNL A   1      37.232  20.391  25.160  1.00  0.00     0.293 HD
ENDBRANCH  13  19
ENDBRANCH   8  10
ENDBRANCH   5   7
ENDBRANCH   4   5
ENDBRANCH   3   4
ENDBRANCH   2   3
ENDBRANCH   1   2
BRANCH   1  21
ATOM     21  C   UNL A   1      31.829  29.910  25.907  1.00  0.00     0.202 C 
BRANCH  21  22
ATOM     22  C   UNL A   1      32.553  30.581  27.077  1.00  0.00     0.261 C 
BRANCH  22  23
ATOM     23  O   UNL A   1      33.920  30.167  27.177  1.00  0.00    -0.460 OA
BRANCH  23  24
ATOM     24  C   UNL A   1      34.658  30.888  28.057  1.00  0.00     0.338 C 
ATOM     25  O   UNL A   1      34.287  31.827  28.738  1.00  0.00    -0.246 OA
BRANCH  24  26
ATOM     26  C   UNL A   1      35.971  30.239  28.227  1.00  0.00     0.060 A 
ATOM     27  C   UNL A   1      36.255  29.679  29.480  1.00  0.00     0.016 A 
ATOM     28  C   UNL A   1      36.913  30.207  27.198  1.00  0.00     0.016 A 
ATOM     29  C   UNL A   1      37.509  29.129  29.725  1.00  0.00     0.010 A 
ATOM     30  C   UNL A   1      38.174  29.660  27.448  1.00  0.00     0.010 A 
ATOM     31  C   UNL A   1      38.487  29.155  28.722  1.00  0.00    -0.014 A 
BRANCH  31  32
ATOM     32  C   UNL A   1      39.885  28.802  29.056  1.00  0.00     0.031 A 
ATOM     33  C   UNL A   1      40.742  29.828  29.744  1.00  0.00     0.074 A 
ATOM     34  C   UNL A   1      40.370  27.582  28.765  1.00  0.00     0.049 A 
ATOM     35  N   UNL A   1      42.001  29.762  30.084  1.00  0.00    -0.248 NA
ATOM     36  C   UNL A   1      40.091  31.103  30.089  1.00  0.00     0.031 C 
ATOM     37  C   UNL A   1      39.614  26.503  28.130  1.00  0.00     0.029 A 
ATOM     38  N   UNL A   1      41.620  27.053  28.956  1.00  0.00    -0.354 N 
ATOM     39  C   UNL A   1      42.298  30.985  30.673  1.00  0.00     0.074 A 
ATOM     40  C   UNL A   1      41.096  31.787  30.615  1.00  0.00     0.031 C 
ATOM     41  C   UNL A   1      40.422  25.440  27.975  1.00  0.00     0.029 A 
ATOM     42  C   UNL A   1      41.757  25.777  28.465  1.00  0.00     0.049 A 
ATOM     43  H   UNL A   1      42.349  27.539  29.405  1.00  0.00     0.167 HD
ATOM     44  C   UNL A   1      43.465  31.397  31.220  1.00  0.00     0.037 A 
ATOM     45  C   UNL A   1      42.846  24.985  28.397  1.00  0.00     0.037 A 
ATOM     46  C   UNL A   1      44.653  30.585  31.272  1.00  0.00     0.049 A 
ATOM     47  C   UNL A   1      44.151  25.488  28.958  1.00  0.00     0.074 A 
ATOM     48  C   UNL A   1      45.884  30.896  31.822  1.00  0.00     0.029 A 
ATOM     49  N   UNL A   1      44.762  29.305  30.745  1.00  0.00    -0.354 N 
ATOM     50  N   UNL A   1      44.414  26.637  29.535  1.00  0.00    -0.248 NA
ATOM     51  C   UNL A   1      45.307  24.586  28.862  1.00  0.00     0.031 C 
ATOM     52  C   UNL A   1      46.752  29.826  31.580  1.00  0.00     0.029 A 
ATOM     53  C   UNL A   1      46.046  28.823  30.935  1.00  0.00     0.049 A 
ATOM     54  H   UNL A   1      44.032  28.813  30.304  1.00  0.00     0.167 HD
ATOM     55  C   UNL A   1      45.756  26.584  29.898  1.00  0.00     0.074 A 
ATOM     56  C   UNL A   1      46.246  25.285  29.483  1.00  0.00     0.031 C 
ATOM     57  C   UNL A   1      46.513  27.522  30.520  1.00  0.00     0.037 A 
BRANCH  44  58
ATOM     58  C   UNL A   1      43.521  32.791  31.781  1.00  0.00     0.058 A 
ATOM     59  C   UNL A   1      43.305  33.054  33.144  1.00  0.00     0.135 A 
ATOM     60  C   UNL A   1      43.826  33.880  30.948  1.00  0.00     0.135 A 
ATOM     61  F   UNL A   1      42.990  32.053  33.983  1.00  0.00    -0.206 F 
ATOM     62  C   UNL A   1      43.362  34.346  33.654  1.00  0.00     0.059 A 
ATOM     63  C   UNL A   1      43.918  35.178  31.442  1.00  0.00     0.059 A 
ATOM     64  F   UNL A   1      44.037  33.688  29.636  1.00  0.00    -0.206 F 
ATOM     65  C   UNL A   1      43.671  35.402  32.796  1.00  0.00     0.060 A 
BRANCH  65  66
ATOM     66  S   UNL A   1      43.750  37.073  33.476  1.00  0.00     0.124 S 
ATOM     67  O   UNL A   1      42.501  37.140  34.229  1.00  0.00    -0.237 OA
ATOM     68  O   UNL A   1      44.970  37.025  34.274  1.00  0.00    -0.237 OA
ATOM     69  O   UNL A   1      43.812  37.921  32.289  1.00  0.00    -0.744 OA
ENDBRANCH  65  66
ENDBRANCH  44  58
BRANCH  45  70
ATOM     70  C   UNL A   1      42.747  23.640  27.769  1.00  0.00     0.058 A 
ATOM     71  C   UNL A   1      42.911  23.470  26.387  1.00  0.00     0.135 A 
ATOM     72  C   UNL A   1      42.492  22.496  28.541  1.00  0.00     0.135 A 
ATOM     73  F   UNL A   1      43.146  24.535  25.604  1.00  0.00    -0.206 F 
ATOM     74  C   UNL A   1      42.811  22.218  25.789  1.00  0.00     0.059 A 
ATOM     75  C   UNL A   1      42.415  21.229  27.971  1.00  0.00     0.059 A 
ATOM     76  F   UNL A   1      42.338  22.601  29.871  1.00  0.00    -0.206 F 
ATOM     77  C   UNL A   1      42.566  21.102  26.591  1.00  0.00     0.060 A 
BRANCH  77  78
ATOM     78  S   UNL A   1      42.487  19.476  25.810  1.00  0.00     0.124 S 
ATOM     79  O   UNL A   1      43.421  19.637  24.702  1.00  0.00    -0.237 OA
ATOM     80  O   UNL A   1      42.922  18.597  26.891  1.00  0.00    -0.237 OA
ATOM     81  O   UNL A   1      41.081  19.351  25.438  1.00  0.00    -0.744 OA
ENDBRANCH  77  78
ENDBRANCH  45  70
BRANCH  57  82
ATOM     82  C   UNL A   1      47.942  27.167  30.830  1.00  0.00     0.058 A 
ATOM     83  C   UNL A   1      48.318  26.612  32.063  1.00  0.00     0.135 A 
ATOM     84  C   UNL A   1      48.940  27.331  29.854  1.00  0.00     0.135 A 
ATOM     85  F   UNL A   1      47.405  26.439  33.033  1.00  0.00    -0.206 F 
ATOM     86  C   UNL A   1      49.637  26.256  32.327  1.00  0.00     0.059 A 
ATOM     87  C   UNL A   1      50.258  26.952  30.085  1.00  0.00     0.059 A 
ATOM     88  F   UNL A   1      48.632  27.845  28.652  1.00  0.00    -0.206 F 
ATOM     89  C   UNL A   1      50.599  26.427  31.330  1.00  0.00     0.060 A 
BRANCH  89  90
ATOM     90  S   UNL A   1      52.299  25.927  31.674  1.00  0.00     0.124 S 
ATOM     91  O   UNL A   1      52.622  26.758  32.830  1.00  0.00    -0.237 OA
ATOM     92  O   UNL A   1      52.156  24.499  31.942  1.00  0.00    -0.237 OA
ATOM     93  O   UNL A   1      53.009  26.260  30.443  1.00  0.00    -0.744 OA
ENDBRANCH  89  90
ENDBRANCH  57  82
ENDBRANCH  31  32
ENDBRANCH  24  26
ENDBRANCH  23  24
ENDBRANCH  22  23
ENDBRANCH  21  22
ENDBRANCH   1  21
TORSDOF 21
ENDMDL
MODEL 3
REMARK VINA RESULT:     -10.2      7.031     12.506
REMARK SMILES CCOc1cc(/C=C(/F)C(=O)OCCOCCOC(=O)c2ccc(-c3c4nc(c(-c5c(F)cc(S(=O)(=O)[O-])cc5F)c5ccc([nH]5)c(-c5c(F)cc(S(=O)(=O)[O-])cc5F)c5nc(c(-c6c(F)cc(S(=O)(=O)[O-])cc6F)c6ccc3[nH]6)C=C5)C=C4)cc2)ccc1O
REMARK SMILES IDX 15 1 14 2 13 3 12 4 10 5 11 6 8 7 7 8 9 9 6 10 4 11 5 12
REMARK SMILES IDX 89 13 88 14 87 15 3 16 2 17 1 18 90 19 16 21 17 22 18 23
REMARK SMILES IDX 19 24 20 25 21 26 22 27 86 28 23 29 85 30 24 31 25 32 26 33
REMARK SMILES IDX 79 34 27 35 84 36 78 37 80 38 28 39 83 40 77 41 76 42 29 44
REMARK SMILES IDX 63 45 42 46 62 47 43 48 46 49 61 50 81 51 44 52 45 53 60 55
REMARK SMILES IDX 82 56 47 57 30 58 31 59 40 60 32 61 33 62 39 63 41 64 34 65
REMARK SMILES IDX 35 66 36 67 37 68 38 69 64 70 65 71 74 72 66 73 67 74 73 75
REMARK SMILES IDX 75 76 68 77 69 78 70 79 71 80 72 81 48 82 49 83 58 84 50 85
REMARK SMILES IDX 51 86 57 87 59 88 52 89 53 90 54 91 55 92 56 93
REMARK H PARENT 90 20 80 43 46 54
REMARK Flexibility Score: inf
ROOT
ATOM      1  O   UNL A   1      38.918  21.542  26.147  1.00  0.00    -0.374 OA
ENDROOT
BRANCH   1   2
ATOM      2  C   UNL A   1      38.105  21.041  25.083  1.00  0.00     0.202 C 
BRANCH   2   3
ATOM      3  C   UNL A   1      36.608  20.883  25.380  1.00  0.00     0.261 C 
BRANCH   3   4
ATOM      4  O   UNL A   1      35.879  22.017  24.889  1.00  0.00    -0.458 OA
BRANCH   4   5
ATOM      5  C   UNL A   1      35.726  23.037  25.771  1.00  0.00     0.367 C 
ATOM      6  O   UNL A   1      36.348  24.086  25.796  1.00  0.00    -0.243 OA
BRANCH   5   7
ATOM      7  C   UNL A   1      34.536  22.751  26.597  1.00  0.00     0.208 C 
ATOM      8  C   UNL A   1      33.373  22.238  26.164  1.00  0.00     0.055 C 
ATOM      9  F   UNL A   1      34.714  22.949  27.923  1.00  0.00    -0.199 F 
BRANCH   8  10
ATOM     10  C   UNL A   1      32.961  21.788  24.816  1.00  0.00    -0.019 A 
ATOM     11  C   UNL A   1      32.368  20.030  23.180  1.00  0.00     0.161 A 
ATOM     12  C   UNL A   1      32.880  20.447  24.424  1.00  0.00     0.058 A 
ATOM     13  C   UNL A   1      31.934  21.008  22.293  1.00  0.00     0.157 A 
ATOM     14  C   UNL A   1      32.004  22.357  22.655  1.00  0.00     0.051 A 
ATOM     15  C   UNL A   1      32.510  22.744  23.902  1.00  0.00     0.012 A 
BRANCH  11  16
ATOM     16  O   UNL A   1      32.366  18.672  23.088  1.00  0.00    -0.490 OA
BRANCH  16  17
ATOM     17  C   UNL A   1      33.144  17.841  23.929  1.00  0.00     0.226 C 
ATOM     18  C   UNL A   1      33.892  16.862  23.036  1.00  0.00     0.049 C 
ENDBRANCH  16  17
ENDBRANCH  11  16
BRANCH  13  19
ATOM     19  O   UNL A   1      31.414  20.784  21.053  1.00  0.00    -0.504 OA
ATOM     20  H   UNL A   1      30.958  21.470  20.605  1.00  0.00     0.293 HD
ENDBRANCH  13  19
ENDBRANCH   8  10
ENDBRANCH   5   7
ENDBRANCH   4   5
ENDBRANCH   3   4
ENDBRANCH   2   3
ENDBRANCH   1   2
BRANCH   1  21
ATOM     21  C   UNL A   1      40.289  21.137  26.173  1.00  0.00     0.202 C 
BRANCH  21  22
ATOM     22  C   UNL A   1      41.322  22.170  26.628  1.00  0.00     0.261 C 
BRANCH  22  23
ATOM     23  O   UNL A   1      40.790  23.499  26.642  1.00  0.00    -0.460 OA
BRANCH  23  24
ATOM     24  C   UNL A   1      41.728  24.476  26.575  1.00  0.00     0.338 C 
ATOM     25  O   UNL A   1      42.667  24.548  25.804  1.00  0.00    -0.246 OA
BRANCH  24  26
ATOM     26  C   UNL A   1      41.335  25.579  27.470  1.00  0.00     0.060 A 
ATOM     27  C   UNL A   1      42.180  26.696  27.527  1.00  0.00     0.016 A 
ATOM     28  C   UNL A   1      40.186  25.511  28.260  1.00  0.00     0.016 A 
ATOM     29  C   UNL A   1      41.906  27.729  28.417  1.00  0.00     0.010 A 
ATOM     30  C   UNL A   1      39.916  26.546  29.157  1.00  0.00     0.010 A 
ATOM     31  C   UNL A   1      40.795  27.638  29.265  1.00  0.00    -0.014 A 
BRANCH  31  32
ATOM     32  C   UNL A   1      40.641  28.605  30.375  1.00  0.00     0.031 A 
ATOM     33  C   UNL A   1      41.518  28.455  31.587  1.00  0.00     0.074 A 
ATOM     34  C   UNL A   1      39.749  29.607  30.289  1.00  0.00     0.049 A 
ATOM     35  N   UNL A   1      41.526  29.147  32.694  1.00  0.00    -0.248 NA
ATOM     36  C   UNL A   1      42.517  27.374  31.545  1.00  0.00     0.031 C 
ATOM     37  C   UNL A   1      38.874  29.864  29.146  1.00  0.00     0.029 A 
ATOM     38  N   UNL A   1      39.424  30.589  31.191  1.00  0.00    -0.354 N 
ATOM     39  C   UNL A   1      42.519  28.582  33.485  1.00  0.00     0.074 A 
ATOM     40  C   UNL A   1      43.071  27.470  32.745  1.00  0.00     0.031 C 
ATOM     41  C   UNL A   1      38.102  30.930  29.420  1.00  0.00     0.029 A 
ATOM     42  C   UNL A   1      38.404  31.406  30.768  1.00  0.00     0.049 A 
ATOM     43  H   UNL A   1      39.880  30.699  32.056  1.00  0.00     0.167 HD
ATOM     44  C   UNL A   1      42.938  28.965  34.715  1.00  0.00     0.037 A 
ATOM     45  C   UNL A   1      37.770  32.407  31.411  1.00  0.00     0.037 A 
ATOM     46  C   UNL A   1      42.379  30.077  35.439  1.00  0.00     0.049 A 
ATOM     47  C   UNL A   1      38.212  32.775  32.804  1.00  0.00     0.074 A 
ATOM     48  C   UNL A   1      42.743  30.563  36.682  1.00  0.00     0.029 A 
ATOM     49  N   UNL A   1      41.332  30.869  34.989  1.00  0.00    -0.354 N 
ATOM     50  N   UNL A   1      39.169  32.250  33.533  1.00  0.00    -0.248 NA
ATOM     51  C   UNL A   1      37.491  33.875  33.461  1.00  0.00     0.031 C 
ATOM     52  C   UNL A   1      41.880  31.616  37.007  1.00  0.00     0.029 A 
ATOM     53  C   UNL A   1      41.019  31.825  35.940  1.00  0.00     0.049 A 
ATOM     54  H   UNL A   1      40.880  30.767  34.120  1.00  0.00     0.167 HD
ATOM     55  C   UNL A   1      39.186  32.975  34.721  1.00  0.00     0.074 A 
ATOM     56  C   UNL A   1      38.149  33.980  34.607  1.00  0.00     0.031 C 
ATOM     57  C   UNL A   1      39.987  32.824  35.805  1.00  0.00     0.037 A 
BRANCH  44  58
ATOM     58  C   UNL A   1      44.031  28.160  35.362  1.00  0.00     0.058 A 
ATOM     59  C   UNL A   1      45.384  28.521  35.250  1.00  0.00     0.135 A 
ATOM     60  C   UNL A   1      43.719  27.028  36.132  1.00  0.00     0.135 A 
ATOM     61  F   UNL A   1      45.742  29.583  34.510  1.00  0.00    -0.206 F 
ATOM     62  C   UNL A   1      46.389  27.773  35.856  1.00  0.00     0.059 A 
ATOM     63  C   UNL A   1      44.705  26.282  36.771  1.00  0.00     0.059 A 
ATOM     64  F   UNL A   1      42.443  26.635  36.268  1.00  0.00    -0.206 F 
ATOM     65  C   UNL A   1      46.040  26.655  36.616  1.00  0.00     0.060 A 
BRANCH  65  66
ATOM     66  S   UNL A   1      47.355  25.701  37.402  1.00  0.00     0.124 S 
ATOM     67  O   UNL A   1      48.475  26.634  37.331  1.00  0.00    -0.237 OA
ATOM     68  O   UNL A   1      46.811  25.463  38.735  1.00  0.00    -0.237 OA
ATOM     69  O   UNL A   1      47.469  24.518  36.554  1.00  0.00    -0.744 OA
ENDBRANCH  65  66
ENDBRANCH  44  58
BRANCH  45  70
ATOM     70  C   UNL A   1      36.648  33.123  30.747  1.00  0.00     0.058 A 
ATOM     71  C   UNL A   1      36.888  34.094  29.764  1.00  0.00     0.135 A 
ATOM     72  C   UNL A   1      35.312  32.846  31.079  1.00  0.00     0.135 A 
ATOM     73  F   UNL A   1      38.147  34.402  29.418  1.00  0.00    -0.206 F 
ATOM     74  C   UNL A   1      35.846  34.776  29.144  1.00  0.00     0.059 A 
ATOM     75  C   UNL A   1      34.252  33.494  30.453  1.00  0.00     0.059 A 
ATOM     76  F   UNL A   1      35.027  31.917  32.006  1.00  0.00    -0.206 F 
ATOM     77  C   UNL A   1      34.530  34.466  29.493  1.00  0.00     0.060 A 
BRANCH  77  78
ATOM     78  S   UNL A   1      33.185  35.323  28.646  1.00  0.00     0.124 S 
ATOM     79  O   UNL A   1      33.920  36.232  27.774  1.00  0.00    -0.237 OA
ATOM     80  O   UNL A   1      32.490  34.223  27.985  1.00  0.00    -0.237 OA
ATOM     81  O   UNL A   1      32.449  35.953  29.739  1.00  0.00    -0.744 OA
ENDBRANCH  77  78
ENDBRANCH  45  70
BRANCH  57  82
ATOM     82  C   UNL A   1      39.805  33.793  36.942  1.00  0.00     0.058 A 
ATOM     83  C   UNL A   1      38.905  33.545  37.990  1.00  0.00     0.135 A 
ATOM     84  C   UNL A   1      40.588  34.958  37.011  1.00  0.00     0.135 A 
ATOM     85  F   UNL A   1      38.129  32.450  37.971  1.00  0.00    -0.206 F 
ATOM     86  C   UNL A   1      38.769  34.432  39.055  1.00  0.00     0.059 A 
ATOM     87  C   UNL A   1      40.491  35.841  38.081  1.00  0.00     0.059 A 
ATOM     88  F   UNL A   1      41.474  35.236  36.042  1.00  0.00    -0.206 F 
ATOM     89  C   UNL A   1      39.569  35.575  39.093  1.00  0.00     0.060 A 
BRANCH  89  90
ATOM     90  S   UNL A   1      39.408  36.698  40.497  1.00  0.00     0.124 S 
ATOM     91  O   UNL A   1      38.767  37.854  39.878  1.00  0.00    -0.237 OA
ATOM     92  O   UNL A   1      38.574  35.928  41.417  1.00  0.00    -0.237 OA
ATOM     93  O   UNL A   1      40.787  36.902  40.931  1.00  0.00    -0.744 OA
ENDBRANCH  89  90
ENDBRANCH  57  82
ENDBRANCH  31  32
ENDBRANCH  24  26
ENDBRANCH  23  24
ENDBRANCH  22  23
ENDBRANCH  21  22
ENDBRANCH   1  21
TORSDOF 21
ENDMDL
