MODEL 1
REMARK VINA RESULT:     -11.1      0.000      0.000
REMARK SMILES COc1c(C(=O)OCCOCCOC(=O)c2ccc(-c3c4nc(c(-c5c(F)cc(S(=O)(=O)[O-])cc5F)c5ccc([nH]5)c(-c5c(F)cc(S(=O)(=O)[O-])cc5F)c5nc(c(-c6c(F)cc(S(=O)(=O)[O-])cc6F)c6ccc3[nH]6)C=C5)C=C4)cc2)cccc1-c1cc(C)ccc1C
REMARK SMILES IDX 11 1 10 2 9 3 8 4 7 5 5 6 6 7 4 8 3 9 85 10 82 11 84 12
REMARK SMILES IDX 83 13 2 14 1 15 86 16 87 17 92 18 88 19 91 20 93 21 89 22
REMARK SMILES IDX 90 23 12 24 13 25 14 26 15 27 16 28 17 29 81 30 18 31 80 32
REMARK SMILES IDX 19 33 20 34 21 35 74 36 22 37 79 38 73 39 75 40 23 41 78 42
REMARK SMILES IDX 72 43 71 44 24 46 58 47 37 48 57 49 38 50 41 51 56 52 76 53
REMARK SMILES IDX 39 54 40 55 55 57 77 58 42 59 25 60 26 61 35 62 27 63 28 64
REMARK SMILES IDX 34 65 36 66 29 67 30 68 31 69 32 70 33 71 59 72 60 73 69 74
REMARK SMILES IDX 61 75 62 76 68 77 70 78 63 79 64 80 65 81 66 82 67 83 43 84
REMARK SMILES IDX 44 85 53 86 45 87 46 88 52 89 54 90 47 91 48 92 49 93 50 94
REMARK SMILES IDX 51 95
REMARK H PARENT 75 45 41 56
REMARK Flexibility Score: inf
ROOT
ATOM      1  C   UNL A   1      34.935  32.132  27.863  1.00  0.00     0.202 C 
ENDROOT
BRANCH   1   2
ATOM      2  O   UNL A   1      34.456  30.872  27.400  1.00  0.00    -0.374 OA
BRANCH   2   3
ATOM      3  C   UNL A   1      33.038  30.686  27.342  1.00  0.00     0.202 C 
BRANCH   3   4
ATOM      4  C   UNL A   1      32.491  30.112  26.034  1.00  0.00     0.261 C 
BRANCH   4   5
ATOM      5  O   UNL A   1      31.848  28.853  26.286  1.00  0.00    -0.460 OA
BRANCH   5   6
ATOM      6  C   UNL A   1      31.335  28.234  25.199  1.00  0.00     0.342 C 
ATOM      7  O   UNL A   1      30.880  28.770  24.200  1.00  0.00    -0.246 OA
BRANCH   6   8
ATOM      8  C   UNL A   1      31.615  26.780  25.247  1.00  0.00     0.102 A 
ATOM      9  C   UNL A   1      32.745  26.176  24.672  1.00  0.00     0.141 A 
ATOM     10  C   UNL A   1      33.031  24.818  24.951  1.00  0.00     0.025 A 
ATOM     11  C   UNL A   1      30.680  26.006  25.953  1.00  0.00     0.019 A 
ATOM     12  C   UNL A   1      32.057  24.065  25.646  1.00  0.00     0.012 A 
ATOM     13  C   UNL A   1      30.881  24.643  26.119  1.00  0.00     0.002 A 
BRANCH   9  14
ATOM     14  O   UNL A   1      33.603  26.966  23.947  1.00  0.00    -0.495 OA
ATOM     15  C   UNL A   1      33.341  26.906  22.542  1.00  0.00     0.278 C 
ENDBRANCH   9  14
BRANCH  10  16
ATOM     16  C   UNL A   1      34.335  24.172  24.660  1.00  0.00    -0.011 A 
ATOM     17  C   UNL A   1      35.398  24.309  25.582  1.00  0.00     0.012 A 
ATOM     18  C   UNL A   1      34.592  23.480  23.451  1.00  0.00    -0.043 A 
ATOM     19  C   UNL A   1      36.672  23.777  25.335  1.00  0.00    -0.050 A 
ATOM     20  C   UNL A   1      35.854  22.898  23.239  1.00  0.00     0.004 A 
ATOM     21  C   UNL A   1      33.564  23.296  22.363  1.00  0.00     0.045 C 
ATOM     22  C   UNL A   1      37.787  24.000  26.311  1.00  0.00     0.044 C 
ATOM     23  C   UNL A   1      36.884  23.051  24.164  1.00  0.00     0.004 A 
ENDBRANCH  10  16
ENDBRANCH   6   8
ENDBRANCH   5   6
ENDBRANCH   4   5
ENDBRANCH   3   4
ENDBRANCH   2   3
ENDBRANCH   1   2
BRANCH   1  24
ATOM     24  C   UNL A   1      34.949  32.354  29.380  1.00  0.00     0.261 C 
BRANCH  24  25
ATOM     25  O   UNL A   1      36.277  32.429  29.922  1.00  0.00    -0.460 OA
BRANCH  25  26
ATOM     26  C   UNL A   1      36.589  31.426  30.778  1.00  0.00     0.338 C 
ATOM     27  O   UNL A   1      35.956  31.079  31.767  1.00  0.00    -0.246 OA
BRANCH  26  28
ATOM     28  C   UNL A   1      37.745  30.664  30.275  1.00  0.00     0.060 A 
ATOM     29  C   UNL A   1      38.687  30.224  31.215  1.00  0.00     0.016 A 
ATOM     30  C   UNL A   1      37.953  30.454  28.910  1.00  0.00     0.016 A 
ATOM     31  C   UNL A   1      39.866  29.617  30.790  1.00  0.00     0.010 A 
ATOM     32  C   UNL A   1      39.143  29.852  28.485  1.00  0.00     0.010 A 
ATOM     33  C   UNL A   1      40.120  29.465  29.419  1.00  0.00    -0.014 A 
BRANCH  33  34
ATOM     34  C   UNL A   1      41.470  29.040  28.973  1.00  0.00     0.031 A 
ATOM     35  C   UNL A   1      42.581  30.055  28.944  1.00  0.00     0.074 A 
ATOM     36  C   UNL A   1      41.712  27.758  28.639  1.00  0.00     0.049 A 
ATOM     37  N   UNL A   1      43.821  29.916  28.551  1.00  0.00    -0.248 NA
ATOM     38  C   UNL A   1      42.251  31.408  29.423  1.00  0.00     0.031 C 
ATOM     39  C   UNL A   1      40.727  26.677  28.665  1.00  0.00     0.029 A 
ATOM     40  N   UNL A   1      42.864  27.152  28.207  1.00  0.00    -0.354 N 
ATOM     41  C   UNL A   1      44.420  31.156  28.743  1.00  0.00     0.074 A 
ATOM     42  C   UNL A   1      43.399  32.046  29.249  1.00  0.00     0.031 C 
ATOM     43  C   UNL A   1      41.314  25.542  28.248  1.00  0.00     0.029 A 
ATOM     44  C   UNL A   1      42.706  25.820  27.902  1.00  0.00     0.049 A 
ATOM     45  H   UNL A   1      43.724  27.626  28.122  1.00  0.00     0.167 HD
ATOM     46  C   UNL A   1      45.710  31.514  28.531  1.00  0.00     0.037 A 
ATOM     47  C   UNL A   1      43.580  24.936  27.382  1.00  0.00     0.037 A 
ATOM     48  C   UNL A   1      46.722  30.626  28.023  1.00  0.00     0.049 A 
ATOM     49  C   UNL A   1      44.994  25.378  27.094  1.00  0.00     0.074 A 
ATOM     50  C   UNL A   1      48.050  30.903  27.746  1.00  0.00     0.029 A 
ATOM     51  N   UNL A   1      46.522  29.288  27.724  1.00  0.00    -0.354 N 
ATOM     52  N   UNL A   1      45.543  26.556  27.274  1.00  0.00    -0.248 NA
ATOM     53  C   UNL A   1      45.909  24.368  26.543  1.00  0.00     0.031 C 
ATOM     54  C   UNL A   1      48.646  29.739  27.251  1.00  0.00     0.029 A 
ATOM     55  C   UNL A   1      47.701  28.725  27.263  1.00  0.00     0.049 A 
ATOM     56  H   UNL A   1      45.668  28.807  27.823  1.00  0.00     0.167 HD
ATOM     57  C   UNL A   1      46.875  26.417  26.893  1.00  0.00     0.074 A 
ATOM     58  C   UNL A   1      47.050  25.041  26.481  1.00  0.00     0.031 C 
ATOM     59  C   UNL A   1      47.864  27.345  26.884  1.00  0.00     0.037 A 
BRANCH  46  60
ATOM     60  C   UNL A   1      46.102  32.929  28.849  1.00  0.00     0.058 A 
ATOM     61  C   UNL A   1      46.564  33.291  30.125  1.00  0.00     0.135 A 
ATOM     62  C   UNL A   1      46.075  33.922  27.856  1.00  0.00     0.135 A 
ATOM     63  F   UNL A   1      46.589  32.386  31.115  1.00  0.00    -0.206 F 
ATOM     64  C   UNL A   1      46.977  34.589  30.408  1.00  0.00     0.059 A 
ATOM     65  C   UNL A   1      46.505  35.221  28.110  1.00  0.00     0.059 A 
ATOM     66  F   UNL A   1      45.638  33.630  26.621  1.00  0.00    -0.206 F 
ATOM     67  C   UNL A   1      46.947  35.546  29.392  1.00  0.00     0.060 A 
BRANCH  67  68
ATOM     68  S   UNL A   1      47.517  37.218  29.768  1.00  0.00     0.124 S 
ATOM     69  O   UNL A   1      47.696  37.772  28.429  1.00  0.00    -0.237 OA
ATOM     70  O   UNL A   1      46.401  37.763  30.535  1.00  0.00    -0.237 OA
ATOM     71  O   UNL A   1      48.745  36.998  30.524  1.00  0.00    -0.744 OA
ENDBRANCH  67  68
ENDBRANCH  46  60
BRANCH  47  72
ATOM     72  C   UNL A   1      43.149  23.547  27.070  1.00  0.00     0.058 A 
ATOM     73  C   UNL A   1      43.004  22.583  28.079  1.00  0.00     0.135 A 
ATOM     74  C   UNL A   1      42.916  23.145  25.745  1.00  0.00     0.135 A 
ATOM     75  F   UNL A   1      43.223  22.916  29.360  1.00  0.00    -0.206 F 
ATOM     76  C   UNL A   1      42.681  21.262  27.785  1.00  0.00     0.059 A 
ATOM     77  C   UNL A   1      42.564  21.837  25.428  1.00  0.00     0.059 A 
ATOM     78  F   UNL A   1      43.026  24.032  24.743  1.00  0.00    -0.206 F 
ATOM     79  C   UNL A   1      42.469  20.898  26.453  1.00  0.00     0.060 A 
BRANCH  79  80
ATOM     80  S   UNL A   1      42.050  19.182  26.076  1.00  0.00     0.124 S 
ATOM     81  O   UNL A   1      42.500  18.500  27.284  1.00  0.00    -0.237 OA
ATOM     82  O   UNL A   1      40.605  19.252  25.883  1.00  0.00    -0.237 OA
ATOM     83  O   UNL A   1      42.823  18.908  24.868  1.00  0.00    -0.744 OA
ENDBRANCH  79  80
ENDBRANCH  47  72
BRANCH  59  84
ATOM     84  C   UNL A   1      49.239  26.891  26.477  1.00  0.00     0.058 A 
ATOM     85  C   UNL A   1      50.090  26.217  27.366  1.00  0.00     0.135 A 
ATOM     86  C   UNL A   1      49.689  27.092  25.162  1.00  0.00     0.135 A 
ATOM     87  F   UNL A   1      49.710  26.001  28.635  1.00  0.00    -0.206 F 
ATOM     88  C   UNL A   1      51.352  25.783  26.973  1.00  0.00     0.059 A 
ATOM     89  C   UNL A   1      50.936  26.644  24.740  1.00  0.00     0.059 A 
ATOM     90  F   UNL A   1      48.908  27.720  24.269  1.00  0.00    -0.206 F 
ATOM     91  C   UNL A   1      51.767  26.001  25.657  1.00  0.00     0.060 A 
BRANCH  91  92
ATOM     92  S   UNL A   1      53.396  25.410  25.151  1.00  0.00     0.124 S 
ATOM     93  O   UNL A   1      53.316  25.533  23.700  1.00  0.00    -0.237 OA
ATOM     94  O   UNL A   1      54.291  26.350  25.819  1.00  0.00    -0.237 OA
ATOM     95  O   UNL A   1      53.436  24.043  25.665  1.00  0.00    -0.744 OA
ENDBRANCH  91  92
ENDBRANCH  59  84
ENDBRANCH  33  34
ENDBRANCH  26  28
ENDBRANCH  25  26
ENDBRANCH  24  25
ENDBRANCH   1  24
TORSDOF 19
ENDMDL
MODEL 2
REMARK VINA RESULT:     -10.9      0.583      8.193
REMARK SMILES COc1c(C(=O)OCCOCCOC(=O)c2ccc(-c3c4nc(c(-c5c(F)cc(S(=O)(=O)[O-])cc5F)c5ccc([nH]5)c(-c5c(F)cc(S(=O)(=O)[O-])cc5F)c5nc(c(-c6c(F)cc(S(=O)(=O)[O-])cc6F)c6ccc3[nH]6)C=C5)C=C4)cc2)cccc1-c1cc(C)ccc1C
REMARK SMILES IDX 11 1 10 2 9 3 8 4 7 5 5 6 6 7 4 8 3 9 85 10 82 11 84 12
REMARK SMILES IDX 83 13 2 14 1 15 86 16 87 17 92 18 88 19 91 20 93 21 89 22
REMARK SMILES IDX 90 23 12 24 13 25 14 26 15 27 16 28 17 29 81 30 18 31 80 32
REMARK SMILES IDX 19 33 20 34 21 35 74 36 22 37 79 38 73 39 75 40 23 41 78 42
REMARK SMILES IDX 72 43 71 44 24 46 58 47 37 48 57 49 38 50 41 51 56 52 76 53
REMARK SMILES IDX 39 54 40 55 55 57 77 58 42 59 25 60 26 61 35 62 27 63 28 64
REMARK SMILES IDX 34 65 36 66 29 67 30 68 31 69 32 70 33 71 59 72 60 73 69 74
REMARK SMILES IDX 61 75 62 76 68 77 70 78 63 79 64 80 65 81 66 82 67 83 43 84
REMARK SMILES IDX 44 85 53 86 45 87 46 88 52 89 54 90 47 91 48 92 49 93 50 94
REMARK SMILES IDX 51 95
REMARK H PARENT 75 45 41 56
REMARK Flexibility Score: inf
ROOT
ATOM      1  C   UNL A   1      35.177  32.007  27.964  1.00  0.00     0.202 C 
ENDROOT
BRANCH   1   2
ATOM      2  O   UNL A   1      34.462  30.776  27.883  1.00  0.00    -0.374 OA
BRANCH   2   3
ATOM      3  C   UNL A   1      33.157  30.808  27.295  1.00  0.00     0.202 C 
BRANCH   3   4
ATOM      4  C   UNL A   1      32.959  29.929  26.059  1.00  0.00     0.261 C 
BRANCH   4   5
ATOM      5  O   UNL A   1      32.053  28.858  26.364  1.00  0.00    -0.460 OA
BRANCH   5   6
ATOM      6  C   UNL A   1      31.487  28.251  25.297  1.00  0.00     0.342 C 
ATOM      7  O   UNL A   1      30.999  28.800  24.319  1.00  0.00    -0.246 OA
BRANCH   6   8
ATOM      8  C   UNL A   1      31.747  26.793  25.327  1.00  0.00     0.102 A 
ATOM      9  C   UNL A   1      32.863  26.181  24.735  1.00  0.00     0.141 A 
ATOM     10  C   UNL A   1      33.133  24.816  24.997  1.00  0.00     0.025 A 
ATOM     11  C   UNL A   1      30.807  26.025  26.032  1.00  0.00     0.019 A 
ATOM     12  C   UNL A   1      32.155  24.069  25.692  1.00  0.00     0.012 A 
ATOM     13  C   UNL A   1      30.991  24.658  26.183  1.00  0.00     0.002 A 
BRANCH   9  14
ATOM     14  O   UNL A   1      33.726  26.967  24.010  1.00  0.00    -0.495 OA
ATOM     15  C   UNL A   1      33.440  26.939  22.609  1.00  0.00     0.278 C 
ENDBRANCH   9  14
BRANCH  10  16
ATOM     16  C   UNL A   1      34.425  24.155  24.687  1.00  0.00    -0.011 A 
ATOM     17  C   UNL A   1      35.507  24.290  25.588  1.00  0.00     0.012 A 
ATOM     18  C   UNL A   1      34.653  23.450  23.480  1.00  0.00    -0.043 A 
ATOM     19  C   UNL A   1      36.771  23.744  25.321  1.00  0.00    -0.050 A 
ATOM     20  C   UNL A   1      35.905  22.854  23.250  1.00  0.00     0.004 A 
ATOM     21  C   UNL A   1      33.603  23.267  22.413  1.00  0.00     0.045 C 
ATOM     22  C   UNL A   1      37.906  23.965  26.275  1.00  0.00     0.044 C 
ATOM     23  C   UNL A   1      36.954  23.006  24.153  1.00  0.00     0.004 A 
ENDBRANCH  10  16
ENDBRANCH   6   8
ENDBRANCH   5   6
ENDBRANCH   4   5
ENDBRANCH   3   4
ENDBRANCH   2   3
ENDBRANCH   1   2
BRANCH   1  24
ATOM     24  C   UNL A   1      35.410  32.583  29.365  1.00  0.00     0.261 C 
BRANCH  24  25
ATOM     25  O   UNL A   1      36.737  32.338  29.857  1.00  0.00    -0.460 OA
BRANCH  25  26
ATOM     26  C   UNL A   1      36.894  31.141  30.472  1.00  0.00     0.338 C 
ATOM     27  O   UNL A   1      36.106  30.597  31.235  1.00  0.00    -0.246 OA
BRANCH  26  28
ATOM     28  C   UNL A   1      38.104  30.463  29.973  1.00  0.00     0.060 A 
ATOM     29  C   UNL A   1      39.093  30.137  30.910  1.00  0.00     0.016 A 
ATOM     30  C   UNL A   1      38.309  30.226  28.613  1.00  0.00     0.016 A 
ATOM     31  C   UNL A   1      40.314  29.619  30.484  1.00  0.00     0.010 A 
ATOM     32  C   UNL A   1      39.540  29.714  28.186  1.00  0.00     0.010 A 
ATOM     33  C   UNL A   1      40.561  29.443  29.115  1.00  0.00    -0.014 A 
BRANCH  33  34
ATOM     34  C   UNL A   1      41.935  29.120  28.659  1.00  0.00     0.031 A 
ATOM     35  C   UNL A   1      42.253  27.707  28.249  1.00  0.00     0.074 A 
ATOM     36  C   UNL A   1      42.873  30.081  28.569  1.00  0.00     0.049 A 
ATOM     37  N   UNL A   1      43.391  27.193  27.859  1.00  0.00    -0.248 NA
ATOM     38  C   UNL A   1      41.139  26.744  28.280  1.00  0.00     0.031 C 
ATOM     39  C   UNL A   1      42.673  31.491  28.900  1.00  0.00     0.029 A 
ATOM     40  N   UNL A   1      44.186  30.011  28.177  1.00  0.00    -0.354 N 
ATOM     41  C   UNL A   1      43.130  25.854  27.591  1.00  0.00     0.074 A 
ATOM     42  C   UNL A   1      41.736  25.624  27.901  1.00  0.00     0.031 C 
ATOM     43  C   UNL A   1      43.830  32.151  28.714  1.00  0.00     0.029 A 
ATOM     44  C   UNL A   1      44.856  31.207  28.277  1.00  0.00     0.049 A 
ATOM     45  H   UNL A   1      44.609  29.182  27.856  1.00  0.00     0.167 HD
ATOM     46  C   UNL A   1      43.973  24.906  27.115  1.00  0.00     0.037 A 
ATOM     47  C   UNL A   1      46.154  31.499  28.061  1.00  0.00     0.037 A 
ATOM     48  C   UNL A   1      45.361  25.138  26.812  1.00  0.00     0.049 A 
ATOM     49  C   UNL A   1      47.088  30.410  27.593  1.00  0.00     0.074 A 
ATOM     50  C   UNL A   1      46.305  24.235  26.354  1.00  0.00     0.029 A 
ATOM     51  N   UNL A   1      46.002  26.361  26.929  1.00  0.00    -0.354 N 
ATOM     52  N   UNL A   1      46.828  29.147  27.352  1.00  0.00    -0.248 NA
ATOM     53  C   UNL A   1      48.488  30.789  27.357  1.00  0.00     0.031 C 
ATOM     54  C   UNL A   1      47.525  24.906  26.222  1.00  0.00     0.029 A 
ATOM     55  C   UNL A   1      47.330  26.237  26.554  1.00  0.00     0.049 A 
ATOM     56  H   UNL A   1      45.578  27.196  27.234  1.00  0.00     0.167 HD
ATOM     57  C   UNL A   1      48.022  28.592  26.902  1.00  0.00     0.074 A 
ATOM     58  C   UNL A   1      49.002  29.657  26.897  1.00  0.00     0.031 C 
ATOM     59  C   UNL A   1      48.284  27.315  26.527  1.00  0.00     0.037 A 
BRANCH  46  60
ATOM     60  C   UNL A   1      43.419  23.528  26.891  1.00  0.00     0.058 A 
ATOM     61  C   UNL A   1      43.143  23.053  25.599  1.00  0.00     0.135 A 
ATOM     62  C   UNL A   1      43.218  22.650  27.968  1.00  0.00     0.135 A 
ATOM     63  F   UNL A   1      43.297  23.857  24.536  1.00  0.00    -0.206 F 
ATOM     64  C   UNL A   1      42.678  21.759  25.383  1.00  0.00     0.059 A 
ATOM     65  C   UNL A   1      42.776  21.345  27.775  1.00  0.00     0.059 A 
ATOM     66  F   UNL A   1      43.462  23.056  29.224  1.00  0.00    -0.206 F 
ATOM     67  C   UNL A   1      42.502  20.911  26.478  1.00  0.00     0.060 A 
BRANCH  67  68
ATOM     68  S   UNL A   1      41.929  19.225  26.179  1.00  0.00     0.124 S 
ATOM     69  O   UNL A   1      40.495  19.432  26.002  1.00  0.00    -0.237 OA
ATOM     70  O   UNL A   1      42.669  18.852  24.977  1.00  0.00    -0.237 OA
ATOM     71  O   UNL A   1      42.314  18.513  27.393  1.00  0.00    -0.744 OA
ENDBRANCH  67  68
ENDBRANCH  46  60
BRANCH  47  72
ATOM     72  C   UNL A   1      46.666  32.874  28.307  1.00  0.00     0.058 A 
ATOM     73  C   UNL A   1      47.117  33.270  29.574  1.00  0.00     0.135 A 
ATOM     74  C   UNL A   1      46.672  33.835  27.283  1.00  0.00     0.135 A 
ATOM     75  F   UNL A   1      47.124  32.391  30.588  1.00  0.00    -0.206 F 
ATOM     76  C   UNL A   1      47.519  34.578  29.831  1.00  0.00     0.059 A 
ATOM     77  C   UNL A   1      47.096  35.141  27.506  1.00  0.00     0.059 A 
ATOM     78  F   UNL A   1      46.264  33.504  26.047  1.00  0.00    -0.206 F 
ATOM     79  C   UNL A   1      47.498  35.508  28.789  1.00  0.00     0.060 A 
BRANCH  79  80
ATOM     80  S   UNL A   1      48.021  37.204  29.125  1.00  0.00     0.124 S 
ATOM     81  O   UNL A   1      49.314  37.248  28.453  1.00  0.00    -0.237 OA
ATOM     82  O   UNL A   1      46.953  37.985  28.508  1.00  0.00    -0.237 OA
ATOM     83  O   UNL A   1      48.062  37.257  30.583  1.00  0.00    -0.744 OA
ENDBRANCH  79  80
ENDBRANCH  47  72
BRANCH  59  84
ATOM     84  C   UNL A   1      49.667  27.010  26.018  1.00  0.00     0.058 A 
ATOM     85  C   UNL A   1      50.660  26.469  26.849  1.00  0.00     0.135 A 
ATOM     86  C   UNL A   1      49.984  27.218  24.666  1.00  0.00     0.135 A 
ATOM     87  F   UNL A   1      50.410  26.253  28.150  1.00  0.00    -0.206 F 
ATOM     88  C   UNL A   1      51.929  26.172  26.363  1.00  0.00     0.059 A 
ATOM     89  C   UNL A   1      51.237  26.904  24.153  1.00  0.00     0.059 A 
ATOM     90  F   UNL A   1      49.066  27.722  23.827  1.00  0.00    -0.206 F 
ATOM     91  C   UNL A   1      52.208  26.392  25.013  1.00  0.00     0.060 A 
BRANCH  91  92
ATOM     92  S   UNL A   1      53.851  25.977  24.387  1.00  0.00     0.124 S 
ATOM     93  O   UNL A   1      54.073  24.668  24.989  1.00  0.00    -0.237 OA
ATOM     94  O   UNL A   1      53.646  25.985  22.942  1.00  0.00    -0.237 OA
ATOM     95  O   UNL A   1      54.692  27.056  24.899  1.00  0.00    -0.744 OA
ENDBRANCH  91  92
ENDBRANCH  59  84
ENDBRANCH  33  34
ENDBRANCH  26  28
ENDBRANCH  25  26
ENDBRANCH  24  25
ENDBRANCH   1  24
TORSDOF 19
ENDMDL
MODEL 3
REMARK VINA RESULT:     -10.7      3.816      7.047
REMARK SMILES COc1c(C(=O)OCCOCCOC(=O)c2ccc(-c3c4nc(c(-c5c(F)cc(S(=O)(=O)[O-])cc5F)c5ccc([nH]5)c(-c5c(F)cc(S(=O)(=O)[O-])cc5F)c5nc(c(-c6c(F)cc(S(=O)(=O)[O-])cc6F)c6ccc3[nH]6)C=C5)C=C4)cc2)cccc1-c1cc(C)ccc1C
REMARK SMILES IDX 11 1 10 2 9 3 8 4 7 5 5 6 6 7 4 8 3 9 85 10 82 11 84 12
REMARK SMILES IDX 83 13 2 14 1 15 86 16 87 17 92 18 88 19 91 20 93 21 89 22
REMARK SMILES IDX 90 23 12 24 13 25 14 26 15 27 16 28 17 29 81 30 18 31 80 32
REMARK SMILES IDX 19 33 20 34 21 35 74 36 22 37 79 38 73 39 75 40 23 41 78 42
REMARK SMILES IDX 72 43 71 44 24 46 58 47 37 48 57 49 38 50 41 51 56 52 76 53
REMARK SMILES IDX 39 54 40 55 55 57 77 58 42 59 25 60 26 61 35 62 27 63 28 64
REMARK SMILES IDX 34 65 36 66 29 67 30 68 31 69 32 70 33 71 59 72 60 73 69 74
REMARK SMILES IDX 61 75 62 76 68 77 70 78 63 79 64 80 65 81 66 82 67 83 43 84
REMARK SMILES IDX 44 85 53 86 45 87 46 88 52 89 54 90 47 91 48 92 49 93 50 94
REMARK SMILES IDX 51 95
REMARK H PARENT 75 45 41 56
REMARK Flexibility Score: inf
ROOT
ATOM      1  C   UNL A   1      33.962  34.527  29.024  1.00  0.00     0.202 C 
ENDROOT
BRANCH   1   2
ATOM      2  O   UNL A   1      33.414  34.309  30.322  1.00  0.00    -0.374 OA
BRANCH   2   3
ATOM      3  C   UNL A   1      33.295  35.443  31.187  1.00  0.00     0.202 C 
BRANCH   3   4
ATOM      4  C   UNL A   1      34.159  35.414  32.449  1.00  0.00     0.261 C 
BRANCH   4   5
ATOM      5  O   UNL A   1      35.190  34.423  32.310  1.00  0.00    -0.460 OA
BRANCH   5   6
ATOM      6  C   UNL A   1      35.649  33.895  33.467  1.00  0.00     0.342 C 
ATOM      7  O   UNL A   1      34.987  33.329  34.325  1.00  0.00    -0.246 OA
BRANCH   6   8
ATOM      8  C   UNL A   1      37.130  33.860  33.473  1.00  0.00     0.102 A 
ATOM      9  C   UNL A   1      37.897  33.147  34.408  1.00  0.00     0.141 A 
ATOM     10  C   UNL A   1      39.290  33.004  34.206  1.00  0.00     0.025 A 
ATOM     11  C   UNL A   1      37.757  34.573  32.438  1.00  0.00     0.019 A 
ATOM     12  C   UNL A   1      39.890  33.753  33.168  1.00  0.00     0.012 A 
ATOM     13  C   UNL A   1      39.138  34.550  32.308  1.00  0.00     0.002 A 
BRANCH   9  14
ATOM     14  O   UNL A   1      37.241  32.509  35.432  1.00  0.00    -0.495 OA
ATOM     15  C   UNL A   1      37.345  33.219  36.670  1.00  0.00     0.278 C 
ENDBRANCH   9  14
BRANCH  10  16
ATOM     16  C   UNL A   1      40.136  32.031  34.943  1.00  0.00    -0.011 A 
ATOM     17  C   UNL A   1      40.913  32.478  36.037  1.00  0.00     0.012 A 
ATOM     18  C   UNL A   1      40.263  30.677  34.551  1.00  0.00    -0.043 A 
ATOM     19  C   UNL A   1      41.780  31.623  36.734  1.00  0.00    -0.050 A 
ATOM     20  C   UNL A   1      41.088  29.813  35.292  1.00  0.00     0.004 A 
ATOM     21  C   UNL A   1      39.528  30.078  33.378  1.00  0.00     0.045 C 
ATOM     22  C   UNL A   1      42.632  32.154  37.847  1.00  0.00     0.044 C 
ATOM     23  C   UNL A   1      41.844  30.281  36.364  1.00  0.00     0.004 A 
ENDBRANCH  10  16
ENDBRANCH   6   8
ENDBRANCH   5   6
ENDBRANCH   4   5
ENDBRANCH   3   4
ENDBRANCH   2   3
ENDBRANCH   1   2
BRANCH   1  24
ATOM     24  C   UNL A   1      34.572  33.312  28.315  1.00  0.00     0.261 C 
BRANCH  24  25
ATOM     25  O   UNL A   1      34.425  32.095  29.064  1.00  0.00    -0.460 OA
BRANCH  25  26
ATOM     26  C   UNL A   1      34.426  30.970  28.309  1.00  0.00     0.338 C 
ATOM     27  O   UNL A   1      33.548  30.600  27.540  1.00  0.00    -0.246 OA
BRANCH  26  28
ATOM     28  C   UNL A   1      35.730  30.290  28.403  1.00  0.00     0.060 A 
ATOM     29  C   UNL A   1      36.117  29.807  29.660  1.00  0.00     0.016 A 
ATOM     30  C   UNL A   1      36.595  30.199  27.311  1.00  0.00     0.016 A 
ATOM     31  C   UNL A   1      37.392  29.278  29.842  1.00  0.00     0.010 A 
ATOM     32  C   UNL A   1      37.879  29.674  27.498  1.00  0.00     0.010 A 
ATOM     33  C   UNL A   1      38.296  29.245  28.771  1.00  0.00    -0.014 A 
BRANCH  33  34
ATOM     34  C   UNL A   1      39.717  28.904  29.028  1.00  0.00     0.031 A 
ATOM     35  C   UNL A   1      40.612  29.937  29.658  1.00  0.00     0.074 A 
ATOM     36  C   UNL A   1      40.191  27.676  28.744  1.00  0.00     0.049 A 
ATOM     37  N   UNL A   1      41.890  29.871  29.933  1.00  0.00    -0.248 NA
ATOM     38  C   UNL A   1      39.984  31.217  30.029  1.00  0.00     0.031 C 
ATOM     39  C   UNL A   1      39.412  26.580  28.169  1.00  0.00     0.029 A 
ATOM     40  N   UNL A   1      41.449  27.149  28.897  1.00  0.00    -0.354 N 
ATOM     41  C   UNL A   1      42.215  31.091  30.515  1.00  0.00     0.074 A 
ATOM     42  C   UNL A   1      41.012  31.893  30.518  1.00  0.00     0.031 C 
ATOM     43  C   UNL A   1      40.215  25.516  28.001  1.00  0.00     0.029 A 
ATOM     44  C   UNL A   1      41.567  25.861  28.432  1.00  0.00     0.049 A 
ATOM     45  H   UNL A   1      42.196  27.647  29.302  1.00  0.00     0.167 HD
ATOM     46  C   UNL A   1      43.406  31.498  31.016  1.00  0.00     0.037 A 
ATOM     47  C   UNL A   1      42.650  25.063  28.344  1.00  0.00     0.037 A 
ATOM     48  C   UNL A   1      44.602  30.698  31.008  1.00  0.00     0.049 A 
ATOM     49  C   UNL A   1      43.980  25.564  28.850  1.00  0.00     0.074 A 
ATOM     50  C   UNL A   1      45.866  31.032  31.464  1.00  0.00     0.029 A 
ATOM     51  N   UNL A   1      44.683  29.401  30.525  1.00  0.00    -0.354 N 
ATOM     52  N   UNL A   1      44.273  26.723  29.391  1.00  0.00    -0.248 NA
ATOM     53  C   UNL A   1      45.123  24.646  28.744  1.00  0.00     0.031 C 
ATOM     54  C   UNL A   1      46.717  29.947  31.231  1.00  0.00     0.029 A 
ATOM     55  C   UNL A   1      45.974  28.921  30.671  1.00  0.00     0.049 A 
ATOM     56  H   UNL A   1      43.933  28.894  30.136  1.00  0.00     0.167 HD
ATOM     57  C   UNL A   1      45.623  26.657  29.722  1.00  0.00     0.074 A 
ATOM     58  C   UNL A   1      46.087  25.344  29.328  1.00  0.00     0.031 C 
ATOM     59  C   UNL A   1      46.410  27.599  30.300  1.00  0.00     0.037 A 
BRANCH  46  60
ATOM     60  C   UNL A   1      43.477  32.872  31.619  1.00  0.00     0.058 A 
ATOM     61  C   UNL A   1      43.448  33.063  33.009  1.00  0.00     0.135 A 
ATOM     62  C   UNL A   1      43.637  34.006  30.805  1.00  0.00     0.135 A 
ATOM     63  F   UNL A   1      43.276  32.017  33.832  1.00  0.00    -0.206 F 
ATOM     64  C   UNL A   1      43.565  34.330  33.572  1.00  0.00     0.059 A 
ATOM     65  C   UNL A   1      43.779  35.280  31.346  1.00  0.00     0.059 A 
ATOM     66  F   UNL A   1      43.666  33.879  29.469  1.00  0.00    -0.206 F 
ATOM     67  C   UNL A   1      43.735  35.432  32.732  1.00  0.00     0.060 A 
BRANCH  67  68
ATOM     68  S   UNL A   1      43.917  37.066  33.480  1.00  0.00     0.124 S 
ATOM     69  O   UNL A   1      44.162  37.898  32.305  1.00  0.00    -0.237 OA
ATOM     70  O   UNL A   1      42.626  37.256  34.134  1.00  0.00    -0.237 OA
ATOM     71  O   UNL A   1      45.054  36.903  34.380  1.00  0.00    -0.744 OA
ENDBRANCH  67  68
ENDBRANCH  46  60
BRANCH  47  72
ATOM     72  C   UNL A   1      42.540  23.713  27.729  1.00  0.00     0.058 A 
ATOM     73  C   UNL A   1      42.395  22.561  28.517  1.00  0.00     0.135 A 
ATOM     74  C   UNL A   1      42.623  23.545  26.337  1.00  0.00     0.135 A 
ATOM     75  F   UNL A   1      42.319  22.668  29.852  1.00  0.00    -0.206 F 
ATOM     76  C   UNL A   1      42.376  21.289  27.953  1.00  0.00     0.059 A 
ATOM     77  C   UNL A   1      42.577  22.287  25.747  1.00  0.00     0.059 A 
ATOM     78  F   UNL A   1      42.747  24.616  25.537  1.00  0.00    -0.206 F 
ATOM     79  C   UNL A   1      42.474  21.163  26.565  1.00  0.00     0.060 A 
BRANCH  79  80
ATOM     80  S   UNL A   1      42.447  19.510  25.837  1.00  0.00     0.124 S 
ATOM     81  O   UNL A   1      43.433  19.646  24.771  1.00  0.00    -0.237 OA
ATOM     82  O   UNL A   1      42.836  18.669  26.964  1.00  0.00    -0.237 OA
ATOM     83  O   UNL A   1      41.061  19.360  25.402  1.00  0.00    -0.744 OA
ENDBRANCH  79  80
ENDBRANCH  47  72
BRANCH  59  84
ATOM     84  C   UNL A   1      47.836  27.225  30.601  1.00  0.00     0.058 A 
ATOM     85  C   UNL A   1      48.201  26.611  31.809  1.00  0.00     0.135 A 
ATOM     86  C   UNL A   1      48.840  27.441  29.644  1.00  0.00     0.135 A 
ATOM     87  F   UNL A   1      47.280  26.384  32.758  1.00  0.00    -0.206 F 
ATOM     88  C   UNL A   1      49.519  26.249  32.069  1.00  0.00     0.059 A 
ATOM     89  C   UNL A   1      50.159  27.064  29.872  1.00  0.00     0.059 A 
ATOM     90  F   UNL A   1      48.541  28.013  28.467  1.00  0.00    -0.206 F 
ATOM     91  C   UNL A   1      50.492  26.480  31.093  1.00  0.00     0.060 A 
BRANCH  91  92
ATOM     92  S   UNL A   1      52.195  25.983  31.431  1.00  0.00     0.124 S 
ATOM     93  O   UNL A   1      52.596  26.966  32.431  1.00  0.00    -0.237 OA
ATOM     94  O   UNL A   1      52.031  24.615  31.915  1.00  0.00    -0.237 OA
ATOM     95  O   UNL A   1      52.849  26.106  30.131  1.00  0.00    -0.744 OA
ENDBRANCH  91  92
ENDBRANCH  59  84
ENDBRANCH  33  34
ENDBRANCH  26  28
ENDBRANCH  25  26
ENDBRANCH  24  25
ENDBRANCH   1  24
TORSDOF 19
ENDMDL
