MODEL 1
REMARK VINA RESULT:     -11.2      0.000      0.000
REMARK SMILES CC(C)Cc1cc2c(cc1Cl)C=C(C(=O)OCCOCCOC(=O)c1ccc(-c3c4nc(c(-c5c(F)cc(S(=O)(=O)[O-])cc5F)c5ccc([nH]5)c(-c5c(F)cc(S(=O)(=O)[O-])cc5F)c5nc(c(-c6c(F)cc(S(=O)(=O)[O-])cc6F)c6ccc3[nH]6)C=C5)C=C4)cc1)[C@@H](C(F)(F)F)O2
REMARK SMILES IDX 20 1 19 2 18 3 17 4 16 5 14 6 15 7 13 8 5 9 6 10 10 11 7 12
REMARK SMILES IDX 9 13 11 14 8 15 96 16 12 17 91 18 4 19 2 20 1 21 3 22 92 23
REMARK SMILES IDX 93 24 94 25 95 26 21 27 22 28 23 29 24 30 25 31 26 32 90 33
REMARK SMILES IDX 27 34 89 35 28 36 29 37 30 38 83 39 31 40 88 41 82 42 84 43
REMARK SMILES IDX 32 44 87 45 81 46 80 47 33 49 67 50 46 51 66 52 47 53 50 54
REMARK SMILES IDX 65 55 85 56 48 57 49 58 64 60 86 61 51 62 34 63 35 64 44 65
REMARK SMILES IDX 36 66 37 67 43 68 45 69 38 70 39 71 40 72 41 73 42 74 68 75
REMARK SMILES IDX 69 76 78 77 70 78 71 79 77 80 79 81 72 82 73 83 74 84 75 85
REMARK SMILES IDX 76 86 52 87 53 88 62 89 54 90 55 91 61 92 63 93 56 94 57 95
REMARK SMILES IDX 58 96 59 97 60 98
REMARK H PARENT 84 48 50 59
REMARK Flexibility Score: inf
ROOT
ATOM      1  C   UNL A   1      40.286  22.077  26.861  1.00  0.00     0.202 C 
ENDROOT
BRANCH   1   2
ATOM      2  O   UNL A   1      39.034  22.651  26.487  1.00  0.00    -0.374 OA
BRANCH   2   3
ATOM      3  C   UNL A   1      38.181  21.899  25.627  1.00  0.00     0.202 C 
BRANCH   3   4
ATOM      4  C   UNL A   1      36.669  22.046  25.828  1.00  0.00     0.261 C 
BRANCH   4   5
ATOM      5  O   UNL A   1      36.230  23.400  25.640  1.00  0.00    -0.460 OA
BRANCH   5   6
ATOM      6  C   UNL A   1      34.907  23.591  25.850  1.00  0.00     0.338 C 
ATOM      7  O   UNL A   1      34.222  23.094  26.729  1.00  0.00    -0.246 OA
BRANCH   6   8
ATOM      8  C   UNL A   1      34.406  24.642  24.946  1.00  0.00     0.087 C 
ATOM      9  C   UNL A   1      31.707  28.534  23.330  1.00  0.00    -0.025 A 
ATOM     10  C   UNL A   1      32.254  27.391  22.714  1.00  0.00     0.052 A 
ATOM     11  C   UNL A   1      32.129  28.855  24.630  1.00  0.00     0.045 A 
ATOM     12  C   UNL A   1      33.100  26.534  23.417  1.00  0.00     0.128 A 
ATOM     13  C   UNL A   1      32.944  27.976  25.345  1.00  0.00     0.032 A 
ATOM     14  Cl  UNL A   1      31.645  30.308  25.433  1.00  0.00    -0.084 Cl
ATOM     15  C   UNL A   1      33.384  26.791  24.755  1.00  0.00     0.019 A 
ATOM     16  O   UNL A   1      33.568  25.446  22.739  1.00  0.00    -0.475 OA
ATOM     17  C   UNL A   1      34.029  25.772  25.557  1.00  0.00     0.027 C 
ATOM     18  C   UNL A   1      34.311  24.417  23.462  1.00  0.00     0.316 C 
BRANCH   9  19
ATOM     19  C   UNL A   1      30.615  29.297  22.612  1.00  0.00     0.040 C 
BRANCH  19  20
ATOM     20  C   UNL A   1      29.210  29.076  23.228  1.00  0.00    -0.013 C 
ATOM     21  C   UNL A   1      28.067  29.635  22.375  1.00  0.00     0.008 C 
ATOM     22  C   UNL A   1      28.971  27.581  23.454  1.00  0.00     0.008 C 
ENDBRANCH  19  20
ENDBRANCH   9  19
BRANCH  18  23
ATOM     23  C   UNL A   1      33.695  23.061  23.083  1.00  0.00     0.430 C 
ATOM     24  F   UNL A   1      33.506  22.977  21.744  1.00  0.00    -0.167 F 
ATOM     25  F   UNL A   1      34.492  22.028  23.433  1.00  0.00    -0.167 F 
ATOM     26  F   UNL A   1      32.495  22.879  23.679  1.00  0.00    -0.167 F 
ENDBRANCH  18  23
ENDBRANCH   6   8
ENDBRANCH   5   6
ENDBRANCH   4   5
ENDBRANCH   3   4
ENDBRANCH   2   3
ENDBRANCH   1   2
BRANCH   1  27
ATOM     27  C   UNL A   1      41.555  22.612  26.186  1.00  0.00     0.261 C 
BRANCH  27  28
ATOM     28  O   UNL A   1      42.190  23.651  26.950  1.00  0.00    -0.460 OA
BRANCH  28  29
ATOM     29  C   UNL A   1      42.110  24.897  26.415  1.00  0.00     0.338 C 
ATOM     30  O   UNL A   1      42.131  25.195  25.233  1.00  0.00    -0.246 OA
BRANCH  29  31
ATOM     31  C   UNL A   1      41.780  25.850  27.489  1.00  0.00     0.060 A 
ATOM     32  C   UNL A   1      40.660  25.657  28.300  1.00  0.00     0.016 A 
ATOM     33  C   UNL A   1      42.626  26.950  27.689  1.00  0.00     0.016 A 
ATOM     34  C   UNL A   1      40.391  26.571  29.321  1.00  0.00     0.010 A 
ATOM     35  C   UNL A   1      42.350  27.864  28.705  1.00  0.00     0.010 A 
ATOM     36  C   UNL A   1      41.235  27.677  29.535  1.00  0.00    -0.014 A 
BRANCH  36  37
ATOM     37  C   UNL A   1      41.000  28.584  30.683  1.00  0.00     0.031 A 
ATOM     38  C   UNL A   1      41.829  28.489  31.931  1.00  0.00     0.074 A 
ATOM     39  C   UNL A   1      40.016  29.500  30.590  1.00  0.00     0.049 A 
ATOM     40  N   UNL A   1      41.779  29.230  33.008  1.00  0.00    -0.248 NA
ATOM     41  C   UNL A   1      42.842  27.426  31.976  1.00  0.00     0.031 C 
ATOM     42  C   UNL A   1      39.135  29.666  29.433  1.00  0.00     0.029 A 
ATOM     43  N   UNL A   1      39.596  30.461  31.472  1.00  0.00    -0.354 N 
ATOM     44  C   UNL A   1      42.766  28.739  33.854  1.00  0.00     0.074 A 
ATOM     45  C   UNL A   1      43.367  27.605  33.182  1.00  0.00     0.031 C 
ATOM     46  C   UNL A   1      38.296  30.689  29.666  1.00  0.00     0.029 A 
ATOM     47  C   UNL A   1      38.558  31.226  30.998  1.00  0.00     0.049 A 
ATOM     48  H   UNL A   1      40.000  30.591  32.360  1.00  0.00     0.167 HD
ATOM     49  C   UNL A   1      43.146  29.207  35.067  1.00  0.00     0.037 A 
ATOM     50  C   UNL A   1      37.889  32.245  31.571  1.00  0.00     0.037 A 
ATOM     51  C   UNL A   1      42.527  30.327  35.735  1.00  0.00     0.049 A 
ATOM     52  C   UNL A   1      38.293  32.706  32.944  1.00  0.00     0.074 A 
ATOM     53  C   UNL A   1      42.855  30.887  36.959  1.00  0.00     0.029 A 
ATOM     54  N   UNL A   1      41.449  31.051  35.245  1.00  0.00    -0.354 N 
ATOM     55  N   UNL A   1      39.262  32.263  33.711  1.00  0.00    -0.248 NA
ATOM     56  C   UNL A   1      37.517  33.808  33.529  1.00  0.00     0.031 C 
ATOM     57  C   UNL A   1      41.945  31.913  37.231  1.00  0.00     0.029 A 
ATOM     58  C   UNL A   1      41.084  32.034  36.153  1.00  0.00     0.049 A 
ATOM     59  H   UNL A   1      41.009  30.891  34.379  1.00  0.00     0.167 HD
ATOM     60  C   UNL A   1      39.224  33.045  34.862  1.00  0.00     0.074 A 
ATOM     61  C   UNL A   1      38.150  34.002  34.679  1.00  0.00     0.031 C 
ATOM     62  C   UNL A   1      40.006  32.976  35.967  1.00  0.00     0.037 A 
BRANCH  49  63
ATOM     63  C   UNL A   1      44.289  28.516  35.760  1.00  0.00     0.058 A 
ATOM     64  C   UNL A   1      45.617  28.930  35.572  1.00  0.00     0.135 A 
ATOM     65  C   UNL A   1      44.053  27.476  36.675  1.00  0.00     0.135 A 
ATOM     66  F   UNL A   1      45.902  29.911  34.700  1.00  0.00    -0.206 F 
ATOM     67  C   UNL A   1      46.672  28.328  36.252  1.00  0.00     0.059 A 
ATOM     68  C   UNL A   1      45.090  26.878  37.387  1.00  0.00     0.059 A 
ATOM     69  F   UNL A   1      42.802  27.040  36.895  1.00  0.00    -0.206 F 
ATOM     70  C   UNL A   1      46.397  27.306  37.161  1.00  0.00     0.060 A 
BRANCH  70  71
ATOM     71  S   UNL A   1      47.778  26.552  38.049  1.00  0.00     0.124 S 
ATOM     72  O   UNL A   1      48.813  26.541  37.020  1.00  0.00    -0.237 OA
ATOM     73  O   UNL A   1      47.987  27.488  39.149  1.00  0.00    -0.237 OA
ATOM     74  O   UNL A   1      47.263  25.242  38.431  1.00  0.00    -0.744 OA
ENDBRANCH  70  71
ENDBRANCH  49  63
BRANCH  50  75
ATOM     75  C   UNL A   1      36.786  32.913  30.831  1.00  0.00     0.058 A 
ATOM     76  C   UNL A   1      35.446  32.614  31.112  1.00  0.00     0.135 A 
ATOM     77  C   UNL A   1      37.049  33.882  29.850  1.00  0.00     0.135 A 
ATOM     78  F   UNL A   1      35.144  31.689  32.036  1.00  0.00    -0.206 F 
ATOM     79  C   UNL A   1      34.403  33.245  30.442  1.00  0.00     0.059 A 
ATOM     80  C   UNL A   1      36.024  34.547  29.186  1.00  0.00     0.059 A 
ATOM     81  F   UNL A   1      38.316  34.213  29.554  1.00  0.00    -0.206 F 
ATOM     82  C   UNL A   1      34.704  34.216  29.484  1.00  0.00     0.060 A 
BRANCH  82  83
ATOM     83  S   UNL A   1      33.339  35.068  28.664  1.00  0.00     0.124 S 
ATOM     84  O   UNL A   1      32.521  35.475  29.800  1.00  0.00    -0.237 OA
ATOM     85  O   UNL A   1      34.033  36.143  27.960  1.00  0.00    -0.237 OA
ATOM     86  O   UNL A   1      32.763  34.036  27.808  1.00  0.00    -0.744 OA
ENDBRANCH  82  83
ENDBRANCH  50  75
BRANCH  62  87
ATOM     87  C   UNL A   1      39.740  33.969  37.066  1.00  0.00     0.058 A 
ATOM     88  C   UNL A   1      38.946  33.644  38.178  1.00  0.00     0.135 A 
ATOM     89  C   UNL A   1      40.317  35.250  37.028  1.00  0.00     0.135 A 
ATOM     90  F   UNL A   1      38.366  32.437  38.264  1.00  0.00    -0.206 F 
ATOM     91  C   UNL A   1      38.710  34.561  39.197  1.00  0.00     0.059 A 
ATOM     92  C   UNL A   1      40.119  36.173  38.051  1.00  0.00     0.059 A 
ATOM     93  F   UNL A   1      41.093  35.611  35.994  1.00  0.00    -0.206 F 
ATOM     94  C   UNL A   1      39.301  35.824  39.124  1.00  0.00     0.060 A 
BRANCH  94  95
ATOM     95  S   UNL A   1      38.997  36.997  40.464  1.00  0.00     0.124 S 
ATOM     96  O   UNL A   1      38.302  38.071  39.762  1.00  0.00    -0.237 OA
ATOM     97  O   UNL A   1      38.183  36.211  41.385  1.00  0.00    -0.237 OA
ATOM     98  O   UNL A   1      40.337  37.324  40.941  1.00  0.00    -0.744 OA
ENDBRANCH  94  95
ENDBRANCH  62  87
ENDBRANCH  36  37
ENDBRANCH  29  31
ENDBRANCH  28  29
ENDBRANCH  27  28
ENDBRANCH   1  27
TORSDOF 20
ENDMDL
MODEL 2
REMARK VINA RESULT:     -11.2      1.611      2.403
REMARK SMILES CC(C)Cc1cc2c(cc1Cl)C=C(C(=O)OCCOCCOC(=O)c1ccc(-c3c4nc(c(-c5c(F)cc(S(=O)(=O)[O-])cc5F)c5ccc([nH]5)c(-c5c(F)cc(S(=O)(=O)[O-])cc5F)c5nc(c(-c6c(F)cc(S(=O)(=O)[O-])cc6F)c6ccc3[nH]6)C=C5)C=C4)cc1)[C@@H](C(F)(F)F)O2
REMARK SMILES IDX 20 1 19 2 18 3 17 4 16 5 14 6 15 7 13 8 5 9 6 10 10 11 7 12
REMARK SMILES IDX 9 13 11 14 8 15 96 16 12 17 91 18 4 19 2 20 1 21 3 22 92 23
REMARK SMILES IDX 93 24 94 25 95 26 21 27 22 28 23 29 24 30 25 31 26 32 90 33
REMARK SMILES IDX 27 34 89 35 28 36 29 37 30 38 83 39 31 40 88 41 82 42 84 43
REMARK SMILES IDX 32 44 87 45 81 46 80 47 33 49 67 50 46 51 66 52 47 53 50 54
REMARK SMILES IDX 65 55 85 56 48 57 49 58 64 60 86 61 51 62 34 63 35 64 44 65
REMARK SMILES IDX 36 66 37 67 43 68 45 69 38 70 39 71 40 72 41 73 42 74 68 75
REMARK SMILES IDX 69 76 78 77 70 78 71 79 77 80 79 81 72 82 73 83 74 84 75 85
REMARK SMILES IDX 76 86 52 87 53 88 62 89 54 90 55 91 61 92 63 93 56 94 57 95
REMARK SMILES IDX 58 96 59 97 60 98
REMARK H PARENT 84 48 50 59
REMARK Flexibility Score: inf
ROOT
ATOM      1  C   UNL A   1      39.774  21.401  26.367  1.00  0.00     0.202 C 
ENDROOT
BRANCH   1   2
ATOM      2  O   UNL A   1      38.522  21.844  25.844  1.00  0.00    -0.374 OA
BRANCH   2   3
ATOM      3  C   UNL A   1      37.812  20.969  24.969  1.00  0.00     0.202 C 
BRANCH   3   4
ATOM      4  C   UNL A   1      36.323  20.745  25.252  1.00  0.00     0.261 C 
BRANCH   4   5
ATOM      5  O   UNL A   1      35.487  21.362  24.261  1.00  0.00    -0.460 OA
BRANCH   5   6
ATOM      6  C   UNL A   1      34.163  21.307  24.537  1.00  0.00     0.338 C 
ATOM      7  O   UNL A   1      33.479  20.304  24.667  1.00  0.00    -0.246 OA
BRANCH   6   8
ATOM      8  C   UNL A   1      33.660  22.659  24.833  1.00  0.00     0.087 C 
ATOM      9  C   UNL A   1      33.374  27.655  24.821  1.00  0.00    -0.025 A 
ATOM     10  C   UNL A   1      33.052  26.654  25.758  1.00  0.00     0.052 A 
ATOM     11  C   UNL A   1      33.639  27.270  23.498  1.00  0.00     0.045 A 
ATOM     12  C   UNL A   1      33.114  25.304  25.411  1.00  0.00     0.128 A 
ATOM     13  C   UNL A   1      33.739  25.918  23.164  1.00  0.00     0.032 A 
ATOM     14  Cl  UNL A   1      33.899  28.415  22.229  1.00  0.00    -0.084 Cl
ATOM     15  C   UNL A   1      33.529  24.938  24.134  1.00  0.00     0.019 A 
ATOM     16  O   UNL A   1      32.799  24.407  26.391  1.00  0.00    -0.475 OA
ATOM     17  C   UNL A   1      33.855  23.555  23.857  1.00  0.00     0.027 C 
ATOM     18  C   UNL A   1      33.012  22.982  26.152  1.00  0.00     0.316 C 
BRANCH   9  19
ATOM     19  C   UNL A   1      33.524  29.082  25.304  1.00  0.00     0.040 C 
BRANCH  19  20
ATOM     20  C   UNL A   1      33.574  29.202  26.849  1.00  0.00    -0.013 C 
ATOM     21  C   UNL A   1      34.994  29.304  27.415  1.00  0.00     0.008 C 
ATOM     22  C   UNL A   1      32.773  30.426  27.301  1.00  0.00     0.008 C 
ENDBRANCH  19  20
ENDBRANCH   9  19
BRANCH  18  23
ATOM     23  C   UNL A   1      33.776  22.428  27.365  1.00  0.00     0.430 C 
ATOM     24  F   UNL A   1      33.746  21.075  27.375  1.00  0.00    -0.167 F 
ATOM     25  F   UNL A   1      35.078  22.792  27.353  1.00  0.00    -0.167 F 
ATOM     26  F   UNL A   1      33.238  22.860  28.529  1.00  0.00    -0.167 F 
ENDBRANCH  18  23
ENDBRANCH   6   8
ENDBRANCH   5   6
ENDBRANCH   4   5
ENDBRANCH   3   4
ENDBRANCH   2   3
ENDBRANCH   1   2
BRANCH   1  27
ATOM     27  C   UNL A   1      40.936  22.401  26.402  1.00  0.00     0.261 C 
BRANCH  27  28
ATOM     28  O   UNL A   1      40.488  23.763  26.492  1.00  0.00    -0.460 OA
BRANCH  28  29
ATOM     29  C   UNL A   1      41.469  24.702  26.436  1.00  0.00     0.338 C 
ATOM     30  O   UNL A   1      42.318  24.832  25.571  1.00  0.00    -0.246 OA
BRANCH  29  31
ATOM     31  C   UNL A   1      41.229  25.697  27.496  1.00  0.00     0.060 A 
ATOM     32  C   UNL A   1      40.115  25.599  28.332  1.00  0.00     0.016 A 
ATOM     33  C   UNL A   1      42.154  26.736  27.658  1.00  0.00     0.016 A 
ATOM     34  C   UNL A   1      39.932  26.550  29.339  1.00  0.00     0.010 A 
ATOM     35  C   UNL A   1      41.965  27.687  28.660  1.00  0.00     0.010 A 
ATOM     36  C   UNL A   1      40.856  27.596  29.515  1.00  0.00    -0.014 A 
BRANCH  36  37
ATOM     37  C   UNL A   1      40.709  28.540  30.648  1.00  0.00     0.031 A 
ATOM     38  C   UNL A   1      41.594  28.446  31.856  1.00  0.00     0.074 A 
ATOM     39  C   UNL A   1      39.754  29.487  30.578  1.00  0.00     0.049 A 
ATOM     40  N   UNL A   1      41.623  29.215  32.914  1.00  0.00    -0.248 NA
ATOM     41  C   UNL A   1      42.572  27.349  31.881  1.00  0.00     0.031 C 
ATOM     42  C   UNL A   1      38.823  29.656  29.461  1.00  0.00     0.029 A 
ATOM     43  N   UNL A   1      39.411  30.484  31.454  1.00  0.00    -0.354 N 
ATOM     44  C   UNL A   1      42.633  28.710  33.725  1.00  0.00     0.074 A 
ATOM     45  C   UNL A   1      43.160  27.539  33.056  1.00  0.00     0.031 C 
ATOM     46  C   UNL A   1      38.033  30.714  29.706  1.00  0.00     0.029 A 
ATOM     47  C   UNL A   1      38.378  31.274  31.010  1.00  0.00     0.049 A 
ATOM     48  H   UNL A   1      39.862  30.622  32.317  1.00  0.00     0.167 HD
ATOM     49  C   UNL A   1      43.088  29.195  34.906  1.00  0.00     0.037 A 
ATOM     50  C   UNL A   1      37.774  32.330  31.587  1.00  0.00     0.037 A 
ATOM     51  C   UNL A   1      42.542  30.352  35.572  1.00  0.00     0.049 A 
ATOM     52  C   UNL A   1      38.260  32.811  32.926  1.00  0.00     0.074 A 
ATOM     53  C   UNL A   1      42.948  30.930  36.764  1.00  0.00     0.029 A 
ATOM     54  N   UNL A   1      41.467  31.102  35.116  1.00  0.00    -0.354 N 
ATOM     55  N   UNL A   1      39.250  32.353  33.658  1.00  0.00    -0.248 NA
ATOM     56  C   UNL A   1      37.553  33.954  33.518  1.00  0.00     0.031 C 
ATOM     57  C   UNL A   1      42.089  31.995  37.052  1.00  0.00     0.029 A 
ATOM     58  C   UNL A   1      41.181  32.119  36.014  1.00  0.00     0.049 A 
ATOM     59  H   UNL A   1      40.979  30.936  34.277  1.00  0.00     0.167 HD
ATOM     60  C   UNL A   1      39.295  33.164  34.787  1.00  0.00     0.074 A 
ATOM     61  C   UNL A   1      38.248  34.154  34.631  1.00  0.00     0.031 C 
ATOM     62  C   UNL A   1      40.128  33.094  35.855  1.00  0.00     0.037 A 
BRANCH  49  63
ATOM     63  C   UNL A   1      44.239  28.480  35.560  1.00  0.00     0.058 A 
ATOM     64  C   UNL A   1      44.027  27.433  36.471  1.00  0.00     0.135 A 
ATOM     65  C   UNL A   1      45.567  28.794  35.223  1.00  0.00     0.135 A 
ATOM     66  F   UNL A   1      42.780  27.098  36.839  1.00  0.00    -0.206 F 
ATOM     67  C   UNL A   1      45.089  26.733  37.037  1.00  0.00     0.059 A 
ATOM     68  C   UNL A   1      46.644  28.090  35.757  1.00  0.00     0.059 A 
ATOM     69  F   UNL A   1      45.828  29.786  34.358  1.00  0.00    -0.206 F 
ATOM     70  C   UNL A   1      46.394  27.067  36.670  1.00  0.00     0.060 A 
BRANCH  70  71
ATOM     71  S   UNL A   1      47.756  26.133  37.401  1.00  0.00     0.124 S 
ATOM     72  O   UNL A   1      48.450  25.651  36.211  1.00  0.00    -0.237 OA
ATOM     73  O   UNL A   1      48.454  27.156  38.172  1.00  0.00    -0.237 OA
ATOM     74  O   UNL A   1      47.082  25.107  38.190  1.00  0.00    -0.744 OA
ENDBRANCH  70  71
ENDBRANCH  49  63
BRANCH  50  75
ATOM     75  C   UNL A   1      36.659  33.019  30.884  1.00  0.00     0.058 A 
ATOM     76  C   UNL A   1      35.329  32.831  31.285  1.00  0.00     0.135 A 
ATOM     77  C   UNL A   1      36.904  33.897  29.816  1.00  0.00     0.135 A 
ATOM     78  F   UNL A   1      35.045  31.995  32.295  1.00  0.00    -0.206 F 
ATOM     79  C   UNL A   1      34.279  33.484  30.649  1.00  0.00     0.059 A 
ATOM     80  C   UNL A   1      35.873  34.582  29.182  1.00  0.00     0.059 A 
ATOM     81  F   UNL A   1      38.162  34.120  29.403  1.00  0.00    -0.206 F 
ATOM     82  C   UNL A   1      34.562  34.363  29.602  1.00  0.00     0.060 A 
BRANCH  82  83
ATOM     83  S   UNL A   1      33.193  35.248  28.825  1.00  0.00     0.124 S 
ATOM     84  O   UNL A   1      33.895  36.301  28.102  1.00  0.00    -0.237 OA
ATOM     85  O   UNL A   1      32.586  34.205  28.003  1.00  0.00    -0.237 OA
ATOM     86  O   UNL A   1      32.390  35.689  29.961  1.00  0.00    -0.744 OA
ENDBRANCH  82  83
ENDBRANCH  50  75
BRANCH  62  87
ATOM     87  C   UNL A   1      39.951  34.124  36.939  1.00  0.00     0.058 A 
ATOM     88  C   UNL A   1      40.428  35.437  36.794  1.00  0.00     0.135 A 
ATOM     89  C   UNL A   1      39.261  33.806  38.121  1.00  0.00     0.135 A 
ATOM     90  F   UNL A   1      41.099  35.793  35.688  1.00  0.00    -0.206 F 
ATOM     91  C   UNL A   1      40.254  36.389  37.793  1.00  0.00     0.059 A 
ATOM     92  C   UNL A   1      39.048  34.751  39.121  1.00  0.00     0.059 A 
ATOM     93  F   UNL A   1      38.774  32.569  38.308  1.00  0.00    -0.206 F 
ATOM     94  C   UNL A   1      39.562  36.036  38.953  1.00  0.00     0.060 A 
BRANCH  94  95
ATOM     95  S   UNL A   1      39.331  37.289  40.234  1.00  0.00     0.124 S 
ATOM     96  O   UNL A   1      38.804  38.408  39.460  1.00  0.00    -0.237 OA
ATOM     97  O   UNL A   1      38.384  36.640  41.136  1.00  0.00    -0.237 OA
ATOM     98  O   UNL A   1      40.674  37.476  40.773  1.00  0.00    -0.744 OA
ENDBRANCH  94  95
ENDBRANCH  62  87
ENDBRANCH  36  37
ENDBRANCH  29  31
ENDBRANCH  28  29
ENDBRANCH  27  28
ENDBRANCH   1  27
TORSDOF 20
ENDMDL
MODEL 3
REMARK VINA RESULT:     -11.1      6.611     11.998
REMARK SMILES CC(C)Cc1cc2c(cc1Cl)C=C(C(=O)OCCOCCOC(=O)c1ccc(-c3c4nc(c(-c5c(F)cc(S(=O)(=O)[O-])cc5F)c5ccc([nH]5)c(-c5c(F)cc(S(=O)(=O)[O-])cc5F)c5nc(c(-c6c(F)cc(S(=O)(=O)[O-])cc6F)c6ccc3[nH]6)C=C5)C=C4)cc1)[C@@H](C(F)(F)F)O2
REMARK SMILES IDX 20 1 19 2 18 3 17 4 16 5 14 6 15 7 13 8 5 9 6 10 10 11 7 12
REMARK SMILES IDX 9 13 11 14 8 15 96 16 12 17 91 18 4 19 2 20 1 21 3 22 92 23
REMARK SMILES IDX 93 24 94 25 95 26 21 27 22 28 23 29 24 30 25 31 26 32 90 33
REMARK SMILES IDX 27 34 89 35 28 36 29 37 30 38 83 39 31 40 88 41 82 42 84 43
REMARK SMILES IDX 32 44 87 45 81 46 80 47 33 49 67 50 46 51 66 52 47 53 50 54
REMARK SMILES IDX 65 55 85 56 48 57 49 58 64 60 86 61 51 62 34 63 35 64 44 65
REMARK SMILES IDX 36 66 37 67 43 68 45 69 38 70 39 71 40 72 41 73 42 74 68 75
REMARK SMILES IDX 69 76 78 77 70 78 71 79 77 80 79 81 72 82 73 83 74 84 75 85
REMARK SMILES IDX 76 86 52 87 53 88 62 89 54 90 55 91 61 92 63 93 56 94 57 95
REMARK SMILES IDX 58 96 59 97 60 98
REMARK H PARENT 84 48 50 59
REMARK Flexibility Score: inf
ROOT
ATOM      1  C   UNL A   1      33.944  30.170  26.884  1.00  0.00     0.202 C 
ENDROOT
BRANCH   1   2
ATOM      2  O   UNL A   1      32.941  29.181  27.118  1.00  0.00    -0.374 OA
BRANCH   2   3
ATOM      3  C   UNL A   1      32.101  28.805  26.028  1.00  0.00     0.202 C 
BRANCH   3   4
ATOM      4  C   UNL A   1      32.777  28.519  24.683  1.00  0.00     0.261 C 
BRANCH   4   5
ATOM      5  O   UNL A   1      33.679  27.404  24.760  1.00  0.00    -0.460 OA
BRANCH   5   6
ATOM      6  C   UNL A   1      33.605  26.556  23.708  1.00  0.00     0.338 C 
ATOM      7  O   UNL A   1      33.748  26.832  22.528  1.00  0.00    -0.246 OA
BRANCH   6   8
ATOM      8  C   UNL A   1      33.485  25.170  24.195  1.00  0.00     0.087 C 
ATOM      9  C   UNL A   1      34.492  20.301  24.759  1.00  0.00    -0.025 A 
ATOM     10  C   UNL A   1      33.312  21.070  24.774  1.00  0.00     0.052 A 
ATOM     11  C   UNL A   1      35.724  20.971  24.818  1.00  0.00     0.045 A 
ATOM     12  C   UNL A   1      33.365  22.463  24.726  1.00  0.00     0.128 A 
ATOM     13  C   UNL A   1      35.775  22.363  24.729  1.00  0.00     0.032 A 
ATOM     14  Cl  UNL A   1      37.232  20.136  24.954  1.00  0.00    -0.084 Cl
ATOM     15  C   UNL A   1      34.597  23.103  24.630  1.00  0.00     0.019 A 
ATOM     16  O   UNL A   1      32.168  23.120  24.730  1.00  0.00    -0.475 OA
ATOM     17  C   UNL A   1      34.647  24.514  24.306  1.00  0.00     0.027 C 
ATOM     18  C   UNL A   1      32.144  24.563  24.504  1.00  0.00     0.316 C 
BRANCH   9  19
ATOM     19  C   UNL A   1      34.382  18.803  24.572  1.00  0.00     0.040 C 
BRANCH  19  20
ATOM     20  C   UNL A   1      32.963  18.342  24.155  1.00  0.00    -0.013 C 
ATOM     21  C   UNL A   1      32.912  17.663  22.783  1.00  0.00     0.008 C 
ATOM     22  C   UNL A   1      32.400  17.378  25.203  1.00  0.00     0.008 C 
ENDBRANCH  19  20
ENDBRANCH   9  19
BRANCH  18  23
ATOM     23  C   UNL A   1      31.082  24.834  23.426  1.00  0.00     0.430 C 
ATOM     24  F   UNL A   1      30.481  26.030  23.635  1.00  0.00    -0.167 F 
ATOM     25  F   UNL A   1      31.618  24.875  22.187  1.00  0.00    -0.167 F 
ATOM     26  F   UNL A   1      30.119  23.884  23.429  1.00  0.00    -0.167 F 
ENDBRANCH  18  23
ENDBRANCH   6   8
ENDBRANCH   5   6
ENDBRANCH   4   5
ENDBRANCH   3   4
ENDBRANCH   2   3
ENDBRANCH   1   2
BRANCH   1  27
ATOM     27  C   UNL A   1      34.677  30.756  28.097  1.00  0.00     0.261 C 
BRANCH  27  28
ATOM     28  O   UNL A   1      35.551  29.804  28.725  1.00  0.00    -0.460 OA
BRANCH  28  29
ATOM     29  C   UNL A   1      36.337  30.303  29.715  1.00  0.00     0.338 C 
ATOM     30  O   UNL A   1      35.975  30.758  30.787  1.00  0.00    -0.246 OA
BRANCH  29  31
ATOM     31  C   UNL A   1      37.745  30.020  29.385  1.00  0.00     0.060 A 
ATOM     32  C   UNL A   1      38.708  29.906  30.389  1.00  0.00     0.016 A 
ATOM     33  C   UNL A   1      38.095  29.852  28.038  1.00  0.00     0.016 A 
ATOM     34  C   UNL A   1      40.029  29.617  30.039  1.00  0.00     0.010 A 
ATOM     35  C   UNL A   1      39.416  29.570  27.692  1.00  0.00     0.010 A 
ATOM     36  C   UNL A   1      40.392  29.442  28.690  1.00  0.00    -0.014 A 
BRANCH  36  37
ATOM     37  C   UNL A   1      41.772  29.036  28.336  1.00  0.00     0.031 A 
ATOM     38  C   UNL A   1      42.897  30.030  28.331  1.00  0.00     0.074 A 
ATOM     39  C   UNL A   1      42.002  27.750  28.009  1.00  0.00     0.049 A 
ATOM     40  N   UNL A   1      44.166  29.832  28.083  1.00  0.00    -0.248 NA
ATOM     41  C   UNL A   1      42.553  31.425  28.642  1.00  0.00     0.031 C 
ATOM     42  C   UNL A   1      40.979  26.703  27.960  1.00  0.00     0.029 A 
ATOM     43  N   UNL A   1      43.160  27.103  27.664  1.00  0.00    -0.354 N 
ATOM     44  C   UNL A   1      44.780  31.070  28.228  1.00  0.00     0.074 A 
ATOM     45  C   UNL A   1      43.733  32.022  28.538  1.00  0.00     0.031 C 
ATOM     46  C   UNL A   1      41.562  25.538  27.632  1.00  0.00     0.029 A 
ATOM     47  C   UNL A   1      42.988  25.762  27.415  1.00  0.00     0.049 A 
ATOM     48  H   UNL A   1      44.032  27.555  27.600  1.00  0.00     0.167 HD
ATOM     49  C   UNL A   1      46.097  31.376  28.131  1.00  0.00     0.037 A 
ATOM     50  C   UNL A   1      43.878  24.818  27.053  1.00  0.00     0.037 A 
ATOM     51  C   UNL A   1      47.128  30.422  27.803  1.00  0.00     0.049 A 
ATOM     52  C   UNL A   1      45.324  25.197  26.894  1.00  0.00     0.074 A 
ATOM     53  C   UNL A   1      48.493  30.633  27.699  1.00  0.00     0.029 A 
ATOM     54  N   UNL A   1      46.913  29.081  27.515  1.00  0.00    -0.354 N 
ATOM     55  N   UNL A   1      45.897  26.363  27.082  1.00  0.00    -0.248 NA
ATOM     56  C   UNL A   1      46.247  24.133  26.478  1.00  0.00     0.031 C 
ATOM     57  C   UNL A   1      49.094  29.435  27.298  1.00  0.00     0.029 A 
ATOM     58  C   UNL A   1      48.114  28.461  27.208  1.00  0.00     0.049 A 
ATOM     59  H   UNL A   1      46.035  28.636  27.527  1.00  0.00     0.167 HD
ATOM     60  C   UNL A   1      47.250  26.168  26.826  1.00  0.00     0.074 A 
ATOM     61  C   UNL A   1      47.412  24.767  26.491  1.00  0.00     0.031 C 
ATOM     62  C   UNL A   1      48.265  27.067  26.865  1.00  0.00     0.037 A 
BRANCH  49  63
ATOM     63  C   UNL A   1      46.507  32.801  28.385  1.00  0.00     0.058 A 
ATOM     64  C   UNL A   1      46.513  33.755  27.355  1.00  0.00     0.135 A 
ATOM     65  C   UNL A   1      46.829  33.237  29.681  1.00  0.00     0.135 A 
ATOM     66  F   UNL A   1      46.225  33.391  26.095  1.00  0.00    -0.206 F 
ATOM     67  C   UNL A   1      46.840  35.086  27.597  1.00  0.00     0.059 A 
ATOM     68  C   UNL A   1      47.133  34.569  29.951  1.00  0.00     0.059 A 
ATOM     69  F   UNL A   1      46.839  32.368  30.704  1.00  0.00    -0.206 F 
ATOM     70  C   UNL A   1      47.144  35.484  28.899  1.00  0.00     0.060 A 
BRANCH  70  71
ATOM     71  S   UNL A   1      47.545  37.220  29.195  1.00  0.00     0.124 S 
ATOM     72  O   UNL A   1      48.984  37.233  28.948  1.00  0.00    -0.237 OA
ATOM     73  O   UNL A   1      46.725  37.902  28.198  1.00  0.00    -0.237 OA
ATOM     74  O   UNL A   1      47.147  37.431  30.583  1.00  0.00    -0.744 OA
ENDBRANCH  70  71
ENDBRANCH  49  63
BRANCH  50  75
ATOM     75  C   UNL A   1      43.423  23.418  26.842  1.00  0.00     0.058 A 
ATOM     76  C   UNL A   1      43.421  22.846  25.562  1.00  0.00     0.135 A 
ATOM     77  C   UNL A   1      43.010  22.617  27.919  1.00  0.00     0.135 A 
ATOM     78  F   UNL A   1      43.800  23.575  24.501  1.00  0.00    -0.206 F 
ATOM     79  C   UNL A   1      43.018  21.532  25.354  1.00  0.00     0.059 A 
ATOM     80  C   UNL A   1      42.629  21.291  27.739  1.00  0.00     0.059 A 
ATOM     81  F   UNL A   1      43.008  23.114  29.166  1.00  0.00    -0.206 F 
ATOM     82  C   UNL A   1      42.630  20.760  26.451  1.00  0.00     0.060 A 
BRANCH  82  83
ATOM     83  S   UNL A   1      42.165  19.038  26.172  1.00  0.00     0.124 S 
ATOM     84  O   UNL A   1      42.489  18.433  27.458  1.00  0.00    -0.237 OA
ATOM     85  O   UNL A   1      40.744  19.154  25.860  1.00  0.00    -0.237 OA
ATOM     86  O   UNL A   1      43.014  18.637  25.054  1.00  0.00    -0.744 OA
ENDBRANCH  82  83
ENDBRANCH  50  75
BRANCH  62  87
ATOM     87  C   UNL A   1      49.647  26.564  26.547  1.00  0.00     0.058 A 
ATOM     88  C   UNL A   1      50.470  25.994  27.532  1.00  0.00     0.135 A 
ATOM     89  C   UNL A   1      50.142  26.615  25.232  1.00  0.00     0.135 A 
ATOM     90  F   UNL A   1      50.050  25.926  28.805  1.00  0.00    -0.206 F 
ATOM     91  C   UNL A   1      51.744  25.521  27.233  1.00  0.00     0.059 A 
ATOM     92  C   UNL A   1      51.401  26.119  24.905  1.00  0.00     0.059 A 
ATOM     93  F   UNL A   1      49.395  27.139  24.248  1.00  0.00    -0.206 F 
ATOM     94  C   UNL A   1      52.200  25.588  25.916  1.00  0.00     0.060 A 
BRANCH  94  95
ATOM     95  S   UNL A   1      53.850  24.954  25.542  1.00  0.00     0.124 S 
ATOM     96  O   UNL A   1      54.187  25.704  24.336  1.00  0.00    -0.237 OA
ATOM     97  O   UNL A   1      54.599  25.313  26.742  1.00  0.00    -0.237 OA
ATOM     98  O   UNL A   1      53.630  23.524  25.350  1.00  0.00    -0.744 OA
ENDBRANCH  94  95
ENDBRANCH  62  87
ENDBRANCH  36  37
ENDBRANCH  29  31
ENDBRANCH  28  29
ENDBRANCH  27  28
ENDBRANCH   1  27
TORSDOF 20
ENDMDL
