MODEL 1
REMARK VINA RESULT:     -10.2      0.000      0.000
REMARK SMILES O=C(N[C@@H](CS)C(=O)N[C@@H](CO)C(=O)OCCOCCOC(=O)c1ccc(-c2c3nc(c(-c4c(F)cc(S(=O)(=O)[O-])cc4F)c4ccc([nH]4)c(-c4c(F)cc(S(=O)(=O)[O-])cc4F)c4nc(c(-c5c(F)cc(S(=O)(=O)[O-])cc5F)c5ccc2[nH]5)C=C4)C=C3)cc1)c1ccc(F)cc1
REMARK SMILES IDX 17 1 16 2 15 3 13 4 14 5 10 6 9 7 7 8 8 9 4 11 3 12 1 13
REMARK SMILES IDX 2 14 90 16 91 17 96 18 92 19 95 20 93 21 94 22 5 23 6 24
REMARK SMILES IDX 11 26 12 27 18 29 19 30 20 31 21 32 22 33 23 34 24 35 25 36
REMARK SMILES IDX 89 37 26 38 88 39 27 40 28 41 29 42 82 43 30 44 87 45 81 46
REMARK SMILES IDX 83 47 31 48 86 49 80 50 79 51 32 53 66 54 45 55 65 56 46 57
REMARK SMILES IDX 49 58 64 59 84 60 47 61 48 62 63 64 85 65 50 66 33 67 34 68
REMARK SMILES IDX 43 69 35 70 36 71 42 72 44 73 37 74 38 75 39 76 40 77 41 78
REMARK SMILES IDX 67 79 68 80 77 81 69 82 70 83 76 84 78 85 71 86 72 87 73 88
REMARK SMILES IDX 74 89 75 90 51 91 52 92 61 93 53 94 54 95 60 96 62 97 55 98
REMARK SMILES IDX 56 99 57 100 58 101 59 102
REMARK H PARENT 9 10 3 15 6 25 12 28 83 52 49 63
REMARK Flexibility Score: inf
ROOT
ATOM      1  C   UNL A   1      32.561  28.309  27.322  1.00  0.00     0.202 C 
ENDROOT
BRANCH   1   2
ATOM      2  C   UNL A   1      31.417  27.562  26.632  1.00  0.00     0.261 C 
BRANCH   2   3
ATOM      3  O   UNL A   1      31.656  26.146  26.616  1.00  0.00    -0.462 OA
BRANCH   3   4
ATOM      4  C   UNL A   1      30.723  25.400  25.959  1.00  0.00     0.331 C 
ATOM      5  O   UNL A   1      29.809  25.854  25.279  1.00  0.00    -0.250 OA
BRANCH   4   6
ATOM      6  C   UNL A   1      30.922  23.893  26.182  1.00  0.00     0.218 C 
BRANCH   6   7
ATOM      7  N   UNL A   1      32.161  23.542  26.894  1.00  0.00    -0.339 N 
ATOM      8  C   UNL A   1      33.258  22.828  26.541  1.00  0.00     0.244 C 
ATOM      9  O   UNL A   1      34.226  22.892  27.308  1.00  0.00    -0.273 OA
ATOM     10  H   UNL A   1      32.201  23.896  27.811  1.00  0.00     0.164 HD
BRANCH   8  11
ATOM     11  C   UNL A   1      33.419  22.051  25.215  1.00  0.00     0.181 C 
BRANCH  11  12
ATOM     12  N   UNL A   1      34.672  22.280  24.492  1.00  0.00    -0.339 N 
ATOM     13  O   UNL A   1      36.040  23.137  22.934  1.00  0.00    -0.269 OA
ATOM     14  C   UNL A   1      34.982  23.230  23.551  1.00  0.00     0.251 C 
ATOM     15  H   UNL A   1      35.402  21.659  24.715  1.00  0.00     0.164 HD
BRANCH  14  16
ATOM     16  C   UNL A   1      34.050  24.334  23.226  1.00  0.00     0.040 A 
ATOM     17  C   UNL A   1      33.062  24.209  22.240  1.00  0.00     0.017 A 
ATOM     18  C   UNL A   1      34.129  25.508  23.988  1.00  0.00     0.017 A 
ATOM     19  C   UNL A   1      32.225  25.288  21.952  1.00  0.00     0.040 A 
ATOM     20  C   UNL A   1      33.275  26.577  23.712  1.00  0.00     0.040 A 
ATOM     21  C   UNL A   1      32.343  26.464  22.686  1.00  0.00     0.123 A 
ATOM     22  F   UNL A   1      31.539  27.498  22.408  1.00  0.00    -0.207 F 
ENDBRANCH  14  16
ENDBRANCH  11  12
BRANCH  11  23
ATOM     23  C   UNL A   1      33.003  20.572  25.321  1.00  0.00     0.101 C 
BRANCH  23  24
ATOM     24  S   UNL A   1      32.411  19.776  23.797  1.00  0.00    -0.177 SA
ATOM     25  H   UNL A   1      31.053  19.830  23.757  1.00  0.00     0.102 HD
ENDBRANCH  23  24
ENDBRANCH  11  23
ENDBRANCH   8  11
ENDBRANCH   6   7
BRANCH   6  26
ATOM     26  C   UNL A   1      29.698  23.360  26.929  1.00  0.00     0.193 C 
BRANCH  26  27
ATOM     27  O   UNL A   1      29.521  21.966  26.699  1.00  0.00    -0.394 OA
ATOM     28  H   UNL A   1      29.439  21.505  27.548  1.00  0.00     0.210 HD
ENDBRANCH  26  27
ENDBRANCH   6  26
ENDBRANCH   4   6
ENDBRANCH   3   4
ENDBRANCH   2   3
ENDBRANCH   1   2
BRANCH   1  29
ATOM     29  O   UNL A   1      32.817  29.639  26.872  1.00  0.00    -0.374 OA
BRANCH  29  30
ATOM     30  C   UNL A   1      34.167  30.099  26.904  1.00  0.00     0.202 C 
BRANCH  30  31
ATOM     31  C   UNL A   1      34.534  31.142  27.967  1.00  0.00     0.261 C 
BRANCH  31  32
ATOM     32  O   UNL A   1      35.401  30.625  28.988  1.00  0.00    -0.460 OA
BRANCH  32  33
ATOM     33  C   UNL A   1      36.469  31.410  29.270  1.00  0.00     0.338 C 
ATOM     34  O   UNL A   1      36.456  32.540  29.738  1.00  0.00    -0.246 OA
BRANCH  33  35
ATOM     35  C   UNL A   1      37.711  30.639  29.104  1.00  0.00     0.060 A 
ATOM     36  C   UNL A   1      38.596  30.582  30.189  1.00  0.00     0.016 A 
ATOM     37  C   UNL A   1      38.041  30.052  27.881  1.00  0.00     0.016 A 
ATOM     38  C   UNL A   1      39.836  29.964  30.045  1.00  0.00     0.010 A 
ATOM     39  C   UNL A   1      39.291  29.446  27.735  1.00  0.00     0.010 A 
ATOM     40  C   UNL A   1      40.204  29.426  28.806  1.00  0.00    -0.014 A 
BRANCH  40  41
ATOM     41  C   UNL A   1      41.595  28.974  28.577  1.00  0.00     0.031 A 
ATOM     42  C   UNL A   1      42.698  29.994  28.608  1.00  0.00     0.074 A 
ATOM     43  C   UNL A   1      41.865  27.680  28.331  1.00  0.00     0.049 A 
ATOM     44  N   UNL A   1      43.963  29.856  28.312  1.00  0.00    -0.248 NA
ATOM     45  C   UNL A   1      42.321  31.355  29.023  1.00  0.00     0.031 C 
ATOM     46  C   UNL A   1      40.882  26.598  28.330  1.00  0.00     0.029 A 
ATOM     47  N   UNL A   1      43.049  27.061  28.016  1.00  0.00    -0.354 N 
ATOM     48  C   UNL A   1      44.531  31.112  28.489  1.00  0.00     0.074 A 
ATOM     49  C   UNL A   1      43.469  32.005  28.900  1.00  0.00     0.031 C 
ATOM     50  C   UNL A   1      41.498  25.450  28.001  1.00  0.00     0.029 A 
ATOM     51  C   UNL A   1      42.909  25.724  27.731  1.00  0.00     0.049 A 
ATOM     52  H   UNL A   1      43.914  27.529  27.996  1.00  0.00     0.167 HD
ATOM     53  C   UNL A   1      45.822  31.484  28.322  1.00  0.00     0.037 A 
ATOM     54  C   UNL A   1      43.809  24.835  27.268  1.00  0.00     0.037 A 
ATOM     55  C   UNL A   1      46.868  30.585  27.913  1.00  0.00     0.049 A 
ATOM     56  C   UNL A   1      45.226  25.286  27.019  1.00  0.00     0.074 A 
ATOM     57  C   UNL A   1      48.211  30.856  27.723  1.00  0.00     0.029 A 
ATOM     58  N   UNL A   1      46.685  29.240  27.623  1.00  0.00    -0.354 N 
ATOM     59  N   UNL A   1      45.754  26.474  27.194  1.00  0.00    -0.248 NA
ATOM     60  C   UNL A   1      46.169  24.281  26.506  1.00  0.00     0.031 C 
ATOM     61  C   UNL A   1      48.832  29.686  27.274  1.00  0.00     0.029 A 
ATOM     62  C   UNL A   1      47.887  28.673  27.236  1.00  0.00     0.049 A 
ATOM     63  H   UNL A   1      45.828  28.761  27.684  1.00  0.00     0.167 HD
ATOM     64  C   UNL A   1      47.096  26.351  26.849  1.00  0.00     0.074 A 
ATOM     65  C   UNL A   1      47.299  24.974  26.450  1.00  0.00     0.031 C 
ATOM     66  C   UNL A   1      48.072  27.292  26.866  1.00  0.00     0.037 A 
BRANCH  53  67
ATOM     67  C   UNL A   1      46.168  32.929  28.551  1.00  0.00     0.058 A 
ATOM     68  C   UNL A   1      45.993  33.901  27.554  1.00  0.00     0.135 A 
ATOM     69  C   UNL A   1      46.655  33.352  29.799  1.00  0.00     0.135 A 
ATOM     70  F   UNL A   1      45.547  33.547  26.337  1.00  0.00    -0.206 F 
ATOM     71  C   UNL A   1      46.310  35.236  27.777  1.00  0.00     0.059 A 
ATOM     72  C   UNL A   1      46.955  34.687  30.053  1.00  0.00     0.059 A 
ATOM     73  F   UNL A   1      46.845  32.464  30.787  1.00  0.00    -0.206 F 
ATOM     74  C   UNL A   1      46.791  35.620  29.030  1.00  0.00     0.060 A 
BRANCH  74  75
ATOM     75  S   UNL A   1      47.197  37.358  29.304  1.00  0.00     0.124 S 
ATOM     76  O   UNL A   1      48.589  37.404  28.866  1.00  0.00    -0.237 OA
ATOM     77  O   UNL A   1      46.239  38.042  28.443  1.00  0.00    -0.237 OA
ATOM     78  O   UNL A   1      46.985  37.535  30.737  1.00  0.00    -0.744 OA
ENDBRANCH  74  75
ENDBRANCH  53  67
BRANCH  54  79
ATOM     79  C   UNL A   1      43.393  23.434  26.988  1.00  0.00     0.058 A 
ATOM     80  C   UNL A   1      43.168  22.994  25.676  1.00  0.00     0.135 A 
ATOM     81  C   UNL A   1      43.223  22.506  28.027  1.00  0.00     0.135 A 
ATOM     82  F   UNL A   1      43.307  23.846  24.649  1.00  0.00    -0.206 F 
ATOM     83  C   UNL A   1      42.779  21.686  25.403  1.00  0.00     0.059 A 
ATOM     84  C   UNL A   1      42.860  21.186  27.778  1.00  0.00     0.059 A 
ATOM     85  F   UNL A   1      43.436  22.874  29.300  1.00  0.00    -0.206 F 
ATOM     86  C   UNL A   1      42.631  20.788  26.462  1.00  0.00     0.060 A 
BRANCH  86  87
ATOM     87  S   UNL A   1      42.174  19.081  26.092  1.00  0.00     0.124 S 
ATOM     88  O   UNL A   1      43.010  18.798  24.932  1.00  0.00    -0.237 OA
ATOM     89  O   UNL A   1      42.538  18.392  27.327  1.00  0.00    -0.237 OA
ATOM     90  O   UNL A   1      40.740  19.166  25.832  1.00  0.00    -0.744 OA
ENDBRANCH  86  87
ENDBRANCH  54  79
BRANCH  66  91
ATOM     91  C   UNL A   1      49.465  26.865  26.496  1.00  0.00     0.058 A 
ATOM     92  C   UNL A   1      50.364  26.366  27.450  1.00  0.00     0.135 A 
ATOM     93  C   UNL A   1      49.866  26.858  25.149  1.00  0.00     0.135 A 
ATOM     94  F   UNL A   1      50.032  26.358  28.752  1.00  0.00    -0.206 F 
ATOM     95  C   UNL A   1      51.611  25.872  27.083  1.00  0.00     0.059 A 
ATOM     96  C   UNL A   1      51.098  26.349  24.757  1.00  0.00     0.059 A 
ATOM     97  F   UNL A   1      49.039  27.318  24.197  1.00  0.00    -0.206 F 
ATOM     98  C   UNL A   1      51.966  25.859  25.732  1.00  0.00     0.060 A 
BRANCH  98  99
ATOM     99  S   UNL A   1      53.555  25.144  25.260  1.00  0.00     0.124 S 
ATOM    100  O   UNL A   1      54.414  25.586  26.354  1.00  0.00    -0.237 OA
ATOM    101  O   UNL A   1      53.257  23.716  25.225  1.00  0.00    -0.237 OA
ATOM    102  O   UNL A   1      53.831  25.752  23.962  1.00  0.00    -0.744 OA
ENDBRANCH  98  99
ENDBRANCH  66  91
ENDBRANCH  40  41
ENDBRANCH  33  35
ENDBRANCH  32  33
ENDBRANCH  31  32
ENDBRANCH  30  31
ENDBRANCH  29  30
ENDBRANCH   1  29
TORSDOF 25
ENDMDL
MODEL 2
REMARK VINA RESULT:      -9.8      1.605      3.042
REMARK SMILES O=C(N[C@@H](CS)C(=O)N[C@@H](CO)C(=O)OCCOCCOC(=O)c1ccc(-c2c3nc(c(-c4c(F)cc(S(=O)(=O)[O-])cc4F)c4ccc([nH]4)c(-c4c(F)cc(S(=O)(=O)[O-])cc4F)c4nc(c(-c5c(F)cc(S(=O)(=O)[O-])cc5F)c5ccc2[nH]5)C=C4)C=C3)cc1)c1ccc(F)cc1
REMARK SMILES IDX 17 1 16 2 15 3 13 4 14 5 10 6 9 7 7 8 8 9 4 11 3 12 1 13
REMARK SMILES IDX 2 14 90 16 91 17 96 18 92 19 95 20 93 21 94 22 5 23 6 24
REMARK SMILES IDX 11 26 12 27 18 29 19 30 20 31 21 32 22 33 23 34 24 35 25 36
REMARK SMILES IDX 89 37 26 38 88 39 27 40 28 41 29 42 82 43 30 44 87 45 81 46
REMARK SMILES IDX 83 47 31 48 86 49 80 50 79 51 32 53 66 54 45 55 65 56 46 57
REMARK SMILES IDX 49 58 64 59 84 60 47 61 48 62 63 64 85 65 50 66 33 67 34 68
REMARK SMILES IDX 43 69 35 70 36 71 42 72 44 73 37 74 38 75 39 76 40 77 41 78
REMARK SMILES IDX 67 79 68 80 77 81 69 82 70 83 76 84 78 85 71 86 72 87 73 88
REMARK SMILES IDX 74 89 75 90 51 91 52 92 61 93 53 94 54 95 60 96 62 97 55 98
REMARK SMILES IDX 56 99 57 100 58 101 59 102
REMARK H PARENT 9 10 3 15 6 25 12 28 83 52 49 63
REMARK Flexibility Score: inf
ROOT
ATOM      1  C   UNL A   1      33.781  30.873  26.983  1.00  0.00     0.202 C 
ENDROOT
BRANCH   1   2
ATOM      2  C   UNL A   1      33.150  29.515  27.301  1.00  0.00     0.261 C 
BRANCH   2   3
ATOM      3  O   UNL A   1      32.322  29.060  26.218  1.00  0.00    -0.462 OA
BRANCH   3   4
ATOM      4  C   UNL A   1      32.572  27.795  25.779  1.00  0.00     0.331 C 
ATOM      5  O   UNL A   1      32.942  26.863  26.485  1.00  0.00    -0.250 OA
BRANCH   4   6
ATOM      6  C   UNL A   1      32.362  27.654  24.264  1.00  0.00     0.218 C 
BRANCH   6   7
ATOM      7  N   UNL A   1      31.130  26.943  23.884  1.00  0.00    -0.339 N 
ATOM      8  C   UNL A   1      30.759  25.641  23.944  1.00  0.00     0.244 C 
ATOM      9  O   UNL A   1      29.565  25.399  23.734  1.00  0.00    -0.273 OA
ATOM     10  H   UNL A   1      30.436  27.533  23.511  1.00  0.00     0.164 HD
BRANCH   8  11
ATOM     11  C   UNL A   1      31.685  24.477  24.364  1.00  0.00     0.181 C 
BRANCH  11  12
ATOM     12  N   UNL A   1      31.646  24.115  25.783  1.00  0.00    -0.339 N 
ATOM     13  O   UNL A   1      32.265  23.084  27.676  1.00  0.00    -0.269 OA
ATOM     14  C   UNL A   1      32.571  23.443  26.542  1.00  0.00     0.251 C 
ATOM     15  H   UNL A   1      30.835  24.396  26.264  1.00  0.00     0.164 HD
BRANCH  14  16
ATOM     16  C   UNL A   1      33.910  23.098  26.011  1.00  0.00     0.040 A 
ATOM     17  C   UNL A   1      34.910  24.062  25.833  1.00  0.00     0.017 A 
ATOM     18  C   UNL A   1      34.187  21.750  25.748  1.00  0.00     0.017 A 
ATOM     19  C   UNL A   1      36.147  23.692  25.301  1.00  0.00     0.040 A 
ATOM     20  C   UNL A   1      35.433  21.380  25.239  1.00  0.00     0.040 A 
ATOM     21  C   UNL A   1      36.395  22.356  25.005  1.00  0.00     0.123 A 
ATOM     22  F   UNL A   1      37.582  22.003  24.496  1.00  0.00    -0.207 F 
ENDBRANCH  14  16
ENDBRANCH  11  12
BRANCH  11  23
ATOM     23  C   UNL A   1      31.634  23.280  23.397  1.00  0.00     0.101 C 
BRANCH  23  24
ATOM     24  S   UNL A   1      33.077  23.038  22.316  1.00  0.00    -0.177 SA
ATOM     25  H   UNL A   1      32.872  23.683  21.137  1.00  0.00     0.102 HD
ENDBRANCH  23  24
ENDBRANCH  11  23
ENDBRANCH   8  11
ENDBRANCH   6   7
BRANCH   6  26
ATOM     26  C   UNL A   1      32.390  29.055  23.650  1.00  0.00     0.193 C 
BRANCH  26  27
ATOM     27  O   UNL A   1      33.720  29.561  23.582  1.00  0.00    -0.394 OA
ATOM     28  H   UNL A   1      34.346  28.858  23.818  1.00  0.00     0.210 HD
ENDBRANCH  26  27
ENDBRANCH   6  26
ENDBRANCH   4   6
ENDBRANCH   3   4
ENDBRANCH   2   3
ENDBRANCH   1   2
BRANCH   1  29
ATOM     29  O   UNL A   1      33.260  31.998  27.689  1.00  0.00    -0.374 OA
BRANCH  29  30
ATOM     30  C   UNL A   1      34.152  32.714  28.542  1.00  0.00     0.202 C 
BRANCH  30  31
ATOM     31  C   UNL A   1      34.836  31.930  29.668  1.00  0.00     0.261 C 
BRANCH  31  32
ATOM     32  O   UNL A   1      36.220  31.654  29.403  1.00  0.00    -0.460 OA
BRANCH  32  33
ATOM     33  C   UNL A   1      36.727  30.604  30.094  1.00  0.00     0.338 C 
ATOM     34  O   UNL A   1      36.112  29.807  30.789  1.00  0.00    -0.246 OA
BRANCH  33  35
ATOM     35  C   UNL A   1      38.146  30.421  29.751  1.00  0.00     0.060 A 
ATOM     36  C   UNL A   1      38.464  30.110  28.422  1.00  0.00     0.016 A 
ATOM     37  C   UNL A   1      39.139  30.472  30.731  1.00  0.00     0.016 A 
ATOM     38  C   UNL A   1      39.778  29.813  28.072  1.00  0.00     0.010 A 
ATOM     39  C   UNL A   1      40.455  30.159  30.379  1.00  0.00     0.010 A 
ATOM     40  C   UNL A   1      40.773  29.800  29.057  1.00  0.00    -0.014 A 
BRANCH  40  41
ATOM     41  C   UNL A   1      42.120  29.268  28.744  1.00  0.00     0.031 A 
ATOM     42  C   UNL A   1      43.280  30.222  28.707  1.00  0.00     0.074 A 
ATOM     43  C   UNL A   1      42.298  27.961  28.486  1.00  0.00     0.049 A 
ATOM     44  N   UNL A   1      44.515  30.011  28.336  1.00  0.00    -0.248 NA
ATOM     45  C   UNL A   1      43.009  31.602  29.142  1.00  0.00     0.031 C 
ATOM     46  C   UNL A   1      41.255  26.939  28.545  1.00  0.00     0.029 A 
ATOM     47  N   UNL A   1      43.422  27.275  28.100  1.00  0.00    -0.354 N 
ATOM     48  C   UNL A   1      45.165  31.231  28.476  1.00  0.00     0.074 A 
ATOM     49  C   UNL A   1      44.184  32.184  28.949  1.00  0.00     0.031 C 
ATOM     50  C   UNL A   1      41.782  25.757  28.182  1.00  0.00     0.029 A 
ATOM     51  C   UNL A   1      43.188  25.948  27.826  1.00  0.00     0.049 A 
ATOM     52  H   UNL A   1      44.311  27.691  28.027  1.00  0.00     0.167 HD
ATOM     53  C   UNL A   1      46.463  31.527  28.230  1.00  0.00     0.037 A 
ATOM     54  C   UNL A   1      44.004  25.008  27.311  1.00  0.00     0.037 A 
ATOM     55  C   UNL A   1      47.428  30.569  27.760  1.00  0.00     0.049 A 
ATOM     56  C   UNL A   1      45.427  25.376  26.977  1.00  0.00     0.074 A 
ATOM     57  C   UNL A   1      48.770  30.761  27.489  1.00  0.00     0.029 A 
ATOM     58  N   UNL A   1      47.150  29.237  27.484  1.00  0.00    -0.354 N 
ATOM     59  N   UNL A   1      46.034  26.532  27.117  1.00  0.00    -0.248 NA
ATOM     60  C   UNL A   1      46.277  24.319  26.410  1.00  0.00     0.031 C 
ATOM     61  C   UNL A   1      49.294  29.558  27.005  1.00  0.00     0.029 A 
ATOM     62  C   UNL A   1      48.291  28.601  27.027  1.00  0.00     0.049 A 
ATOM     63  H   UNL A   1      46.271  28.809  27.598  1.00  0.00     0.167 HD
ATOM     64  C   UNL A   1      47.343  26.330  26.692  1.00  0.00     0.074 A 
ATOM     65  C   UNL A   1      47.441  24.945  26.284  1.00  0.00     0.031 C 
ATOM     66  C   UNL A   1      48.372  27.213  26.648  1.00  0.00     0.037 A 
BRANCH  53  67
ATOM     67  C   UNL A   1      46.907  32.949  28.435  1.00  0.00     0.058 A 
ATOM     68  C   UNL A   1      47.437  33.391  29.656  1.00  0.00     0.135 A 
ATOM     69  C   UNL A   1      46.826  33.875  27.382  1.00  0.00     0.135 A 
ATOM     70  F   UNL A   1      47.519  32.551  30.702  1.00  0.00    -0.206 F 
ATOM     71  C   UNL A   1      47.850  34.708  29.835  1.00  0.00     0.059 A 
ATOM     72  C   UNL A   1      47.258  35.190  27.530  1.00  0.00     0.059 A 
ATOM     73  F   UNL A   1      46.324  33.506  26.194  1.00  0.00    -0.206 F 
ATOM     74  C   UNL A   1      47.756  35.600  28.766  1.00  0.00     0.060 A 
BRANCH  74  75
ATOM     75  S   UNL A   1      48.298  37.305  29.012  1.00  0.00     0.124 S 
ATOM     76  O   UNL A   1      49.676  37.244  28.537  1.00  0.00    -0.237 OA
ATOM     77  O   UNL A   1      47.369  38.052  28.170  1.00  0.00    -0.237 OA
ATOM     78  O   UNL A   1      48.138  37.508  30.448  1.00  0.00    -0.744 OA
ENDBRANCH  74  75
ENDBRANCH  53  67
BRANCH  54  79
ATOM     79  C   UNL A   1      43.491  23.636  27.060  1.00  0.00     0.058 A 
ATOM     80  C   UNL A   1      43.322  22.722  28.111  1.00  0.00     0.135 A 
ATOM     81  C   UNL A   1      43.149  23.213  25.766  1.00  0.00     0.135 A 
ATOM     82  F   UNL A   1      43.645  23.074  29.364  1.00  0.00    -0.206 F 
ATOM     83  C   UNL A   1      42.842  21.435  27.887  1.00  0.00     0.059 A 
ATOM     84  C   UNL A   1      42.642  21.941  25.520  1.00  0.00     0.059 A 
ATOM     85  F   UNL A   1      43.282  24.052  24.727  1.00  0.00    -0.206 F 
ATOM     86  C   UNL A   1      42.502  21.055  26.588  1.00  0.00     0.060 A 
BRANCH  86  87
ATOM     87  S   UNL A   1      41.833  19.400  26.316  1.00  0.00     0.124 S 
ATOM     88  O   UNL A   1      42.511  19.007  25.086  1.00  0.00    -0.237 OA
ATOM     89  O   UNL A   1      42.249  18.699  27.527  1.00  0.00    -0.237 OA
ATOM     90  O   UNL A   1      40.396  19.634  26.199  1.00  0.00    -0.744 OA
ENDBRANCH  86  87
ENDBRANCH  54  79
BRANCH  66  91
ATOM     91  C   UNL A   1      49.713  26.706  26.196  1.00  0.00     0.058 A 
ATOM     92  C   UNL A   1      50.187  26.927  24.895  1.00  0.00     0.135 A 
ATOM     93  C   UNL A   1      50.577  26.084  27.114  1.00  0.00     0.135 A 
ATOM     94  F   UNL A   1      49.398  27.510  23.978  1.00  0.00    -0.206 F 
ATOM     95  C   UNL A   1      51.472  26.550  24.518  1.00  0.00     0.059 A 
ATOM     96  C   UNL A   1      51.872  25.720  26.766  1.00  0.00     0.059 A 
ATOM     97  F   UNL A   1      50.173  25.858  28.374  1.00  0.00    -0.206 F 
ATOM     98  C   UNL A   1      52.311  25.956  25.464  1.00  0.00     0.060 A 
BRANCH  98  99
ATOM     99  S   UNL A   1      54.002  25.543  24.984  1.00  0.00     0.124 S 
ATOM    100  O   UNL A   1      54.777  26.247  26.000  1.00  0.00    -0.237 OA
ATOM    101  O   UNL A   1      54.007  24.087  25.078  1.00  0.00    -0.237 OA
ATOM    102  O   UNL A   1      54.112  26.077  23.629  1.00  0.00    -0.744 OA
ENDBRANCH  98  99
ENDBRANCH  66  91
ENDBRANCH  40  41
ENDBRANCH  33  35
ENDBRANCH  32  33
ENDBRANCH  31  32
ENDBRANCH  30  31
ENDBRANCH  29  30
ENDBRANCH   1  29
TORSDOF 25
ENDMDL
MODEL 3
REMARK VINA RESULT:      -9.4      1.678      8.549
REMARK SMILES O=C(N[C@@H](CS)C(=O)N[C@@H](CO)C(=O)OCCOCCOC(=O)c1ccc(-c2c3nc(c(-c4c(F)cc(S(=O)(=O)[O-])cc4F)c4ccc([nH]4)c(-c4c(F)cc(S(=O)(=O)[O-])cc4F)c4nc(c(-c5c(F)cc(S(=O)(=O)[O-])cc5F)c5ccc2[nH]5)C=C4)C=C3)cc1)c1ccc(F)cc1
REMARK SMILES IDX 17 1 16 2 15 3 13 4 14 5 10 6 9 7 7 8 8 9 4 11 3 12 1 13
REMARK SMILES IDX 2 14 90 16 91 17 96 18 92 19 95 20 93 21 94 22 5 23 6 24
REMARK SMILES IDX 11 26 12 27 18 29 19 30 20 31 21 32 22 33 23 34 24 35 25 36
REMARK SMILES IDX 89 37 26 38 88 39 27 40 28 41 29 42 82 43 30 44 87 45 81 46
REMARK SMILES IDX 83 47 31 48 86 49 80 50 79 51 32 53 66 54 45 55 65 56 46 57
REMARK SMILES IDX 49 58 64 59 84 60 47 61 48 62 63 64 85 65 50 66 33 67 34 68
REMARK SMILES IDX 43 69 35 70 36 71 42 72 44 73 37 74 38 75 39 76 40 77 41 78
REMARK SMILES IDX 67 79 68 80 77 81 69 82 70 83 76 84 78 85 71 86 72 87 73 88
REMARK SMILES IDX 74 89 75 90 51 91 52 92 61 93 53 94 54 95 60 96 62 97 55 98
REMARK SMILES IDX 56 99 57 100 58 101 59 102
REMARK H PARENT 9 10 3 15 6 25 12 28 83 52 49 63
REMARK Flexibility Score: inf
ROOT
ATOM      1  C   UNL A   1      34.051  30.379  27.034  1.00  0.00     0.202 C 
ENDROOT
BRANCH   1   2
ATOM      2  C   UNL A   1      33.268  29.065  27.094  1.00  0.00     0.261 C 
BRANCH   2   3
ATOM      3  O   UNL A   1      32.938  28.595  25.777  1.00  0.00    -0.462 OA
BRANCH   3   4
ATOM      4  C   UNL A   1      33.382  27.344  25.472  1.00  0.00     0.331 C 
ATOM      5  O   UNL A   1      33.508  26.424  26.274  1.00  0.00    -0.250 OA
BRANCH   4   6
ATOM      6  C   UNL A   1      33.740  27.201  23.985  1.00  0.00     0.218 C 
BRANCH   6   7
ATOM      7  N   UNL A   1      32.693  26.571  23.164  1.00  0.00    -0.339 N 
ATOM      8  C   UNL A   1      32.310  25.284  22.985  1.00  0.00     0.244 C 
ATOM      9  O   UNL A   1      31.248  25.105  22.377  1.00  0.00    -0.273 OA
ATOM     10  H   UNL A   1      32.166  27.215  22.639  1.00  0.00     0.164 HD
BRANCH   8  11
ATOM     11  C   UNL A   1      33.036  24.055  23.577  1.00  0.00     0.181 C 
BRANCH  11  12
ATOM     12  N   UNL A   1      32.648  23.685  24.940  1.00  0.00    -0.339 N 
ATOM     13  O   UNL A   1      32.802  22.673  26.936  1.00  0.00    -0.269 OA
ATOM     14  C   UNL A   1      33.374  23.051  25.917  1.00  0.00     0.251 C 
ATOM     15  H   UNL A   1      31.729  23.927  25.193  1.00  0.00     0.164 HD
BRANCH  14  16
ATOM     16  C   UNL A   1      34.818  22.768  25.752  1.00  0.00     0.040 A 
ATOM     17  C   UNL A   1      35.292  21.500  25.392  1.00  0.00     0.017 A 
ATOM     18  C   UNL A   1      35.718  23.833  25.897  1.00  0.00     0.017 A 
ATOM     19  C   UNL A   1      36.665  21.277  25.275  1.00  0.00     0.040 A 
ATOM     20  C   UNL A   1      37.089  23.611  25.757  1.00  0.00     0.040 A 
ATOM     21  C   UNL A   1      37.552  22.333  25.463  1.00  0.00     0.123 A 
ATOM     22  F   UNL A   1      38.868  22.117  25.351  1.00  0.00    -0.207 F 
ENDBRANCH  14  16
ENDBRANCH  11  12
BRANCH  11  23
ATOM     23  C   UNL A   1      33.131  22.872  22.596  1.00  0.00     0.101 C 
BRANCH  23  24
ATOM     24  S   UNL A   1      32.219  21.363  23.041  1.00  0.00    -0.177 SA
ATOM     25  H   UNL A   1      31.707  21.496  24.294  1.00  0.00     0.102 HD
ENDBRANCH  23  24
ENDBRANCH  11  23
ENDBRANCH   8  11
ENDBRANCH   6   7
BRANCH   6  26
ATOM     26  C   UNL A   1      34.088  28.591  23.447  1.00  0.00     0.193 C 
BRANCH  26  27
ATOM     27  O   UNL A   1      32.913  29.320  23.107  1.00  0.00    -0.394 OA
ATOM     28  H   UNL A   1      32.617  29.834  23.875  1.00  0.00     0.210 HD
ENDBRANCH  26  27
ENDBRANCH   6  26
ENDBRANCH   4   6
ENDBRANCH   3   4
ENDBRANCH   2   3
ENDBRANCH   1   2
BRANCH   1  29
ATOM     29  O   UNL A   1      33.766  31.337  28.052  1.00  0.00    -0.374 OA
BRANCH  29  30
ATOM     30  C   UNL A   1      34.547  32.531  28.072  1.00  0.00     0.202 C 
BRANCH  30  31
ATOM     31  C   UNL A   1      35.871  32.498  28.846  1.00  0.00     0.261 C 
BRANCH  31  32
ATOM     32  O   UNL A   1      36.175  31.203  29.388  1.00  0.00    -0.460 OA
BRANCH  32  33
ATOM     33  C   UNL A   1      37.083  31.213  30.393  1.00  0.00     0.338 C 
ATOM     34  O   UNL A   1      36.903  31.558  31.553  1.00  0.00    -0.246 OA
BRANCH  33  35
ATOM     35  C   UNL A   1      38.325  30.561  29.948  1.00  0.00     0.060 A 
ATOM     36  C   UNL A   1      39.378  30.462  30.867  1.00  0.00     0.016 A 
ATOM     37  C   UNL A   1      38.483  30.130  28.630  1.00  0.00     0.016 A 
ATOM     38  C   UNL A   1      40.611  29.959  30.462  1.00  0.00     0.010 A 
ATOM     39  C   UNL A   1      39.727  29.641  28.222  1.00  0.00     0.010 A 
ATOM     40  C   UNL A   1      40.802  29.581  29.127  1.00  0.00    -0.014 A 
BRANCH  40  41
ATOM     41  C   UNL A   1      42.162  29.263  28.633  1.00  0.00     0.031 A 
ATOM     42  C   UNL A   1      42.463  27.852  28.211  1.00  0.00     0.074 A 
ATOM     43  C   UNL A   1      43.111  30.213  28.576  1.00  0.00     0.049 A 
ATOM     44  N   UNL A   1      43.604  27.315  27.868  1.00  0.00    -0.248 NA
ATOM     45  C   UNL A   1      41.323  26.921  28.175  1.00  0.00     0.031 C 
ATOM     46  C   UNL A   1      42.915  31.623  28.910  1.00  0.00     0.029 A 
ATOM     47  N   UNL A   1      44.437  30.127  28.235  1.00  0.00    -0.354 N 
ATOM     48  C   UNL A   1      43.326  25.982  27.593  1.00  0.00     0.074 A 
ATOM     49  C   UNL A   1      41.911  25.785  27.825  1.00  0.00     0.031 C 
ATOM     50  C   UNL A   1      44.087  32.267  28.783  1.00  0.00     0.029 A 
ATOM     51  C   UNL A   1      45.122  31.308  28.398  1.00  0.00     0.049 A 
ATOM     52  H   UNL A   1      44.858  29.301  27.905  1.00  0.00     0.167 HD
ATOM     53  C   UNL A   1      44.177  25.011  27.184  1.00  0.00     0.037 A 
ATOM     54  C   UNL A   1      46.439  31.573  28.287  1.00  0.00     0.037 A 
ATOM     55  C   UNL A   1      45.581  25.221  26.957  1.00  0.00     0.049 A 
ATOM     56  C   UNL A   1      47.381  30.461  27.901  1.00  0.00     0.074 A 
ATOM     57  C   UNL A   1      46.531  24.309  26.533  1.00  0.00     0.029 A 
ATOM     58  N   UNL A   1      46.241  26.429  27.143  1.00  0.00    -0.354 N 
ATOM     59  N   UNL A   1      47.107  29.205  27.637  1.00  0.00    -0.248 NA
ATOM     60  C   UNL A   1      48.808  30.797  27.800  1.00  0.00     0.031 C 
ATOM     61  C   UNL A   1      47.773  24.953  26.507  1.00  0.00     0.029 A 
ATOM     62  C   UNL A   1      47.587  26.280  26.862  1.00  0.00     0.049 A 
ATOM     63  H   UNL A   1      45.813  27.267  27.432  1.00  0.00     0.167 HD
ATOM     64  C   UNL A   1      48.321  28.611  27.305  1.00  0.00     0.074 A 
ATOM     65  C   UNL A   1      49.332  29.643  27.405  1.00  0.00     0.031 C 
ATOM     66  C   UNL A   1      48.574  27.328  26.945  1.00  0.00     0.037 A 
BRANCH  53  67
ATOM     67  C   UNL A   1      43.617  23.630  26.987  1.00  0.00     0.058 A 
ATOM     68  C   UNL A   1      43.280  22.805  28.070  1.00  0.00     0.135 A 
ATOM     69  C   UNL A   1      43.388  23.136  25.692  1.00  0.00     0.135 A 
ATOM     70  F   UNL A   1      43.496  23.221  29.329  1.00  0.00    -0.206 F 
ATOM     71  C   UNL A   1      42.757  21.530  27.878  1.00  0.00     0.059 A 
ATOM     72  C   UNL A   1      42.842  21.875  25.476  1.00  0.00     0.059 A 
ATOM     73  F   UNL A   1      43.696  23.882  24.620  1.00  0.00    -0.206 F 
ATOM     74  C   UNL A   1      42.542  21.074  26.577  1.00  0.00     0.060 A 
BRANCH  74  75
ATOM     75  S   UNL A   1      41.862  19.417  26.343  1.00  0.00     0.124 S 
ATOM     76  O   UNL A   1      42.441  19.044  25.056  1.00  0.00    -0.237 OA
ATOM     77  O   UNL A   1      42.382  18.701  27.503  1.00  0.00    -0.237 OA
ATOM     78  O   UNL A   1      40.420  19.639  26.343  1.00  0.00    -0.744 OA
ENDBRANCH  74  75
ENDBRANCH  53  67
BRANCH  54  79
ATOM     79  C   UNL A   1      46.947  32.942  28.566  1.00  0.00     0.058 A 
ATOM     80  C   UNL A   1      47.313  33.328  29.864  1.00  0.00     0.135 A 
ATOM     81  C   UNL A   1      47.086  33.889  27.539  1.00  0.00     0.135 A 
ATOM     82  F   UNL A   1      47.189  32.463  30.881  1.00  0.00    -0.206 F 
ATOM     83  C   UNL A   1      47.791  34.607  30.136  1.00  0.00     0.059 A 
ATOM     84  C   UNL A   1      47.585  35.164  27.781  1.00  0.00     0.059 A 
ATOM     85  F   UNL A   1      46.759  33.566  26.278  1.00  0.00    -0.206 F 
ATOM     86  C   UNL A   1      47.926  35.517  29.086  1.00  0.00     0.060 A 
BRANCH  86  87
ATOM     87  S   UNL A   1      48.593  37.157  29.442  1.00  0.00     0.124 S 
ATOM     88  O   UNL A   1      47.490  37.770  30.172  1.00  0.00    -0.237 OA
ATOM     89  O   UNL A   1      49.782  36.840  30.228  1.00  0.00    -0.237 OA
ATOM     90  O   UNL A   1      48.856  37.708  28.116  1.00  0.00    -0.744 OA
ENDBRANCH  86  87
ENDBRANCH  54  79
BRANCH  66  91
ATOM     91  C   UNL A   1      49.986  26.968  26.576  1.00  0.00     0.058 A 
ATOM     92  C   UNL A   1      50.466  27.106  25.265  1.00  0.00     0.135 A 
ATOM     93  C   UNL A   1      50.897  26.580  27.573  1.00  0.00     0.135 A 
ATOM     94  F   UNL A   1      49.633  27.466  24.275  1.00  0.00    -0.206 F 
ATOM     95  C   UNL A   1      51.802  26.874  24.955  1.00  0.00     0.059 A 
ATOM     96  C   UNL A   1      52.241  26.366  27.289  1.00  0.00     0.059 A 
ATOM     97  F   UNL A   1      50.488  26.443  28.844  1.00  0.00    -0.206 F 
ATOM     98  C   UNL A   1      52.684  26.513  25.976  1.00  0.00     0.060 A 
BRANCH  98  99
ATOM     99  S   UNL A   1      54.430  26.292  25.574  1.00  0.00     0.124 S 
ATOM    100  O   UNL A   1      54.866  27.670  25.378  1.00  0.00    -0.237 OA
ATOM    101  O   UNL A   1      54.944  25.628  26.768  1.00  0.00    -0.237 OA
ATOM    102  O   UNL A   1      54.400  25.466  24.370  1.00  0.00    -0.744 OA
ENDBRANCH  98  99
ENDBRANCH  66  91
ENDBRANCH  40  41
ENDBRANCH  33  35
ENDBRANCH  32  33
ENDBRANCH  31  32
ENDBRANCH  30  31
ENDBRANCH  29  30
ENDBRANCH   1  29
TORSDOF 25
ENDMDL
