MODEL 1
REMARK VINA RESULT:      -9.5      0.000      0.000
REMARK SMILES COCCCNC(=O)C[N@H+]1CC[C@H](C(=O)OCCOCCOC(=O)c2ccc(-c3c4nc(c(-c5c(F)cc(S(=O)(=O)[O-])cc5F)c5ccc([nH]5)c(-c5c(F)cc(S(=O)(=O)[O-])cc5F)c5nc(c(-c6c(F)cc(S(=O)(=O)[O-])cc6F)c6ccc3[nH]6)C=C5)C=C4)cc2)[C@@H]1C
REMARK SMILES IDX 17 1 16 2 14 3 15 4 13 5 10 6 11 7 91 8 12 10 92 11 9 12
REMARK SMILES IDX 7 13 6 14 8 16 5 17 4 18 3 19 2 20 1 21 18 22 19 23 20 24
REMARK SMILES IDX 21 25 22 26 23 27 24 28 25 29 26 30 90 31 27 32 89 33 28 34
REMARK SMILES IDX 29 35 30 36 83 37 31 38 88 39 82 40 84 41 32 42 87 43 81 44
REMARK SMILES IDX 80 45 33 47 67 48 46 49 66 50 47 51 50 52 65 53 85 54 48 55
REMARK SMILES IDX 49 56 64 58 86 59 51 60 34 61 35 62 44 63 36 64 37 65 43 66
REMARK SMILES IDX 45 67 38 68 39 69 40 70 41 71 42 72 68 73 69 74 78 75 70 76
REMARK SMILES IDX 71 77 77 78 79 79 72 80 73 81 74 82 75 83 76 84 52 85 53 86
REMARK SMILES IDX 62 87 54 88 55 89 61 90 63 91 56 92 57 93 58 94 59 95 60 96
REMARK H PARENT 10 9 6 15 84 46 50 57
REMARK Flexibility Score: inf
ROOT
ATOM      1  C   UNL A   1      35.851  22.055  24.453  1.00  0.00     0.261 C 
ENDROOT
BRANCH   1   2
ATOM      2  O   UNL A   1      34.682  22.370  25.223  1.00  0.00    -0.463 OA
BRANCH   2   3
ATOM      3  C   UNL A   1      33.573  21.661  24.875  1.00  0.00     0.315 C 
ATOM      4  O   UNL A   1      33.563  20.442  24.748  1.00  0.00    -0.252 OA
BRANCH   3   5
ATOM      5  C   UNL A   1      32.308  22.511  24.895  1.00  0.00     0.162 C 
ATOM      6  N   UNL A   1      32.574  24.768  24.108  1.00  0.00    -0.324 N 
ATOM      7  C   UNL A   1      32.795  24.749  25.559  1.00  0.00     0.264 C 
ATOM      8  C   UNL A   1      32.127  23.423  23.678  1.00  0.00     0.195 C 
ATOM      9  H   UNL A   1      33.447  24.993  23.630  1.00  0.00     0.348 HD
ATOM     10  C   UNL A   1      32.155  23.475  26.064  1.00  0.00     0.083 C 
ATOM     11  C   UNL A   1      32.827  22.980  22.396  1.00  0.00     0.076 C 
BRANCH   6  12
ATOM     12  C   UNL A   1      31.613  25.824  23.724  1.00  0.00     0.363 C 
BRANCH  12  13
ATOM     13  C   UNL A   1      32.183  26.703  22.611  1.00  0.00     0.275 C 
ATOM     14  N   UNL A   1      31.441  27.750  22.140  1.00  0.00    -0.351 N 
ATOM     15  H   UNL A   1      31.875  28.306  21.451  1.00  0.00     0.163 HD
ATOM     16  O   UNL A   1      33.294  26.492  22.122  1.00  0.00    -0.269 OA
BRANCH  14  17
ATOM     17  C   UNL A   1      30.095  28.151  22.521  1.00  0.00     0.118 C 
BRANCH  17  18
ATOM     18  C   UNL A   1      29.804  29.635  22.295  1.00  0.00     0.050 C 
BRANCH  18  19
ATOM     19  C   UNL A   1      28.417  29.982  21.759  1.00  0.00     0.161 C 
BRANCH  19  20
ATOM     20  O   UNL A   1      27.417  30.118  22.765  1.00  0.00    -0.385 OA
ATOM     21  C   UNL A   1      27.565  31.246  23.608  1.00  0.00     0.194 C 
ENDBRANCH  19  20
ENDBRANCH  18  19
ENDBRANCH  17  18
ENDBRANCH  14  17
ENDBRANCH  12  13
ENDBRANCH   6  12
ENDBRANCH   3   5
ENDBRANCH   2   3
ENDBRANCH   1   2
BRANCH   1  22
ATOM     22  C   UNL A   1      36.970  21.447  25.307  1.00  0.00     0.202 C 
BRANCH  22  23
ATOM     23  O   UNL A   1      37.869  22.329  25.977  1.00  0.00    -0.374 OA
BRANCH  23  24
ATOM     24  C   UNL A   1      39.206  21.885  26.204  1.00  0.00     0.202 C 
BRANCH  24  25
ATOM     25  C   UNL A   1      39.581  20.457  25.798  1.00  0.00     0.261 C 
BRANCH  25  26
ATOM     26  O   UNL A   1      40.482  19.850  26.741  1.00  0.00    -0.460 OA
BRANCH  26  27
ATOM     27  C   UNL A   1      41.735  19.656  26.268  1.00  0.00     0.338 C 
ATOM     28  O   UNL A   1      42.139  18.695  25.624  1.00  0.00    -0.246 OA
BRANCH  27  29
ATOM     29  C   UNL A   1      42.533  20.880  26.448  1.00  0.00     0.060 A 
ATOM     30  C   UNL A   1      42.657  21.378  27.752  1.00  0.00     0.016 A 
ATOM     31  C   UNL A   1      43.086  21.564  25.364  1.00  0.00     0.016 A 
ATOM     32  C   UNL A   1      43.286  22.597  27.973  1.00  0.00     0.010 A 
ATOM     33  C   UNL A   1      43.702  22.798  25.587  1.00  0.00     0.010 A 
ATOM     34  C   UNL A   1      43.765  23.336  26.885  1.00  0.00    -0.014 A 
BRANCH  34  35
ATOM     35  C   UNL A   1      44.156  24.748  27.095  1.00  0.00     0.031 A 
ATOM     36  C   UNL A   1      45.597  25.130  26.892  1.00  0.00     0.074 A 
ATOM     37  C   UNL A   1      43.242  25.673  27.428  1.00  0.00     0.049 A 
ATOM     38  N   UNL A   1      46.175  26.292  27.045  1.00  0.00    -0.248 NA
ATOM     39  C   UNL A   1      46.507  24.055  26.461  1.00  0.00     0.031 C 
ATOM     40  C   UNL A   1      41.814  25.418  27.614  1.00  0.00     0.029 A 
ATOM     41  N   UNL A   1      43.382  27.013  27.678  1.00  0.00    -0.354 N 
ATOM     42  C   UNL A   1      47.517  26.087  26.744  1.00  0.00     0.074 A 
ATOM     43  C   UNL A   1      47.671  24.685  26.422  1.00  0.00     0.031 C 
ATOM     44  C   UNL A   1      41.212  26.566  27.975  1.00  0.00     0.029 A 
ATOM     45  C   UNL A   1      42.216  27.624  28.068  1.00  0.00     0.049 A 
ATOM     46  H   UNL A   1      44.238  27.493  27.587  1.00  0.00     0.167 HD
ATOM     47  C   UNL A   1      48.526  26.989  26.736  1.00  0.00     0.037 A 
ATOM     48  C   UNL A   1      41.992  28.888  28.479  1.00  0.00     0.037 A 
ATOM     49  C   UNL A   1      48.358  28.382  27.053  1.00  0.00     0.049 A 
ATOM     50  C   UNL A   1      43.136  29.866  28.501  1.00  0.00     0.074 A 
ATOM     51  C   UNL A   1      49.307  29.388  27.039  1.00  0.00     0.029 A 
ATOM     52  N   UNL A   1      47.164  28.963  27.454  1.00  0.00    -0.354 N 
ATOM     53  N   UNL A   1      44.394  29.670  28.181  1.00  0.00    -0.248 NA
ATOM     54  C   UNL A   1      42.833  31.237  28.934  1.00  0.00     0.031 C 
ATOM     55  C   UNL A   1      48.698  30.568  27.480  1.00  0.00     0.029 A 
ATOM     56  C   UNL A   1      47.357  30.308  27.719  1.00  0.00     0.049 A 
ATOM     57  H   UNL A   1      46.305  28.489  27.539  1.00  0.00     0.167 HD
ATOM     58  C   UNL A   1      45.028  30.896  28.354  1.00  0.00     0.074 A 
ATOM     59  C   UNL A   1      44.011  31.830  28.796  1.00  0.00     0.031 C 
ATOM     60  C   UNL A   1      46.330  31.222  28.160  1.00  0.00     0.037 A 
BRANCH  47  61
ATOM     61  C   UNL A   1      49.904  26.485  26.411  1.00  0.00     0.058 A 
ATOM     62  C   UNL A   1      50.757  25.961  27.397  1.00  0.00     0.135 A 
ATOM     63  C   UNL A   1      50.375  26.518  25.089  1.00  0.00     0.135 A 
ATOM     64  F   UNL A   1      50.364  25.924  28.680  1.00  0.00    -0.206 F 
ATOM     65  C   UNL A   1      52.038  25.516  27.087  1.00  0.00     0.059 A 
ATOM     66  C   UNL A   1      51.643  26.054  24.752  1.00  0.00     0.059 A 
ATOM     67  F   UNL A   1      49.603  27.012  24.108  1.00  0.00    -0.206 F 
ATOM     68  C   UNL A   1      52.473  25.570  25.761  1.00  0.00     0.060 A 
BRANCH  68  69
ATOM     69  S   UNL A   1      54.142  24.998  25.375  1.00  0.00     0.124 S 
ATOM     70  O   UNL A   1      53.886  23.634  24.926  1.00  0.00    -0.237 OA
ATOM     71  O   UNL A   1      54.563  25.938  24.341  1.00  0.00    -0.237 OA
ATOM     72  O   UNL A   1      54.845  25.117  26.650  1.00  0.00    -0.744 OA
ENDBRANCH  68  69
ENDBRANCH  47  61
BRANCH  48  73
ATOM     73  C   UNL A   1      40.629  29.285  28.919  1.00  0.00     0.058 A 
ATOM     74  C   UNL A   1      39.616  29.569  27.991  1.00  0.00     0.135 A 
ATOM     75  C   UNL A   1      40.306  29.355  30.284  1.00  0.00     0.135 A 
ATOM     76  F   UNL A   1      39.880  29.526  26.677  1.00  0.00    -0.206 F 
ATOM     77  C   UNL A   1      38.331  29.911  28.401  1.00  0.00     0.059 A 
ATOM     78  C   UNL A   1      39.023  29.670  30.716  1.00  0.00     0.059 A 
ATOM     79  F   UNL A   1      41.237  29.080  31.210  1.00  0.00    -0.206 F 
ATOM     80  C   UNL A   1      38.042  29.952  29.766  1.00  0.00     0.060 A 
BRANCH  80  81
ATOM     81  S   UNL A   1      36.352  30.320  30.286  1.00  0.00     0.124 S 
ATOM     82  O   UNL A   1      35.584  29.853  29.138  1.00  0.00    -0.237 OA
ATOM     83  O   UNL A   1      36.227  29.527  31.505  1.00  0.00    -0.237 OA
ATOM     84  O   UNL A   1      36.373  31.766  30.489  1.00  0.00    -0.744 OA
ENDBRANCH  80  81
ENDBRANCH  48  73
BRANCH  60  85
ATOM     85  C   UNL A   1      46.732  32.650  28.403  1.00  0.00     0.058 A 
ATOM     86  C   UNL A   1      46.602  33.631  27.410  1.00  0.00     0.135 A 
ATOM     87  C   UNL A   1      47.193  33.053  29.667  1.00  0.00     0.135 A 
ATOM     88  F   UNL A   1      46.172  33.299  26.183  1.00  0.00    -0.206 F 
ATOM     89  C   UNL A   1      46.936  34.961  27.654  1.00  0.00     0.059 A 
ATOM     90  C   UNL A   1      47.507  34.379  29.942  1.00  0.00     0.059 A 
ATOM     91  F   UNL A   1      47.325  32.154  30.657  1.00  0.00    -0.206 F 
ATOM     92  C   UNL A   1      47.386  35.325  28.924  1.00  0.00     0.060 A 
BRANCH  92  93
ATOM     93  S   UNL A   1      47.779  37.058  29.241  1.00  0.00     0.124 S 
ATOM     94  O   UNL A   1      47.180  37.260  30.556  1.00  0.00    -0.237 OA
ATOM     95  O   UNL A   1      49.239  37.059  29.202  1.00  0.00    -0.237 OA
ATOM     96  O   UNL A   1      47.130  37.761  28.139  1.00  0.00    -0.744 OA
ENDBRANCH  92  93
ENDBRANCH  60  85
ENDBRANCH  34  35
ENDBRANCH  27  29
ENDBRANCH  26  27
ENDBRANCH  25  26
ENDBRANCH  24  25
ENDBRANCH  23  24
ENDBRANCH  22  23
ENDBRANCH   1  22
TORSDOF 23
ENDMDL
MODEL 2
REMARK VINA RESULT:      -9.4      1.161      8.373
REMARK SMILES COCCCNC(=O)C[N@H+]1CC[C@H](C(=O)OCCOCCOC(=O)c2ccc(-c3c4nc(c(-c5c(F)cc(S(=O)(=O)[O-])cc5F)c5ccc([nH]5)c(-c5c(F)cc(S(=O)(=O)[O-])cc5F)c5nc(c(-c6c(F)cc(S(=O)(=O)[O-])cc6F)c6ccc3[nH]6)C=C5)C=C4)cc2)[C@@H]1C
REMARK SMILES IDX 17 1 16 2 14 3 15 4 13 5 10 6 11 7 91 8 12 10 92 11 9 12
REMARK SMILES IDX 7 13 6 14 8 16 5 17 4 18 3 19 2 20 1 21 18 22 19 23 20 24
REMARK SMILES IDX 21 25 22 26 23 27 24 28 25 29 26 30 90 31 27 32 89 33 28 34
REMARK SMILES IDX 29 35 30 36 83 37 31 38 88 39 82 40 84 41 32 42 87 43 81 44
REMARK SMILES IDX 80 45 33 47 67 48 46 49 66 50 47 51 50 52 65 53 85 54 48 55
REMARK SMILES IDX 49 56 64 58 86 59 51 60 34 61 35 62 44 63 36 64 37 65 43 66
REMARK SMILES IDX 45 67 38 68 39 69 40 70 41 71 42 72 68 73 69 74 78 75 70 76
REMARK SMILES IDX 71 77 77 78 79 79 72 80 73 81 74 82 75 83 76 84 52 85 53 86
REMARK SMILES IDX 62 87 54 88 55 89 61 90 63 91 56 92 57 93 58 94 59 95 60 96
REMARK H PARENT 10 9 6 15 84 46 50 57
REMARK Flexibility Score: inf
ROOT
ATOM      1  C   UNL A   1      34.884  21.289  24.803  1.00  0.00     0.261 C 
ENDROOT
BRANCH   1   2
ATOM      2  O   UNL A   1      33.788  21.872  25.524  1.00  0.00    -0.463 OA
BRANCH   2   3
ATOM      3  C   UNL A   1      32.563  21.416  25.146  1.00  0.00     0.315 C 
ATOM      4  O   UNL A   1      32.229  20.239  25.216  1.00  0.00    -0.252 OA
BRANCH   3   5
ATOM      5  C   UNL A   1      31.583  22.548  24.858  1.00  0.00     0.162 C 
ATOM      6  N   UNL A   1      32.519  24.453  23.726  1.00  0.00    -0.324 N 
ATOM      7  C   UNL A   1      32.619  24.672  25.175  1.00  0.00     0.264 C 
ATOM      8  C   UNL A   1      31.750  23.209  23.488  1.00  0.00     0.195 C 
ATOM      9  H   UNL A   1      33.452  24.345  23.329  1.00  0.00     0.348 HD
ATOM     10  C   UNL A   1      31.617  23.736  25.812  1.00  0.00     0.083 C 
ATOM     11  C   UNL A   1      32.393  22.351  22.400  1.00  0.00     0.076 C 
BRANCH   6  12
ATOM     12  C   UNL A   1      31.917  25.620  23.047  1.00  0.00     0.363 C 
BRANCH  12  13
ATOM     13  C   UNL A   1      32.913  26.265  22.084  1.00  0.00     0.275 C 
ATOM     14  N   UNL A   1      33.040  27.626  22.065  1.00  0.00    -0.351 N 
ATOM     15  H   UNL A   1      33.726  27.984  21.454  1.00  0.00     0.163 HD
ATOM     16  O   UNL A   1      33.606  25.591  21.319  1.00  0.00    -0.269 OA
BRANCH  14  17
ATOM     17  C   UNL A   1      32.295  28.616  22.829  1.00  0.00     0.118 C 
BRANCH  17  18
ATOM     18  C   UNL A   1      32.697  28.690  24.302  1.00  0.00     0.050 C 
BRANCH  18  19
ATOM     19  C   UNL A   1      31.612  29.131  25.282  1.00  0.00     0.161 C 
BRANCH  19  20
ATOM     20  O   UNL A   1      31.587  28.394  26.501  1.00  0.00    -0.385 OA
ATOM     21  C   UNL A   1      32.691  28.620  27.360  1.00  0.00     0.194 C 
ENDBRANCH  19  20
ENDBRANCH  18  19
ENDBRANCH  17  18
ENDBRANCH  14  17
ENDBRANCH  12  13
ENDBRANCH   6  12
ENDBRANCH   3   5
ENDBRANCH   2   3
ENDBRANCH   1   2
BRANCH   1  22
ATOM     22  C   UNL A   1      36.156  21.186  25.653  1.00  0.00     0.202 C 
BRANCH  22  23
ATOM     23  O   UNL A   1      37.000  22.332  25.755  1.00  0.00    -0.374 OA
BRANCH  23  24
ATOM     24  C   UNL A   1      38.413  22.135  25.722  1.00  0.00     0.202 C 
BRANCH  24  25
ATOM     25  C   UNL A   1      38.951  20.702  25.680  1.00  0.00     0.261 C 
BRANCH  25  26
ATOM     26  O   UNL A   1      39.876  20.444  26.749  1.00  0.00    -0.460 OA
BRANCH  26  27
ATOM     27  C   UNL A   1      41.110  20.067  26.340  1.00  0.00     0.338 C 
ATOM     28  O   UNL A   1      41.408  19.036  25.750  1.00  0.00    -0.246 OA
BRANCH  27  29
ATOM     29  C   UNL A   1      42.055  21.183  26.510  1.00  0.00     0.060 A 
ATOM     30  C   UNL A   1      42.332  21.594  27.821  1.00  0.00     0.016 A 
ATOM     31  C   UNL A   1      42.601  21.858  25.417  1.00  0.00     0.016 A 
ATOM     32  C   UNL A   1      43.112  22.722  28.045  1.00  0.00     0.010 A 
ATOM     33  C   UNL A   1      43.371  23.001  25.644  1.00  0.00     0.010 A 
ATOM     34  C   UNL A   1      43.592  23.459  26.956  1.00  0.00    -0.014 A 
BRANCH  34  35
ATOM     35  C   UNL A   1      44.158  24.805  27.196  1.00  0.00     0.031 A 
ATOM     36  C   UNL A   1      43.234  25.900  27.656  1.00  0.00     0.074 A 
ATOM     37  C   UNL A   1      45.472  25.037  27.038  1.00  0.00     0.049 A 
ATOM     38  N   UNL A   1      43.496  27.156  27.899  1.00  0.00    -0.248 NA
ATOM     39  C   UNL A   1      41.825  25.525  27.864  1.00  0.00     0.031 C 
ATOM     40  C   UNL A   1      46.461  24.040  26.632  1.00  0.00     0.029 A 
ATOM     41  N   UNL A   1      46.196  26.190  27.192  1.00  0.00    -0.354 N 
ATOM     42  C   UNL A   1      42.286  27.727  28.277  1.00  0.00     0.074 A 
ATOM     43  C   UNL A   1      41.285  26.685  28.207  1.00  0.00     0.031 C 
ATOM     44  C   UNL A   1      47.664  24.634  26.545  1.00  0.00     0.029 A 
ATOM     45  C   UNL A   1      47.522  26.053  26.864  1.00  0.00     0.049 A 
ATOM     46  H   UNL A   1      45.803  27.037  27.508  1.00  0.00     0.167 HD
ATOM     47  C   UNL A   1      42.035  29.004  28.649  1.00  0.00     0.037 A 
ATOM     48  C   UNL A   1      48.502  26.977  26.803  1.00  0.00     0.037 A 
ATOM     49  C   UNL A   1      43.041  30.030  28.720  1.00  0.00     0.049 A 
ATOM     50  C   UNL A   1      48.194  28.401  27.182  1.00  0.00     0.074 A 
ATOM     51  C   UNL A   1      42.901  31.346  29.121  1.00  0.00     0.029 A 
ATOM     52  N   UNL A   1      44.372  29.857  28.370  1.00  0.00    -0.354 N 
ATOM     53  N   UNL A   1      47.053  28.921  27.571  1.00  0.00    -0.248 NA
ATOM     54  C   UNL A   1      49.303  29.362  27.121  1.00  0.00     0.031 C 
ATOM     55  C   UNL A   1      44.137  31.983  28.964  1.00  0.00     0.029 A 
ATOM     56  C   UNL A   1      45.060  31.050  28.516  1.00  0.00     0.049 A 
ATOM     57  H   UNL A   1      44.770  29.011  28.061  1.00  0.00     0.167 HD
ATOM     58  C   UNL A   1      47.312  30.265  27.820  1.00  0.00     0.074 A 
ATOM     59  C   UNL A   1      48.720  30.474  27.549  1.00  0.00     0.031 C 
ATOM     60  C   UNL A   1      46.463  31.237  28.239  1.00  0.00     0.037 A 
BRANCH  47  61
ATOM     61  C   UNL A   1      40.612  29.366  28.969  1.00  0.00     0.058 A 
ATOM     62  C   UNL A   1      39.641  29.525  27.967  1.00  0.00     0.135 A 
ATOM     63  C   UNL A   1      40.211  29.548  30.302  1.00  0.00     0.135 A 
ATOM     64  F   UNL A   1      39.974  29.382  26.674  1.00  0.00    -0.206 F 
ATOM     65  C   UNL A   1      38.332  29.881  28.274  1.00  0.00     0.059 A 
ATOM     66  C   UNL A   1      38.902  29.879  30.634  1.00  0.00     0.059 A 
ATOM     67  F   UNL A   1      41.100  29.413  31.300  1.00  0.00    -0.206 F 
ATOM     68  C   UNL A   1      37.972  30.059  29.611  1.00  0.00     0.060 A 
BRANCH  68  69
ATOM     69  S   UNL A   1      36.272  30.530  29.994  1.00  0.00     0.124 S 
ATOM     70  O   UNL A   1      35.611  30.303  28.713  1.00  0.00    -0.237 OA
ATOM     71  O   UNL A   1      35.922  29.598  31.061  1.00  0.00    -0.237 OA
ATOM     72  O   UNL A   1      36.390  31.927  30.400  1.00  0.00    -0.744 OA
ENDBRANCH  68  69
ENDBRANCH  47  61
BRANCH  48  73
ATOM     73  C   UNL A   1      49.858  26.577  26.344  1.00  0.00     0.058 A 
ATOM     74  C   UNL A   1      50.267  26.772  25.017  1.00  0.00     0.135 A 
ATOM     75  C   UNL A   1      50.785  26.019  27.240  1.00  0.00     0.135 A 
ATOM     76  F   UNL A   1      49.413  27.292  24.122  1.00  0.00    -0.206 F 
ATOM     77  C   UNL A   1      51.546  26.427  24.593  1.00  0.00     0.059 A 
ATOM     78  C   UNL A   1      52.076  25.689  26.845  1.00  0.00     0.059 A 
ATOM     79  F   UNL A   1      50.445  25.823  28.523  1.00  0.00    -0.206 F 
ATOM     80  C   UNL A   1      52.446  25.893  25.517  1.00  0.00     0.060 A 
BRANCH  80  81
ATOM     81  S   UNL A   1      54.129  25.520  24.975  1.00  0.00     0.124 S 
ATOM     82  O   UNL A   1      54.922  26.240  25.965  1.00  0.00    -0.237 OA
ATOM     83  O   UNL A   1      54.164  24.064  25.064  1.00  0.00    -0.237 OA
ATOM     84  O   UNL A   1      54.170  26.057  23.618  1.00  0.00    -0.744 OA
ENDBRANCH  80  81
ENDBRANCH  48  73
BRANCH  60  85
ATOM     85  C   UNL A   1      47.034  32.611  28.454  1.00  0.00     0.058 A 
ATOM     86  C   UNL A   1      47.631  32.981  29.668  1.00  0.00     0.135 A 
ATOM     87  C   UNL A   1      47.040  33.548  27.407  1.00  0.00     0.135 A 
ATOM     88  F   UNL A   1      47.646  32.125  30.702  1.00  0.00    -0.206 F 
ATOM     89  C   UNL A   1      48.195  34.241  29.846  1.00  0.00     0.059 A 
ATOM     90  C   UNL A   1      47.622  34.803  27.553  1.00  0.00     0.059 A 
ATOM     91  F   UNL A   1      46.493  33.241  26.220  1.00  0.00    -0.206 F 
ATOM     92  C   UNL A   1      48.188  35.144  28.782  1.00  0.00     0.060 A 
BRANCH  92  93
ATOM     93  S   UNL A   1      48.957  36.761  29.012  1.00  0.00     0.124 S 
ATOM     94  O   UNL A   1      48.346  37.533  27.935  1.00  0.00    -0.237 OA
ATOM     95  O   UNL A   1      48.538  37.118  30.364  1.00  0.00    -0.237 OA
ATOM     96  O   UNL A   1      50.382  36.485  28.858  1.00  0.00    -0.744 OA
ENDBRANCH  92  93
ENDBRANCH  60  85
ENDBRANCH  34  35
ENDBRANCH  27  29
ENDBRANCH  26  27
ENDBRANCH  25  26
ENDBRANCH  24  25
ENDBRANCH  23  24
ENDBRANCH  22  23
ENDBRANCH   1  22
TORSDOF 23
ENDMDL
MODEL 3
REMARK VINA RESULT:      -9.2      6.182      8.320
REMARK SMILES COCCCNC(=O)C[N@H+]1CC[C@H](C(=O)OCCOCCOC(=O)c2ccc(-c3c4nc(c(-c5c(F)cc(S(=O)(=O)[O-])cc5F)c5ccc([nH]5)c(-c5c(F)cc(S(=O)(=O)[O-])cc5F)c5nc(c(-c6c(F)cc(S(=O)(=O)[O-])cc6F)c6ccc3[nH]6)C=C5)C=C4)cc2)[C@@H]1C
REMARK SMILES IDX 17 1 16 2 14 3 15 4 13 5 10 6 11 7 91 8 12 10 92 11 9 12
REMARK SMILES IDX 7 13 6 14 8 16 5 17 4 18 3 19 2 20 1 21 18 22 19 23 20 24
REMARK SMILES IDX 21 25 22 26 23 27 24 28 25 29 26 30 90 31 27 32 89 33 28 34
REMARK SMILES IDX 29 35 30 36 83 37 31 38 88 39 82 40 84 41 32 42 87 43 81 44
REMARK SMILES IDX 80 45 33 47 67 48 46 49 66 50 47 51 50 52 65 53 85 54 48 55
REMARK SMILES IDX 49 56 64 58 86 59 51 60 34 61 35 62 44 63 36 64 37 65 43 66
REMARK SMILES IDX 45 67 38 68 39 69 40 70 41 71 42 72 68 73 69 74 78 75 70 76
REMARK SMILES IDX 71 77 77 78 79 79 72 80 73 81 74 82 75 83 76 84 52 85 53 86
REMARK SMILES IDX 62 87 54 88 55 89 61 90 63 91 56 92 57 93 58 94 59 95 60 96
REMARK H PARENT 10 9 6 15 84 46 50 57
REMARK Flexibility Score: inf
ROOT
ATOM      1  C   UNL A   1      36.657  20.942  25.232  1.00  0.00     0.261 C 
ENDROOT
BRANCH   1   2
ATOM      2  O   UNL A   1      36.186  21.764  24.154  1.00  0.00    -0.463 OA
BRANCH   2   3
ATOM      3  C   UNL A   1      34.883  22.139  24.263  1.00  0.00     0.315 C 
ATOM      4  O   UNL A   1      33.967  21.349  24.458  1.00  0.00    -0.252 OA
BRANCH   3   5
ATOM      5  C   UNL A   1      34.717  23.652  24.355  1.00  0.00     0.162 C 
ATOM      6  N   UNL A   1      32.655  24.400  25.339  1.00  0.00    -0.324 N 
ATOM      7  C   UNL A   1      32.468  24.292  23.887  1.00  0.00     0.264 C 
ATOM      8  C   UNL A   1      34.080  24.151  25.654  1.00  0.00     0.195 C 
ATOM      9  H   UNL A   1      32.084  23.700  25.813  1.00  0.00     0.348 HD
ATOM     10  C   UNL A   1      33.855  24.307  23.283  1.00  0.00     0.083 C 
ATOM     11  C   UNL A   1      34.236  23.242  26.872  1.00  0.00     0.076 C 
BRANCH   6  12
ATOM     12  C   UNL A   1      32.194  25.712  25.843  1.00  0.00     0.363 C 
BRANCH  12  13
ATOM     13  C   UNL A   1      30.686  25.872  25.649  1.00  0.00     0.275 C 
ATOM     14  N   UNL A   1      30.222  26.755  24.714  1.00  0.00    -0.351 N 
ATOM     15  H   UNL A   1      29.243  26.787  24.604  1.00  0.00     0.163 HD
ATOM     16  O   UNL A   1      29.874  25.230  26.317  1.00  0.00    -0.269 OA
BRANCH  14  17
ATOM     17  C   UNL A   1      30.984  27.652  23.858  1.00  0.00     0.118 C 
BRANCH  17  18
ATOM     18  C   UNL A   1      30.249  28.062  22.581  1.00  0.00     0.050 C 
BRANCH  18  19
ATOM     19  C   UNL A   1      29.568  29.428  22.597  1.00  0.00     0.161 C 
BRANCH  19  20
ATOM     20  O   UNL A   1      28.601  29.613  21.566  1.00  0.00    -0.385 OA
ATOM     21  C   UNL A   1      28.358  30.962  21.209  1.00  0.00     0.194 C 
ENDBRANCH  19  20
ENDBRANCH  18  19
ENDBRANCH  17  18
ENDBRANCH  14  17
ENDBRANCH  12  13
ENDBRANCH   6  12
ENDBRANCH   3   5
ENDBRANCH   2   3
ENDBRANCH   1   2
BRANCH   1  22
ATOM     22  C   UNL A   1      38.188  20.898  25.311  1.00  0.00     0.202 C 
BRANCH  22  23
ATOM     23  O   UNL A   1      38.876  22.046  25.806  1.00  0.00    -0.374 OA
BRANCH  23  24
ATOM     24  C   UNL A   1      40.112  21.848  26.491  1.00  0.00     0.202 C 
BRANCH  24  25
ATOM     25  C   UNL A   1      40.404  22.697  27.732  1.00  0.00     0.261 C 
BRANCH  25  26
ATOM     26  O   UNL A   1      41.715  23.286  27.683  1.00  0.00    -0.460 OA
BRANCH  26  27
ATOM     27  C   UNL A   1      41.798  24.401  26.921  1.00  0.00     0.338 C 
ATOM     28  O   UNL A   1      42.016  24.456  25.717  1.00  0.00    -0.246 OA
BRANCH  27  29
ATOM     29  C   UNL A   1      41.372  25.574  27.702  1.00  0.00     0.060 A 
ATOM     30  C   UNL A   1      42.257  26.658  27.764  1.00  0.00     0.016 A 
ATOM     31  C   UNL A   1      40.171  25.588  28.414  1.00  0.00     0.016 A 
ATOM     32  C   UNL A   1      41.973  27.741  28.587  1.00  0.00     0.010 A 
ATOM     33  C   UNL A   1      39.897  26.669  29.255  1.00  0.00     0.010 A 
ATOM     34  C   UNL A   1      40.816  27.727  29.375  1.00  0.00    -0.014 A 
BRANCH  34  35
ATOM     35  C   UNL A   1      40.674  28.726  30.457  1.00  0.00     0.031 A 
ATOM     36  C   UNL A   1      41.572  28.615  31.658  1.00  0.00     0.074 A 
ATOM     37  C   UNL A   1      39.786  29.729  30.355  1.00  0.00     0.049 A 
ATOM     38  N   UNL A   1      41.609  29.352  32.736  1.00  0.00    -0.248 NA
ATOM     39  C   UNL A   1      42.558  27.521  31.641  1.00  0.00     0.031 C 
ATOM     40  C   UNL A   1      38.892  29.952  29.219  1.00  0.00     0.029 A 
ATOM     41  N   UNL A   1      39.484  30.741  31.227  1.00  0.00    -0.354 N 
ATOM     42  C   UNL A   1      42.610  28.806  33.532  1.00  0.00     0.074 A 
ATOM     43  C   UNL A   1      43.139  27.662  32.823  1.00  0.00     0.031 C 
ATOM     44  C   UNL A   1      38.122  31.023  29.477  1.00  0.00     0.029 A 
ATOM     45  C   UNL A   1      38.452  31.542  30.803  1.00  0.00     0.049 A 
ATOM     46  H   UNL A   1      39.961  30.881  32.078  1.00  0.00     0.167 HD
ATOM     47  C   UNL A   1      43.047  29.225  34.742  1.00  0.00     0.037 A 
ATOM     48  C   UNL A   1      37.830  32.561  31.428  1.00  0.00     0.037 A 
ATOM     49  C   UNL A   1      42.516  30.370  35.434  1.00  0.00     0.049 A 
ATOM     50  C   UNL A   1      38.305  32.986  32.791  1.00  0.00     0.074 A 
ATOM     51  C   UNL A   1      42.913  30.902  36.648  1.00  0.00     0.029 A 
ATOM     52  N   UNL A   1      41.464  31.151  34.978  1.00  0.00    -0.354 N 
ATOM     53  N   UNL A   1      39.274  32.485  33.520  1.00  0.00    -0.248 NA
ATOM     54  C   UNL A   1      37.607  34.117  33.418  1.00  0.00     0.031 C 
ATOM     55  C   UNL A   1      42.066  31.975  36.950  1.00  0.00     0.029 A 
ATOM     56  C   UNL A   1      41.177  32.144  35.899  1.00  0.00     0.049 A 
ATOM     57  H   UNL A   1      40.990  31.019  34.125  1.00  0.00     0.167 HD
ATOM     58  C   UNL A   1      39.317  33.251  34.680  1.00  0.00     0.074 A 
ATOM     59  C   UNL A   1      38.282  34.257  34.550  1.00  0.00     0.031 C 
ATOM     60  C   UNL A   1      40.140  33.136  35.752  1.00  0.00     0.037 A 
BRANCH  47  61
ATOM     61  C   UNL A   1      44.126  28.417  35.408  1.00  0.00     0.058 A 
ATOM     62  C   UNL A   1      43.830  27.360  36.285  1.00  0.00     0.135 A 
ATOM     63  C   UNL A   1      45.477  28.700  35.157  1.00  0.00     0.135 A 
ATOM     64  F   UNL A   1      42.554  27.060  36.575  1.00  0.00    -0.206 F 
ATOM     65  C   UNL A   1      44.836  26.632  36.910  1.00  0.00     0.059 A 
ATOM     66  C   UNL A   1      46.500  27.968  35.752  1.00  0.00     0.059 A 
ATOM     67  F   UNL A   1      45.817  29.703  34.331  1.00  0.00    -0.206 F 
ATOM     68  C   UNL A   1      46.170  26.946  36.640  1.00  0.00     0.060 A 
BRANCH  68  69
ATOM     69  S   UNL A   1      47.466  26.000  37.467  1.00  0.00     0.124 S 
ATOM     70  O   UNL A   1      48.167  25.413  36.331  1.00  0.00    -0.237 OA
ATOM     71  O   UNL A   1      48.193  27.035  38.195  1.00  0.00    -0.237 OA
ATOM     72  O   UNL A   1      46.721  25.059  38.300  1.00  0.00    -0.744 OA
ENDBRANCH  68  69
ENDBRANCH  47  61
BRANCH  48  73
ATOM     73  C   UNL A   1      36.677  33.229  30.769  1.00  0.00     0.058 A 
ATOM     74  C   UNL A   1      35.355  32.931  31.132  1.00  0.00     0.135 A 
ATOM     75  C   UNL A   1      36.881  34.208  29.782  1.00  0.00     0.135 A 
ATOM     76  F   UNL A   1      35.110  31.997  32.062  1.00  0.00    -0.206 F 
ATOM     77  C   UNL A   1      34.276  33.578  30.539  1.00  0.00     0.059 A 
ATOM     78  C   UNL A   1      35.818  34.884  29.193  1.00  0.00     0.059 A 
ATOM     79  F   UNL A   1      38.127  34.536  29.409  1.00  0.00    -0.206 F 
ATOM     80  C   UNL A   1      34.518  34.559  29.575  1.00  0.00     0.060 A 
BRANCH  80  81
ATOM     81  S   UNL A   1      33.114  35.447  28.867  1.00  0.00     0.124 S 
ATOM     82  O   UNL A   1      32.434  35.925  30.065  1.00  0.00    -0.237 OA
ATOM     83  O   UNL A   1      33.774  36.466  28.056  1.00  0.00    -0.237 OA
ATOM     84  O   UNL A   1      32.412  34.415  28.110  1.00  0.00    -0.744 OA
ENDBRANCH  80  81
ENDBRANCH  48  73
BRANCH  60  85
ATOM     85  C   UNL A   1      39.974  34.134  36.864  1.00  0.00     0.058 A 
ATOM     86  C   UNL A   1      40.699  35.334  36.892  1.00  0.00     0.135 A 
ATOM     87  C   UNL A   1      39.029  33.914  37.880  1.00  0.00     0.135 A 
ATOM     88  F   UNL A   1      41.618  35.591  35.948  1.00  0.00    -0.206 F 
ATOM     89  C   UNL A   1      40.509  36.274  37.902  1.00  0.00     0.059 A 
ATOM     90  C   UNL A   1      38.804  34.850  38.884  1.00  0.00     0.059 A 
ATOM     91  F   UNL A   1      38.300  32.786  37.893  1.00  0.00    -0.206 F 
ATOM     92  C   UNL A   1      39.558  36.023  38.892  1.00  0.00     0.060 A 
BRANCH  92  93
ATOM     93  S   UNL A   1      39.294  37.265  40.175  1.00  0.00     0.124 S 
ATOM     94  O   UNL A   1      38.160  38.008  39.636  1.00  0.00    -0.237 OA
ATOM     95  O   UNL A   1      39.015  36.446  41.351  1.00  0.00    -0.237 OA
ATOM     96  O   UNL A   1      40.560  37.990  40.212  1.00  0.00    -0.744 OA
ENDBRANCH  92  93
ENDBRANCH  60  85
ENDBRANCH  34  35
ENDBRANCH  27  29
ENDBRANCH  26  27
ENDBRANCH  25  26
ENDBRANCH  24  25
ENDBRANCH  23  24
ENDBRANCH  22  23
ENDBRANCH   1  22
TORSDOF 23
ENDMDL
