MODEL 1
REMARK VINA RESULT:     -10.6      0.000      0.000
REMARK SMILES CCOc1ccc(C(=O)NC(=S)Nc2cccc(C(=O)OCCOCCOC(=O)c3ccc(-c4c5nc(c(-c6c(F)cc(S(=O)(=O)[O-])cc6F)c6ccc([nH]6)c(-c6c(F)cc(S(=O)(=O)[O-])cc6F)c6nc(c(-c7c(F)cc(S(=O)(=O)[O-])cc7F)c7ccc4[nH]7)C=C6)C=C5)cc3)c2C)cc1Br
REMARK SMILES IDX 22 1 21 2 19 3 20 4 18 5 14 6 15 7 96 8 16 9 97 10 17 11
REMARK SMILES IDX 13 12 11 14 12 15 10 16 8 17 9 18 7 20 4 21 5 22 99 23 6 24
REMARK SMILES IDX 98 25 100 26 3 27 2 28 1 29 23 30 24 31 25 32 26 33 27 34
REMARK SMILES IDX 28 35 29 36 30 37 31 38 95 39 32 40 94 41 33 42 34 43 35 44
REMARK SMILES IDX 88 45 36 46 93 47 87 48 89 49 37 50 92 51 86 52 85 53 38 55
REMARK SMILES IDX 72 56 51 57 71 58 52 59 55 60 70 61 90 62 53 63 54 64 69 66
REMARK SMILES IDX 91 67 56 68 39 69 40 70 49 71 41 72 42 73 48 74 50 75 43 76
REMARK SMILES IDX 44 77 45 78 46 79 47 80 73 81 74 82 83 83 75 84 76 85 82 86
REMARK SMILES IDX 84 87 77 88 78 89 79 90 80 91 81 92 57 93 58 94 67 95 59 96
REMARK SMILES IDX 60 97 66 98 68 99 61 100 62 101 63 102 64 103 65 104
REMARK H PARENT 13 13 10 19 89 54 55 65
REMARK Flexibility Score: inf
ROOT
ATOM      1  C   UNL A   1      34.134  30.679  27.376  1.00  0.00     0.261 C 
ENDROOT
BRANCH   1   2
ATOM      2  O   UNL A   1      33.299  30.364  26.267  1.00  0.00    -0.460 OA
BRANCH   2   3
ATOM      3  C   UNL A   1      32.229  29.557  26.566  1.00  0.00     0.338 C 
ATOM      4  O   UNL A   1      31.674  29.496  27.654  1.00  0.00    -0.246 OA
BRANCH   3   5
ATOM      5  C   UNL A   1      31.502  29.039  25.277  1.00  0.00     0.065 A 
ATOM      6  C   UNL A   1      31.732  26.384  23.702  1.00  0.00     0.044 A 
ATOM      7  C   UNL A   1      30.797  27.052  22.332  1.00  0.00     0.026 A 
ATOM      8  C   UNL A   1      31.980  27.277  25.246  1.00  0.00    -0.013 A 
ATOM      9  C   UNL A   1      30.148  28.682  22.281  1.00  0.00     0.003 A 
ATOM     10  C   UNL A   1      33.005  26.783  26.239  1.00  0.00     0.047 C 
ATOM     11  C   UNL A   1      30.482  29.749  23.687  1.00  0.00     0.016 A 
BRANCH   6  12
ATOM     12  N   UNL A   1      33.067  26.045  23.145  1.00  0.00    -0.332 N 
ATOM     13  H   UNL A   1      33.581  26.805  22.788  1.00  0.00     0.169 HD
BRANCH  12  14
ATOM     14  C   UNL A   1      33.705  24.787  23.056  1.00  0.00     0.177 C 
ATOM     15  S   UNL A   1      32.996  23.659  22.035  1.00  0.00    -0.040 S 
BRANCH  14  16
ATOM     16  N   UNL A   1      34.877  24.335  23.853  1.00  0.00    -0.299 N 
ATOM     17  C   UNL A   1      35.635  23.316  24.781  1.00  0.00     0.257 C 
ATOM     18  O   UNL A   1      36.801  23.549  25.085  1.00  0.00    -0.269 OA
ATOM     19  H   UNL A   1      35.528  25.065  23.736  1.00  0.00     0.172 HD
BRANCH  17  20
ATOM     20  C   UNL A   1      34.875  22.166  25.414  1.00  0.00     0.041 A 
ATOM     21  C   UNL A   1      32.794  19.038  25.541  1.00  0.00     0.133 A 
ATOM     22  C   UNL A   1      33.147  20.050  26.985  1.00  0.00     0.048 A 
ATOM     23  C   UNL A   1      33.489  19.569  23.959  1.00  0.00     0.060 A 
ATOM     24  C   UNL A   1      34.129  21.583  26.890  1.00  0.00     0.018 A 
ATOM     25  C   UNL A   1      34.597  21.227  24.045  1.00  0.00     0.033 A 
ATOM     26  Br  UNL A   1      32.457  18.642  22.467  1.00  0.00    -0.047 Br
BRANCH  21  27
ATOM     27  O   UNL A   1      32.147  17.839  25.582  1.00  0.00    -0.493 OA
BRANCH  27  28
ATOM     28  C   UNL A   1      33.130  16.816  25.747  1.00  0.00     0.226 C 
ATOM     29  C   UNL A   1      32.761  15.375  25.408  1.00  0.00     0.049 C 
ENDBRANCH  27  28
ENDBRANCH  21  27
ENDBRANCH  17  20
ENDBRANCH  14  16
ENDBRANCH  12  14
ENDBRANCH   6  12
ENDBRANCH   3   5
ENDBRANCH   2   3
ENDBRANCH   1   2
BRANCH   1  30
ATOM     30  C   UNL A   1      34.060  32.040  28.087  1.00  0.00     0.202 C 
BRANCH  30  31
ATOM     31  O   UNL A   1      34.547  32.342  29.366  1.00  0.00    -0.374 OA
BRANCH  31  32
ATOM     32  C   UNL A   1      35.884  32.818  29.385  1.00  0.00     0.202 C 
BRANCH  32  33
ATOM     33  C   UNL A   1      37.125  31.870  29.272  1.00  0.00     0.261 C 
BRANCH  33  34
ATOM     34  O   UNL A   1      37.255  30.975  30.413  1.00  0.00    -0.460 OA
BRANCH  34  35
ATOM     35  C   UNL A   1      37.136  29.640  30.651  1.00  0.00     0.338 C 
ATOM     36  O   UNL A   1      36.623  29.337  31.733  1.00  0.00    -0.246 OA
BRANCH  35  37
ATOM     37  C   UNL A   1      37.797  28.508  29.823  1.00  0.00     0.060 A 
ATOM     38  C   UNL A   1      38.593  27.694  30.630  1.00  0.00     0.016 A 
ATOM     39  C   UNL A   1      38.485  28.879  28.684  1.00  0.00     0.016 A 
ATOM     40  C   UNL A   1      39.932  28.025  30.831  1.00  0.00     0.010 A 
ATOM     41  C   UNL A   1      39.855  29.157  28.801  1.00  0.00     0.010 A 
ATOM     42  C   UNL A   1      40.467  29.018  30.041  1.00  0.00    -0.014 A 
BRANCH  42  43
ATOM     43  C   UNL A   1      41.412  30.020  30.601  1.00  0.00     0.031 A 
ATOM     44  C   UNL A   1      40.947  31.033  31.565  1.00  0.00     0.074 A 
ATOM     45  C   UNL A   1      42.740  29.951  30.309  1.00  0.00     0.049 A 
ATOM     46  N   UNL A   1      40.979  32.314  31.405  1.00  0.00    -0.248 NA
ATOM     47  C   UNL A   1      40.293  30.640  32.806  1.00  0.00     0.031 C 
ATOM     48  C   UNL A   1      43.841  30.788  30.781  1.00  0.00     0.029 A 
ATOM     49  N   UNL A   1      43.367  29.101  29.404  1.00  0.00    -0.354 N 
ATOM     50  C   UNL A   1      40.608  32.855  32.628  1.00  0.00     0.074 A 
ATOM     51  C   UNL A   1      39.922  31.806  33.322  1.00  0.00     0.031 C 
ATOM     52  C   UNL A   1      44.902  30.619  29.965  1.00  0.00     0.029 A 
ATOM     53  C   UNL A   1      44.510  29.709  28.895  1.00  0.00     0.049 A 
ATOM     54  H   UNL A   1      43.049  28.202  29.160  1.00  0.00     0.167 HD
ATOM     55  C   UNL A   1      41.214  33.963  33.150  1.00  0.00     0.037 A 
ATOM     56  C   UNL A   1      44.524  30.012  27.562  1.00  0.00     0.037 A 
ATOM     57  C   UNL A   1      42.412  34.261  32.358  1.00  0.00     0.049 A 
ATOM     58  C   UNL A   1      44.321  31.523  27.424  1.00  0.00     0.074 A 
ATOM     59  C   UNL A   1      43.761  34.047  32.593  1.00  0.00     0.029 A 
ATOM     60  N   UNL A   1      42.295  34.502  30.993  1.00  0.00    -0.354 N 
ATOM     61  N   UNL A   1      43.727  32.268  28.330  1.00  0.00    -0.248 NA
ATOM     62  C   UNL A   1      44.935  32.331  26.374  1.00  0.00     0.031 C 
ATOM     63  C   UNL A   1      44.440  34.093  31.340  1.00  0.00     0.029 A 
ATOM     64  C   UNL A   1      43.504  34.333  30.343  1.00  0.00     0.049 A 
ATOM     65  H   UNL A   1      41.457  34.762  30.546  1.00  0.00     0.167 HD
ATOM     66  C   UNL A   1      43.964  33.593  28.078  1.00  0.00     0.074 A 
ATOM     67  C   UNL A   1      44.694  33.579  26.819  1.00  0.00     0.031 C 
ATOM     68  C   UNL A   1      43.610  34.618  28.915  1.00  0.00     0.037 A 
BRANCH  55  69
ATOM     69  C   UNL A   1      40.931  34.520  34.549  1.00  0.00     0.058 A 
ATOM     70  C   UNL A   1      41.944  34.599  35.529  1.00  0.00     0.135 A 
ATOM     71  C   UNL A   1      39.692  35.066  34.969  1.00  0.00     0.135 A 
ATOM     72  F   UNL A   1      43.201  34.223  35.258  1.00  0.00    -0.206 F 
ATOM     73  C   UNL A   1      41.730  35.108  36.820  1.00  0.00     0.059 A 
ATOM     74  C   UNL A   1      39.432  35.506  36.272  1.00  0.00     0.059 A 
ATOM     75  F   UNL A   1      38.689  35.283  34.107  1.00  0.00    -0.206 F 
ATOM     76  C   UNL A   1      40.464  35.542  37.192  1.00  0.00     0.060 A 
BRANCH  76  77
ATOM     77  S   UNL A   1      40.205  36.245  38.835  1.00  0.00     0.124 S 
ATOM     78  O   UNL A   1      39.674  35.107  39.579  1.00  0.00    -0.237 OA
ATOM     79  O   UNL A   1      41.551  36.673  39.199  1.00  0.00    -0.237 OA
ATOM     80  O   UNL A   1      39.252  37.326  38.599  1.00  0.00    -0.744 OA
ENDBRANCH  76  77
ENDBRANCH  55  69
BRANCH  56  81
ATOM     81  C   UNL A   1      44.030  28.858  26.713  1.00  0.00     0.058 A 
ATOM     82  C   UNL A   1      44.932  27.778  26.507  1.00  0.00     0.135 A 
ATOM     83  C   UNL A   1      42.691  28.583  26.405  1.00  0.00     0.135 A 
ATOM     84  F   UNL A   1      46.248  27.968  26.716  1.00  0.00    -0.206 F 
ATOM     85  C   UNL A   1      44.520  26.474  26.207  1.00  0.00     0.059 A 
ATOM     86  C   UNL A   1      42.254  27.280  26.065  1.00  0.00     0.059 A 
ATOM     87  F   UNL A   1      41.758  29.534  26.558  1.00  0.00    -0.206 F 
ATOM     88  C   UNL A   1      43.166  26.216  26.027  1.00  0.00     0.060 A 
BRANCH  88  89
ATOM     89  S   UNL A   1      42.605  24.470  25.953  1.00  0.00     0.124 S 
ATOM     90  O   UNL A   1      43.095  23.941  27.219  1.00  0.00    -0.237 OA
ATOM     91  O   UNL A   1      41.152  24.581  25.836  1.00  0.00    -0.237 OA
ATOM     92  O   UNL A   1      43.264  23.940  24.763  1.00  0.00    -0.744 OA
ENDBRANCH  88  89
ENDBRANCH  56  81
BRANCH  68  93
ATOM     93  C   UNL A   1      43.358  36.046  28.463  1.00  0.00     0.058 A 
ATOM     94  C   UNL A   1      42.234  36.423  27.712  1.00  0.00     0.135 A 
ATOM     95  C   UNL A   1      44.135  37.122  28.969  1.00  0.00     0.135 A 
ATOM     96  F   UNL A   1      41.344  35.526  27.268  1.00  0.00    -0.206 F 
ATOM     97  C   UNL A   1      41.938  37.753  27.425  1.00  0.00     0.059 A 
ATOM     98  C   UNL A   1      43.807  38.459  28.768  1.00  0.00     0.059 A 
ATOM     99  F   UNL A   1      45.236  36.920  29.709  1.00  0.00    -0.206 F 
ATOM    100  C   UNL A   1      42.723  38.765  27.965  1.00  0.00     0.060 A 
BRANCH 100 101
ATOM    101  S   UNL A   1      42.283  40.475  27.636  1.00  0.00     0.124 S 
ATOM    102  O   UNL A   1      41.382  40.757  28.749  1.00  0.00    -0.237 OA
ATOM    103  O   UNL A   1      43.577  41.149  27.684  1.00  0.00    -0.237 OA
ATOM    104  O   UNL A   1      41.662  40.420  26.317  1.00  0.00    -0.744 OA
ENDBRANCH 100 101
ENDBRANCH  68  93
ENDBRANCH  42  43
ENDBRANCH  35  37
ENDBRANCH  34  35
ENDBRANCH  33  34
ENDBRANCH  32  33
ENDBRANCH  31  32
ENDBRANCH  30  31
ENDBRANCH   1  30
TORSDOF 23
ENDMDL
MODEL 2
REMARK VINA RESULT:     -10.6      5.075      9.390
REMARK SMILES CCOc1ccc(C(=O)NC(=S)Nc2cccc(C(=O)OCCOCCOC(=O)c3ccc(-c4c5nc(c(-c6c(F)cc(S(=O)(=O)[O-])cc6F)c6ccc([nH]6)c(-c6c(F)cc(S(=O)(=O)[O-])cc6F)c6nc(c(-c7c(F)cc(S(=O)(=O)[O-])cc7F)c7ccc4[nH]7)C=C6)C=C5)cc3)c2C)cc1Br
REMARK SMILES IDX 22 1 21 2 19 3 20 4 18 5 14 6 15 7 96 8 16 9 97 10 17 11
REMARK SMILES IDX 13 12 11 14 12 15 10 16 8 17 9 18 7 20 4 21 5 22 99 23 6 24
REMARK SMILES IDX 98 25 100 26 3 27 2 28 1 29 23 30 24 31 25 32 26 33 27 34
REMARK SMILES IDX 28 35 29 36 30 37 31 38 95 39 32 40 94 41 33 42 34 43 35 44
REMARK SMILES IDX 88 45 36 46 93 47 87 48 89 49 37 50 92 51 86 52 85 53 38 55
REMARK SMILES IDX 72 56 51 57 71 58 52 59 55 60 70 61 90 62 53 63 54 64 69 66
REMARK SMILES IDX 91 67 56 68 39 69 40 70 49 71 41 72 42 73 48 74 50 75 43 76
REMARK SMILES IDX 44 77 45 78 46 79 47 80 73 81 74 82 83 83 75 84 76 85 82 86
REMARK SMILES IDX 84 87 77 88 78 89 79 90 80 91 81 92 57 93 58 94 67 95 59 96
REMARK SMILES IDX 60 97 66 98 68 99 61 100 62 101 63 102 64 103 65 104
REMARK H PARENT 13 13 10 19 89 54 55 65
REMARK Flexibility Score: inf
ROOT
ATOM      1  C   UNL A   1      35.789  23.470  24.312  1.00  0.00     0.261 C 
ENDROOT
BRANCH   1   2
ATOM      2  O   UNL A   1      34.829  24.440  23.909  1.00  0.00    -0.460 OA
BRANCH   2   3
ATOM      3  C   UNL A   1      33.722  23.923  23.282  1.00  0.00     0.338 C 
ATOM      4  O   UNL A   1      33.677  22.848  22.703  1.00  0.00    -0.246 OA
BRANCH   3   5
ATOM      5  C   UNL A   1      32.399  24.629  23.743  1.00  0.00     0.065 A 
ATOM      6  C   UNL A   1      30.866  27.076  22.626  1.00  0.00     0.044 A 
ATOM      7  C   UNL A   1      29.830  27.160  24.082  1.00  0.00     0.026 A 
ATOM      8  C   UNL A   1      32.053  25.750  22.344  1.00  0.00    -0.013 A 
ATOM      9  C   UNL A   1      29.950  26.059  25.443  1.00  0.00     0.003 A 
ATOM     10  C   UNL A   1      33.085  25.891  21.250  1.00  0.00     0.047 C 
ATOM     11  C   UNL A   1      31.223  24.794  25.374  1.00  0.00     0.016 A 
BRANCH   6  12
ATOM     12  N   UNL A   1      31.600  28.368  22.585  1.00  0.00    -0.332 N 
ATOM     13  H   UNL A   1      31.450  28.912  21.778  1.00  0.00     0.169 HD
BRANCH  12  14
ATOM     14  C   UNL A   1      32.481  28.926  23.538  1.00  0.00     0.177 C 
ATOM     15  S   UNL A   1      34.121  28.681  23.275  1.00  0.00    -0.040 S 
BRANCH  14  16
ATOM     16  N   UNL A   1      32.094  29.616  24.798  1.00  0.00    -0.299 N 
ATOM     17  C   UNL A   1      32.406  30.267  26.196  1.00  0.00     0.257 C 
ATOM     18  O   UNL A   1      31.493  30.807  26.812  1.00  0.00    -0.269 OA
ATOM     19  H   UNL A   1      31.119  29.722  24.710  1.00  0.00     0.172 HD
BRANCH  17  20
ATOM     20  C   UNL A   1      33.772  30.073  26.826  1.00  0.00     0.041 A 
ATOM     21  C   UNL A   1      36.897  31.021  28.687  1.00  0.00     0.133 A 
ATOM     22  C   UNL A   1      36.705  29.466  27.804  1.00  0.00     0.048 A 
ATOM     23  C   UNL A   1      35.501  32.169  28.669  1.00  0.00     0.060 A 
ATOM     24  C   UNL A   1      35.192  29.046  26.879  1.00  0.00     0.018 A 
ATOM     25  C   UNL A   1      33.898  31.523  27.671  1.00  0.00     0.033 A 
ATOM     26  Br  UNL A   1      36.190  34.016  29.181  1.00  0.00    -0.047 Br
BRANCH  21  27
ATOM     27  O   UNL A   1      37.970  31.334  29.467  1.00  0.00    -0.493 OA
BRANCH  27  28
ATOM     28  C   UNL A   1      37.762  30.749  30.753  1.00  0.00     0.226 C 
ATOM     29  C   UNL A   1      36.480  29.962  31.009  1.00  0.00     0.049 C 
ENDBRANCH  27  28
ENDBRANCH  21  27
ENDBRANCH  17  20
ENDBRANCH  14  16
ENDBRANCH  12  14
ENDBRANCH   6  12
ENDBRANCH   3   5
ENDBRANCH   2   3
ENDBRANCH   1   2
BRANCH   1  30
ATOM     30  C   UNL A   1      37.142  23.873  24.925  1.00  0.00     0.202 C 
BRANCH  30  31
ATOM     31  O   UNL A   1      37.594  23.578  26.217  1.00  0.00    -0.374 OA
BRANCH  31  32
ATOM     32  C   UNL A   1      38.814  24.216  26.569  1.00  0.00     0.202 C 
BRANCH  32  33
ATOM     33  C   UNL A   1      39.523  23.992  27.946  1.00  0.00     0.261 C 
BRANCH  33  34
ATOM     34  O   UNL A   1      40.613  24.928  28.176  1.00  0.00    -0.460 OA
BRANCH  34  35
ATOM     35  C   UNL A   1      40.830  26.264  28.022  1.00  0.00     0.338 C 
ATOM     36  O   UNL A   1      41.127  26.877  29.053  1.00  0.00    -0.246 OA
BRANCH  35  37
ATOM     37  C   UNL A   1      40.498  27.097  26.757  1.00  0.00     0.060 A 
ATOM     38  C   UNL A   1      41.446  26.888  25.754  1.00  0.00     0.016 A 
ATOM     39  C   UNL A   1      40.271  28.448  26.933  1.00  0.00     0.016 A 
ATOM     40  C   UNL A   1      42.586  27.688  25.711  1.00  0.00     0.010 A 
ATOM     41  C   UNL A   1      41.364  29.320  26.829  1.00  0.00     0.010 A 
ATOM     42  C   UNL A   1      42.617  28.798  26.525  1.00  0.00    -0.014 A 
BRANCH  42  43
ATOM     43  C   UNL A   1      43.861  29.200  27.232  1.00  0.00     0.031 A 
ATOM     44  C   UNL A   1      44.523  30.478  26.918  1.00  0.00     0.074 A 
ATOM     45  C   UNL A   1      44.348  28.440  28.251  1.00  0.00     0.049 A 
ATOM     46  N   UNL A   1      45.720  30.628  26.458  1.00  0.00    -0.248 NA
ATOM     47  C   UNL A   1      43.802  31.740  27.023  1.00  0.00     0.031 C 
ATOM     48  C   UNL A   1      45.511  28.666  29.107  1.00  0.00     0.029 A 
ATOM     49  N   UNL A   1      43.895  27.195  28.674  1.00  0.00    -0.354 N 
ATOM     50  C   UNL A   1      45.967  31.994  26.488  1.00  0.00     0.074 A 
ATOM     51  C   UNL A   1      44.678  32.617  26.548  1.00  0.00     0.031 C 
ATOM     52  C   UNL A   1      45.845  27.506  29.710  1.00  0.00     0.029 A 
ATOM     53  C   UNL A   1      44.945  26.467  29.222  1.00  0.00     0.049 A 
ATOM     54  H   UNL A   1      42.967  26.875  28.596  1.00  0.00     0.167 HD
ATOM     55  C   UNL A   1      47.177  32.508  26.859  1.00  0.00     0.037 A 
ATOM     56  C   UNL A   1      45.338  25.333  28.568  1.00  0.00     0.037 A 
ATOM     57  C   UNL A   1      47.990  31.433  27.436  1.00  0.00     0.049 A 
ATOM     58  C   UNL A   1      46.651  25.642  27.844  1.00  0.00     0.074 A 
ATOM     59  C   UNL A   1      48.309  31.105  28.744  1.00  0.00     0.029 A 
ATOM     60  N   UNL A   1      48.277  30.302  26.677  1.00  0.00    -0.354 N 
ATOM     61  N   UNL A   1      47.022  26.851  27.484  1.00  0.00    -0.248 NA
ATOM     62  C   UNL A   1      47.720  24.667  27.650  1.00  0.00     0.031 C 
ATOM     63  C   UNL A   1      48.724  29.741  28.768  1.00  0.00     0.029 A 
ATOM     64  C   UNL A   1      48.655  29.238  27.476  1.00  0.00     0.049 A 
ATOM     65  H   UNL A   1      48.219  30.264  25.694  1.00  0.00     0.167 HD
ATOM     66  C   UNL A   1      48.348  26.854  27.142  1.00  0.00     0.074 A 
ATOM     67  C   UNL A   1      48.728  25.453  27.228  1.00  0.00     0.031 C 
ATOM     68  C   UNL A   1      49.076  27.981  26.865  1.00  0.00     0.037 A 
BRANCH  55  69
ATOM     69  C   UNL A   1      47.458  34.005  27.033  1.00  0.00     0.058 A 
ATOM     70  C   UNL A   1      47.448  34.888  25.932  1.00  0.00     0.135 A 
ATOM     71  C   UNL A   1      47.675  34.651  28.276  1.00  0.00     0.135 A 
ATOM     72  F   UNL A   1      47.154  34.455  24.698  1.00  0.00    -0.206 F 
ATOM     73  C   UNL A   1      47.695  36.265  26.046  1.00  0.00     0.059 A 
ATOM     74  C   UNL A   1      48.000  36.006  28.408  1.00  0.00     0.059 A 
ATOM     75  F   UNL A   1      47.495  34.015  29.441  1.00  0.00    -0.206 F 
ATOM     76  C   UNL A   1      47.990  36.816  27.287  1.00  0.00     0.060 A 
BRANCH  76  77
ATOM     77  S   UNL A   1      48.254  38.596  27.438  1.00  0.00     0.124 S 
ATOM     78  O   UNL A   1      47.448  38.930  28.608  1.00  0.00    -0.237 OA
ATOM     79  O   UNL A   1      49.699  38.676  27.614  1.00  0.00    -0.237 OA
ATOM     80  O   UNL A   1      47.753  39.125  26.172  1.00  0.00    -0.744 OA
ENDBRANCH  76  77
ENDBRANCH  55  69
BRANCH  56  81
ATOM     81  C   UNL A   1      44.157  24.471  28.168  1.00  0.00     0.058 A 
ATOM     82  C   UNL A   1      43.920  24.314  26.774  1.00  0.00     0.135 A 
ATOM     83  C   UNL A   1      43.499  23.551  28.992  1.00  0.00     0.135 A 
ATOM     84  F   UNL A   1      44.460  25.191  25.908  1.00  0.00    -0.206 F 
ATOM     85  C   UNL A   1      43.243  23.217  26.226  1.00  0.00     0.059 A 
ATOM     86  C   UNL A   1      42.778  22.453  28.463  1.00  0.00     0.059 A 
ATOM     87  F   UNL A   1      43.650  23.614  30.323  1.00  0.00    -0.206 F 
ATOM     88  C   UNL A   1      42.706  22.258  27.076  1.00  0.00     0.060 A 
BRANCH  88  89
ATOM     89  S   UNL A   1      42.108  20.679  26.358  1.00  0.00     0.124 S 
ATOM     90  O   UNL A   1      40.736  21.012  25.994  1.00  0.00    -0.237 OA
ATOM     91  O   UNL A   1      43.018  20.444  25.239  1.00  0.00    -0.237 OA
ATOM     92  O   UNL A   1      42.244  19.722  27.452  1.00  0.00    -0.744 OA
ENDBRANCH  88  89
ENDBRANCH  56  81
BRANCH  68  93
ATOM     93  C   UNL A   1      50.318  28.005  25.993  1.00  0.00     0.058 A 
ATOM     94  C   UNL A   1      51.618  28.101  26.515  1.00  0.00     0.135 A 
ATOM     95  C   UNL A   1      50.246  27.705  24.606  1.00  0.00     0.135 A 
ATOM     96  F   UNL A   1      51.846  28.264  27.825  1.00  0.00    -0.206 F 
ATOM     97  C   UNL A   1      52.755  27.978  25.720  1.00  0.00     0.059 A 
ATOM     98  C   UNL A   1      51.370  27.491  23.813  1.00  0.00     0.059 A 
ATOM     99  F   UNL A   1      49.074  27.576  23.965  1.00  0.00    -0.206 F 
ATOM    100  C   UNL A   1      52.622  27.663  24.374  1.00  0.00     0.060 A 
BRANCH 100 101
ATOM    101  S   UNL A   1      54.104  27.444  23.382  1.00  0.00     0.124 S 
ATOM    102  O   UNL A   1      53.953  26.060  22.945  1.00  0.00    -0.237 OA
ATOM    103  O   UNL A   1      53.942  28.456  22.343  1.00  0.00    -0.237 OA
ATOM    104  O   UNL A   1      55.187  27.695  24.327  1.00  0.00    -0.744 OA
ENDBRANCH 100 101
ENDBRANCH  68  93
ENDBRANCH  42  43
ENDBRANCH  35  37
ENDBRANCH  34  35
ENDBRANCH  33  34
ENDBRANCH  32  33
ENDBRANCH  31  32
ENDBRANCH  30  31
ENDBRANCH   1  30
TORSDOF 23
ENDMDL
MODEL 3
REMARK VINA RESULT:     -10.5      4.409     11.153
REMARK SMILES CCOc1ccc(C(=O)NC(=S)Nc2cccc(C(=O)OCCOCCOC(=O)c3ccc(-c4c5nc(c(-c6c(F)cc(S(=O)(=O)[O-])cc6F)c6ccc([nH]6)c(-c6c(F)cc(S(=O)(=O)[O-])cc6F)c6nc(c(-c7c(F)cc(S(=O)(=O)[O-])cc7F)c7ccc4[nH]7)C=C6)C=C5)cc3)c2C)cc1Br
REMARK SMILES IDX 22 1 21 2 19 3 20 4 18 5 14 6 15 7 96 8 16 9 97 10 17 11
REMARK SMILES IDX 13 12 11 14 12 15 10 16 8 17 9 18 7 20 4 21 5 22 99 23 6 24
REMARK SMILES IDX 98 25 100 26 3 27 2 28 1 29 23 30 24 31 25 32 26 33 27 34
REMARK SMILES IDX 28 35 29 36 30 37 31 38 95 39 32 40 94 41 33 42 34 43 35 44
REMARK SMILES IDX 88 45 36 46 93 47 87 48 89 49 37 50 92 51 86 52 85 53 38 55
REMARK SMILES IDX 72 56 51 57 71 58 52 59 55 60 70 61 90 62 53 63 54 64 69 66
REMARK SMILES IDX 91 67 56 68 39 69 40 70 49 71 41 72 42 73 48 74 50 75 43 76
REMARK SMILES IDX 44 77 45 78 46 79 47 80 73 81 74 82 83 83 75 84 76 85 82 86
REMARK SMILES IDX 84 87 77 88 78 89 79 90 80 91 81 92 57 93 58 94 67 95 59 96
REMARK SMILES IDX 60 97 66 98 68 99 61 100 62 101 63 102 64 103 65 104
REMARK H PARENT 13 13 10 19 89 54 55 65
REMARK Flexibility Score: inf
ROOT
ATOM      1  C   UNL A   1      37.170  22.172  24.274  1.00  0.00     0.261 C 
ENDROOT
BRANCH   1   2
ATOM      2  O   UNL A   1      35.863  22.076  23.721  1.00  0.00    -0.460 OA
BRANCH   2   3
ATOM      3  C   UNL A   1      35.176  23.264  23.662  1.00  0.00     0.338 C 
ATOM      4  O   UNL A   1      35.215  24.055  22.732  1.00  0.00    -0.246 OA
BRANCH   3   5
ATOM      5  C   UNL A   1      33.998  23.315  24.697  1.00  0.00     0.065 A 
ATOM      6  C   UNL A   1      30.938  22.993  24.362  1.00  0.00     0.044 A 
ATOM      7  C   UNL A   1      30.638  23.590  26.020  1.00  0.00     0.026 A 
ATOM      8  C   UNL A   1      32.592  22.696  23.712  1.00  0.00    -0.013 A 
ATOM      9  C   UNL A   1      31.901  24.084  27.135  1.00  0.00     0.003 A 
ATOM     10  C   UNL A   1      32.783  22.469  22.231  1.00  0.00     0.047 C 
ATOM     11  C   UNL A   1      33.596  24.014  26.547  1.00  0.00     0.016 A 
BRANCH   6  12
ATOM     12  N   UNL A   1      30.254  23.957  23.461  1.00  0.00    -0.332 N 
ATOM     13  H   UNL A   1      29.574  23.568  22.865  1.00  0.00     0.169 HD
BRANCH  12  14
ATOM     14  C   UNL A   1      30.441  25.352  23.339  1.00  0.00     0.177 C 
ATOM     15  S   UNL A   1      29.159  26.324  23.822  1.00  0.00    -0.040 S 
BRANCH  14  16
ATOM     16  N   UNL A   1      31.615  26.034  22.732  1.00  0.00    -0.299 N 
ATOM     17  C   UNL A   1      32.952  26.860  22.806  1.00  0.00     0.257 C 
ATOM     18  O   UNL A   1      33.569  27.077  21.767  1.00  0.00    -0.269 OA
ATOM     19  H   UNL A   1      31.487  25.893  21.766  1.00  0.00     0.172 HD
BRANCH  17  20
ATOM     20  C   UNL A   1      33.364  27.509  24.113  1.00  0.00     0.041 A 
ATOM     21  C   UNL A   1      33.284  30.007  26.921  1.00  0.00     0.133 A 
ATOM     22  C   UNL A   1      34.600  28.800  26.708  1.00  0.00     0.048 A 
ATOM     23  C   UNL A   1      31.939  29.996  25.714  1.00  0.00     0.060 A 
ATOM     24  C   UNL A   1      34.634  27.624  25.317  1.00  0.00     0.018 A 
ATOM     25  C   UNL A   1      32.094  28.598  24.298  1.00  0.00     0.033 A 
ATOM     26  Br  UNL A   1      30.970  31.785  25.825  1.00  0.00    -0.047 Br
BRANCH  21  27
ATOM     27  O   UNL A   1      33.169  30.838  27.995  1.00  0.00    -0.493 OA
BRANCH  27  28
ATOM     28  C   UNL A   1      34.191  31.831  27.892  1.00  0.00     0.226 C 
ATOM     29  C   UNL A   1      35.416  31.727  28.795  1.00  0.00     0.049 C 
ENDBRANCH  27  28
ENDBRANCH  21  27
ENDBRANCH  17  20
ENDBRANCH  14  16
ENDBRANCH  12  14
ENDBRANCH   6  12
ENDBRANCH   3   5
ENDBRANCH   2   3
ENDBRANCH   1   2
BRANCH   1  30
ATOM     30  C   UNL A   1      37.414  22.725  25.689  1.00  0.00     0.202 C 
BRANCH  30  31
ATOM     31  O   UNL A   1      38.648  23.094  26.240  1.00  0.00    -0.374 OA
BRANCH  31  32
ATOM     32  C   UNL A   1      38.743  24.467  26.592  1.00  0.00     0.202 C 
BRANCH  32  33
ATOM     33  C   UNL A   1      39.553  24.971  27.833  1.00  0.00     0.261 C 
BRANCH  33  34
ATOM     34  O   UNL A   1      39.607  26.423  27.918  1.00  0.00    -0.460 OA
BRANCH  34  35
ATOM     35  C   UNL A   1      39.769  27.359  28.894  1.00  0.00     0.338 C 
ATOM     36  O   UNL A   1      39.719  26.933  30.052  1.00  0.00    -0.246 OA
BRANCH  35  37
ATOM     37  C   UNL A   1      39.757  28.896  28.689  1.00  0.00     0.060 A 
ATOM     38  C   UNL A   1      39.848  29.223  27.335  1.00  0.00     0.016 A 
ATOM     39  C   UNL A   1      40.658  29.638  29.427  1.00  0.00     0.016 A 
ATOM     40  C   UNL A   1      41.103  29.379  26.750  1.00  0.00     0.010 A 
ATOM     41  C   UNL A   1      41.917  29.895  28.866  1.00  0.00     0.010 A 
ATOM     42  C   UNL A   1      42.196  29.424  27.588  1.00  0.00    -0.014 A 
BRANCH  42  43
ATOM     43  C   UNL A   1      43.471  28.753  27.225  1.00  0.00     0.031 A 
ATOM     44  C   UNL A   1      43.537  27.286  27.097  1.00  0.00     0.074 A 
ATOM     45  C   UNL A   1      44.570  29.491  26.906  1.00  0.00     0.049 A 
ATOM     46  N   UNL A   1      44.275  26.489  27.794  1.00  0.00    -0.248 NA
ATOM     47  C   UNL A   1      42.655  26.575  26.182  1.00  0.00     0.031 C 
ATOM     48  C   UNL A   1      45.895  29.050  26.478  1.00  0.00     0.029 A 
ATOM     49  N   UNL A   1      44.722  30.871  26.998  1.00  0.00    -0.354 N 
ATOM     50  C   UNL A   1      44.138  25.239  27.207  1.00  0.00     0.074 A 
ATOM     51  C   UNL A   1      42.927  25.302  26.444  1.00  0.00     0.031 C 
ATOM     52  C   UNL A   1      46.770  30.064  26.638  1.00  0.00     0.029 A 
ATOM     53  C   UNL A   1      46.055  31.187  27.233  1.00  0.00     0.049 A 
ATOM     54  H   UNL A   1      43.993  31.527  26.910  1.00  0.00     0.167 HD
ATOM     55  C   UNL A   1      45.193  24.384  27.055  1.00  0.00     0.037 A 
ATOM     56  C   UNL A   1      46.365  31.768  28.431  1.00  0.00     0.037 A 
ATOM     57  C   UNL A   1      46.433  25.108  27.354  1.00  0.00     0.049 A 
ATOM     58  C   UNL A   1      47.031  30.704  29.308  1.00  0.00     0.074 A 
ATOM     59  C   UNL A   1      47.418  25.645  26.540  1.00  0.00     0.029 A 
ATOM     60  N   UNL A   1      46.603  25.700  28.602  1.00  0.00    -0.354 N 
ATOM     61  N   UNL A   1      46.850  29.411  29.155  1.00  0.00    -0.248 NA
ATOM     62  C   UNL A   1      48.086  30.993  30.275  1.00  0.00     0.031 C 
ATOM     63  C   UNL A   1      48.134  26.618  27.297  1.00  0.00     0.029 A 
ATOM     64  C   UNL A   1      47.584  26.675  28.571  1.00  0.00     0.049 A 
ATOM     65  H   UNL A   1      46.090  25.456  29.406  1.00  0.00     0.167 HD
ATOM     66  C   UNL A   1      47.792  28.716  29.866  1.00  0.00     0.074 A 
ATOM     67  C   UNL A   1      48.518  29.755  30.580  1.00  0.00     0.031 C 
ATOM     68  C   UNL A   1      47.970  27.359  29.801  1.00  0.00     0.037 A 
BRANCH  55  69
ATOM     69  C   UNL A   1      45.120  23.052  26.301  1.00  0.00     0.058 A 
ATOM     70  C   UNL A   1      44.162  22.070  26.633  1.00  0.00     0.135 A 
ATOM     71  C   UNL A   1      45.921  22.708  25.183  1.00  0.00     0.135 A 
ATOM     72  F   UNL A   1      43.257  22.283  27.598  1.00  0.00    -0.206 F 
ATOM     73  C   UNL A   1      44.056  20.840  25.965  1.00  0.00     0.059 A 
ATOM     74  C   UNL A   1      45.888  21.460  24.551  1.00  0.00     0.059 A 
ATOM     75  F   UNL A   1      46.721  23.602  24.587  1.00  0.00    -0.206 F 
ATOM     76  C   UNL A   1      44.936  20.532  24.936  1.00  0.00     0.060 A 
BRANCH  76  77
ATOM     77  S   UNL A   1      44.762  18.972  24.044  1.00  0.00     0.124 S 
ATOM     78  O   UNL A   1      46.068  18.352  24.244  1.00  0.00    -0.237 OA
ATOM     79  O   UNL A   1      43.645  18.345  24.741  1.00  0.00    -0.237 OA
ATOM     80  O   UNL A   1      44.481  19.391  22.673  1.00  0.00    -0.744 OA
ENDBRANCH  76  77
ENDBRANCH  55  69
BRANCH  56  81
ATOM     81  C   UNL A   1      45.411  32.893  28.780  1.00  0.00     0.058 A 
ATOM     82  C   UNL A   1      45.567  34.113  28.066  1.00  0.00     0.135 A 
ATOM     83  C   UNL A   1      44.197  32.754  29.465  1.00  0.00     0.135 A 
ATOM     84  F   UNL A   1      46.725  34.362  27.428  1.00  0.00    -0.206 F 
ATOM     85  C   UNL A   1      44.530  35.037  27.882  1.00  0.00     0.059 A 
ATOM     86  C   UNL A   1      43.146  33.693  29.324  1.00  0.00     0.059 A 
ATOM     87  F   UNL A   1      43.951  31.644  30.176  1.00  0.00    -0.206 F 
ATOM     88  C   UNL A   1      43.299  34.802  28.481  1.00  0.00     0.060 A 
BRANCH  88  89
ATOM     89  S   UNL A   1      41.866  35.834  27.983  1.00  0.00     0.124 S 
ATOM     90  O   UNL A   1      41.896  35.714  26.531  1.00  0.00    -0.237 OA
ATOM     91  O   UNL A   1      40.733  35.193  28.646  1.00  0.00    -0.237 OA
ATOM     92  O   UNL A   1      42.191  37.160  28.501  1.00  0.00    -0.744 OA
ENDBRANCH  88  89
ENDBRANCH  56  81
BRANCH  68  93
ATOM     93  C   UNL A   1      48.581  26.521  30.910  1.00  0.00     0.058 A 
ATOM     94  C   UNL A   1      47.837  26.025  31.993  1.00  0.00     0.135 A 
ATOM     95  C   UNL A   1      49.898  26.002  30.795  1.00  0.00     0.135 A 
ATOM     96  F   UNL A   1      46.544  26.333  32.164  1.00  0.00    -0.206 F 
ATOM     97  C   UNL A   1      48.372  25.141  32.925  1.00  0.00     0.059 A 
ATOM     98  C   UNL A   1      50.421  25.051  31.666  1.00  0.00     0.059 A 
ATOM     99  F   UNL A   1      50.728  26.376  29.809  1.00  0.00    -0.206 F 
ATOM    100  C   UNL A   1      49.660  24.651  32.749  1.00  0.00     0.060 A 
BRANCH 100 101
ATOM    101  S   UNL A   1      50.305  23.461  33.929  1.00  0.00     0.124 S 
ATOM    102  O   UNL A   1      50.086  22.205  33.217  1.00  0.00    -0.237 OA
ATOM    103  O   UNL A   1      51.699  23.874  34.066  1.00  0.00    -0.237 OA
ATOM    104  O   UNL A   1      49.478  23.669  35.112  1.00  0.00    -0.744 OA
ENDBRANCH 100 101
ENDBRANCH  68  93
ENDBRANCH  42  43
ENDBRANCH  35  37
ENDBRANCH  34  35
ENDBRANCH  33  34
ENDBRANCH  32  33
ENDBRANCH  31  32
ENDBRANCH  30  31
ENDBRANCH   1  30
TORSDOF 23
ENDMDL
