MODEL 1
REMARK VINA RESULT:      -9.7      0.000      0.000
REMARK SMILES C/C=C/C[C@@H](C(=O)OCCOCCOC(=O)c1ccc(-c2c3nc(c(-c4c(F)cc(S(=O)(=O)[O-])cc4F)c4ccc([nH]4)c(-c4c(F)cc(S(=O)(=O)[O-])cc4F)c4nc(c(-c5c(F)cc(S(=O)(=O)[O-])cc5F)c5ccc2[nH]5)C=C4)C=C3)cc1)c1cccc(Cl)c1
REMARK SMILES IDX 12 1 11 2 10 3 9 4 8 5 6 6 7 7 5 8 4 9 3 10 1 11 2 12 83 13
REMARK SMILES IDX 84 14 89 15 85 16 87 17 86 18 88 19 13 20 14 21 15 22 16 23
REMARK SMILES IDX 17 24 18 25 82 26 19 27 81 28 20 29 21 30 22 31 75 32 23 33
REMARK SMILES IDX 80 34 74 35 76 36 24 37 79 38 73 39 72 40 25 42 59 43 38 44
REMARK SMILES IDX 58 45 39 46 42 47 57 48 77 49 40 50 41 51 56 53 78 54 43 55
REMARK SMILES IDX 26 56 27 57 36 58 28 59 29 60 35 61 37 62 30 63 31 64 32 65
REMARK SMILES IDX 33 66 34 67 60 68 61 69 70 70 62 71 63 72 69 73 71 74 64 75
REMARK SMILES IDX 65 76 66 77 67 78 68 79 44 80 45 81 54 82 46 83 47 84 53 85
REMARK SMILES IDX 55 86 48 87 49 88 50 89 51 90 52 91
REMARK H PARENT 76 41 42 52
REMARK Flexibility Score: inf
ROOT
ATOM      1  C   UNL A   1      31.720  28.298  26.275  1.00  0.00     0.202 C 
ENDROOT
BRANCH   1   2
ATOM      2  O   UNL A   1      31.078  27.371  25.399  1.00  0.00    -0.374 OA
BRANCH   2   3
ATOM      3  C   UNL A   1      30.503  26.198  25.980  1.00  0.00     0.202 C 
BRANCH   3   4
ATOM      4  C   UNL A   1      31.206  24.877  25.653  1.00  0.00     0.261 C 
BRANCH   4   5
ATOM      5  O   UNL A   1      32.437  24.791  26.386  1.00  0.00    -0.463 OA
BRANCH   5   6
ATOM      6  C   UNL A   1      32.736  23.588  26.936  1.00  0.00     0.313 C 
ATOM      7  O   UNL A   1      32.101  23.080  27.855  1.00  0.00    -0.252 OA
BRANCH   6   8
ATOM      8  C   UNL A   1      33.862  22.860  26.187  1.00  0.00     0.133 C 
BRANCH   8   9
ATOM      9  C   UNL A   1      34.873  23.768  25.435  1.00  0.00     0.047 C 
BRANCH   9  10
ATOM     10  C   UNL A   1      36.292  23.775  25.935  1.00  0.00    -0.030 C 
ATOM     11  C   UNL A   1      38.616  22.884  26.141  1.00  0.00     0.035 C 
ATOM     12  C   UNL A   1      37.190  22.808  25.696  1.00  0.00    -0.035 C 
ENDBRANCH   9  10
ENDBRANCH   8   9
BRANCH   8  13
ATOM     13  C   UNL A   1      33.331  21.762  25.239  1.00  0.00    -0.032 A 
ATOM     14  C   UNL A   1      32.915  22.023  23.919  1.00  0.00     0.005 A 
ATOM     15  C   UNL A   1      33.251  20.432  25.695  1.00  0.00     0.025 A 
ATOM     16  C   UNL A   1      32.433  21.000  23.094  1.00  0.00     0.002 A 
ATOM     17  C   UNL A   1      32.786  19.412  24.860  1.00  0.00     0.041 A 
ATOM     18  C   UNL A   1      32.371  19.691  23.564  1.00  0.00     0.020 A 
ATOM     19  Cl  UNL A   1      32.729  17.792  25.441  1.00  0.00    -0.084 Cl
ENDBRANCH   8  13
ENDBRANCH   6   8
ENDBRANCH   5   6
ENDBRANCH   4   5
ENDBRANCH   3   4
ENDBRANCH   2   3
ENDBRANCH   1   2
BRANCH   1  20
ATOM     20  C   UNL A   1      33.253  28.366  26.229  1.00  0.00     0.261 C 
BRANCH  20  21
ATOM     21  O   UNL A   1      33.855  28.553  27.523  1.00  0.00    -0.460 OA
BRANCH  21  22
ATOM     22  C   UNL A   1      34.323  29.805  27.753  1.00  0.00     0.338 C 
ATOM     23  O   UNL A   1      33.672  30.842  27.777  1.00  0.00    -0.246 OA
BRANCH  22  24
ATOM     24  C   UNL A   1      35.739  29.759  28.161  1.00  0.00     0.060 A 
ATOM     25  C   UNL A   1      36.705  30.021  27.181  1.00  0.00     0.016 A 
ATOM     26  C   UNL A   1      36.121  29.375  29.448  1.00  0.00     0.016 A 
ATOM     27  C   UNL A   1      38.058  29.862  27.472  1.00  0.00     0.010 A 
ATOM     28  C   UNL A   1      37.481  29.205  29.734  1.00  0.00     0.010 A 
ATOM     29  C   UNL A   1      38.454  29.417  28.740  1.00  0.00    -0.014 A 
BRANCH  29  30
ATOM     30  C   UNL A   1      39.870  29.047  28.983  1.00  0.00     0.031 A 
ATOM     31  C   UNL A   1      40.811  30.080  29.541  1.00  0.00     0.074 A 
ATOM     32  C   UNL A   1      40.310  27.801  28.726  1.00  0.00     0.049 A 
ATOM     33  N   UNL A   1      42.096  29.994  29.769  1.00  0.00    -0.248 NA
ATOM     34  C   UNL A   1      40.223  31.384  29.889  1.00  0.00     0.031 C 
ATOM     35  C   UNL A   1      39.485  26.701  28.227  1.00  0.00     0.029 A 
ATOM     36  N   UNL A   1      41.564  27.257  28.840  1.00  0.00    -0.354 N 
ATOM     37  C   UNL A   1      42.474  31.233  30.275  1.00  0.00     0.074 A 
ATOM     38  C   UNL A   1      41.286  32.059  30.301  1.00  0.00     0.031 C 
ATOM     39  C   UNL A   1      40.260  25.616  28.063  1.00  0.00     0.029 A 
ATOM     40  C   UNL A   1      41.640  25.954  28.409  1.00  0.00     0.049 A 
ATOM     41  H   UNL A   1      42.337  27.752  29.197  1.00  0.00     0.167 HD
ATOM     42  C   UNL A   1      43.699  31.640  30.688  1.00  0.00     0.037 A 
ATOM     43  C   UNL A   1      42.706  25.137  28.281  1.00  0.00     0.037 A 
ATOM     44  C   UNL A   1      44.876  30.812  30.663  1.00  0.00     0.049 A 
ATOM     45  C   UNL A   1      44.071  25.635  28.679  1.00  0.00     0.074 A 
ATOM     46  C   UNL A   1      46.159  31.129  31.074  1.00  0.00     0.029 A 
ATOM     47  N   UNL A   1      44.918  29.507  30.196  1.00  0.00    -0.354 N 
ATOM     48  N   UNL A   1      44.413  26.804  29.171  1.00  0.00    -0.248 NA
ATOM     49  C   UNL A   1      45.198  24.706  28.505  1.00  0.00     0.031 C 
ATOM     50  C   UNL A   1      46.986  30.032  30.811  1.00  0.00     0.029 A 
ATOM     51  C   UNL A   1      46.209  29.013  30.285  1.00  0.00     0.049 A 
ATOM     52  H   UNL A   1      44.144  29.006  29.851  1.00  0.00     0.167 HD
ATOM     53  C   UNL A   1      45.785  26.738  29.391  1.00  0.00     0.074 A 
ATOM     54  C   UNL A   1      46.212  25.415  28.984  1.00  0.00     0.031 C 
ATOM     55  C   UNL A   1      46.616  27.688  29.887  1.00  0.00     0.037 A 
BRANCH  42  56
ATOM     56  C   UNL A   1      43.835  33.057  31.175  1.00  0.00     0.058 A 
ATOM     57  C   UNL A   1      43.625  33.399  32.520  1.00  0.00     0.135 A 
ATOM     58  C   UNL A   1      44.214  34.078  30.290  1.00  0.00     0.135 A 
ATOM     59  F   UNL A   1      43.245  32.465  33.405  1.00  0.00    -0.206 F 
ATOM     60  C   UNL A   1      43.763  34.711  32.965  1.00  0.00     0.059 A 
ATOM     61  C   UNL A   1      44.382  35.392  30.717  1.00  0.00     0.059 A 
ATOM     62  F   UNL A   1      44.424  33.806  28.992  1.00  0.00    -0.206 F 
ATOM     63  C   UNL A   1      44.141  35.700  32.055  1.00  0.00     0.060 A 
BRANCH  63  64
ATOM     64  S   UNL A   1      44.317  37.397  32.648  1.00  0.00     0.124 S 
ATOM     65  O   UNL A   1      43.469  37.380  33.835  1.00  0.00    -0.237 OA
ATOM     66  O   UNL A   1      45.752  37.494  32.896  1.00  0.00    -0.237 OA
ATOM     67  O   UNL A   1      43.822  38.199  31.534  1.00  0.00    -0.744 OA
ENDBRANCH  63  64
ENDBRANCH  42  56
BRANCH  43  68
ATOM     68  C   UNL A   1      42.527  23.766  27.733  1.00  0.00     0.058 A 
ATOM     69  C   UNL A   1      42.489  23.536  26.350  1.00  0.00     0.135 A 
ATOM     70  C   UNL A   1      42.390  22.658  28.584  1.00  0.00     0.135 A 
ATOM     71  F   UNL A   1      42.603  24.565  25.496  1.00  0.00    -0.206 F 
ATOM     72  C   UNL A   1      42.311  22.259  25.829  1.00  0.00     0.059 A 
ATOM     73  C   UNL A   1      42.236  21.368  28.086  1.00  0.00     0.059 A 
ATOM     74  F   UNL A   1      42.428  22.823  29.916  1.00  0.00    -0.206 F 
ATOM     75  C   UNL A   1      42.188  21.180  26.706  1.00  0.00     0.060 A 
BRANCH  75  76
ATOM     76  S   UNL A   1      42.008  19.519  26.019  1.00  0.00     0.124 S 
ATOM     77  O   UNL A   1      42.526  18.694  27.105  1.00  0.00    -0.237 OA
ATOM     78  O   UNL A   1      40.569  19.439  25.785  1.00  0.00    -0.237 OA
ATOM     79  O   UNL A   1      42.830  19.565  24.813  1.00  0.00    -0.744 OA
ENDBRANCH  75  76
ENDBRANCH  43  68
BRANCH  55  80
ATOM     80  C   UNL A   1      48.067  27.328  30.059  1.00  0.00     0.058 A 
ATOM     81  C   UNL A   1      49.020  27.605  29.068  1.00  0.00     0.135 A 
ATOM     82  C   UNL A   1      48.518  26.761  31.263  1.00  0.00     0.135 A 
ATOM     83  F   UNL A   1      48.641  28.140  27.896  1.00  0.00    -0.206 F 
ATOM     84  C   UNL A   1      50.370  27.321  29.259  1.00  0.00     0.059 A 
ATOM     85  C   UNL A   1      49.865  26.492  31.485  1.00  0.00     0.059 A 
ATOM     86  F   UNL A   1      47.649  26.484  32.248  1.00  0.00    -0.206 F 
ATOM     87  C   UNL A   1      50.783  26.769  30.473  1.00  0.00     0.060 A 
BRANCH  87  88
ATOM     88  S   UNL A   1      52.543  26.451  30.726  1.00  0.00     0.124 S 
ATOM     89  O   UNL A   1      52.984  27.704  31.331  1.00  0.00    -0.237 OA
ATOM     90  O   UNL A   1      52.527  25.291  31.612  1.00  0.00    -0.237 OA
ATOM     91  O   UNL A   1      53.039  26.195  29.377  1.00  0.00    -0.744 OA
ENDBRANCH  87  88
ENDBRANCH  55  80
ENDBRANCH  29  30
ENDBRANCH  22  24
ENDBRANCH  21  22
ENDBRANCH  20  21
ENDBRANCH   1  20
TORSDOF 20
ENDMDL
MODEL 2
REMARK VINA RESULT:      -9.7      3.230      4.503
REMARK SMILES C/C=C/C[C@@H](C(=O)OCCOCCOC(=O)c1ccc(-c2c3nc(c(-c4c(F)cc(S(=O)(=O)[O-])cc4F)c4ccc([nH]4)c(-c4c(F)cc(S(=O)(=O)[O-])cc4F)c4nc(c(-c5c(F)cc(S(=O)(=O)[O-])cc5F)c5ccc2[nH]5)C=C4)C=C3)cc1)c1cccc(Cl)c1
REMARK SMILES IDX 12 1 11 2 10 3 9 4 8 5 6 6 7 7 5 8 4 9 3 10 1 11 2 12 83 13
REMARK SMILES IDX 84 14 89 15 85 16 87 17 86 18 88 19 13 20 14 21 15 22 16 23
REMARK SMILES IDX 17 24 18 25 82 26 19 27 81 28 20 29 21 30 22 31 75 32 23 33
REMARK SMILES IDX 80 34 74 35 76 36 24 37 79 38 73 39 72 40 25 42 59 43 38 44
REMARK SMILES IDX 58 45 39 46 42 47 57 48 77 49 40 50 41 51 56 53 78 54 43 55
REMARK SMILES IDX 26 56 27 57 36 58 28 59 29 60 35 61 37 62 30 63 31 64 32 65
REMARK SMILES IDX 33 66 34 67 60 68 61 69 70 70 62 71 63 72 69 73 71 74 64 75
REMARK SMILES IDX 65 76 66 77 67 78 68 79 44 80 45 81 54 82 46 83 47 84 53 85
REMARK SMILES IDX 55 86 48 87 49 88 50 89 51 90 52 91
REMARK H PARENT 76 41 42 52
REMARK Flexibility Score: inf
ROOT
ATOM      1  C   UNL A   1      34.621  32.992  28.763  1.00  0.00     0.202 C 
ENDROOT
BRANCH   1   2
ATOM      2  O   UNL A   1      33.574  32.364  28.021  1.00  0.00    -0.374 OA
BRANCH   2   3
ATOM      3  C   UNL A   1      33.890  31.159  27.318  1.00  0.00     0.202 C 
BRANCH   3   4
ATOM      4  C   UNL A   1      32.715  30.214  27.050  1.00  0.00     0.261 C 
BRANCH   4   5
ATOM      5  O   UNL A   1      33.119  28.860  27.300  1.00  0.00    -0.463 OA
BRANCH   5   6
ATOM      6  C   UNL A   1      32.136  27.924  27.317  1.00  0.00     0.313 C 
ATOM      7  O   UNL A   1      31.201  27.930  28.110  1.00  0.00    -0.252 OA
BRANCH   6   8
ATOM      8  C   UNL A   1      32.237  26.942  26.140  1.00  0.00     0.133 C 
BRANCH   8   9
ATOM      9  C   UNL A   1      33.598  26.919  25.391  1.00  0.00     0.047 C 
BRANCH   9  10
ATOM     10  C   UNL A   1      34.125  25.575  24.968  1.00  0.00    -0.030 C 
ATOM     11  C   UNL A   1      34.515  23.714  23.349  1.00  0.00     0.035 C 
ATOM     12  C   UNL A   1      33.911  25.016  23.767  1.00  0.00    -0.035 C 
ENDBRANCH   9  10
ENDBRANCH   8   9
BRANCH   8  13
ATOM     13  C   UNL A   1      31.082  27.107  25.128  1.00  0.00    -0.032 A 
ATOM     14  C   UNL A   1      30.033  26.177  25.002  1.00  0.00     0.005 A 
ATOM     15  C   UNL A   1      31.058  28.233  24.282  1.00  0.00     0.025 A 
ATOM     16  C   UNL A   1      29.008  26.361  24.067  1.00  0.00     0.002 A 
ATOM     17  C   UNL A   1      30.022  28.420  23.363  1.00  0.00     0.041 A 
ATOM     18  C   UNL A   1      29.000  27.486  23.248  1.00  0.00     0.020 A 
ATOM     19  Cl  UNL A   1      30.009  29.823  22.365  1.00  0.00    -0.084 Cl
ENDBRANCH   8  13
ENDBRANCH   6   8
ENDBRANCH   5   6
ENDBRANCH   4   5
ENDBRANCH   3   4
ENDBRANCH   2   3
ENDBRANCH   1   2
BRANCH   1  20
ATOM     20  C   UNL A   1      35.147  32.255  30.002  1.00  0.00     0.261 C 
BRANCH  20  21
ATOM     21  O   UNL A   1      35.879  31.058  29.684  1.00  0.00    -0.460 OA
BRANCH  21  22
ATOM     22  C   UNL A   1      36.612  30.554  30.708  1.00  0.00     0.338 C 
ATOM     23  O   UNL A   1      36.191  30.128  31.776  1.00  0.00    -0.246 OA
BRANCH  22  24
ATOM     24  C   UNL A   1      38.024  30.410  30.310  1.00  0.00     0.060 A 
ATOM     25  C   UNL A   1      38.305  30.301  28.942  1.00  0.00     0.016 A 
ATOM     26  C   UNL A   1      39.045  30.288  31.255  1.00  0.00     0.016 A 
ATOM     27  C   UNL A   1      39.603  30.030  28.513  1.00  0.00     0.010 A 
ATOM     28  C   UNL A   1      40.346  30.005  30.821  1.00  0.00     0.010 A 
ATOM     29  C   UNL A   1      40.625  29.844  29.451  1.00  0.00    -0.014 A 
BRANCH  29  30
ATOM     30  C   UNL A   1      41.952  29.349  29.008  1.00  0.00     0.031 A 
ATOM     31  C   UNL A   1      43.106  30.314  28.935  1.00  0.00     0.074 A 
ATOM     32  C   UNL A   1      42.134  28.054  28.689  1.00  0.00     0.049 A 
ATOM     33  N   UNL A   1      44.328  30.114  28.515  1.00  0.00    -0.248 NA
ATOM     34  C   UNL A   1      42.845  31.686  29.399  1.00  0.00     0.031 C 
ATOM     35  C   UNL A   1      41.106  27.016  28.763  1.00  0.00     0.029 A 
ATOM     36  N   UNL A   1      43.246  27.396  28.229  1.00  0.00    -0.354 N 
ATOM     37  C   UNL A   1      44.979  31.335  28.652  1.00  0.00     0.074 A 
ATOM     38  C   UNL A   1      44.010  32.274  29.175  1.00  0.00     0.031 C 
ATOM     39  C   UNL A   1      41.634  25.852  28.346  1.00  0.00     0.029 A 
ATOM     40  C   UNL A   1      43.022  26.071  27.942  1.00  0.00     0.049 A 
ATOM     41  H   UNL A   1      44.122  27.831  28.115  1.00  0.00     0.167 HD
ATOM     42  C   UNL A   1      46.270  31.641  28.375  1.00  0.00     0.037 A 
ATOM     43  C   UNL A   1      43.835  25.147  27.390  1.00  0.00     0.037 A 
ATOM     44  C   UNL A   1      47.230  30.701  27.859  1.00  0.00     0.049 A 
ATOM     45  C   UNL A   1      45.246  25.529  27.023  1.00  0.00     0.074 A 
ATOM     46  C   UNL A   1      48.565  30.912  27.560  1.00  0.00     0.029 A 
ATOM     47  N   UNL A   1      46.958  29.375  27.558  1.00  0.00    -0.354 N 
ATOM     48  N   UNL A   1      45.854  26.683  27.171  1.00  0.00    -0.248 NA
ATOM     49  C   UNL A   1      46.082  24.485  26.411  1.00  0.00     0.031 C 
ATOM     50  C   UNL A   1      49.087  29.726  27.034  1.00  0.00     0.029 A 
ATOM     51  C   UNL A   1      48.093  28.761  27.053  1.00  0.00     0.049 A 
ATOM     52  H   UNL A   1      46.087  28.934  27.683  1.00  0.00     0.167 HD
ATOM     53  C   UNL A   1      47.149  26.495  26.700  1.00  0.00     0.074 A 
ATOM     54  C   UNL A   1      47.240  25.116  26.265  1.00  0.00     0.031 C 
ATOM     55  C   UNL A   1      48.172  27.384  26.635  1.00  0.00     0.037 A 
BRANCH  42  56
ATOM     56  C   UNL A   1      46.711  33.062  28.596  1.00  0.00     0.058 A 
ATOM     57  C   UNL A   1      47.259  33.483  29.818  1.00  0.00     0.135 A 
ATOM     58  C   UNL A   1      46.618  34.004  27.560  1.00  0.00     0.135 A 
ATOM     59  F   UNL A   1      47.356  32.629  30.847  1.00  0.00    -0.206 F 
ATOM     60  C   UNL A   1      47.675  34.797  30.012  1.00  0.00     0.059 A 
ATOM     61  C   UNL A   1      47.051  35.316  27.723  1.00  0.00     0.059 A 
ATOM     62  F   UNL A   1      46.100  33.654  26.372  1.00  0.00    -0.206 F 
ATOM     63  C   UNL A   1      47.566  35.706  28.958  1.00  0.00     0.060 A 
BRANCH  63  64
ATOM     64  S   UNL A   1      48.112  37.407  29.224  1.00  0.00     0.124 S 
ATOM     65  O   UNL A   1      48.634  37.335  30.585  1.00  0.00    -0.237 OA
ATOM     66  O   UNL A   1      49.108  37.584  28.172  1.00  0.00    -0.237 OA
ATOM     67  O   UNL A   1      46.889  38.186  29.062  1.00  0.00    -0.744 OA
ENDBRANCH  63  64
ENDBRANCH  42  56
BRANCH  43  68
ATOM     68  C   UNL A   1      43.328  23.773  27.131  1.00  0.00     0.058 A 
ATOM     69  C   UNL A   1      43.240  22.825  28.162  1.00  0.00     0.135 A 
ATOM     70  C   UNL A   1      42.924  23.380  25.845  1.00  0.00     0.135 A 
ATOM     71  F   UNL A   1      43.627  23.149  29.405  1.00  0.00    -0.206 F 
ATOM     72  C   UNL A   1      42.779  21.535  27.926  1.00  0.00     0.059 A 
ATOM     73  C   UNL A   1      42.435  22.103  25.590  1.00  0.00     0.059 A 
ATOM     74  F   UNL A   1      42.980  24.252  24.826  1.00  0.00    -0.206 F 
ATOM     75  C   UNL A   1      42.375  21.184  26.636  1.00  0.00     0.060 A 
BRANCH  75  76
ATOM     76  S   UNL A   1      41.730  19.521  26.351  1.00  0.00     0.124 S 
ATOM     77  O   UNL A   1      40.306  19.784  26.175  1.00  0.00    -0.237 OA
ATOM     78  O   UNL A   1      42.457  19.111  25.153  1.00  0.00    -0.237 OA
ATOM     79  O   UNL A   1      42.095  18.807  27.571  1.00  0.00    -0.744 OA
ENDBRANCH  75  76
ENDBRANCH  43  68
BRANCH  55  80
ATOM     80  C   UNL A   1      49.494  26.892  26.112  1.00  0.00     0.058 A 
ATOM     81  C   UNL A   1      49.861  27.048  24.767  1.00  0.00     0.135 A 
ATOM     82  C   UNL A   1      50.434  26.321  26.987  1.00  0.00     0.135 A 
ATOM     83  F   UNL A   1      48.998  27.581  23.888  1.00  0.00    -0.206 F 
ATOM     84  C   UNL A   1      51.110  26.642  24.304  1.00  0.00     0.059 A 
ATOM     85  C   UNL A   1      51.697  25.931  26.550  1.00  0.00     0.059 A 
ATOM     86  F   UNL A   1      50.137  26.158  28.286  1.00  0.00    -0.206 F 
ATOM     87  C   UNL A   1      52.023  26.089  25.204  1.00  0.00     0.060 A 
BRANCH  87  88
ATOM     88  S   UNL A   1      53.656  25.613  24.600  1.00  0.00     0.124 S 
ATOM     89  O   UNL A   1      54.530  26.268  25.568  1.00  0.00    -0.237 OA
ATOM     90  O   UNL A   1      53.606  24.156  24.676  1.00  0.00    -0.237 OA
ATOM     91  O   UNL A   1      53.692  26.163  23.248  1.00  0.00    -0.744 OA
ENDBRANCH  87  88
ENDBRANCH  55  80
ENDBRANCH  29  30
ENDBRANCH  22  24
ENDBRANCH  21  22
ENDBRANCH  20  21
ENDBRANCH   1  20
TORSDOF 20
ENDMDL
MODEL 3
REMARK VINA RESULT:      -9.4      1.219      2.498
REMARK SMILES C/C=C/C[C@@H](C(=O)OCCOCCOC(=O)c1ccc(-c2c3nc(c(-c4c(F)cc(S(=O)(=O)[O-])cc4F)c4ccc([nH]4)c(-c4c(F)cc(S(=O)(=O)[O-])cc4F)c4nc(c(-c5c(F)cc(S(=O)(=O)[O-])cc5F)c5ccc2[nH]5)C=C4)C=C3)cc1)c1cccc(Cl)c1
REMARK SMILES IDX 12 1 11 2 10 3 9 4 8 5 6 6 7 7 5 8 4 9 3 10 1 11 2 12 83 13
REMARK SMILES IDX 84 14 89 15 85 16 87 17 86 18 88 19 13 20 14 21 15 22 16 23
REMARK SMILES IDX 17 24 18 25 82 26 19 27 81 28 20 29 21 30 22 31 75 32 23 33
REMARK SMILES IDX 80 34 74 35 76 36 24 37 79 38 73 39 72 40 25 42 59 43 38 44
REMARK SMILES IDX 58 45 39 46 42 47 57 48 77 49 40 50 41 51 56 53 78 54 43 55
REMARK SMILES IDX 26 56 27 57 36 58 28 59 29 60 35 61 37 62 30 63 31 64 32 65
REMARK SMILES IDX 33 66 34 67 60 68 61 69 70 70 62 71 63 72 69 73 71 74 64 75
REMARK SMILES IDX 65 76 66 77 67 78 68 79 44 80 45 81 54 82 46 83 47 84 53 85
REMARK SMILES IDX 55 86 48 87 49 88 50 89 51 90 52 91
REMARK H PARENT 76 41 42 52
REMARK Flexibility Score: inf
ROOT
ATOM      1  C   UNL A   1      31.823  28.461  25.772  1.00  0.00     0.202 C 
ENDROOT
BRANCH   1   2
ATOM      2  O   UNL A   1      31.484  27.252  25.090  1.00  0.00    -0.374 OA
BRANCH   2   3
ATOM      3  C   UNL A   1      30.709  27.361  23.894  1.00  0.00     0.202 C 
BRANCH   3   4
ATOM      4  C   UNL A   1      31.328  26.742  22.637  1.00  0.00     0.261 C 
BRANCH   4   5
ATOM      5  O   UNL A   1      31.848  25.441  22.946  1.00  0.00    -0.463 OA
BRANCH   5   6
ATOM      6  C   UNL A   1      32.963  25.056  22.276  1.00  0.00     0.313 C 
ATOM      7  O   UNL A   1      33.644  25.812  21.591  1.00  0.00    -0.252 OA
BRANCH   6   8
ATOM      8  C   UNL A   1      33.368  23.607  22.588  1.00  0.00     0.133 C 
BRANCH   8   9
ATOM      9  C   UNL A   1      32.201  22.627  22.890  1.00  0.00     0.047 C 
BRANCH   9  10
ATOM     10  C   UNL A   1      32.441  21.579  23.942  1.00  0.00    -0.030 C 
ATOM     11  C   UNL A   1      32.770  19.244  24.765  1.00  0.00     0.035 C 
ATOM     12  C   UNL A   1      32.449  20.257  23.713  1.00  0.00    -0.035 C 
ENDBRANCH   9  10
ENDBRANCH   8   9
BRANCH   8  13
ATOM     13  C   UNL A   1      34.435  23.516  23.701  1.00  0.00    -0.032 A 
ATOM     14  C   UNL A   1      34.480  24.399  24.796  1.00  0.00     0.005 A 
ATOM     15  C   UNL A   1      35.418  22.509  23.637  1.00  0.00     0.025 A 
ATOM     16  C   UNL A   1      35.469  24.286  25.780  1.00  0.00     0.002 A 
ATOM     17  C   UNL A   1      36.392  22.390  24.632  1.00  0.00     0.041 A 
ATOM     18  C   UNL A   1      36.425  23.278  25.701  1.00  0.00     0.020 A 
ATOM     19  Cl  UNL A   1      37.561  21.129  24.537  1.00  0.00    -0.084 Cl
ENDBRANCH   8  13
ENDBRANCH   6   8
ENDBRANCH   5   6
ENDBRANCH   4   5
ENDBRANCH   3   4
ENDBRANCH   2   3
ENDBRANCH   1   2
BRANCH   1  20
ATOM     20  C   UNL A   1      32.440  28.331  27.171  1.00  0.00     0.261 C 
BRANCH  20  21
ATOM     21  O   UNL A   1      33.861  28.562  27.191  1.00  0.00    -0.460 OA
BRANCH  21  22
ATOM     22  C   UNL A   1      34.229  29.787  27.643  1.00  0.00     0.338 C 
ATOM     23  O   UNL A   1      33.503  30.759  27.810  1.00  0.00    -0.246 OA
BRANCH  22  24
ATOM     24  C   UNL A   1      35.632  29.770  28.093  1.00  0.00     0.060 A 
ATOM     25  C   UNL A   1      36.626  29.985  27.129  1.00  0.00     0.016 A 
ATOM     26  C   UNL A   1      35.977  29.457  29.410  1.00  0.00     0.016 A 
ATOM     27  C   UNL A   1      37.970  29.848  27.469  1.00  0.00     0.010 A 
ATOM     28  C   UNL A   1      37.329  29.310  29.744  1.00  0.00     0.010 A 
ATOM     29  C   UNL A   1      38.330  29.474  28.769  1.00  0.00    -0.014 A 
BRANCH  29  30
ATOM     30  C   UNL A   1      39.740  29.125  29.073  1.00  0.00     0.031 A 
ATOM     31  C   UNL A   1      40.633  30.164  29.696  1.00  0.00     0.074 A 
ATOM     32  C   UNL A   1      40.216  27.893  28.813  1.00  0.00     0.049 A 
ATOM     33  N   UNL A   1      41.907  30.097  29.984  1.00  0.00    -0.248 NA
ATOM     34  C   UNL A   1      40.004  31.449  30.041  1.00  0.00     0.031 C 
ATOM     35  C   UNL A   1      39.437  26.789  28.253  1.00  0.00     0.029 A 
ATOM     36  N   UNL A   1      41.474  27.369  28.976  1.00  0.00    -0.354 N 
ATOM     37  C   UNL A   1      42.237  31.331  30.532  1.00  0.00     0.074 A 
ATOM     38  C   UNL A   1      41.033  32.134  30.518  1.00  0.00     0.031 C 
ATOM     39  C   UNL A   1      40.240  25.722  28.104  1.00  0.00     0.029 A 
ATOM     40  C   UNL A   1      41.595  26.078  28.523  1.00  0.00     0.049 A 
ATOM     41  H   UNL A   1      42.219  27.871  29.380  1.00  0.00     0.167 HD
ATOM     42  C   UNL A   1      43.432  31.752  31.011  1.00  0.00     0.037 A 
ATOM     43  C   UNL A   1      42.681  25.283  28.431  1.00  0.00     0.037 A 
ATOM     44  C   UNL A   1      44.625  30.946  31.027  1.00  0.00     0.049 A 
ATOM     45  C   UNL A   1      44.016  25.798  28.904  1.00  0.00     0.074 A 
ATOM     46  C   UNL A   1      45.881  31.278  31.506  1.00  0.00     0.029 A 
ATOM     47  N   UNL A   1      44.714  29.652  30.537  1.00  0.00    -0.354 N 
ATOM     48  N   UNL A   1      44.311  26.962  29.435  1.00  0.00    -0.248 NA
ATOM     49  C   UNL A   1      45.167  24.893  28.766  1.00  0.00     0.031 C 
ATOM     50  C   UNL A   1      46.740  30.202  31.261  1.00  0.00     0.029 A 
ATOM     51  C   UNL A   1      46.008  29.180  30.678  1.00  0.00     0.049 A 
ATOM     52  H   UNL A   1      43.967  29.144  30.145  1.00  0.00     0.167 HD
ATOM     53  C   UNL A   1      45.672  26.917  29.719  1.00  0.00     0.074 A 
ATOM     54  C   UNL A   1      46.143  25.611  29.307  1.00  0.00     0.031 C 
ATOM     55  C   UNL A   1      46.460  27.871  30.273  1.00  0.00     0.037 A 
BRANCH  42  56
ATOM     56  C   UNL A   1      43.517  33.160  31.532  1.00  0.00     0.058 A 
ATOM     57  C   UNL A   1      43.236  33.471  32.872  1.00  0.00     0.135 A 
ATOM     58  C   UNL A   1      43.919  34.207  30.687  1.00  0.00     0.135 A 
ATOM     59  F   UNL A   1      42.832  32.512  33.719  1.00  0.00    -0.206 F 
ATOM     60  C   UNL A   1      43.327  34.775  33.349  1.00  0.00     0.059 A 
ATOM     61  C   UNL A   1      44.041  35.514  31.148  1.00  0.00     0.059 A 
ATOM     62  F   UNL A   1      44.197  33.965  29.396  1.00  0.00    -0.206 F 
ATOM     63  C   UNL A   1      43.729  35.790  32.479  1.00  0.00     0.060 A 
BRANCH  63  64
ATOM     64  S   UNL A   1      43.844  37.477  33.113  1.00  0.00     0.124 S 
ATOM     65  O   UNL A   1      42.734  37.508  34.060  1.00  0.00    -0.237 OA
ATOM     66  O   UNL A   1      45.180  37.499  33.703  1.00  0.00    -0.237 OA
ATOM     67  O   UNL A   1      43.676  38.301  31.921  1.00  0.00    -0.744 OA
ENDBRANCH  63  64
ENDBRANCH  42  56
BRANCH  43  68
ATOM     68  C   UNL A   1      42.555  23.921  27.847  1.00  0.00     0.058 A 
ATOM     69  C   UNL A   1      42.425  22.789  28.665  1.00  0.00     0.135 A 
ATOM     70  C   UNL A   1      42.565  23.725  26.457  1.00  0.00     0.135 A 
ATOM     71  F   UNL A   1      42.425  22.924  30.000  1.00  0.00    -0.206 F 
ATOM     72  C   UNL A   1      42.320  21.511  28.128  1.00  0.00     0.059 A 
ATOM     73  C   UNL A   1      42.435  22.459  25.895  1.00  0.00     0.059 A 
ATOM     74  F   UNL A   1      42.678  24.776  25.630  1.00  0.00    -0.206 F 
ATOM     75  C   UNL A   1      42.322  21.356  26.740  1.00  0.00     0.060 A 
BRANCH  75  76
ATOM     76  S   UNL A   1      42.134  19.697  26.051  1.00  0.00     0.124 S 
ATOM     77  O   UNL A   1      40.720  19.687  25.694  1.00  0.00    -0.237 OA
ATOM     78  O   UNL A   1      43.076  19.719  24.936  1.00  0.00    -0.237 OA
ATOM     79  O   UNL A   1      42.511  18.829  27.163  1.00  0.00    -0.744 OA
ENDBRANCH  75  76
ENDBRANCH  43  68
BRANCH  55  80
ATOM     80  C   UNL A   1      47.908  27.534  30.509  1.00  0.00     0.058 A 
ATOM     81  C   UNL A   1      48.360  27.037  31.741  1.00  0.00     0.135 A 
ATOM     82  C   UNL A   1      48.840  27.644  29.463  1.00  0.00     0.135 A 
ATOM     83  F   UNL A   1      47.512  26.919  32.774  1.00  0.00    -0.206 F 
ATOM     84  C   UNL A   1      49.690  26.673  31.932  1.00  0.00     0.059 A 
ATOM     85  C   UNL A   1      50.168  27.263  29.625  1.00  0.00     0.059 A 
ATOM     86  F   UNL A   1      48.457  28.104  28.262  1.00  0.00    -0.206 F 
ATOM     87  C   UNL A   1      50.586  26.785  30.867  1.00  0.00     0.060 A 
BRANCH  87  88
ATOM     88  S   UNL A   1      52.297  26.263  31.114  1.00  0.00     0.124 S 
ATOM     89  O   UNL A   1      52.780  27.273  32.050  1.00  0.00    -0.237 OA
ATOM     90  O   UNL A   1      52.137  24.918  31.661  1.00  0.00    -0.237 OA
ATOM     91  O   UNL A   1      52.868  26.324  29.773  1.00  0.00    -0.744 OA
ENDBRANCH  87  88
ENDBRANCH  55  80
ENDBRANCH  29  30
ENDBRANCH  22  24
ENDBRANCH  21  22
ENDBRANCH  20  21
ENDBRANCH   1  20
TORSDOF 20
ENDMDL
