MODEL 1
REMARK VINA RESULT:     -10.7      0.000      0.000
REMARK SMILES C[C@@H]1CC[C@@]1(SC1CCCCC1)C(=O)OCCOCCOC(=O)c1ccc(-c2c3nc(c(-c4c(F)cc(S(=O)(=O)[O-])cc4F)c4ccc([nH]4)c(-c4c(F)cc(S(=O)(=O)[O-])cc4F)c4nc(c(-c5c(F)cc(S(=O)(=O)[O-])cc5F)c5ccc2[nH]5)C=C4)C=C3)cc1
REMARK SMILES IDX 19 1 18 2 17 3 16 4 15 5 13 6 14 7 5 8 1 9 2 10 3 11 4 12
REMARK SMILES IDX 6 13 7 14 8 15 12 16 9 17 11 18 10 19 20 20 21 21 22 22
REMARK SMILES IDX 23 23 24 24 25 25 89 26 26 27 88 28 27 29 28 30 29 31 82 32
REMARK SMILES IDX 30 33 87 34 81 35 83 36 31 37 86 38 80 39 79 40 32 42 66 43
REMARK SMILES IDX 45 44 65 45 46 46 49 47 64 48 84 49 47 50 48 51 63 53 85 54
REMARK SMILES IDX 50 55 33 56 34 57 43 58 35 59 36 60 42 61 44 62 37 63 38 64
REMARK SMILES IDX 39 65 40 66 41 67 67 68 68 69 77 70 69 71 70 72 76 73 78 74
REMARK SMILES IDX 71 75 72 76 73 77 74 78 75 79 51 80 52 81 61 82 53 83 54 84
REMARK SMILES IDX 60 85 62 86 55 87 56 88 57 89 58 90 59 91
REMARK H PARENT 83 41 49 52
REMARK Flexibility Score: inf
ROOT
ATOM      1  C   UNL A   1      35.034  32.420  28.044  1.00  0.00     0.202 C 
ENDROOT
BRANCH   1   2
ATOM      2  O   UNL A   1      33.725  31.944  27.745  1.00  0.00    -0.374 OA
BRANCH   2   3
ATOM      3  C   UNL A   1      33.609  30.611  27.249  1.00  0.00     0.202 C 
BRANCH   3   4
ATOM      4  C   UNL A   1      32.199  30.037  27.079  1.00  0.00     0.261 C 
BRANCH   4   5
ATOM      5  O   UNL A   1      32.175  28.844  26.275  1.00  0.00    -0.462 OA
BRANCH   5   6
ATOM      6  C   UNL A   1      31.446  27.797  26.783  1.00  0.00     0.322 C 
ATOM      7  O   UNL A   1      31.020  27.787  27.938  1.00  0.00    -0.251 OA
BRANCH   6   8
ATOM      8  C   UNL A   1      31.188  26.666  25.722  1.00  0.00     0.116 C 
ATOM      9  C   UNL A   1      33.560  25.401  25.212  1.00  0.00     0.010 C 
ATOM     10  C   UNL A   1      32.209  25.452  25.897  1.00  0.00     0.013 C 
ATOM     11  C   UNL A   1      31.089  24.505  25.430  1.00  0.00     0.007 C 
ATOM     12  C   UNL A   1      30.080  25.579  25.898  1.00  0.00     0.030 C 
BRANCH   8  13
ATOM     13  S   UNL A   1      31.215  27.343  23.977  1.00  0.00    -0.140 SA
BRANCH  13  14
ATOM     14  C   UNL A   1      29.718  28.402  23.858  1.00  0.00     0.048 C 
ATOM     15  C   UNL A   1      30.071  29.837  23.448  1.00  0.00     0.014 C 
ATOM     16  C   UNL A   1      28.536  27.873  23.042  1.00  0.00     0.014 C 
ATOM     17  C   UNL A   1      28.850  30.756  23.533  1.00  0.00     0.001 C 
ATOM     18  C   UNL A   1      27.320  28.797  23.129  1.00  0.00     0.001 C 
ATOM     19  C   UNL A   1      27.683  30.218  22.710  1.00  0.00     0.000 C 
ENDBRANCH  13  14
ENDBRANCH   8  13
ENDBRANCH   6   8
ENDBRANCH   5   6
ENDBRANCH   4   5
ENDBRANCH   3   4
ENDBRANCH   2   3
ENDBRANCH   1   2
BRANCH   1  20
ATOM     20  C   UNL A   1      35.306  32.922  29.467  1.00  0.00     0.261 C 
BRANCH  20  21
ATOM     21  O   UNL A   1      36.633  32.613  29.920  1.00  0.00    -0.460 OA
BRANCH  21  22
ATOM     22  C   UNL A   1      36.727  31.429  30.572  1.00  0.00     0.338 C 
ATOM     23  O   UNL A   1      35.926  30.967  31.375  1.00  0.00    -0.246 OA
BRANCH  22  24
ATOM     24  C   UNL A   1      37.863  30.647  30.058  1.00  0.00     0.060 A 
ATOM     25  C   UNL A   1      38.873  30.322  30.973  1.00  0.00     0.016 A 
ATOM     26  C   UNL A   1      37.984  30.303  28.710  1.00  0.00     0.016 A 
ATOM     27  C   UNL A   1      40.040  29.712  30.529  1.00  0.00     0.010 A 
ATOM     28  C   UNL A   1      39.163  29.694  28.265  1.00  0.00     0.010 A 
ATOM     29  C   UNL A   1      40.210  29.437  29.166  1.00  0.00    -0.014 A 
BRANCH  29  30
ATOM     30  C   UNL A   1      41.549  29.015  28.691  1.00  0.00     0.031 A 
ATOM     31  C   UNL A   1      42.664  30.022  28.652  1.00  0.00     0.074 A 
ATOM     32  C   UNL A   1      41.778  27.732  28.362  1.00  0.00     0.049 A 
ATOM     33  N   UNL A   1      43.923  29.852  28.345  1.00  0.00    -0.248 NA
ATOM     34  C   UNL A   1      42.310  31.405  29.003  1.00  0.00     0.031 C 
ATOM     35  C   UNL A   1      40.774  26.670  28.372  1.00  0.00     0.029 A 
ATOM     36  N   UNL A   1      42.929  27.109  27.957  1.00  0.00    -0.354 N 
ATOM     37  C   UNL A   1      44.514  31.105  28.464  1.00  0.00     0.074 A 
ATOM     38  C   UNL A   1      43.466  32.031  28.835  1.00  0.00     0.031 C 
ATOM     39  C   UNL A   1      41.353  25.522  27.980  1.00  0.00     0.029 A 
ATOM     40  C   UNL A   1      42.762  25.775  27.679  1.00  0.00     0.049 A 
ATOM     41  H   UNL A   1      43.793  27.573  27.873  1.00  0.00     0.167 HD
ATOM     42  C   UNL A   1      45.813  31.449  28.291  1.00  0.00     0.037 A 
ATOM     43  C   UNL A   1      43.643  24.863  27.224  1.00  0.00     0.037 A 
ATOM     44  C   UNL A   1      46.848  30.520  27.915  1.00  0.00     0.049 A 
ATOM     45  C   UNL A   1      45.076  25.266  27.015  1.00  0.00     0.074 A 
ATOM     46  C   UNL A   1      48.202  30.753  27.754  1.00  0.00     0.029 A 
ATOM     47  N   UNL A   1      46.637  29.179  27.620  1.00  0.00    -0.354 N 
ATOM     48  N   UNL A   1      45.634  26.441  27.187  1.00  0.00    -0.248 NA
ATOM     49  C   UNL A   1      46.001  24.219  26.564  1.00  0.00     0.031 C 
ATOM     50  C   UNL A   1      48.801  29.566  27.313  1.00  0.00     0.029 A 
ATOM     51  C   UNL A   1      47.829  28.580  27.246  1.00  0.00     0.049 A 
ATOM     52  H   UNL A   1      45.768  28.720  27.671  1.00  0.00     0.167 HD
ATOM     53  C   UNL A   1      46.978  26.276  26.870  1.00  0.00     0.074 A 
ATOM     54  C   UNL A   1      47.151  24.878  26.521  1.00  0.00     0.031 C 
ATOM     55  C   UNL A   1      47.978  27.194  26.871  1.00  0.00     0.037 A 
BRANCH  42  56
ATOM     56  C   UNL A   1      46.167  32.900  28.471  1.00  0.00     0.058 A 
ATOM     57  C   UNL A   1      46.124  33.814  27.405  1.00  0.00     0.135 A 
ATOM     58  C   UNL A   1      46.582  33.378  29.724  1.00  0.00     0.135 A 
ATOM     59  F   UNL A   1      45.750  33.408  26.181  1.00  0.00    -0.206 F 
ATOM     60  C   UNL A   1      46.526  35.137  27.563  1.00  0.00     0.059 A 
ATOM     61  C   UNL A   1      46.962  34.704  29.913  1.00  0.00     0.059 A 
ATOM     62  F   UNL A   1      46.641  32.550  30.779  1.00  0.00    -0.206 F 
ATOM     63  C   UNL A   1      46.955  35.570  28.820  1.00  0.00     0.060 A 
BRANCH  63  64
ATOM     64  S   UNL A   1      47.518  37.275  29.004  1.00  0.00     0.124 S 
ATOM     65  O   UNL A   1      46.842  37.672  30.234  1.00  0.00    -0.237 OA
ATOM     66  O   UNL A   1      48.966  37.120  29.100  1.00  0.00    -0.237 OA
ATOM     67  O   UNL A   1      47.041  37.925  27.787  1.00  0.00    -0.744 OA
ENDBRANCH  63  64
ENDBRANCH  42  56
BRANCH  43  68
ATOM     68  C   UNL A   1      43.171  23.483  26.943  1.00  0.00     0.058 A 
ATOM     69  C   UNL A   1      43.017  23.016  25.630  1.00  0.00     0.135 A 
ATOM     70  C   UNL A   1      42.940  22.579  27.992  1.00  0.00     0.135 A 
ATOM     71  F   UNL A   1      43.216  23.847  24.596  1.00  0.00    -0.206 F 
ATOM     72  C   UNL A   1      42.666  21.697  25.365  1.00  0.00     0.059 A 
ATOM     73  C   UNL A   1      42.609  21.250  27.751  1.00  0.00     0.059 A 
ATOM     74  F   UNL A   1      43.086  22.976  29.266  1.00  0.00    -0.206 F 
ATOM     75  C   UNL A   1      42.479  20.817  26.433  1.00  0.00     0.060 A 
BRANCH  75  76
ATOM     76  S   UNL A   1      42.145  19.077  26.077  1.00  0.00     0.124 S 
ATOM     77  O   UNL A   1      40.710  19.100  25.818  1.00  0.00    -0.237 OA
ATOM     78  O   UNL A   1      43.000  18.832  24.921  1.00  0.00    -0.237 OA
ATOM     79  O   UNL A   1      42.555  18.400  27.304  1.00  0.00    -0.744 OA
ENDBRANCH  75  76
ENDBRANCH  43  68
BRANCH  55  80
ATOM     80  C   UNL A   1      49.346  26.713  26.469  1.00  0.00     0.058 A 
ATOM     81  C   UNL A   1      50.198  26.075  27.385  1.00  0.00     0.135 A 
ATOM     82  C   UNL A   1      49.802  26.872  25.151  1.00  0.00     0.135 A 
ATOM     83  F   UNL A   1      49.813  25.902  28.659  1.00  0.00    -0.206 F 
ATOM     84  C   UNL A   1      51.470  25.647  27.017  1.00  0.00     0.059 A 
ATOM     85  C   UNL A   1      51.060  26.426  24.754  1.00  0.00     0.059 A 
ATOM     86  F   UNL A   1      49.023  27.462  24.231  1.00  0.00    -0.206 F 
ATOM     87  C   UNL A   1      51.894  25.831  25.701  1.00  0.00     0.060 A 
BRANCH  87  88
ATOM     88  S   UNL A   1      53.546  25.273  25.234  1.00  0.00     0.124 S 
ATOM     89  O   UNL A   1      53.481  23.854  25.568  1.00  0.00    -0.237 OA
ATOM     90  O   UNL A   1      53.593  25.588  23.808  1.00  0.00    -0.237 OA
ATOM     91  O   UNL A   1      54.427  26.078  26.075  1.00  0.00    -0.744 OA
ENDBRANCH  87  88
ENDBRANCH  55  80
ENDBRANCH  29  30
ENDBRANCH  22  24
ENDBRANCH  21  22
ENDBRANCH  20  21
ENDBRANCH   1  20
TORSDOF 19
ENDMDL
MODEL 2
REMARK VINA RESULT:     -10.4      0.827      2.326
REMARK SMILES C[C@@H]1CC[C@@]1(SC1CCCCC1)C(=O)OCCOCCOC(=O)c1ccc(-c2c3nc(c(-c4c(F)cc(S(=O)(=O)[O-])cc4F)c4ccc([nH]4)c(-c4c(F)cc(S(=O)(=O)[O-])cc4F)c4nc(c(-c5c(F)cc(S(=O)(=O)[O-])cc5F)c5ccc2[nH]5)C=C4)C=C3)cc1
REMARK SMILES IDX 19 1 18 2 17 3 16 4 15 5 13 6 14 7 5 8 1 9 2 10 3 11 4 12
REMARK SMILES IDX 6 13 7 14 8 15 12 16 9 17 11 18 10 19 20 20 21 21 22 22
REMARK SMILES IDX 23 23 24 24 25 25 89 26 26 27 88 28 27 29 28 30 29 31 82 32
REMARK SMILES IDX 30 33 87 34 81 35 83 36 31 37 86 38 80 39 79 40 32 42 66 43
REMARK SMILES IDX 45 44 65 45 46 46 49 47 64 48 84 49 47 50 48 51 63 53 85 54
REMARK SMILES IDX 50 55 33 56 34 57 43 58 35 59 36 60 42 61 44 62 37 63 38 64
REMARK SMILES IDX 39 65 40 66 41 67 67 68 68 69 77 70 69 71 70 72 76 73 78 74
REMARK SMILES IDX 71 75 72 76 73 77 74 78 75 79 51 80 52 81 61 82 53 83 54 84
REMARK SMILES IDX 60 85 62 86 55 87 56 88 57 89 58 90 59 91
REMARK H PARENT 83 41 49 52
REMARK Flexibility Score: inf
ROOT
ATOM      1  C   UNL A   1      35.240  33.133  28.813  1.00  0.00     0.202 C 
ENDROOT
BRANCH   1   2
ATOM      2  O   UNL A   1      34.159  32.210  28.739  1.00  0.00    -0.374 OA
BRANCH   2   3
ATOM      3  C   UNL A   1      34.189  31.247  27.685  1.00  0.00     0.202 C 
BRANCH   3   4
ATOM      4  C   UNL A   1      32.848  30.718  27.169  1.00  0.00     0.261 C 
BRANCH   4   5
ATOM      5  O   UNL A   1      32.996  29.606  26.267  1.00  0.00    -0.462 OA
BRANCH   5   6
ATOM      6  C   UNL A   1      32.115  28.569  26.448  1.00  0.00     0.322 C 
ATOM      7  O   UNL A   1      31.475  28.419  27.490  1.00  0.00    -0.251 OA
BRANCH   6   8
ATOM      8  C   UNL A   1      31.990  27.649  25.179  1.00  0.00     0.116 C 
ATOM      9  C   UNL A   1      30.388  28.909  23.353  1.00  0.00     0.010 C 
ATOM     10  C   UNL A   1      31.761  28.507  23.852  1.00  0.00     0.013 C 
ATOM     11  C   UNL A   1      32.563  27.441  23.083  1.00  0.00     0.007 C 
ATOM     12  C   UNL A   1      33.232  27.073  24.428  1.00  0.00     0.030 C 
BRANCH   8  13
ATOM     13  S   UNL A   1      30.658  26.353  25.400  1.00  0.00    -0.140 SA
BRANCH  13  14
ATOM     14  C   UNL A   1      31.543  24.745  25.307  1.00  0.00     0.048 C 
ATOM     15  C   UNL A   1      31.722  24.117  26.694  1.00  0.00     0.014 C 
ATOM     16  C   UNL A   1      31.036  23.712  24.298  1.00  0.00     0.014 C 
ATOM     17  C   UNL A   1      32.620  22.879  26.632  1.00  0.00     0.001 C 
ATOM     18  C   UNL A   1      31.936  22.477  24.242  1.00  0.00     0.001 C 
ATOM     19  C   UNL A   1      32.098  21.856  25.626  1.00  0.00     0.000 C 
ENDBRANCH  13  14
ENDBRANCH   8  13
ENDBRANCH   6   8
ENDBRANCH   5   6
ENDBRANCH   4   5
ENDBRANCH   3   4
ENDBRANCH   2   3
ENDBRANCH   1   2
BRANCH   1  20
ATOM     20  C   UNL A   1      35.755  33.525  30.203  1.00  0.00     0.261 C 
BRANCH  20  21
ATOM     21  O   UNL A   1      37.010  32.907  30.525  1.00  0.00    -0.460 OA
BRANCH  21  22
ATOM     22  C   UNL A   1      36.901  31.611  30.903  1.00  0.00     0.338 C 
ATOM     23  O   UNL A   1      35.963  31.095  31.497  1.00  0.00    -0.246 OA
BRANCH  22  24
ATOM     24  C   UNL A   1      38.008  30.817  30.344  1.00  0.00     0.060 A 
ATOM     25  C   UNL A   1      39.013  30.419  31.235  1.00  0.00     0.016 A 
ATOM     26  C   UNL A   1      38.109  30.532  28.980  1.00  0.00     0.016 A 
ATOM     27  C   UNL A   1      40.158  29.793  30.754  1.00  0.00     0.010 A 
ATOM     28  C   UNL A   1      39.265  29.907  28.499  1.00  0.00     0.010 A 
ATOM     29  C   UNL A   1      40.310  29.575  29.379  1.00  0.00    -0.014 A 
BRANCH  29  30
ATOM     30  C   UNL A   1      41.631  29.134  28.874  1.00  0.00     0.031 A 
ATOM     31  C   UNL A   1      42.763  30.121  28.821  1.00  0.00     0.074 A 
ATOM     32  C   UNL A   1      41.831  27.850  28.530  1.00  0.00     0.049 A 
ATOM     33  N   UNL A   1      44.013  29.931  28.488  1.00  0.00    -0.248 NA
ATOM     34  C   UNL A   1      42.441  31.508  29.190  1.00  0.00     0.031 C 
ATOM     35  C   UNL A   1      40.808  26.806  28.552  1.00  0.00     0.029 A 
ATOM     36  N   UNL A   1      42.962  27.210  28.097  1.00  0.00    -0.354 N 
ATOM     37  C   UNL A   1      44.629  31.172  28.606  1.00  0.00     0.074 A 
ATOM     38  C   UNL A   1      43.604  32.114  29.005  1.00  0.00     0.031 C 
ATOM     39  C   UNL A   1      41.358  25.651  28.139  1.00  0.00     0.029 A 
ATOM     40  C   UNL A   1      42.765  25.882  27.812  1.00  0.00     0.049 A 
ATOM     41  H   UNL A   1      43.832  27.659  28.000  1.00  0.00     0.167 HD
ATOM     42  C   UNL A   1      45.930  31.494  28.411  1.00  0.00     0.037 A 
ATOM     43  C   UNL A   1      43.621  24.958  27.333  1.00  0.00     0.037 A 
ATOM     44  C   UNL A   1      46.940  30.550  28.006  1.00  0.00     0.049 A 
ATOM     45  C   UNL A   1      45.056  25.337  27.099  1.00  0.00     0.074 A 
ATOM     46  C   UNL A   1      48.295  30.761  27.821  1.00  0.00     0.029 A 
ATOM     47  N   UNL A   1      46.700  29.216  27.705  1.00  0.00    -0.354 N 
ATOM     48  N   UNL A   1      45.639  26.500  27.270  1.00  0.00    -0.248 NA
ATOM     49  C   UNL A   1      45.953  24.277  26.622  1.00  0.00     0.031 C 
ATOM     50  C   UNL A   1      48.863  29.567  27.358  1.00  0.00     0.029 A 
ATOM     51  C   UNL A   1      47.873  28.598  27.303  1.00  0.00     0.049 A 
ATOM     52  H   UNL A   1      45.823  28.772  27.769  1.00  0.00     0.167 HD
ATOM     53  C   UNL A   1      46.973  26.313  26.925  1.00  0.00     0.074 A 
ATOM     54  C   UNL A   1      47.114  24.916  26.561  1.00  0.00     0.031 C 
ATOM     55  C   UNL A   1      47.989  27.214  26.913  1.00  0.00     0.037 A 
BRANCH  42  56
ATOM     56  C   UNL A   1      46.314  32.937  28.595  1.00  0.00     0.058 A 
ATOM     57  C   UNL A   1      46.303  33.852  27.529  1.00  0.00     0.135 A 
ATOM     58  C   UNL A   1      46.723  33.406  29.853  1.00  0.00     0.135 A 
ATOM     59  F   UNL A   1      45.936  33.455  26.300  1.00  0.00    -0.206 F 
ATOM     60  C   UNL A   1      46.733  35.166  27.692  1.00  0.00     0.059 A 
ATOM     61  C   UNL A   1      47.130  34.724  30.047  1.00  0.00     0.059 A 
ATOM     62  F   UNL A   1      46.751  32.577  30.908  1.00  0.00    -0.206 F 
ATOM     63  C   UNL A   1      47.156  35.589  28.954  1.00  0.00     0.060 A 
BRANCH  63  64
ATOM     64  S   UNL A   1      47.754  37.282  29.145  1.00  0.00     0.124 S 
ATOM     65  O   UNL A   1      47.894  37.698  27.753  1.00  0.00    -0.237 OA
ATOM     66  O   UNL A   1      46.671  37.917  29.890  1.00  0.00    -0.237 OA
ATOM     67  O   UNL A   1      49.005  37.120  29.880  1.00  0.00    -0.744 OA
ENDBRANCH  63  64
ENDBRANCH  42  56
BRANCH  43  68
ATOM     68  C   UNL A   1      43.118  23.588  27.050  1.00  0.00     0.058 A 
ATOM     69  C   UNL A   1      42.844  23.167  25.742  1.00  0.00     0.135 A 
ATOM     70  C   UNL A   1      42.979  22.650  28.085  1.00  0.00     0.135 A 
ATOM     71  F   UNL A   1      42.953  24.032  24.722  1.00  0.00    -0.206 F 
ATOM     72  C   UNL A   1      42.464  21.857  25.466  1.00  0.00     0.059 A 
ATOM     73  C   UNL A   1      42.622  21.331  27.831  1.00  0.00     0.059 A 
ATOM     74  F   UNL A   1      43.242  23.004  29.353  1.00  0.00    -0.206 F 
ATOM     75  C   UNL A   1      42.370  20.942  26.516  1.00  0.00     0.060 A 
BRANCH  75  76
ATOM     76  S   UNL A   1      41.997  19.216  26.135  1.00  0.00     0.124 S 
ATOM     77  O   UNL A   1      42.841  18.984  24.969  1.00  0.00    -0.237 OA
ATOM     78  O   UNL A   1      42.399  18.538  27.362  1.00  0.00    -0.237 OA
ATOM     79  O   UNL A   1      40.558  19.233  25.881  1.00  0.00    -0.744 OA
ENDBRANCH  75  76
ENDBRANCH  43  68
BRANCH  55  80
ATOM     80  C   UNL A   1      49.340  26.712  26.481  1.00  0.00     0.058 A 
ATOM     81  C   UNL A   1      50.200  26.056  27.376  1.00  0.00     0.135 A 
ATOM     82  C   UNL A   1      49.772  26.869  25.154  1.00  0.00     0.135 A 
ATOM     83  F   UNL A   1      49.839  25.883  28.657  1.00  0.00    -0.206 F 
ATOM     84  C   UNL A   1      51.457  25.607  26.980  1.00  0.00     0.059 A 
ATOM     85  C   UNL A   1      51.013  26.404  24.729  1.00  0.00     0.059 A 
ATOM     86  F   UNL A   1      48.983  27.476  24.253  1.00  0.00    -0.206 F 
ATOM     87  C   UNL A   1      51.856  25.790  25.656  1.00  0.00     0.060 A 
BRANCH  87  88
ATOM     88  S   UNL A   1      53.489  25.207  25.152  1.00  0.00     0.124 S 
ATOM     89  O   UNL A   1      54.353  25.901  26.102  1.00  0.00    -0.237 OA
ATOM     90  O   UNL A   1      53.377  23.763  25.335  1.00  0.00    -0.237 OA
ATOM     91  O   UNL A   1      53.596  25.651  23.766  1.00  0.00    -0.744 OA
ENDBRANCH  87  88
ENDBRANCH  55  80
ENDBRANCH  29  30
ENDBRANCH  22  24
ENDBRANCH  21  22
ENDBRANCH  20  21
ENDBRANCH   1  20
TORSDOF 19
ENDMDL
MODEL 3
REMARK VINA RESULT:     -10.3      6.698     12.558
REMARK SMILES C[C@@H]1CC[C@@]1(SC1CCCCC1)C(=O)OCCOCCOC(=O)c1ccc(-c2c3nc(c(-c4c(F)cc(S(=O)(=O)[O-])cc4F)c4ccc([nH]4)c(-c4c(F)cc(S(=O)(=O)[O-])cc4F)c4nc(c(-c5c(F)cc(S(=O)(=O)[O-])cc5F)c5ccc2[nH]5)C=C4)C=C3)cc1
REMARK SMILES IDX 19 1 18 2 17 3 16 4 15 5 13 6 14 7 5 8 1 9 2 10 3 11 4 12
REMARK SMILES IDX 6 13 7 14 8 15 12 16 9 17 11 18 10 19 20 20 21 21 22 22
REMARK SMILES IDX 23 23 24 24 25 25 89 26 26 27 88 28 27 29 28 30 29 31 82 32
REMARK SMILES IDX 30 33 87 34 81 35 83 36 31 37 86 38 80 39 79 40 32 42 66 43
REMARK SMILES IDX 45 44 65 45 46 46 49 47 64 48 84 49 47 50 48 51 63 53 85 54
REMARK SMILES IDX 50 55 33 56 34 57 43 58 35 59 36 60 42 61 44 62 37 63 38 64
REMARK SMILES IDX 39 65 40 66 41 67 67 68 68 69 77 70 69 71 70 72 76 73 78 74
REMARK SMILES IDX 71 75 72 76 73 77 74 78 75 79 51 80 52 81 61 82 53 83 54 84
REMARK SMILES IDX 60 85 62 86 55 87 56 88 57 89 58 90 59 91
REMARK H PARENT 83 41 49 52
REMARK Flexibility Score: inf
ROOT
ATOM      1  C   UNL A   1      39.163  22.750  26.163  1.00  0.00     0.202 C 
ENDROOT
BRANCH   1   2
ATOM      2  O   UNL A   1      38.117  21.812  25.930  1.00  0.00    -0.374 OA
BRANCH   2   3
ATOM      3  C   UNL A   1      36.907  22.307  25.356  1.00  0.00     0.202 C 
BRANCH   3   4
ATOM      4  C   UNL A   1      35.929  23.036  26.281  1.00  0.00     0.261 C 
BRANCH   4   5
ATOM      5  O   UNL A   1      34.979  23.846  25.564  1.00  0.00    -0.462 OA
BRANCH   5   6
ATOM      6  C   UNL A   1      33.668  23.452  25.659  1.00  0.00     0.322 C 
ATOM      7  O   UNL A   1      33.005  23.599  26.686  1.00  0.00    -0.251 OA
BRANCH   6   8
ATOM      8  C   UNL A   1      33.117  22.851  24.314  1.00  0.00     0.116 C 
ATOM      9  C   UNL A   1      30.863  24.234  23.608  1.00  0.00     0.010 C 
ATOM     10  C   UNL A   1      32.344  23.949  23.452  1.00  0.00     0.013 C 
ATOM     11  C   UNL A   1      32.847  23.238  22.183  1.00  0.00     0.007 C 
ATOM     12  C   UNL A   1      34.003  22.674  23.041  1.00  0.00     0.030 C 
BRANCH   8  13
ATOM     13  S   UNL A   1      32.050  21.343  24.624  1.00  0.00    -0.140 SA
BRANCH  13  14
ATOM     14  C   UNL A   1      33.079  19.919  24.086  1.00  0.00     0.048 C 
ATOM     15  C   UNL A   1      34.213  19.633  25.078  1.00  0.00     0.014 C 
ATOM     16  C   UNL A   1      32.356  18.628  23.693  1.00  0.00     0.014 C 
ATOM     17  C   UNL A   1      35.174  18.573  24.535  1.00  0.00     0.001 C 
ATOM     18  C   UNL A   1      33.321  17.572  23.153  1.00  0.00     0.001 C 
ATOM     19  C   UNL A   1      34.438  17.291  24.153  1.00  0.00     0.000 C 
ENDBRANCH  13  14
ENDBRANCH   8  13
ENDBRANCH   6   8
ENDBRANCH   5   6
ENDBRANCH   4   5
ENDBRANCH   3   4
ENDBRANCH   2   3
ENDBRANCH   1   2
BRANCH   1  20
ATOM     20  C   UNL A   1      40.493  22.218  26.711  1.00  0.00     0.261 C 
BRANCH  20  21
ATOM     21  O   UNL A   1      41.096  23.109  27.662  1.00  0.00    -0.460 OA
BRANCH  21  22
ATOM     22  C   UNL A   1      41.574  24.252  27.115  1.00  0.00     0.338 C 
ATOM     23  O   UNL A   1      42.140  24.370  26.035  1.00  0.00    -0.246 OA
BRANCH  22  24
ATOM     24  C   UNL A   1      41.167  25.416  27.919  1.00  0.00     0.060 A 
ATOM     25  C   UNL A   1      42.160  26.359  28.215  1.00  0.00     0.016 A 
ATOM     26  C   UNL A   1      39.877  25.553  28.437  1.00  0.00     0.016 A 
ATOM     27  C   UNL A   1      41.885  27.406  29.087  1.00  0.00     0.010 A 
ATOM     28  C   UNL A   1      39.605  26.606  29.318  1.00  0.00     0.010 A 
ATOM     29  C   UNL A   1      40.620  27.508  29.678  1.00  0.00    -0.014 A 
BRANCH  29  30
ATOM     30  C   UNL A   1      40.430  28.480  30.780  1.00  0.00     0.031 A 
ATOM     31  C   UNL A   1      41.300  28.383  32.002  1.00  0.00     0.074 A 
ATOM     32  C   UNL A   1      39.537  29.477  30.658  1.00  0.00     0.049 A 
ATOM     33  N   UNL A   1      41.356  29.170  33.045  1.00  0.00    -0.248 NA
ATOM     34  C   UNL A   1      42.228  27.243  32.057  1.00  0.00     0.031 C 
ATOM     35  C   UNL A   1      38.649  29.674  29.514  1.00  0.00     0.029 A 
ATOM     36  N   UNL A   1      39.232  30.509  31.507  1.00  0.00    -0.354 N 
ATOM     37  C   UNL A   1      42.322  28.623  33.881  1.00  0.00     0.074 A 
ATOM     38  C   UNL A   1      42.799  27.416  33.239  1.00  0.00     0.031 C 
ATOM     39  C   UNL A   1      37.888  30.759  29.737  1.00  0.00     0.029 A 
ATOM     40  C   UNL A   1      38.228  31.322  31.044  1.00  0.00     0.049 A 
ATOM     41  H   UNL A   1      39.690  30.653  32.367  1.00  0.00     0.167 HD
ATOM     42  C   UNL A   1      42.778  29.089  35.068  1.00  0.00     0.037 A 
ATOM     43  C   UNL A   1      37.643  32.393  31.613  1.00  0.00     0.037 A 
ATOM     44  C   UNL A   1      42.291  30.288  35.701  1.00  0.00     0.049 A 
ATOM     45  C   UNL A   1      38.145  32.885  32.942  1.00  0.00     0.074 A 
ATOM     46  C   UNL A   1      42.712  30.874  36.881  1.00  0.00     0.029 A 
ATOM     47  N   UNL A   1      41.257  31.076  35.212  1.00  0.00    -0.354 N 
ATOM     48  N   UNL A   1      39.099  32.392  33.695  1.00  0.00    -0.248 NA
ATOM     49  C   UNL A   1      37.501  34.085  33.491  1.00  0.00     0.031 C 
ATOM     50  C   UNL A   1      41.898  31.986  37.132  1.00  0.00     0.029 A 
ATOM     51  C   UNL A   1      41.002  32.124  36.083  1.00  0.00     0.049 A 
ATOM     52  H   UNL A   1      40.775  30.915  34.369  1.00  0.00     0.167 HD
ATOM     53  C   UNL A   1      39.176  33.224  34.808  1.00  0.00     0.074 A 
ATOM     54  C   UNL A   1      38.185  34.266  34.613  1.00  0.00     0.031 C 
ATOM     55  C   UNL A   1      39.991  33.135  35.889  1.00  0.00     0.037 A 
BRANCH  42  56
ATOM     56  C   UNL A   1      43.828  28.271  35.769  1.00  0.00     0.058 A 
ATOM     57  C   UNL A   1      45.198  28.438  35.508  1.00  0.00     0.135 A 
ATOM     58  C   UNL A   1      43.456  27.287  36.698  1.00  0.00     0.135 A 
ATOM     59  F   UNL A   1      45.611  29.353  34.616  1.00  0.00    -0.206 F 
ATOM     60  C   UNL A   1      46.158  27.625  36.105  1.00  0.00     0.059 A 
ATOM     61  C   UNL A   1      44.400  26.481  37.329  1.00  0.00     0.059 A 
ATOM     62  F   UNL A   1      42.161  27.085  36.988  1.00  0.00    -0.206 F 
ATOM     63  C   UNL A   1      45.747  26.641  37.006  1.00  0.00     0.060 A 
BRANCH  63  64
ATOM     64  S   UNL A   1      46.994  25.561  37.739  1.00  0.00     0.124 S 
ATOM     65  O   UNL A   1      47.992  25.508  36.676  1.00  0.00    -0.237 OA
ATOM     66  O   UNL A   1      47.385  26.299  38.937  1.00  0.00    -0.237 OA
ATOM     67  O   UNL A   1      46.269  24.318  37.982  1.00  0.00    -0.744 OA
ENDBRANCH  63  64
ENDBRANCH  42  56
BRANCH  43  68
ATOM     68  C   UNL A   1      36.517  33.059  30.908  1.00  0.00     0.058 A 
ATOM     69  C   UNL A   1      35.203  32.974  31.388  1.00  0.00     0.135 A 
ATOM     70  C   UNL A   1      36.753  33.858  29.779  1.00  0.00     0.135 A 
ATOM     71  F   UNL A   1      34.927  32.213  32.458  1.00  0.00    -0.206 F 
ATOM     72  C   UNL A   1      34.163  33.673  30.784  1.00  0.00     0.059 A 
ATOM     73  C   UNL A   1      35.734  34.583  29.171  1.00  0.00     0.059 A 
ATOM     74  F   UNL A   1      37.997  33.980  29.290  1.00  0.00    -0.206 F 
ATOM     75  C   UNL A   1      34.442  34.487  29.684  1.00  0.00     0.060 A 
BRANCH  75  76
ATOM     76  S   UNL A   1      33.109  35.486  28.983  1.00  0.00     0.124 S 
ATOM     77  O   UNL A   1      32.339  35.826  30.172  1.00  0.00    -0.237 OA
ATOM     78  O   UNL A   1      33.844  36.582  28.361  1.00  0.00    -0.237 OA
ATOM     79  O   UNL A   1      32.461  34.569  28.049  1.00  0.00    -0.744 OA
ENDBRANCH  75  76
ENDBRANCH  43  68
BRANCH  55  80
ATOM     80  C   UNL A   1      39.835  34.191  36.950  1.00  0.00     0.058 A 
ATOM     81  C   UNL A   1      39.141  33.936  38.143  1.00  0.00     0.135 A 
ATOM     82  C   UNL A   1      40.402  35.465  36.781  1.00  0.00     0.135 A 
ATOM     83  F   UNL A   1      38.576  32.737  38.354  1.00  0.00    -0.206 F 
ATOM     84  C   UNL A   1      38.981  34.919  39.116  1.00  0.00     0.059 A 
ATOM     85  C   UNL A   1      40.278  36.454  37.752  1.00  0.00     0.059 A 
ATOM     86  F   UNL A   1      41.088  35.758  35.665  1.00  0.00    -0.206 F 
ATOM     87  C   UNL A   1      39.550  36.176  38.909  1.00  0.00     0.060 A 
BRANCH  87  88
ATOM     88  S   UNL A   1      39.335  37.446  40.175  1.00  0.00     0.124 S 
ATOM     89  O   UNL A   1      40.718  37.833  40.437  1.00  0.00    -0.237 OA
ATOM     90  O   UNL A   1      38.519  38.441  39.486  1.00  0.00    -0.237 OA
ATOM     91  O   UNL A   1      38.664  36.735  41.258  1.00  0.00    -0.744 OA
ENDBRANCH  87  88
ENDBRANCH  55  80
ENDBRANCH  29  30
ENDBRANCH  22  24
ENDBRANCH  21  22
ENDBRANCH  20  21
ENDBRANCH   1  20
TORSDOF 19
ENDMDL
