MODEL 1
REMARK VINA RESULT:     -11.0      0.000      0.000
REMARK SMILES Cc1ncccc1C(=O)N1CC[C@@H](C(=O)OCCOCCOC(=O)c2ccc(-c3c4nc(c(-c5c(F)cc(S(=O)(=O)[O-])cc5F)c5ccc([nH]5)c(-c5c(F)cc(S(=O)(=O)[O-])cc5F)c5nc(c(-c6c(F)cc(S(=O)(=O)[O-])cc6F)c6ccc3[nH]6)C=C5)C=C4)cc2)C1
REMARK SMILES IDX 20 1 19 2 18 3 17 4 16 5 14 6 15 7 13 8 10 9 11 10 91 11
REMARK SMILES IDX 12 12 8 13 9 14 7 15 1 16 2 17 3 18 4 19 6 20 5 21 21 22
REMARK SMILES IDX 22 23 23 24 24 25 25 26 26 27 90 28 27 29 89 30 28 31 29 32
REMARK SMILES IDX 30 33 83 34 31 35 88 36 82 37 84 38 32 39 87 40 81 41 80 42
REMARK SMILES IDX 33 44 67 45 46 46 66 47 47 48 50 49 65 50 85 51 48 52 49 53
REMARK SMILES IDX 64 55 86 56 51 57 34 58 35 59 44 60 36 61 37 62 43 63 45 64
REMARK SMILES IDX 38 65 39 66 40 67 41 68 42 69 68 70 69 71 78 72 70 73 71 74
REMARK SMILES IDX 77 75 79 76 72 77 73 78 74 79 75 80 76 81 52 82 53 83 62 84
REMARK SMILES IDX 54 85 55 86 61 87 63 88 56 89 57 90 58 91 59 92 60 93
REMARK H PARENT 84 43 50 54
REMARK Flexibility Score: inf
ROOT
ATOM      1  C   UNL A   1      38.531  22.198  26.061  1.00  0.00     0.202 C 
ENDROOT
BRANCH   1   2
ATOM      2  O   UNL A   1      38.199  21.307  24.999  1.00  0.00    -0.374 OA
BRANCH   2   3
ATOM      3  C   UNL A   1      36.905  20.701  25.057  1.00  0.00     0.202 C 
BRANCH   3   4
ATOM      4  C   UNL A   1      35.723  21.672  25.122  1.00  0.00     0.261 C 
BRANCH   4   5
ATOM      5  O   UNL A   1      34.501  20.974  25.435  1.00  0.00    -0.463 OA
BRANCH   5   6
ATOM      6  C   UNL A   1      33.764  21.455  26.466  1.00  0.00     0.310 C 
ATOM      7  O   UNL A   1      34.167  21.601  27.614  1.00  0.00    -0.252 OA
BRANCH   6   8
ATOM      8  C   UNL A   1      32.377  21.873  26.041  1.00  0.00     0.120 C 
ATOM      9  N   UNL A   1      31.238  23.896  25.692  1.00  0.00    -0.338 N 
ATOM     10  C   UNL A   1      31.706  23.527  24.372  1.00  0.00     0.121 C 
ATOM     11  C   UNL A   1      31.999  23.196  26.702  1.00  0.00     0.135 C 
ATOM     12  C   UNL A   1      32.113  22.067  24.533  1.00  0.00     0.039 C 
BRANCH   9  13
ATOM     13  C   UNL A   1      30.358  24.893  26.045  1.00  0.00     0.255 C 
ATOM     14  O   UNL A   1      29.469  24.702  26.875  1.00  0.00    -0.269 OA
BRANCH  13  15
ATOM     15  C   UNL A   1      30.371  26.194  25.327  1.00  0.00     0.061 A 
ATOM     16  C   UNL A   1      32.440  27.124  26.527  1.00  0.00     0.067 C 
ATOM     17  C   UNL A   1      31.359  27.175  25.492  1.00  0.00     0.050 A 
ATOM     18  N   UNL A   1      31.437  28.271  24.684  1.00  0.00    -0.261 NA
ATOM     19  C   UNL A   1      30.568  28.373  23.660  1.00  0.00     0.111 A 
ATOM     20  C   UNL A   1      29.487  26.338  24.246  1.00  0.00     0.017 A 
ATOM     21  C   UNL A   1      29.587  27.438  23.398  1.00  0.00     0.021 A 
ENDBRANCH  13  15
ENDBRANCH   9  13
ENDBRANCH   6   8
ENDBRANCH   5   6
ENDBRANCH   4   5
ENDBRANCH   3   4
ENDBRANCH   2   3
ENDBRANCH   1   2
BRANCH   1  22
ATOM     22  C   UNL A   1      39.976  22.140  26.567  1.00  0.00     0.261 C 
BRANCH  22  23
ATOM     23  O   UNL A   1      40.230  23.145  27.565  1.00  0.00    -0.460 OA
BRANCH  23  24
ATOM     24  C   UNL A   1      41.002  24.175  27.147  1.00  0.00     0.338 C 
ATOM     25  O   UNL A   1      41.675  24.227  26.125  1.00  0.00    -0.246 OA
BRANCH  24  26
ATOM     26  C   UNL A   1      40.787  25.343  28.018  1.00  0.00     0.060 A 
ATOM     27  C   UNL A   1      41.873  26.202  28.230  1.00  0.00     0.016 A 
ATOM     28  C   UNL A   1      39.566  25.570  28.656  1.00  0.00     0.016 A 
ATOM     29  C   UNL A   1      41.750  27.279  29.103  1.00  0.00     0.010 A 
ATOM     30  C   UNL A   1      39.448  26.647  29.541  1.00  0.00     0.010 A 
ATOM     31  C   UNL A   1      40.545  27.494  29.785  1.00  0.00    -0.014 A 
BRANCH  31  32
ATOM     32  C   UNL A   1      40.462  28.553  30.819  1.00  0.00     0.031 A 
ATOM     33  C   UNL A   1      41.334  28.464  32.040  1.00  0.00     0.074 A 
ATOM     34  C   UNL A   1      39.616  29.587  30.662  1.00  0.00     0.049 A 
ATOM     35  N   UNL A   1      41.376  29.248  33.085  1.00  0.00    -0.248 NA
ATOM     36  C   UNL A   1      42.284  27.341  32.090  1.00  0.00     0.031 C 
ATOM     37  C   UNL A   1      38.746  29.796  29.505  1.00  0.00     0.029 A 
ATOM     38  N   UNL A   1      39.341  30.650  31.486  1.00  0.00    -0.354 N 
ATOM     39  C   UNL A   1      42.348  28.713  33.922  1.00  0.00     0.074 A 
ATOM     40  C   UNL A   1      42.854  27.523  33.274  1.00  0.00     0.031 C 
ATOM     41  C   UNL A   1      38.019  30.909  29.702  1.00  0.00     0.029 A 
ATOM     42  C   UNL A   1      38.345  31.469  31.011  1.00  0.00     0.049 A 
ATOM     43  H   UNL A   1      39.812  30.809  32.336  1.00  0.00     0.167 HD
ATOM     44  C   UNL A   1      42.781  29.178  35.119  1.00  0.00     0.037 A 
ATOM     45  C   UNL A   1      37.743  32.531  31.583  1.00  0.00     0.037 A 
ATOM     46  C   UNL A   1      42.270  30.365  35.756  1.00  0.00     0.049 A 
ATOM     47  C   UNL A   1      38.191  32.987  32.945  1.00  0.00     0.074 A 
ATOM     48  C   UNL A   1      42.669  30.938  36.951  1.00  0.00     0.029 A 
ATOM     49  N   UNL A   1      41.241  31.151  35.260  1.00  0.00    -0.354 N 
ATOM     50  N   UNL A   1      39.137  32.495  33.710  1.00  0.00    -0.248 NA
ATOM     51  C   UNL A   1      37.490  34.142  33.526  1.00  0.00     0.031 C 
ATOM     52  C   UNL A   1      41.842  32.038  37.206  1.00  0.00     0.029 A 
ATOM     53  C   UNL A   1      40.964  32.183  36.143  1.00  0.00     0.049 A 
ATOM     54  H   UNL A   1      40.774  30.999  34.407  1.00  0.00     0.167 HD
ATOM     55  C   UNL A   1      39.155  33.287  34.853  1.00  0.00     0.074 A 
ATOM     56  C   UNL A   1      38.138  34.303  34.672  1.00  0.00     0.031 C 
ATOM     57  C   UNL A   1      39.942  33.183  35.953  1.00  0.00     0.037 A 
BRANCH  44  58
ATOM     58  C   UNL A   1      43.840  28.385  35.835  1.00  0.00     0.058 A 
ATOM     59  C   UNL A   1      45.208  28.642  35.655  1.00  0.00     0.135 A 
ATOM     60  C   UNL A   1      43.477  27.380  36.747  1.00  0.00     0.135 A 
ATOM     61  F   UNL A   1      45.611  29.582  34.785  1.00  0.00    -0.206 F 
ATOM     62  C   UNL A   1      46.180  27.915  36.336  1.00  0.00     0.059 A 
ATOM     63  C   UNL A   1      44.432  26.658  37.458  1.00  0.00     0.059 A 
ATOM     64  F   UNL A   1      42.183  27.091  36.956  1.00  0.00    -0.206 F 
ATOM     65  C   UNL A   1      45.781  26.924  37.235  1.00  0.00     0.060 A 
BRANCH  65  66
ATOM     66  S   UNL A   1      47.055  25.993  38.114  1.00  0.00     0.124 S 
ATOM     67  O   UNL A   1      47.720  25.302  37.014  1.00  0.00    -0.237 OA
ATOM     68  O   UNL A   1      47.827  27.051  38.756  1.00  0.00    -0.237 OA
ATOM     69  O   UNL A   1      46.290  25.140  39.019  1.00  0.00    -0.744 OA
ENDBRANCH  65  66
ENDBRANCH  44  58
BRANCH  45  70
ATOM     70  C   UNL A   1      36.630  33.218  30.874  1.00  0.00     0.058 A 
ATOM     71  C   UNL A   1      35.300  33.072  31.294  1.00  0.00     0.135 A 
ATOM     72  C   UNL A   1      36.879  34.046  29.768  1.00  0.00     0.135 A 
ATOM     73  F   UNL A   1      35.009  32.280  32.338  1.00  0.00    -0.206 F 
ATOM     74  C   UNL A   1      34.255  33.717  30.641  1.00  0.00     0.059 A 
ATOM     75  C   UNL A   1      35.855  34.722  29.114  1.00  0.00     0.059 A 
ATOM     76  F   UNL A   1      38.136  34.228  29.334  1.00  0.00    -0.206 F 
ATOM     77  C   UNL A   1      34.544  34.545  29.554  1.00  0.00     0.060 A 
BRANCH  77  78
ATOM     78  S   UNL A   1      33.188  35.430  28.755  1.00  0.00     0.124 S 
ATOM     79  O   UNL A   1      33.909  36.420  27.963  1.00  0.00    -0.237 OA
ATOM     80  O   UNL A   1      32.529  34.366  28.004  1.00  0.00    -0.237 OA
ATOM     81  O   UNL A   1      32.423  35.958  29.881  1.00  0.00    -0.744 OA
ENDBRANCH  77  78
ENDBRANCH  45  70
BRANCH  57  82
ATOM     82  C   UNL A   1      39.746  34.199  37.046  1.00  0.00     0.058 A 
ATOM     83  C   UNL A   1      39.005  33.902  38.201  1.00  0.00     0.135 A 
ATOM     84  C   UNL A   1      40.354  35.463  36.965  1.00  0.00     0.135 A 
ATOM     85  F   UNL A   1      38.397  32.712  38.326  1.00  0.00    -0.206 F 
ATOM     86  C   UNL A   1      38.859  34.828  39.229  1.00  0.00     0.059 A 
ATOM     87  C   UNL A   1      40.244  36.394  37.993  1.00  0.00     0.059 A 
ATOM     88  F   UNL A   1      41.081  35.795  35.887  1.00  0.00    -0.206 F 
ATOM     89  C   UNL A   1      39.486  36.071  39.117  1.00  0.00     0.060 A 
BRANCH  89  90
ATOM     90  S   UNL A   1      39.321  37.248  40.477  1.00  0.00     0.124 S 
ATOM     91  O   UNL A   1      40.717  37.545  40.781  1.00  0.00    -0.237 OA
ATOM     92  O   UNL A   1      38.562  38.332  39.860  1.00  0.00    -0.237 OA
ATOM     93  O   UNL A   1      38.603  36.491  41.497  1.00  0.00    -0.744 OA
ENDBRANCH  89  90
ENDBRANCH  57  82
ENDBRANCH  31  32
ENDBRANCH  24  26
ENDBRANCH  23  24
ENDBRANCH  22  23
ENDBRANCH   1  22
TORSDOF 19
ENDMDL
MODEL 2
REMARK VINA RESULT:     -10.9      4.016      6.581
REMARK SMILES Cc1ncccc1C(=O)N1CC[C@@H](C(=O)OCCOCCOC(=O)c2ccc(-c3c4nc(c(-c5c(F)cc(S(=O)(=O)[O-])cc5F)c5ccc([nH]5)c(-c5c(F)cc(S(=O)(=O)[O-])cc5F)c5nc(c(-c6c(F)cc(S(=O)(=O)[O-])cc6F)c6ccc3[nH]6)C=C5)C=C4)cc2)C1
REMARK SMILES IDX 20 1 19 2 18 3 17 4 16 5 14 6 15 7 13 8 10 9 11 10 91 11
REMARK SMILES IDX 12 12 8 13 9 14 7 15 1 16 2 17 3 18 4 19 6 20 5 21 21 22
REMARK SMILES IDX 22 23 23 24 24 25 25 26 26 27 90 28 27 29 89 30 28 31 29 32
REMARK SMILES IDX 30 33 83 34 31 35 88 36 82 37 84 38 32 39 87 40 81 41 80 42
REMARK SMILES IDX 33 44 67 45 46 46 66 47 47 48 50 49 65 50 85 51 48 52 49 53
REMARK SMILES IDX 64 55 86 56 51 57 34 58 35 59 44 60 36 61 37 62 43 63 45 64
REMARK SMILES IDX 38 65 39 66 40 67 41 68 42 69 68 70 69 71 78 72 70 73 71 74
REMARK SMILES IDX 77 75 79 76 72 77 73 78 74 79 75 80 76 81 52 82 53 83 62 84
REMARK SMILES IDX 54 85 55 86 61 87 63 88 56 89 57 90 58 91 59 92 60 93
REMARK H PARENT 84 43 50 54
REMARK Flexibility Score: inf
ROOT
ATOM      1  C   UNL A   1      41.338  22.159  28.008  1.00  0.00     0.202 C 
ENDROOT
BRANCH   1   2
ATOM      2  O   UNL A   1      42.685  22.321  28.446  1.00  0.00    -0.374 OA
BRANCH   2   3
ATOM      3  C   UNL A   1      42.920  23.345  29.416  1.00  0.00     0.202 C 
BRANCH   3   4
ATOM      4  C   UNL A   1      44.169  24.200  29.188  1.00  0.00     0.261 C 
BRANCH   4   5
ATOM      5  O   UNL A   1      45.199  23.440  28.527  1.00  0.00    -0.463 OA
BRANCH   5   6
ATOM      6  C   UNL A   1      46.074  24.130  27.753  1.00  0.00     0.310 C 
ATOM      7  O   UNL A   1      46.853  24.984  28.160  1.00  0.00    -0.252 OA
BRANCH   6   8
ATOM      8  C   UNL A   1      46.048  23.684  26.311  1.00  0.00     0.120 C 
ATOM      9  N   UNL A   1      44.792  22.186  25.012  1.00  0.00    -0.338 N 
ATOM     10  C   UNL A   1      44.143  23.462  24.797  1.00  0.00     0.121 C 
ATOM     11  C   UNL A   1      45.590  22.232  26.216  1.00  0.00     0.135 C 
ATOM     12  C   UNL A   1      45.153  24.471  25.330  1.00  0.00     0.039 C 
BRANCH   9  13
ATOM     13  C   UNL A   1      44.589  20.995  24.353  1.00  0.00     0.255 C 
ATOM     14  O   UNL A   1      44.739  20.901  23.134  1.00  0.00    -0.269 OA
BRANCH  13  15
ATOM     15  C   UNL A   1      44.045  19.818  25.080  1.00  0.00     0.061 A 
ATOM     16  C   UNL A   1      46.304  18.639  25.378  1.00  0.00     0.067 C 
ATOM     17  C   UNL A   1      44.832  18.787  25.610  1.00  0.00     0.050 A 
ATOM     18  N   UNL A   1      44.315  17.824  26.426  1.00  0.00    -0.261 NA
ATOM     19  C   UNL A   1      43.017  17.912  26.775  1.00  0.00     0.111 A 
ATOM     20  C   UNL A   1      42.697  19.874  25.470  1.00  0.00     0.017 A 
ATOM     21  C   UNL A   1      42.176  18.913  26.332  1.00  0.00     0.021 A 
ENDBRANCH  13  15
ENDBRANCH   9  13
ENDBRANCH   6   8
ENDBRANCH   5   6
ENDBRANCH   4   5
ENDBRANCH   3   4
ENDBRANCH   2   3
ENDBRANCH   1   2
BRANCH   1  22
ATOM     22  C   UNL A   1      41.023  22.652  26.592  1.00  0.00     0.261 C 
BRANCH  22  23
ATOM     23  O   UNL A   1      41.160  24.080  26.483  1.00  0.00    -0.460 OA
BRANCH  23  24
ATOM     24  C   UNL A   1      40.011  24.773  26.660  1.00  0.00     0.338 C 
ATOM     25  O   UNL A   1      38.932  24.567  26.118  1.00  0.00    -0.246 OA
BRANCH  24  26
ATOM     26  C   UNL A   1      40.176  25.735  27.762  1.00  0.00     0.060 A 
ATOM     27  C   UNL A   1      39.242  25.693  28.805  1.00  0.00     0.016 A 
ATOM     28  C   UNL A   1      41.191  26.694  27.757  1.00  0.00     0.016 A 
ATOM     29  C   UNL A   1      39.304  26.627  29.836  1.00  0.00     0.010 A 
ATOM     30  C   UNL A   1      41.245  27.638  28.787  1.00  0.00     0.010 A 
ATOM     31  C   UNL A   1      40.290  27.623  29.819  1.00  0.00    -0.014 A 
BRANCH  31  32
ATOM     32  C   UNL A   1      40.266  28.700  30.838  1.00  0.00     0.031 A 
ATOM     33  C   UNL A   1      41.189  28.619  32.021  1.00  0.00     0.074 A 
ATOM     34  C   UNL A   1      39.429  29.745  30.700  1.00  0.00     0.049 A 
ATOM     35  N   UNL A   1      41.288  29.419  33.050  1.00  0.00    -0.248 NA
ATOM     36  C   UNL A   1      42.125  27.483  32.049  1.00  0.00     0.031 C 
ATOM     37  C   UNL A   1      38.513  29.947  29.579  1.00  0.00     0.029 A 
ATOM     38  N   UNL A   1      39.206  30.824  31.517  1.00  0.00    -0.354 N 
ATOM     39  C   UNL A   1      42.288  28.884  33.853  1.00  0.00     0.074 A 
ATOM     40  C   UNL A   1      42.749  27.675  33.203  1.00  0.00     0.031 C 
ATOM     41  C   UNL A   1      37.811  31.074  29.787  1.00  0.00     0.029 A 
ATOM     42  C   UNL A   1      38.202  31.650  31.072  1.00  0.00     0.049 A 
ATOM     43  H   UNL A   1      39.715  30.990  32.343  1.00  0.00     0.167 HD
ATOM     44  C   UNL A   1      42.779  29.361  35.022  1.00  0.00     0.037 A 
ATOM     45  C   UNL A   1      37.640  32.731  31.651  1.00  0.00     0.037 A 
ATOM     46  C   UNL A   1      42.314  30.566  35.660  1.00  0.00     0.049 A 
ATOM     47  C   UNL A   1      38.154  33.202  32.985  1.00  0.00     0.074 A 
ATOM     48  C   UNL A   1      42.772  31.152  36.827  1.00  0.00     0.029 A 
ATOM     49  N   UNL A   1      41.275  31.359  35.196  1.00  0.00    -0.354 N 
ATOM     50  N   UNL A   1      39.125  32.708  33.716  1.00  0.00    -0.248 NA
ATOM     51  C   UNL A   1      37.494  34.377  33.575  1.00  0.00     0.031 C 
ATOM     52  C   UNL A   1      41.972  32.268  37.098  1.00  0.00     0.029 A 
ATOM     53  C   UNL A   1      41.051  32.409  36.072  1.00  0.00     0.049 A 
ATOM     54  H   UNL A   1      40.769  31.200  34.366  1.00  0.00     0.167 HD
ATOM     55  C   UNL A   1      39.204  33.519  34.844  1.00  0.00     0.074 A 
ATOM     56  C   UNL A   1      38.194  34.547  34.690  1.00  0.00     0.031 C 
ATOM     57  C   UNL A   1      40.037  33.421  35.910  1.00  0.00     0.037 A 
BRANCH  44  58
ATOM     58  C   UNL A   1      43.857  28.565  35.704  1.00  0.00     0.058 A 
ATOM     59  C   UNL A   1      45.220  28.830  35.498  1.00  0.00     0.135 A 
ATOM     60  C   UNL A   1      43.519  27.547  36.612  1.00  0.00     0.135 A 
ATOM     61  F   UNL A   1      45.599  29.782  34.631  1.00  0.00    -0.206 F 
ATOM     62  C   UNL A   1      46.209  28.099  36.148  1.00  0.00     0.059 A 
ATOM     63  C   UNL A   1      44.492  26.821  37.293  1.00  0.00     0.059 A 
ATOM     64  F   UNL A   1      42.231  27.250  36.846  1.00  0.00    -0.206 F 
ATOM     65  C   UNL A   1      45.835  27.095  37.044  1.00  0.00     0.060 A 
BRANCH  65  66
ATOM     66  S   UNL A   1      47.132  26.160  37.882  1.00  0.00     0.124 S 
ATOM     67  O   UNL A   1      48.244  27.104  37.842  1.00  0.00    -0.237 OA
ATOM     68  O   UNL A   1      46.547  25.926  39.198  1.00  0.00    -0.237 OA
ATOM     69  O   UNL A   1      47.288  24.971  37.049  1.00  0.00    -0.744 OA
ENDBRANCH  65  66
ENDBRANCH  44  58
BRANCH  45  70
ATOM     70  C   UNL A   1      36.507  33.422  30.980  1.00  0.00     0.058 A 
ATOM     71  C   UNL A   1      35.210  33.382  31.513  1.00  0.00     0.135 A 
ATOM     72  C   UNL A   1      36.703  34.149  29.794  1.00  0.00     0.135 A 
ATOM     73  F   UNL A   1      34.969  32.689  32.637  1.00  0.00    -0.206 F 
ATOM     74  C   UNL A   1      34.148  34.032  30.895  1.00  0.00     0.059 A 
ATOM     75  C   UNL A   1      35.663  34.829  29.172  1.00  0.00     0.059 A 
ATOM     76  F   UNL A   1      37.927  34.227  29.249  1.00  0.00    -0.206 F 
ATOM     77  C   UNL A   1      34.386  34.759  29.726  1.00  0.00     0.060 A 
BRANCH  77  78
ATOM     78  S   UNL A   1      33.013  35.654  28.968  1.00  0.00     0.124 S 
ATOM     79  O   UNL A   1      33.711  36.737  28.285  1.00  0.00    -0.237 OA
ATOM     80  O   UNL A   1      32.418  34.633  28.111  1.00  0.00    -0.237 OA
ATOM     81  O   UNL A   1      32.199  36.050  30.113  1.00  0.00    -0.744 OA
ENDBRANCH  77  78
ENDBRANCH  45  70
BRANCH  57  82
ATOM     82  C   UNL A   1      39.903  34.458  36.993  1.00  0.00     0.058 A 
ATOM     83  C   UNL A   1      40.573  35.689  36.919  1.00  0.00     0.135 A 
ATOM     84  C   UNL A   1      39.049  34.242  38.087  1.00  0.00     0.135 A 
ATOM     85  F   UNL A   1      41.408  35.943  35.898  1.00  0.00    -0.206 F 
ATOM     86  C   UNL A   1      40.417  36.662  37.900  1.00  0.00     0.059 A 
ATOM     87  C   UNL A   1      38.856  35.213  39.065  1.00  0.00     0.059 A 
ATOM     88  F   UNL A   1      38.377  33.086  38.202  1.00  0.00    -0.206 F 
ATOM     89  C   UNL A   1      39.552  36.416  38.969  1.00  0.00     0.060 A 
BRANCH  89  90
ATOM     90  S   UNL A   1      39.327  37.704  40.214  1.00  0.00     0.124 S 
ATOM     91  O   UNL A   1      38.258  38.502  39.624  1.00  0.00    -0.237 OA
ATOM     92  O   UNL A   1      38.963  36.932  41.399  1.00  0.00    -0.237 OA
ATOM     93  O   UNL A   1      40.634  38.351  40.273  1.00  0.00    -0.744 OA
ENDBRANCH  89  90
ENDBRANCH  57  82
ENDBRANCH  31  32
ENDBRANCH  24  26
ENDBRANCH  23  24
ENDBRANCH  22  23
ENDBRANCH   1  22
TORSDOF 19
ENDMDL
MODEL 3
REMARK VINA RESULT:     -10.8      1.132      2.172
REMARK SMILES Cc1ncccc1C(=O)N1CC[C@@H](C(=O)OCCOCCOC(=O)c2ccc(-c3c4nc(c(-c5c(F)cc(S(=O)(=O)[O-])cc5F)c5ccc([nH]5)c(-c5c(F)cc(S(=O)(=O)[O-])cc5F)c5nc(c(-c6c(F)cc(S(=O)(=O)[O-])cc6F)c6ccc3[nH]6)C=C5)C=C4)cc2)C1
REMARK SMILES IDX 20 1 19 2 18 3 17 4 16 5 14 6 15 7 13 8 10 9 11 10 91 11
REMARK SMILES IDX 12 12 8 13 9 14 7 15 1 16 2 17 3 18 4 19 6 20 5 21 21 22
REMARK SMILES IDX 22 23 23 24 24 25 25 26 26 27 90 28 27 29 89 30 28 31 29 32
REMARK SMILES IDX 30 33 83 34 31 35 88 36 82 37 84 38 32 39 87 40 81 41 80 42
REMARK SMILES IDX 33 44 67 45 46 46 66 47 47 48 50 49 65 50 85 51 48 52 49 53
REMARK SMILES IDX 64 55 86 56 51 57 34 58 35 59 44 60 36 61 37 62 43 63 45 64
REMARK SMILES IDX 38 65 39 66 40 67 41 68 42 69 68 70 69 71 78 72 70 73 71 74
REMARK SMILES IDX 77 75 79 76 72 77 73 78 74 79 75 80 76 81 52 82 53 83 62 84
REMARK SMILES IDX 54 85 55 86 61 87 63 88 56 89 57 90 58 91 59 92 60 93
REMARK H PARENT 84 43 50 54
REMARK Flexibility Score: inf
ROOT
ATOM      1  C   UNL A   1      36.886  23.160  26.098  1.00  0.00     0.202 C 
ENDROOT
BRANCH   1   2
ATOM      2  O   UNL A   1      36.914  21.765  25.803  1.00  0.00    -0.374 OA
BRANCH   2   3
ATOM      3  C   UNL A   1      36.113  21.332  24.701  1.00  0.00     0.202 C 
BRANCH   3   4
ATOM      4  C   UNL A   1      34.929  20.429  25.058  1.00  0.00     0.261 C 
BRANCH   4   5
ATOM      5  O   UNL A   1      33.969  21.136  25.866  1.00  0.00    -0.463 OA
BRANCH   5   6
ATOM      6  C   UNL A   1      32.772  21.419  25.296  1.00  0.00     0.310 C 
ATOM      7  O   UNL A   1      31.952  20.587  24.926  1.00  0.00    -0.252 OA
BRANCH   6   8
ATOM      8  C   UNL A   1      32.503  22.903  25.219  1.00  0.00     0.120 C 
ATOM      9  N   UNL A   1      32.487  24.549  23.545  1.00  0.00    -0.338 N 
ATOM     10  C   UNL A   1      31.101  24.140  23.645  1.00  0.00     0.121 C 
ATOM     11  C   UNL A   1      33.346  23.536  24.115  1.00  0.00     0.135 C 
ATOM     12  C   UNL A   1      31.053  23.360  24.953  1.00  0.00     0.039 C 
BRANCH   9  13
ATOM     13  C   UNL A   1      33.023  25.613  22.857  1.00  0.00     0.255 C 
ATOM     14  O   UNL A   1      33.669  25.450  21.821  1.00  0.00    -0.269 OA
BRANCH  13  15
ATOM     15  C   UNL A   1      32.954  26.985  23.424  1.00  0.00     0.061 A 
ATOM     16  C   UNL A   1      30.719  27.602  22.324  1.00  0.00     0.067 C 
ATOM     17  C   UNL A   1      31.873  27.859  23.243  1.00  0.00     0.050 A 
ATOM     18  N   UNL A   1      31.765  29.034  23.928  1.00  0.00    -0.261 NA
ATOM     19  C   UNL A   1      32.704  29.324  24.850  1.00  0.00     0.111 A 
ATOM     20  C   UNL A   1      33.908  27.324  24.397  1.00  0.00     0.017 A 
ATOM     21  C   UNL A   1      33.781  28.506  25.123  1.00  0.00     0.021 A 
ENDBRANCH  13  15
ENDBRANCH   9  13
ENDBRANCH   6   8
ENDBRANCH   5   6
ENDBRANCH   4   5
ENDBRANCH   3   4
ENDBRANCH   2   3
ENDBRANCH   1   2
BRANCH   1  22
ATOM     22  C   UNL A   1      38.165  23.944  25.788  1.00  0.00     0.261 C 
BRANCH  22  23
ATOM     23  O   UNL A   1      39.086  23.917  26.893  1.00  0.00    -0.460 OA
BRANCH  23  24
ATOM     24  C   UNL A   1      40.196  24.672  26.722  1.00  0.00     0.338 C 
ATOM     25  O   UNL A   1      40.927  24.701  25.739  1.00  0.00    -0.246 OA
BRANCH  24  26
ATOM     26  C   UNL A   1      40.327  25.625  27.837  1.00  0.00     0.060 A 
ATOM     27  C   UNL A   1      39.287  25.674  28.773  1.00  0.00     0.016 A 
ATOM     28  C   UNL A   1      41.419  26.489  27.942  1.00  0.00     0.016 A 
ATOM     29  C   UNL A   1      39.321  26.607  29.806  1.00  0.00     0.010 A 
ATOM     30  C   UNL A   1      41.446  27.433  28.974  1.00  0.00     0.010 A 
ATOM     31  C   UNL A   1      40.388  27.511  29.897  1.00  0.00    -0.014 A 
BRANCH  31  32
ATOM     32  C   UNL A   1      40.352  28.595  30.909  1.00  0.00     0.031 A 
ATOM     33  C   UNL A   1      41.263  28.522  32.102  1.00  0.00     0.074 A 
ATOM     34  C   UNL A   1      39.514  29.636  30.756  1.00  0.00     0.049 A 
ATOM     35  N   UNL A   1      41.349  29.328  33.127  1.00  0.00    -0.248 NA
ATOM     36  C   UNL A   1      42.200  27.389  32.146  1.00  0.00     0.031 C 
ATOM     37  C   UNL A   1      38.608  29.830  29.624  1.00  0.00     0.029 A 
ATOM     38  N   UNL A   1      39.279  30.720  31.564  1.00  0.00    -0.354 N 
ATOM     39  C   UNL A   1      42.342  28.800  33.943  1.00  0.00     0.074 A 
ATOM     40  C   UNL A   1      42.812  27.589  33.306  1.00  0.00     0.031 C 
ATOM     41  C   UNL A   1      37.902  30.956  29.819  1.00  0.00     0.029 A 
ATOM     42  C   UNL A   1      38.278  31.541  31.104  1.00  0.00     0.049 A 
ATOM     43  H   UNL A   1      39.780  30.892  32.394  1.00  0.00     0.167 HD
ATOM     44  C   UNL A   1      42.820  29.286  35.114  1.00  0.00     0.037 A 
ATOM     45  C   UNL A   1      37.708  32.624  31.671  1.00  0.00     0.037 A 
ATOM     46  C   UNL A   1      42.345  30.493  35.740  1.00  0.00     0.049 A 
ATOM     47  C   UNL A   1      38.207  33.104  33.007  1.00  0.00     0.074 A 
ATOM     48  C   UNL A   1      42.790  31.088  36.908  1.00  0.00     0.029 A 
ATOM     49  N   UNL A   1      41.309  31.282  35.261  1.00  0.00    -0.354 N 
ATOM     50  N   UNL A   1      39.172  32.617  33.751  1.00  0.00    -0.248 NA
ATOM     51  C   UNL A   1      37.539  34.281  33.584  1.00  0.00     0.031 C 
ATOM     52  C   UNL A   1      41.985  32.204  37.165  1.00  0.00     0.029 A 
ATOM     53  C   UNL A   1      41.075  32.337  36.129  1.00  0.00     0.049 A 
ATOM     54  H   UNL A   1      40.813  31.116  34.427  1.00  0.00     0.167 HD
ATOM     55  C   UNL A   1      39.238  33.435  34.875  1.00  0.00     0.074 A 
ATOM     56  C   UNL A   1      38.227  34.459  34.704  1.00  0.00     0.031 C 
ATOM     57  C   UNL A   1      40.060  33.345  35.950  1.00  0.00     0.037 A 
BRANCH  44  58
ATOM     58  C   UNL A   1      43.893  28.496  35.812  1.00  0.00     0.058 A 
ATOM     59  C   UNL A   1      43.587  27.454  36.702  1.00  0.00     0.135 A 
ATOM     60  C   UNL A   1      45.248  28.759  35.554  1.00  0.00     0.135 A 
ATOM     61  F   UNL A   1      42.309  27.169  36.995  1.00  0.00    -0.206 F 
ATOM     62  C   UNL A   1      44.587  26.717  37.329  1.00  0.00     0.059 A 
ATOM     63  C   UNL A   1      46.265  28.017  36.151  1.00  0.00     0.059 A 
ATOM     64  F   UNL A   1      45.598  29.745  34.713  1.00  0.00    -0.206 F 
ATOM     65  C   UNL A   1      45.923  27.007  37.047  1.00  0.00     0.060 A 
BRANCH  65  66
ATOM     66  S   UNL A   1      47.208  26.037  37.866  1.00  0.00     0.124 S 
ATOM     67  O   UNL A   1      48.055  27.088  38.422  1.00  0.00    -0.237 OA
ATOM     68  O   UNL A   1      46.442  25.261  38.836  1.00  0.00    -0.237 OA
ATOM     69  O   UNL A   1      47.799  25.266  36.777  1.00  0.00    -0.744 OA
ENDBRANCH  65  66
ENDBRANCH  44  58
BRANCH  45  70
ATOM     70  C   UNL A   1      36.580  33.308  30.984  1.00  0.00     0.058 A 
ATOM     71  C   UNL A   1      35.260  33.168  31.435  1.00  0.00     0.135 A 
ATOM     72  C   UNL A   1      36.806  34.129  29.867  1.00  0.00     0.135 A 
ATOM     73  F   UNL A   1      34.992  32.384  32.491  1.00  0.00    -0.206 F 
ATOM     74  C   UNL A   1      34.202  33.811  30.803  1.00  0.00     0.059 A 
ATOM     75  C   UNL A   1      35.768  34.804  29.233  1.00  0.00     0.059 A 
ATOM     76  F   UNL A   1      38.052  34.305  29.402  1.00  0.00    -0.206 F 
ATOM     77  C   UNL A   1      34.468  34.633  29.704  1.00  0.00     0.060 A 
BRANCH  77  78
ATOM     78  S   UNL A   1      33.095  35.516  28.931  1.00  0.00     0.124 S 
ATOM     79  O   UNL A   1      32.367  36.005  30.095  1.00  0.00    -0.237 OA
ATOM     80  O   UNL A   1      33.790  36.526  28.138  1.00  0.00    -0.237 OA
ATOM     81  O   UNL A   1      32.423  34.477  28.156  1.00  0.00    -0.744 OA
ENDBRANCH  77  78
ENDBRANCH  45  70
BRANCH  57  82
ATOM     82  C   UNL A   1      39.912  34.388  37.025  1.00  0.00     0.058 A 
ATOM     83  C   UNL A   1      40.564  35.628  36.940  1.00  0.00     0.135 A 
ATOM     84  C   UNL A   1      39.064  34.167  38.123  1.00  0.00     0.135 A 
ATOM     85  F   UNL A   1      41.392  35.888  35.915  1.00  0.00    -0.206 F 
ATOM     86  C   UNL A   1      40.395  36.607  37.914  1.00  0.00     0.059 A 
ATOM     87  C   UNL A   1      38.859  35.143  39.094  1.00  0.00     0.059 A 
ATOM     88  F   UNL A   1      38.410  33.003  38.249  1.00  0.00    -0.206 F 
ATOM     89  C   UNL A   1      39.536  36.355  38.987  1.00  0.00     0.060 A 
BRANCH  89  90
ATOM     90  S   UNL A   1      39.295  37.650  40.223  1.00  0.00     0.124 S 
ATOM     91  O   UNL A   1      38.198  38.415  39.639  1.00  0.00    -0.237 OA
ATOM     92  O   UNL A   1      38.965  36.881  41.419  1.00  0.00    -0.237 OA
ATOM     93  O   UNL A   1      40.586  38.330  40.259  1.00  0.00    -0.744 OA
ENDBRANCH  89  90
ENDBRANCH  57  82
ENDBRANCH  31  32
ENDBRANCH  24  26
ENDBRANCH  23  24
ENDBRANCH  22  23
ENDBRANCH   1  22
TORSDOF 19
ENDMDL
