MODEL 1
REMARK VINA RESULT:     -10.1      0.000      0.000
REMARK SMILES Cc1cc(/C=C2\C(=O)N(Cc3ccco3)C(=O)N=C2OCCOCCOC(=O)c2ccc(-c3c4nc(c(-c5c(F)cc(S(=O)(=O)[O-])cc5F)c5ccc([nH]5)c(-c5c(F)cc(S(=O)(=O)[O-])cc5F)c5nc(c(-c6c(F)cc(S(=O)(=O)[O-])cc6F)c6ccc3[nH]6)C=C5)C=C4)cc2)c(C)n1-c1ccc(Cl)c(C(=O)[O-])c1
REMARK SMILES IDX 24 1 23 2 22 3 21 4 20 5 19 6 5 7 6 8 7 9 8 10 9 11 18 12
REMARK SMILES IDX 16 13 17 14 4 15 1 16 2 17 3 18 97 19 95 20 96 21 98 22
REMARK SMILES IDX 99 23 107 24 100 25 103 26 101 27 102 28 104 29 105 30
REMARK SMILES IDX 106 31 10 32 11 33 12 34 15 35 13 36 14 37 25 38 26 39 27 40
REMARK SMILES IDX 28 41 29 42 30 43 94 44 31 45 93 46 32 47 33 48 34 49 87 50
REMARK SMILES IDX 35 51 92 52 86 53 88 54 36 55 91 56 85 57 84 58 37 60 71 61
REMARK SMILES IDX 50 62 70 63 51 64 54 65 69 66 89 67 52 68 53 69 68 71 90 72
REMARK SMILES IDX 55 73 38 74 39 75 48 76 40 77 41 78 47 79 49 80 42 81 43 82
REMARK SMILES IDX 44 83 45 84 46 85 72 86 73 87 82 88 74 89 75 90 81 91 83 92
REMARK SMILES IDX 76 93 77 94 78 95 79 96 80 97 56 98 57 99 66 100 58 101
REMARK SMILES IDX 59 102 65 103 67 104 60 105 61 106 62 107 63 108 64 109
REMARK H PARENT 88 59 54 70
REMARK Flexibility Score: inf
ROOT
ATOM      1  C   UNL A   1      48.173  24.680  35.578  1.00  0.00     0.202 C 
ENDROOT
BRANCH   1   2
ATOM      2  O   UNL A   1      49.288  24.792  34.673  1.00  0.00    -0.374 OA
BRANCH   2   3
ATOM      3  C   UNL A   1      49.239  25.938  33.820  1.00  0.00     0.202 C 
BRANCH   3   4
ATOM      4  C   UNL A   1      49.474  25.617  32.333  1.00  0.00     0.260 C 
BRANCH   4   5
ATOM      5  O   UNL A   1      48.290  25.800  31.525  1.00  0.00    -0.475 OA
BRANCH   5   6
ATOM      6  C   UNL A   1      48.416  26.578  30.421  1.00  0.00     0.231 C 
ATOM      7  C   UNL A   1      47.054  24.967  29.143  1.00  0.00     0.029 C 
ATOM      8  C   UNL A   1      47.490  26.227  29.335  1.00  0.00     0.103 C 
ATOM      9  C   UNL A   1      47.262  27.354  28.398  1.00  0.00     0.267 C 
ATOM     10  O   UNL A   1      46.199  27.572  27.871  1.00  0.00    -0.268 OA
ATOM     11  N   UNL A   1      48.425  28.089  28.201  1.00  0.00    -0.250 N 
ATOM     12  N   UNL A   1      49.265  27.546  30.351  1.00  0.00    -0.156 NA
ATOM     13  C   UNL A   1      49.418  28.193  29.159  1.00  0.00     0.354 C 
ATOM     14  O   UNL A   1      50.435  28.863  28.945  1.00  0.00    -0.245 OA
BRANCH   7  15
ATOM     15  C   UNL A   1      46.358  24.369  28.034  1.00  0.00    -0.003 A 
ATOM     16  C   UNL A   1      45.905  23.664  24.401  1.00  0.00     0.065 C 
ATOM     17  C   UNL A   1      45.894  23.778  25.887  1.00  0.00     0.020 A 
ATOM     18  C   UNL A   1      46.806  24.435  26.691  1.00  0.00     0.031 A 
ATOM     19  N   UNL A   1      44.880  23.307  26.703  1.00  0.00    -0.318 N 
ATOM     20  C   UNL A   1      45.112  23.751  28.008  1.00  0.00     0.027 A 
ATOM     21  C   UNL A   1      44.163  23.446  29.115  1.00  0.00     0.065 C 
BRANCH  19  22
ATOM     22  C   UNL A   1      43.822  22.433  26.322  1.00  0.00     0.046 A 
ATOM     23  C   UNL A   1      42.499  22.868  26.396  1.00  0.00     0.028 A 
ATOM     24  C   UNL A   1      44.111  21.097  26.025  1.00  0.00     0.038 A 
ATOM     25  C   UNL A   1      41.462  21.946  26.265  1.00  0.00     0.023 A 
ATOM     26  C   UNL A   1      43.066  20.159  25.876  1.00  0.00     0.018 A 
ATOM     27  C   UNL A   1      41.738  20.593  26.025  1.00  0.00     0.050 A 
ATOM     28  Cl  UNL A   1      40.361  19.549  25.958  1.00  0.00    -0.084 Cl
BRANCH  26  29
ATOM     29  C   UNL A   1      43.401  18.735  25.605  1.00  0.00     0.073 C 
ATOM     30  O   UNL A   1      43.759  18.226  24.552  1.00  0.00    -0.545 OA
ATOM     31  O   UNL A   1      43.282  17.962  26.699  1.00  0.00    -0.545 OA
ENDBRANCH  26  29
ENDBRANCH  19  22
ENDBRANCH   7  15
BRANCH  11  32
ATOM     32  C   UNL A   1      48.624  28.735  26.919  1.00  0.00     0.206 C 
BRANCH  32  33
ATOM     33  C   UNL A   1      49.445  27.921  25.997  1.00  0.00     0.123 A 
ATOM     34  C   UNL A   1      49.586  26.563  25.801  1.00  0.00     0.047 A 
ATOM     35  O   UNL A   1      50.181  28.605  25.076  1.00  0.00    -0.467 OA
ATOM     36  C   UNL A   1      50.467  26.412  24.705  1.00  0.00     0.042 A 
ATOM     37  C   UNL A   1      50.802  27.682  24.302  1.00  0.00     0.195 A 
ENDBRANCH  32  33
ENDBRANCH  11  32
ENDBRANCH   5   6
ENDBRANCH   4   5
ENDBRANCH   3   4
ENDBRANCH   2   3
ENDBRANCH   1   2
BRANCH   1  38
ATOM     38  C   UNL A   1      47.031  25.688  35.306  1.00  0.00     0.261 C 
BRANCH  38  39
ATOM     39  O   UNL A   1      45.954  25.193  34.434  1.00  0.00    -0.460 OA
BRANCH  39  40
ATOM     40  C   UNL A   1      44.767  24.899  35.053  1.00  0.00     0.338 C 
ATOM     41  O   UNL A   1      44.679  24.126  35.999  1.00  0.00    -0.246 OA
BRANCH  40  42
ATOM     42  C   UNL A   1      43.557  25.691  34.579  1.00  0.00     0.060 A 
ATOM     43  C   UNL A   1      43.783  26.729  33.677  1.00  0.00     0.016 A 
ATOM     44  C   UNL A   1      42.272  25.642  35.152  1.00  0.00     0.016 A 
ATOM     45  C   UNL A   1      42.766  27.678  33.362  1.00  0.00     0.010 A 
ATOM     46  C   UNL A   1      41.260  26.656  34.880  1.00  0.00     0.010 A 
ATOM     47  C   UNL A   1      41.483  27.729  33.995  1.00  0.00    -0.014 A 
BRANCH  47  48
ATOM     48  C   UNL A   1      40.803  29.156  34.070  1.00  0.00     0.031 A 
ATOM     49  C   UNL A   1      39.668  29.074  33.096  1.00  0.00     0.074 A 
ATOM     50  C   UNL A   1      40.928  30.389  34.698  1.00  0.00     0.049 A 
ATOM     51  N   UNL A   1      39.825  28.691  31.856  1.00  0.00    -0.248 NA
ATOM     52  C   UNL A   1      38.280  29.072  33.568  1.00  0.00     0.031 C 
ATOM     53  C   UNL A   1      41.948  30.819  35.663  1.00  0.00     0.029 A 
ATOM     54  N   UNL A   1      40.137  31.575  34.625  1.00  0.00    -0.354 N 
ATOM     55  C   UNL A   1      38.568  28.746  31.307  1.00  0.00     0.074 A 
ATOM     56  C   UNL A   1      37.661  28.716  32.441  1.00  0.00     0.031 C 
ATOM     57  C   UNL A   1      41.683  32.067  36.150  1.00  0.00     0.029 A 
ATOM     58  C   UNL A   1      40.494  32.640  35.521  1.00  0.00     0.049 A 
ATOM     59  H   UNL A   1      39.385  31.659  33.995  1.00  0.00     0.167 HD
ATOM     60  C   UNL A   1      38.407  29.420  30.134  1.00  0.00     0.037 A 
ATOM     61  C   UNL A   1      39.935  33.899  35.709  1.00  0.00     0.037 A 
ATOM     62  C   UNL A   1      37.621  30.615  30.274  1.00  0.00     0.049 A 
ATOM     63  C   UNL A   1      39.080  34.196  34.547  1.00  0.00     0.074 A 
ATOM     64  C   UNL A   1      36.438  30.936  30.909  1.00  0.00     0.029 A 
ATOM     65  N   UNL A   1      38.290  31.805  30.071  1.00  0.00    -0.354 N 
ATOM     66  N   UNL A   1      39.572  34.569  33.409  1.00  0.00    -0.248 NA
ATOM     67  C   UNL A   1      37.622  34.215  34.635  1.00  0.00     0.031 C 
ATOM     68  C   UNL A   1      36.667  32.206  31.498  1.00  0.00     0.029 A 
ATOM     69  C   UNL A   1      37.867  32.714  31.015  1.00  0.00     0.049 A 
ATOM     70  H   UNL A   1      38.959  31.974  29.370  1.00  0.00     0.167 HD
ATOM     71  C   UNL A   1      38.538  34.420  32.541  1.00  0.00     0.074 A 
ATOM     72  C   UNL A   1      37.341  34.462  33.354  1.00  0.00     0.031 C 
ATOM     73  C   UNL A   1      38.794  33.754  31.391  1.00  0.00     0.037 A 
BRANCH  60  74
ATOM     74  C   UNL A   1      39.511  29.290  29.131  1.00  0.00     0.058 A 
ATOM     75  C   UNL A   1      39.258  28.629  27.926  1.00  0.00     0.135 A 
ATOM     76  C   UNL A   1      40.816  29.782  29.346  1.00  0.00     0.135 A 
ATOM     77  F   UNL A   1      38.020  28.189  27.645  1.00  0.00    -0.206 F 
ATOM     78  C   UNL A   1      40.268  28.409  26.995  1.00  0.00     0.059 A 
ATOM     79  C   UNL A   1      41.849  29.543  28.448  1.00  0.00     0.059 A 
ATOM     80  F   UNL A   1      41.086  30.528  30.430  1.00  0.00    -0.206 F 
ATOM     81  C   UNL A   1      41.566  28.845  27.277  1.00  0.00     0.060 A 
BRANCH  81  82
ATOM     82  S   UNL A   1      42.884  28.420  26.120  1.00  0.00     0.124 S 
ATOM     83  O   UNL A   1      43.853  29.492  26.345  1.00  0.00    -0.237 OA
ATOM     84  O   UNL A   1      43.289  27.104  26.601  1.00  0.00    -0.237 OA
ATOM     85  O   UNL A   1      42.225  28.460  24.820  1.00  0.00    -0.744 OA
ENDBRANCH  81  82
ENDBRANCH  60  74
BRANCH  61  86
ATOM     86  C   UNL A   1      39.972  35.138  36.634  1.00  0.00     0.058 A 
ATOM     87  C   UNL A   1      39.246  35.140  37.873  1.00  0.00     0.135 A 
ATOM     88  C   UNL A   1      40.981  36.110  36.575  1.00  0.00     0.135 A 
ATOM     89  F   UNL A   1      38.213  34.309  38.071  1.00  0.00    -0.206 F 
ATOM     90  C   UNL A   1      39.585  35.914  38.992  1.00  0.00     0.059 A 
ATOM     91  C   UNL A   1      41.315  36.936  37.681  1.00  0.00     0.059 A 
ATOM     92  F   UNL A   1      41.738  36.219  35.473  1.00  0.00    -0.206 F 
ATOM     93  C   UNL A   1      40.651  36.792  38.903  1.00  0.00     0.060 A 
BRANCH  93  94
ATOM     94  S   UNL A   1      41.208  37.627  40.420  1.00  0.00     0.124 S 
ATOM     95  O   UNL A   1      42.415  36.885  40.768  1.00  0.00    -0.237 OA
ATOM     96  O   UNL A   1      41.420  38.997  39.960  1.00  0.00    -0.237 OA
ATOM     97  O   UNL A   1      40.082  37.454  41.334  1.00  0.00    -0.744 OA
ENDBRANCH  93  94
ENDBRANCH  61  86
BRANCH  73  98
ATOM     98  C   UNL A   1      40.152  33.998  30.743  1.00  0.00     0.058 A 
ATOM     99  C   UNL A   1      41.410  33.564  31.225  1.00  0.00     0.135 A 
ATOM    100  C   UNL A   1      40.183  34.796  29.589  1.00  0.00     0.135 A 
ATOM    101  F   UNL A   1      41.518  32.674  32.224  1.00  0.00    -0.206 F 
ATOM    102  C   UNL A   1      42.616  34.010  30.678  1.00  0.00     0.059 A 
ATOM    103  C   UNL A   1      41.374  35.202  28.986  1.00  0.00     0.059 A 
ATOM    104  F   UNL A   1      39.031  35.195  29.025  1.00  0.00    -0.206 F 
ATOM    105  C   UNL A   1      42.588  34.848  29.569  1.00  0.00     0.060 A 
BRANCH 105 106
ATOM    106  S   UNL A   1      44.146  35.457  28.885  1.00  0.00     0.124 S 
ATOM    107  O   UNL A   1      44.023  36.897  29.096  1.00  0.00    -0.237 OA
ATOM    108  O   UNL A   1      45.146  34.786  29.709  1.00  0.00    -0.237 OA
ATOM    109  O   UNL A   1      44.089  35.030  27.491  1.00  0.00    -0.744 OA
ENDBRANCH 105 106
ENDBRANCH  73  98
ENDBRANCH  47  48
ENDBRANCH  40  42
ENDBRANCH  39  40
ENDBRANCH  38  39
ENDBRANCH   1  38
TORSDOF 21
ENDMDL
MODEL 2
REMARK VINA RESULT:     -10.1      7.639     11.595
REMARK SMILES Cc1cc(/C=C2\C(=O)N(Cc3ccco3)C(=O)N=C2OCCOCCOC(=O)c2ccc(-c3c4nc(c(-c5c(F)cc(S(=O)(=O)[O-])cc5F)c5ccc([nH]5)c(-c5c(F)cc(S(=O)(=O)[O-])cc5F)c5nc(c(-c6c(F)cc(S(=O)(=O)[O-])cc6F)c6ccc3[nH]6)C=C5)C=C4)cc2)c(C)n1-c1ccc(Cl)c(C(=O)[O-])c1
REMARK SMILES IDX 24 1 23 2 22 3 21 4 20 5 19 6 5 7 6 8 7 9 8 10 9 11 18 12
REMARK SMILES IDX 16 13 17 14 4 15 1 16 2 17 3 18 97 19 95 20 96 21 98 22
REMARK SMILES IDX 99 23 107 24 100 25 103 26 101 27 102 28 104 29 105 30
REMARK SMILES IDX 106 31 10 32 11 33 12 34 15 35 13 36 14 37 25 38 26 39 27 40
REMARK SMILES IDX 28 41 29 42 30 43 94 44 31 45 93 46 32 47 33 48 34 49 87 50
REMARK SMILES IDX 35 51 92 52 86 53 88 54 36 55 91 56 85 57 84 58 37 60 71 61
REMARK SMILES IDX 50 62 70 63 51 64 54 65 69 66 89 67 52 68 53 69 68 71 90 72
REMARK SMILES IDX 55 73 38 74 39 75 48 76 40 77 41 78 47 79 49 80 42 81 43 82
REMARK SMILES IDX 44 83 45 84 46 85 72 86 73 87 82 88 74 89 75 90 81 91 83 92
REMARK SMILES IDX 76 93 77 94 78 95 79 96 80 97 56 98 57 99 66 100 58 101
REMARK SMILES IDX 59 102 65 103 67 104 60 105 61 106 62 107 63 108 64 109
REMARK H PARENT 88 59 54 70
REMARK Flexibility Score: inf
ROOT
ATOM      1  C   UNL A   1      45.941  21.333  36.804  1.00  0.00     0.202 C 
ENDROOT
BRANCH   1   2
ATOM      2  O   UNL A   1      45.707  19.931  36.576  1.00  0.00    -0.374 OA
BRANCH   2   3
ATOM      3  C   UNL A   1      46.016  19.094  37.693  1.00  0.00     0.202 C 
BRANCH   3   4
ATOM      4  C   UNL A   1      45.010  17.948  37.908  1.00  0.00     0.260 C 
BRANCH   4   5
ATOM      5  O   UNL A   1      45.460  16.981  38.882  1.00  0.00    -0.475 OA
BRANCH   5   6
ATOM      6  C   UNL A   1      44.505  16.383  39.638  1.00  0.00     0.231 C 
ATOM      7  C   UNL A   1      45.957  16.594  41.621  1.00  0.00     0.029 C 
ATOM      8  C   UNL A   1      44.723  16.510  41.085  1.00  0.00     0.103 C 
ATOM      9  C   UNL A   1      43.472  16.344  41.865  1.00  0.00     0.267 C 
ATOM     10  O   UNL A   1      43.230  16.967  42.868  1.00  0.00    -0.268 OA
ATOM     11  N   UNL A   1      42.651  15.376  41.299  1.00  0.00    -0.250 N 
ATOM     12  N   UNL A   1      43.493  15.775  39.119  1.00  0.00    -0.156 NA
ATOM     13  C   UNL A   1      42.651  15.089  39.946  1.00  0.00     0.354 C 
ATOM     14  O   UNL A   1      41.900  14.223  39.482  1.00  0.00    -0.245 OA
BRANCH   7  15
ATOM     15  C   UNL A   1      46.402  16.485  42.985  1.00  0.00    -0.003 A 
ATOM     16  C   UNL A   1      47.354  14.524  46.010  1.00  0.00     0.065 C 
ATOM     17  C   UNL A   1      47.056  15.512  44.935  1.00  0.00     0.020 A 
ATOM     18  C   UNL A   1      46.672  15.253  43.632  1.00  0.00     0.031 A 
ATOM     19  N   UNL A   1      47.024  16.884  45.115  1.00  0.00    -0.318 N 
ATOM     20  C   UNL A   1      46.530  17.478  43.950  1.00  0.00     0.027 A 
ATOM     21  C   UNL A   1      46.332  18.951  43.851  1.00  0.00     0.065 C 
BRANCH  19  22
ATOM     22  C   UNL A   1      47.502  17.601  46.249  1.00  0.00     0.046 A 
ATOM     23  C   UNL A   1      46.612  18.000  47.246  1.00  0.00     0.028 A 
ATOM     24  C   UNL A   1      48.833  18.032  46.276  1.00  0.00     0.038 A 
ATOM     25  C   UNL A   1      47.029  18.907  48.218  1.00  0.00     0.023 A 
ATOM     26  C   UNL A   1      49.267  18.938  47.267  1.00  0.00     0.018 A 
ATOM     27  C   UNL A   1      48.343  19.392  48.224  1.00  0.00     0.050 A 
ATOM     28  Cl  UNL A   1      48.703  20.565  49.443  1.00  0.00    -0.084 Cl
BRANCH  26  29
ATOM     29  C   UNL A   1      50.676  19.417  47.248  1.00  0.00     0.073 C 
ATOM     30  O   UNL A   1      51.098  20.523  46.941  1.00  0.00    -0.545 OA
ATOM     31  O   UNL A   1      51.547  18.468  47.635  1.00  0.00    -0.545 OA
ENDBRANCH  26  29
ENDBRANCH  19  22
ENDBRANCH   7  15
BRANCH  11  32
ATOM     32  C   UNL A   1      41.793  14.602  42.175  1.00  0.00     0.206 C 
BRANCH  32  33
ATOM     33  C   UNL A   1      42.516  13.500  42.846  1.00  0.00     0.123 A 
ATOM     34  C   UNL A   1      43.395  13.452  43.908  1.00  0.00     0.047 A 
ATOM     35  O   UNL A   1      42.234  12.239  42.413  1.00  0.00    -0.467 OA
ATOM     36  C   UNL A   1      43.674  12.083  44.126  1.00  0.00     0.042 A 
ATOM     37  C   UNL A   1      42.946  11.387  43.191  1.00  0.00     0.195 A 
ENDBRANCH  32  33
ENDBRANCH  11  32
ENDBRANCH   5   6
ENDBRANCH   4   5
ENDBRANCH   3   4
ENDBRANCH   2   3
ENDBRANCH   1   2
BRANCH   1  38
ATOM     38  C   UNL A   1      45.252  22.267  35.780  1.00  0.00     0.261 C 
BRANCH  38  39
ATOM     39  O   UNL A   1      44.669  23.494  36.347  1.00  0.00    -0.460 OA
BRANCH  39  40
ATOM     40  C   UNL A   1      45.033  24.667  35.740  1.00  0.00     0.338 C 
ATOM     41  O   UNL A   1      46.193  25.058  35.679  1.00  0.00    -0.246 OA
BRANCH  40  42
ATOM     42  C   UNL A   1      43.921  25.418  35.021  1.00  0.00     0.060 A 
ATOM     43  C   UNL A   1      44.277  26.561  34.308  1.00  0.00     0.016 A 
ATOM     44  C   UNL A   1      42.541  25.216  35.213  1.00  0.00     0.016 A 
ATOM     45  C   UNL A   1      43.294  27.464  33.807  1.00  0.00     0.010 A 
ATOM     46  C   UNL A   1      41.545  26.180  34.762  1.00  0.00     0.010 A 
ATOM     47  C   UNL A   1      41.889  27.355  34.065  1.00  0.00    -0.014 A 
BRANCH  47  48
ATOM     48  C   UNL A   1      41.079  28.714  34.071  1.00  0.00     0.031 A 
ATOM     49  C   UNL A   1      40.106  28.566  32.942  1.00  0.00     0.074 A 
ATOM     50  C   UNL A   1      41.000  29.931  34.737  1.00  0.00     0.049 A 
ATOM     51  N   UNL A   1      40.471  28.241  31.731  1.00  0.00    -0.248 NA
ATOM     52  C   UNL A   1      38.670  28.427  33.209  1.00  0.00     0.031 C 
ATOM     53  C   UNL A   1      41.829  30.415  35.848  1.00  0.00     0.029 A 
ATOM     54  N   UNL A   1      40.122  31.045  34.576  1.00  0.00    -0.354 N 
ATOM     55  C   UNL A   1      39.306  28.205  31.007  1.00  0.00     0.074 A 
ATOM     56  C   UNL A   1      38.253  28.057  31.997  1.00  0.00     0.031 C 
ATOM     57  C   UNL A   1      41.384  31.618  36.319  1.00  0.00     0.029 A 
ATOM     58  C   UNL A   1      40.249  32.106  35.536  1.00  0.00     0.049 A 
ATOM     59  H   UNL A   1      39.463  31.085  33.846  1.00  0.00     0.167 HD
ATOM     60  C   UNL A   1      39.252  28.902  29.837  1.00  0.00     0.037 A 
ATOM     61  C   UNL A   1      39.557  33.304  35.669  1.00  0.00     0.037 A 
ATOM     62  C   UNL A   1      38.348  30.018  29.888  1.00  0.00     0.049 A 
ATOM     63  C   UNL A   1      38.852  33.565  34.402  1.00  0.00     0.074 A 
ATOM     64  C   UNL A   1      37.063  30.213  30.352  1.00  0.00     0.029 A 
ATOM     65  N   UNL A   1      38.928  31.268  29.809  1.00  0.00    -0.354 N 
ATOM     66  N   UNL A   1      39.464  34.018  33.355  1.00  0.00    -0.248 NA
ATOM     67  C   UNL A   1      37.401  33.453  34.279  1.00  0.00     0.031 C 
ATOM     68  C   UNL A   1      37.088  31.477  30.995  1.00  0.00     0.029 A 
ATOM     69  C   UNL A   1      38.294  32.104  30.701  1.00  0.00     0.049 A 
ATOM     70  H   UNL A   1      39.671  31.519  29.215  1.00  0.00     0.167 HD
ATOM     71  C   UNL A   1      38.582  33.809  32.344  1.00  0.00     0.074 A 
ATOM     72  C   UNL A   1      37.283  33.719  32.975  1.00  0.00     0.031 C 
ATOM     73  C   UNL A   1      39.059  33.208  31.229  1.00  0.00     0.037 A 
BRANCH  60  74
ATOM     74  C   UNL A   1      40.495  28.904  29.002  1.00  0.00     0.058 A 
ATOM     75  C   UNL A   1      40.525  28.141  27.831  1.00  0.00     0.135 A 
ATOM     76  C   UNL A   1      41.659  29.620  29.347  1.00  0.00     0.135 A 
ATOM     77  F   UNL A   1      39.426  27.483  27.425  1.00  0.00    -0.206 F 
ATOM     78  C   UNL A   1      41.680  28.042  27.061  1.00  0.00     0.059 A 
ATOM     79  C   UNL A   1      42.835  29.508  28.614  1.00  0.00     0.059 A 
ATOM     80  F   UNL A   1      41.650  30.462  30.393  1.00  0.00    -0.206 F 
ATOM     81  C   UNL A   1      42.837  28.706  27.476  1.00  0.00     0.060 A 
BRANCH  81  82
ATOM     82  S   UNL A   1      44.358  28.445  26.540  1.00  0.00     0.124 S 
ATOM     83  O   UNL A   1      45.084  27.498  27.385  1.00  0.00    -0.237 OA
ATOM     84  O   UNL A   1      43.846  27.896  25.289  1.00  0.00    -0.237 OA
ATOM     85  O   UNL A   1      44.951  29.775  26.470  1.00  0.00    -0.744 OA
ENDBRANCH  81  82
ENDBRANCH  60  74
BRANCH  61  86
ATOM     86  C   UNL A   1      39.349  34.509  36.615  1.00  0.00     0.058 A 
ATOM     87  C   UNL A   1      38.694  34.333  37.881  1.00  0.00     0.135 A 
ATOM     88  C   UNL A   1      40.106  35.687  36.536  1.00  0.00     0.135 A 
ATOM     89  F   UNL A   1      37.888  33.286  38.102  1.00  0.00    -0.206 F 
ATOM     90  C   UNL A   1      38.894  35.153  39.001  1.00  0.00     0.059 A 
ATOM     91  C   UNL A   1      40.289  36.556  37.645  1.00  0.00     0.059 A 
ATOM     92  F   UNL A   1      40.771  35.977  35.408  1.00  0.00    -0.206 F 
ATOM     93  C   UNL A   1      39.727  36.252  38.888  1.00  0.00     0.060 A 
BRANCH  93  94
ATOM     94  S   UNL A   1      40.142  37.177  40.399  1.00  0.00     0.124 S 
ATOM     95  O   UNL A   1      40.561  38.472  39.875  1.00  0.00    -0.237 OA
ATOM     96  O   UNL A   1      38.874  37.170  41.124  1.00  0.00    -0.237 OA
ATOM     97  O   UNL A   1      41.200  36.375  41.006  1.00  0.00    -0.744 OA
ENDBRANCH  93  94
ENDBRANCH  61  86
BRANCH  73  98
ATOM     98  C   UNL A   1      40.467  33.592  30.790  1.00  0.00     0.058 A 
ATOM     99  C   UNL A   1      41.681  33.216  31.413  1.00  0.00     0.135 A 
ATOM    100  C   UNL A   1      40.587  34.467  29.699  1.00  0.00     0.135 A 
ATOM    101  F   UNL A   1      41.725  32.269  32.364  1.00  0.00    -0.206 F 
ATOM    102  C   UNL A   1      42.909  33.783  31.065  1.00  0.00     0.059 A 
ATOM    103  C   UNL A   1      41.812  34.997  29.290  1.00  0.00     0.059 A 
ATOM    104  F   UNL A   1      39.492  34.821  29.006  1.00  0.00    -0.206 F 
ATOM    105  C   UNL A   1      42.962  34.691  30.013  1.00  0.00     0.060 A 
BRANCH 105 106
ATOM    106  S   UNL A   1      44.543  35.454  29.587  1.00  0.00     0.124 S 
ATOM    107  O   UNL A   1      45.044  34.549  28.556  1.00  0.00    -0.237 OA
ATOM    108  O   UNL A   1      44.149  36.779  29.120  1.00  0.00    -0.237 OA
ATOM    109  O   UNL A   1      45.281  35.423  30.845  1.00  0.00    -0.744 OA
ENDBRANCH 105 106
ENDBRANCH  73  98
ENDBRANCH  47  48
ENDBRANCH  40  42
ENDBRANCH  39  40
ENDBRANCH  38  39
ENDBRANCH   1  38
TORSDOF 21
ENDMDL
MODEL 3
REMARK VINA RESULT:      -9.9      4.433      7.585
REMARK SMILES Cc1cc(/C=C2\C(=O)N(Cc3ccco3)C(=O)N=C2OCCOCCOC(=O)c2ccc(-c3c4nc(c(-c5c(F)cc(S(=O)(=O)[O-])cc5F)c5ccc([nH]5)c(-c5c(F)cc(S(=O)(=O)[O-])cc5F)c5nc(c(-c6c(F)cc(S(=O)(=O)[O-])cc6F)c6ccc3[nH]6)C=C5)C=C4)cc2)c(C)n1-c1ccc(Cl)c(C(=O)[O-])c1
REMARK SMILES IDX 24 1 23 2 22 3 21 4 20 5 19 6 5 7 6 8 7 9 8 10 9 11 18 12
REMARK SMILES IDX 16 13 17 14 4 15 1 16 2 17 3 18 97 19 95 20 96 21 98 22
REMARK SMILES IDX 99 23 107 24 100 25 103 26 101 27 102 28 104 29 105 30
REMARK SMILES IDX 106 31 10 32 11 33 12 34 15 35 13 36 14 37 25 38 26 39 27 40
REMARK SMILES IDX 28 41 29 42 30 43 94 44 31 45 93 46 32 47 33 48 34 49 87 50
REMARK SMILES IDX 35 51 92 52 86 53 88 54 36 55 91 56 85 57 84 58 37 60 71 61
REMARK SMILES IDX 50 62 70 63 51 64 54 65 69 66 89 67 52 68 53 69 68 71 90 72
REMARK SMILES IDX 55 73 38 74 39 75 48 76 40 77 41 78 47 79 49 80 42 81 43 82
REMARK SMILES IDX 44 83 45 84 46 85 72 86 73 87 82 88 74 89 75 90 81 91 83 92
REMARK SMILES IDX 76 93 77 94 78 95 79 96 80 97 56 98 57 99 66 100 58 101
REMARK SMILES IDX 59 102 65 103 67 104 60 105 61 106 62 107 63 108 64 109
REMARK H PARENT 88 59 54 70
REMARK Flexibility Score: inf
ROOT
ATOM      1  C   UNL A   1      47.315  22.541  34.539  1.00  0.00     0.202 C 
ENDROOT
BRANCH   1   2
ATOM      2  O   UNL A   1      47.574  21.128  34.623  1.00  0.00    -0.374 OA
BRANCH   2   3
ATOM      3  C   UNL A   1      48.800  20.718  34.013  1.00  0.00     0.202 C 
BRANCH   3   4
ATOM      4  C   UNL A   1      49.915  21.778  34.085  1.00  0.00     0.260 C 
BRANCH   4   5
ATOM      5  O   UNL A   1      50.660  21.726  35.322  1.00  0.00    -0.475 OA
BRANCH   5   6
ATOM      6  C   UNL A   1      50.202  22.488  36.346  1.00  0.00     0.231 C 
ATOM      7  C   UNL A   1      49.373  20.457  37.474  1.00  0.00     0.029 C 
ATOM      8  C   UNL A   1      49.836  21.721  37.544  1.00  0.00     0.103 C 
ATOM      9  C   UNL A   1      49.855  22.548  38.776  1.00  0.00     0.267 C 
ATOM     10  O   UNL A   1      50.210  22.128  39.849  1.00  0.00    -0.268 OA
ATOM     11  N   UNL A   1      49.396  23.835  38.525  1.00  0.00    -0.250 N 
ATOM     12  N   UNL A   1      50.116  23.773  36.267  1.00  0.00    -0.156 NA
ATOM     13  C   UNL A   1      49.522  24.450  37.292  1.00  0.00     0.354 C 
ATOM     14  O   UNL A   1      49.104  25.600  37.113  1.00  0.00    -0.245 OA
BRANCH   7  15
ATOM     15  C   UNL A   1      48.746  19.626  38.468  1.00  0.00    -0.003 A 
ATOM     16  C   UNL A   1      48.842  17.341  41.412  1.00  0.00     0.065 C 
ATOM     17  C   UNL A   1      48.548  18.248  40.267  1.00  0.00     0.020 A 
ATOM     18  C   UNL A   1      49.450  18.976  39.512  1.00  0.00     0.031 A 
ATOM     19  N   UNL A   1      47.295  18.427  39.708  1.00  0.00    -0.318 N 
ATOM     20  C   UNL A   1      47.427  19.194  38.547  1.00  0.00     0.027 A 
ATOM     21  C   UNL A   1      46.252  19.519  37.690  1.00  0.00     0.065 C 
BRANCH  19  22
ATOM     22  C   UNL A   1      46.053  17.998  40.257  1.00  0.00     0.046 A 
ATOM     23  C   UNL A   1      45.700  18.367  41.555  1.00  0.00     0.028 A 
ATOM     24  C   UNL A   1      45.270  17.082  39.546  1.00  0.00     0.038 A 
ATOM     25  C   UNL A   1      44.617  17.749  42.177  1.00  0.00     0.023 A 
ATOM     26  C   UNL A   1      44.161  16.463  40.163  1.00  0.00     0.018 A 
ATOM     27  C   UNL A   1      43.858  16.787  41.497  1.00  0.00     0.050 A 
ATOM     28  Cl  UNL A   1      42.590  16.051  42.412  1.00  0.00    -0.084 Cl
BRANCH  26  29
ATOM     29  C   UNL A   1      43.371  15.459  39.401  1.00  0.00     0.073 C 
ATOM     30  O   UNL A   1      42.688  14.542  39.835  1.00  0.00    -0.545 OA
ATOM     31  O   UNL A   1      43.453  15.642  38.071  1.00  0.00    -0.545 OA
ENDBRANCH  26  29
ENDBRANCH  19  22
ENDBRANCH   7  15
BRANCH  11  32
ATOM     32  C   UNL A   1      48.714  24.544  39.590  1.00  0.00     0.206 C 
BRANCH  32  33
ATOM     33  C   UNL A   1      47.269  24.233  39.642  1.00  0.00     0.123 A 
ATOM     34  C   UNL A   1      46.133  24.957  39.349  1.00  0.00     0.047 A 
ATOM     35  O   UNL A   1      46.937  22.952  39.969  1.00  0.00    -0.467 OA
ATOM     36  C   UNL A   1      45.044  24.070  39.519  1.00  0.00     0.042 A 
ATOM     37  C   UNL A   1      45.585  22.865  39.898  1.00  0.00     0.195 A 
ENDBRANCH  32  33
ENDBRANCH  11  32
ENDBRANCH   5   6
ENDBRANCH   4   5
ENDBRANCH   3   4
ENDBRANCH   2   3
ENDBRANCH   1   2
BRANCH   1  38
ATOM     38  C   UNL A   1      45.903  22.959  35.016  1.00  0.00     0.261 C 
BRANCH  38  39
ATOM     39  O   UNL A   1      45.815  24.303  35.607  1.00  0.00    -0.460 OA
BRANCH  39  40
ATOM     40  C   UNL A   1      45.828  25.350  34.722  1.00  0.00     0.338 C 
ATOM     41  O   UNL A   1      46.853  25.774  34.201  1.00  0.00    -0.246 OA
BRANCH  40  42
ATOM     42  C   UNL A   1      44.466  25.892  34.313  1.00  0.00     0.060 A 
ATOM     43  C   UNL A   1      44.443  26.937  33.392  1.00  0.00     0.016 A 
ATOM     44  C   UNL A   1      43.247  25.613  34.959  1.00  0.00     0.016 A 
ATOM     45  C   UNL A   1      43.250  27.673  33.128  1.00  0.00     0.010 A 
ATOM     46  C   UNL A   1      42.049  26.416  34.739  1.00  0.00     0.010 A 
ATOM     47  C   UNL A   1      42.017  27.494  33.833  1.00  0.00    -0.014 A 
BRANCH  47  48
ATOM     48  C   UNL A   1      41.086  28.769  33.936  1.00  0.00     0.031 A 
ATOM     49  C   UNL A   1      39.976  28.493  32.969  1.00  0.00     0.074 A 
ATOM     50  C   UNL A   1      40.987  29.995  34.582  1.00  0.00     0.049 A 
ATOM     51  N   UNL A   1      40.188  28.164  31.722  1.00  0.00    -0.248 NA
ATOM     52  C   UNL A   1      38.617  28.228  33.451  1.00  0.00     0.031 C 
ATOM     53  C   UNL A   1      41.920  30.592  35.547  1.00  0.00     0.029 A 
ATOM     54  N   UNL A   1      39.990  31.016  34.535  1.00  0.00    -0.354 N 
ATOM     55  C   UNL A   1      38.938  27.993  31.184  1.00  0.00     0.074 A 
ATOM     56  C   UNL A   1      38.063  27.780  32.323  1.00  0.00     0.031 C 
ATOM     57  C   UNL A   1      41.434  31.763  36.056  1.00  0.00     0.029 A 
ATOM     58  C   UNL A   1      40.153  32.115  35.444  1.00  0.00     0.049 A 
ATOM     59  H   UNL A   1      39.230  30.968  33.911  1.00  0.00     0.167 HD
ATOM     60  C   UNL A   1      38.643  28.642  30.022  1.00  0.00     0.037 A 
ATOM     61  C   UNL A   1      39.374  33.246  35.657  1.00  0.00     0.037 A 
ATOM     62  C   UNL A   1      37.651  29.670  30.187  1.00  0.00     0.049 A 
ATOM     63  C   UNL A   1      38.467  33.397  34.506  1.00  0.00     0.074 A 
ATOM     64  C   UNL A   1      36.436  29.758  30.836  1.00  0.00     0.029 A 
ATOM     65  N   UNL A   1      38.087  30.966  29.999  1.00  0.00    -0.354 N 
ATOM     66  N   UNL A   1      38.870  33.871  33.371  1.00  0.00    -0.248 NA
ATOM     67  C   UNL A   1      37.032  33.145  34.605  1.00  0.00     0.031 C 
ATOM     68  C   UNL A   1      36.432  31.040  31.444  1.00  0.00     0.029 A 
ATOM     69  C   UNL A   1      37.513  31.767  30.960  1.00  0.00     0.049 A 
ATOM     70  H   UNL A   1      38.706  31.266  29.295  1.00  0.00     0.167 HD
ATOM     71  C   UNL A   1      37.873  33.546  32.508  1.00  0.00     0.074 A 
ATOM     72  C   UNL A   1      36.696  33.354  33.330  1.00  0.00     0.031 C 
ATOM     73  C   UNL A   1      38.235  32.956  31.346  1.00  0.00     0.037 A 
BRANCH  60  74
ATOM     74  C   UNL A   1      39.742  28.734  29.009  1.00  0.00     0.058 A 
ATOM     75  C   UNL A   1      39.681  27.926  27.870  1.00  0.00     0.135 A 
ATOM     76  C   UNL A   1      40.861  29.580  29.154  1.00  0.00     0.135 A 
ATOM     77  F   UNL A   1      38.612  27.142  27.654  1.00  0.00    -0.206 F 
ATOM     78  C   UNL A   1      40.714  27.912  26.938  1.00  0.00     0.059 A 
ATOM     79  C   UNL A   1      41.921  29.556  28.255  1.00  0.00     0.059 A 
ATOM     80  F   UNL A   1      40.914  30.462  30.164  1.00  0.00    -0.206 F 
ATOM     81  C   UNL A   1      41.842  28.709  27.154  1.00  0.00     0.060 A 
BRANCH  81  82
ATOM     82  S   UNL A   1      43.228  28.562  26.007  1.00  0.00     0.124 S 
ATOM     83  O   UNL A   1      43.926  27.381  26.513  1.00  0.00    -0.237 OA
ATOM     84  O   UNL A   1      42.541  28.379  24.733  1.00  0.00    -0.237 OA
ATOM     85  O   UNL A   1      43.951  29.817  26.180  1.00  0.00    -0.744 OA
ENDBRANCH  81  82
ENDBRANCH  60  74
BRANCH  61  86
ATOM     86  C   UNL A   1      39.190  34.458  36.601  1.00  0.00     0.058 A 
ATOM     87  C   UNL A   1      38.592  34.285  37.894  1.00  0.00     0.135 A 
ATOM     88  C   UNL A   1      39.929  35.644  36.480  1.00  0.00     0.135 A 
ATOM     89  F   UNL A   1      37.809  33.230  38.159  1.00  0.00    -0.206 F 
ATOM     90  C   UNL A   1      38.829  35.117  38.999  1.00  0.00     0.059 A 
ATOM     91  C   UNL A   1      40.148  36.525  37.572  1.00  0.00     0.059 A 
ATOM     92  F   UNL A   1      40.543  35.931  35.323  1.00  0.00    -0.206 F 
ATOM     93  C   UNL A   1      39.642  36.225  38.841  1.00  0.00     0.060 A 
BRANCH  93  94
ATOM     94  S   UNL A   1      40.109  37.169  40.325  1.00  0.00     0.124 S 
ATOM     95  O   UNL A   1      41.364  36.540  40.721  1.00  0.00    -0.237 OA
ATOM     96  O   UNL A   1      40.221  38.529  39.804  1.00  0.00    -0.237 OA
ATOM     97  O   UNL A   1      38.986  36.950  41.231  1.00  0.00    -0.744 OA
ENDBRANCH  93  94
ENDBRANCH  61  86
BRANCH  73  98
ATOM     98  C   UNL A   1      39.518  33.455  30.692  1.00  0.00     0.058 A 
ATOM     99  C   UNL A   1      40.844  33.162  31.093  1.00  0.00     0.135 A 
ATOM    100  C   UNL A   1      39.390  34.359  29.626  1.00  0.00     0.135 A 
ATOM    101  F   UNL A   1      41.115  32.203  31.992  1.00  0.00    -0.206 F 
ATOM    102  C   UNL A   1      41.951  33.829  30.565  1.00  0.00     0.059 A 
ATOM    103  C   UNL A   1      40.487  34.990  29.037  1.00  0.00     0.059 A 
ATOM    104  F   UNL A   1      38.172  34.641  29.136  1.00  0.00    -0.206 F 
ATOM    105  C   UNL A   1      41.761  34.760  29.550  1.00  0.00     0.060 A 
BRANCH 105 106
ATOM    106  S   UNL A   1      43.189  35.651  28.892  1.00  0.00     0.124 S 
ATOM    107  O   UNL A   1      42.607  36.951  28.570  1.00  0.00    -0.237 OA
ATOM    108  O   UNL A   1      44.122  35.642  30.015  1.00  0.00    -0.237 OA
ATOM    109  O   UNL A   1      43.583  34.848  27.739  1.00  0.00    -0.744 OA
ENDBRANCH 105 106
ENDBRANCH  73  98
ENDBRANCH  47  48
ENDBRANCH  40  42
ENDBRANCH  39  40
ENDBRANCH  38  39
ENDBRANCH   1  38
TORSDOF 21
ENDMDL
