MODEL 1
REMARK VINA RESULT:     -10.6      0.000      0.000
REMARK SMILES CC[C@@](C)([NH2+]CC(=O)N[C@@H](C)c1ccc(F)cc1)C(=O)OCCOCCOC(=O)c1ccc(-c2c3nc(c(-c4c(F)cc(S(=O)(=O)[O-])cc4F)c4ccc([nH]4)c(-c4c(F)cc(S(=O)(=O)[O-])cc4F)c4nc(c(-c5c(F)cc(S(=O)(=O)[O-])cc5F)c5ccc2[nH]5)C=C4)C=C3)cc1
REMARK SMILES IDX 23 1 22 2 21 3 19 4 20 5 3 6 4 7 2 8 1 9 5 10 6 13 7 14 8 15
REMARK SMILES IDX 9 16 10 18 11 19 12 20 13 21 18 22 14 23 17 24 15 25 16 26
REMARK SMILES IDX 24 27 25 28 26 29 27 30 28 31 29 32 30 33 31 34 95 35 32 36
REMARK SMILES IDX 94 37 33 38 34 39 35 40 88 41 36 42 93 43 87 44 89 45 37 46
REMARK SMILES IDX 92 47 86 48 85 49 38 51 72 52 51 53 71 54 52 55 55 56 70 57
REMARK SMILES IDX 90 58 53 59 54 60 69 62 91 63 56 64 39 65 40 66 49 67 41 68
REMARK SMILES IDX 42 69 48 70 50 71 43 72 44 73 45 74 46 75 47 76 73 77 74 78
REMARK SMILES IDX 83 79 75 80 76 81 82 82 84 83 77 84 78 85 79 86 80 87 81 88
REMARK SMILES IDX 57 89 58 90 67 91 59 92 60 93 66 94 68 95 61 96 62 97 63 98
REMARK SMILES IDX 64 99 65 100
REMARK H PARENT 5 11 5 12 9 17 89 50 55 61
REMARK Flexibility Score: inf
ROOT
ATOM      1  C   UNL A   1      37.946  21.587  25.200  1.00  0.00     0.202 C 
ENDROOT
BRANCH   1   2
ATOM      2  C   UNL A   1      37.033  22.544  24.420  1.00  0.00     0.261 C 
BRANCH   2   3
ATOM      3  O   UNL A   1      35.670  22.130  24.583  1.00  0.00    -0.459 OA
BRANCH   3   4
ATOM      4  C   UNL A   1      34.712  22.628  23.754  1.00  0.00     0.367 C 
ATOM      5  O   UNL A   1      34.934  23.426  22.851  1.00  0.00    -0.245 OA
BRANCH   4   6
ATOM      6  C   UNL A   1      33.302  22.045  24.100  1.00  0.00     0.191 C 
ATOM      7  C   UNL A   1      32.253  22.125  22.981  1.00  0.00     0.092 C 
BRANCH   6   8
ATOM      8  C   UNL A   1      33.547  20.520  24.349  1.00  0.00     0.077 C 
ATOM      9  C   UNL A   1      32.270  19.729  24.681  1.00  0.00     0.011 C 
ENDBRANCH   6   8
BRANCH   6  10
ATOM     10  N   UNL A   1      32.701  22.676  25.316  1.00  0.00    -0.325 N 
ATOM     11  H   UNL A   1      33.271  23.489  25.547  1.00  0.00     0.347 HD
ATOM     12  H   UNL A   1      32.688  21.926  26.007  1.00  0.00     0.347 HD
BRANCH  10  13
ATOM     13  C   UNL A   1      31.281  23.138  25.253  1.00  0.00     0.362 C 
BRANCH  13  14
ATOM     14  C   UNL A   1      30.771  23.983  26.434  1.00  0.00     0.275 C 
ATOM     15  O   UNL A   1      30.070  23.473  27.313  1.00  0.00    -0.268 OA
ATOM     16  N   UNL A   1      31.112  25.312  26.547  1.00  0.00    -0.345 N 
ATOM     17  H   UNL A   1      31.175  25.669  27.463  1.00  0.00     0.164 HD
BRANCH  16  18
ATOM     18  C   UNL A   1      31.391  26.255  25.468  1.00  0.00     0.109 C 
ATOM     19  C   UNL A   1      30.127  26.472  24.618  1.00  0.00     0.036 C 
BRANCH  18  20
ATOM     20  C   UNL A   1      32.116  27.536  25.847  1.00  0.00    -0.026 A 
ATOM     21  C   UNL A   1      31.469  28.781  25.787  1.00  0.00     0.009 A 
ATOM     22  C   UNL A   1      33.387  27.483  26.460  1.00  0.00     0.009 A 
ATOM     23  C   UNL A   1      32.068  29.923  26.328  1.00  0.00     0.039 A 
ATOM     24  C   UNL A   1      33.985  28.622  26.998  1.00  0.00     0.039 A 
ATOM     25  C   UNL A   1      33.314  29.831  26.935  1.00  0.00     0.123 A 
ATOM     26  F   UNL A   1      33.865  30.915  27.496  1.00  0.00    -0.207 F 
ENDBRANCH  18  20
ENDBRANCH  16  18
ENDBRANCH  13  14
ENDBRANCH  10  13
ENDBRANCH   6  10
ENDBRANCH   4   6
ENDBRANCH   3   4
ENDBRANCH   2   3
ENDBRANCH   1   2
BRANCH   1  27
ATOM     27  O   UNL A   1      39.075  22.184  25.844  1.00  0.00    -0.374 OA
BRANCH  27  28
ATOM     28  C   UNL A   1      40.097  21.310  26.321  1.00  0.00     0.202 C 
BRANCH  28  29
ATOM     29  C   UNL A   1      41.557  21.754  26.164  1.00  0.00     0.261 C 
BRANCH  29  30
ATOM     30  O   UNL A   1      41.965  22.817  27.039  1.00  0.00    -0.460 OA
BRANCH  30  31
ATOM     31  C   UNL A   1      42.291  23.965  26.397  1.00  0.00     0.338 C 
ATOM     32  O   UNL A   1      42.800  24.077  25.294  1.00  0.00    -0.246 OA
BRANCH  31  33
ATOM     33  C   UNL A   1      41.860  25.135  27.183  1.00  0.00     0.060 A 
ATOM     34  C   UNL A   1      42.680  26.270  27.174  1.00  0.00     0.016 A 
ATOM     35  C   UNL A   1      40.754  25.062  28.031  1.00  0.00     0.016 A 
ATOM     36  C   UNL A   1      42.423  27.322  28.054  1.00  0.00     0.010 A 
ATOM     37  C   UNL A   1      40.503  26.115  28.916  1.00  0.00     0.010 A 
ATOM     38  C   UNL A   1      41.357  27.231  28.958  1.00  0.00    -0.014 A 
BRANCH  38  39
ATOM     39  C   UNL A   1      41.196  28.234  30.038  1.00  0.00     0.031 A 
ATOM     40  C   UNL A   1      42.074  28.147  31.256  1.00  0.00     0.074 A 
ATOM     41  C   UNL A   1      40.258  29.192  29.950  1.00  0.00     0.049 A 
ATOM     42  N   UNL A   1      42.014  28.826  32.370  1.00  0.00    -0.248 NA
ATOM     43  C   UNL A   1      43.162  27.156  31.211  1.00  0.00     0.031 C 
ATOM     44  C   UNL A   1      39.379  29.404  28.801  1.00  0.00     0.029 A 
ATOM     45  N   UNL A   1      39.871  30.147  30.856  1.00  0.00    -0.354 N 
ATOM     46  C   UNL A   1      43.035  28.329  33.172  1.00  0.00     0.074 A 
ATOM     47  C   UNL A   1      43.694  27.285  32.418  1.00  0.00     0.031 C 
ATOM     48  C   UNL A   1      38.535  30.412  29.082  1.00  0.00     0.029 A 
ATOM     49  C   UNL A   1      38.786  30.882  30.445  1.00  0.00     0.049 A 
ATOM     50  H   UNL A   1      40.326  30.292  31.715  1.00  0.00     0.167 HD
ATOM     51  C   UNL A   1      43.387  28.710  34.423  1.00  0.00     0.037 A 
ATOM     52  C   UNL A   1      38.050  31.801  31.104  1.00  0.00     0.037 A 
ATOM     53  C   UNL A   1      42.730  29.759  35.159  1.00  0.00     0.049 A 
ATOM     54  C   UNL A   1      38.411  32.165  32.518  1.00  0.00     0.074 A 
ATOM     55  C   UNL A   1      43.045  30.254  36.412  1.00  0.00     0.029 A 
ATOM     56  N   UNL A   1      41.619  30.463  34.718  1.00  0.00    -0.354 N 
ATOM     57  N   UNL A   1      39.393  31.708  33.258  1.00  0.00    -0.248 NA
ATOM     58  C   UNL A   1      37.565  33.162  33.191  1.00  0.00     0.031 C 
ATOM     59  C   UNL A   1      42.090  31.217  36.752  1.00  0.00     0.029 A 
ATOM     60  C   UNL A   1      41.211  31.362  35.689  1.00  0.00     0.049 A 
ATOM     61  H   UNL A   1      41.185  30.340  33.843  1.00  0.00     0.167 HD
ATOM     62  C   UNL A   1      39.292  32.368  34.479  1.00  0.00     0.074 A 
ATOM     63  C   UNL A   1      38.156  33.261  34.376  1.00  0.00     0.031 C 
ATOM     64  C   UNL A   1      40.075  32.245  35.579  1.00  0.00     0.037 A 
BRANCH  51  65
ATOM     65  C   UNL A   1      44.507  27.963  35.092  1.00  0.00     0.058 A 
ATOM     66  C   UNL A   1      45.814  28.476  35.064  1.00  0.00     0.135 A 
ATOM     67  C   UNL A   1      44.301  26.733  35.735  1.00  0.00     0.135 A 
ATOM     68  F   UNL A   1      46.067  29.652  34.467  1.00  0.00    -0.206 F 
ATOM     69  C   UNL A   1      46.876  27.797  35.650  1.00  0.00     0.059 A 
ATOM     70  C   UNL A   1      45.345  26.047  36.351  1.00  0.00     0.059 A 
ATOM     71  F   UNL A   1      43.068  26.207  35.807  1.00  0.00    -0.206 F 
ATOM     72  C   UNL A   1      46.631  26.585  36.295  1.00  0.00     0.060 A 
BRANCH  72  73
ATOM     73  S   UNL A   1      48.008  25.751  37.113  1.00  0.00     0.124 S 
ATOM     74  O   UNL A   1      47.833  26.169  38.499  1.00  0.00    -0.237 OA
ATOM     75  O   UNL A   1      47.730  24.346  36.831  1.00  0.00    -0.237 OA
ATOM     76  O   UNL A   1      49.182  26.294  36.433  1.00  0.00    -0.744 OA
ENDBRANCH  72  73
ENDBRANCH  51  65
BRANCH  52  77
ATOM     77  C   UNL A   1      36.886  32.413  30.414  1.00  0.00     0.058 A 
ATOM     78  C   UNL A   1      37.066  33.406  29.438  1.00  0.00     0.135 A 
ATOM     79  C   UNL A   1      35.574  32.093  30.791  1.00  0.00     0.135 A 
ATOM     80  F   UNL A   1      38.303  33.750  29.047  1.00  0.00    -0.206 F 
ATOM     81  C   UNL A   1      35.989  34.102  28.901  1.00  0.00     0.059 A 
ATOM     82  C   UNL A   1      34.478  32.761  30.252  1.00  0.00     0.059 A 
ATOM     83  F   UNL A   1      35.356  31.137  31.706  1.00  0.00    -0.206 F 
ATOM     84  C   UNL A   1      34.698  33.783  29.330  1.00  0.00     0.060 A 
BRANCH  84  85
ATOM     85  S   UNL A   1      33.322  34.762  28.691  1.00  0.00     0.124 S 
ATOM     86  O   UNL A   1      34.022  35.904  28.111  1.00  0.00    -0.237 OA
ATOM     87  O   UNL A   1      32.708  33.843  27.739  1.00  0.00    -0.237 OA
ATOM     88  O   UNL A   1      32.531  35.052  29.883  1.00  0.00    -0.744 OA
ENDBRANCH  84  85
ENDBRANCH  52  77
BRANCH  64  89
ATOM     89  C   UNL A   1      39.755  33.094  36.778  1.00  0.00     0.058 A 
ATOM     90  C   UNL A   1      40.467  34.280  37.019  1.00  0.00     0.135 A 
ATOM     91  C   UNL A   1      38.841  32.667  37.754  1.00  0.00     0.135 A 
ATOM     92  F   UNL A   1      41.355  34.731  36.118  1.00  0.00    -0.206 F 
ATOM     93  C   UNL A   1      40.314  34.993  38.204  1.00  0.00     0.059 A 
ATOM     94  C   UNL A   1      38.656  33.377  38.938  1.00  0.00     0.059 A 
ATOM     95  F   UNL A   1      38.127  31.547  37.565  1.00  0.00    -0.206 F 
ATOM     96  C   UNL A   1      39.415  34.525  39.164  1.00  0.00     0.060 A 
BRANCH  96  97
ATOM     97  S   UNL A   1      39.262  35.440  40.713  1.00  0.00     0.124 S 
ATOM     98  O   UNL A   1      38.786  36.738  40.249  1.00  0.00    -0.237 OA
ATOM     99  O   UNL A   1      38.293  34.634  41.451  1.00  0.00    -0.237 OA
ATOM    100  O   UNL A   1      40.619  35.423  41.252  1.00  0.00    -0.744 OA
ENDBRANCH  96  97
ENDBRANCH  64  89
ENDBRANCH  38  39
ENDBRANCH  31  33
ENDBRANCH  30  31
ENDBRANCH  29  30
ENDBRANCH  28  29
ENDBRANCH  27  28
ENDBRANCH   1  27
TORSDOF 23
ENDMDL
MODEL 2
REMARK VINA RESULT:      -9.9      5.512     11.017
REMARK SMILES CC[C@@](C)([NH2+]CC(=O)N[C@@H](C)c1ccc(F)cc1)C(=O)OCCOCCOC(=O)c1ccc(-c2c3nc(c(-c4c(F)cc(S(=O)(=O)[O-])cc4F)c4ccc([nH]4)c(-c4c(F)cc(S(=O)(=O)[O-])cc4F)c4nc(c(-c5c(F)cc(S(=O)(=O)[O-])cc5F)c5ccc2[nH]5)C=C4)C=C3)cc1
REMARK SMILES IDX 23 1 22 2 21 3 19 4 20 5 3 6 4 7 2 8 1 9 5 10 6 13 7 14 8 15
REMARK SMILES IDX 9 16 10 18 11 19 12 20 13 21 18 22 14 23 17 24 15 25 16 26
REMARK SMILES IDX 24 27 25 28 26 29 27 30 28 31 29 32 30 33 31 34 95 35 32 36
REMARK SMILES IDX 94 37 33 38 34 39 35 40 88 41 36 42 93 43 87 44 89 45 37 46
REMARK SMILES IDX 92 47 86 48 85 49 38 51 72 52 51 53 71 54 52 55 55 56 70 57
REMARK SMILES IDX 90 58 53 59 54 60 69 62 91 63 56 64 39 65 40 66 49 67 41 68
REMARK SMILES IDX 42 69 48 70 50 71 43 72 44 73 45 74 46 75 47 76 73 77 74 78
REMARK SMILES IDX 83 79 75 80 76 81 82 82 84 83 77 84 78 85 79 86 80 87 81 88
REMARK SMILES IDX 57 89 58 90 67 91 59 92 60 93 66 94 68 95 61 96 62 97 63 98
REMARK SMILES IDX 64 99 65 100
REMARK H PARENT 5 11 5 12 9 17 89 50 55 61
REMARK Flexibility Score: inf
ROOT
ATOM      1  C   UNL A   1      32.943  30.898  26.987  1.00  0.00     0.202 C 
ENDROOT
BRANCH   1   2
ATOM      2  C   UNL A   1      32.912  29.372  27.153  1.00  0.00     0.261 C 
BRANCH   2   3
ATOM      3  O   UNL A   1      31.893  28.828  26.303  1.00  0.00    -0.459 OA
BRANCH   3   4
ATOM      4  C   UNL A   1      31.525  27.525  26.444  1.00  0.00     0.367 C 
ATOM      5  O   UNL A   1      31.374  26.968  27.524  1.00  0.00    -0.245 OA
BRANCH   4   6
ATOM      6  C   UNL A   1      31.313  26.842  25.052  1.00  0.00     0.191 C 
ATOM      7  C   UNL A   1      30.844  27.767  23.919  1.00  0.00     0.092 C 
BRANCH   6   8
ATOM      8  C   UNL A   1      32.731  26.335  24.631  1.00  0.00     0.077 C 
ATOM      9  C   UNL A   1      33.134  26.724  23.198  1.00  0.00     0.011 C 
ENDBRANCH   6   8
BRANCH   6  10
ATOM     10  N   UNL A   1      30.352  25.696  25.114  1.00  0.00    -0.325 N 
ATOM     11  H   UNL A   1      29.774  25.741  24.275  1.00  0.00     0.347 HD
ATOM     12  H   UNL A   1      29.867  25.824  26.002  1.00  0.00     0.347 HD
BRANCH  10  13
ATOM     13  C   UNL A   1      30.901  24.309  25.195  1.00  0.00     0.362 C 
BRANCH  13  14
ATOM     14  C   UNL A   1      30.623  23.526  26.491  1.00  0.00     0.275 C 
ATOM     15  O   UNL A   1      29.635  23.787  27.182  1.00  0.00    -0.268 OA
ATOM     16  N   UNL A   1      31.456  22.502  26.885  1.00  0.00    -0.345 N 
ATOM     17  H   UNL A   1      31.035  21.772  27.398  1.00  0.00     0.164 HD
BRANCH  16  18
ATOM     18  C   UNL A   1      32.887  22.370  26.634  1.00  0.00     0.109 C 
ATOM     19  C   UNL A   1      33.666  22.472  27.956  1.00  0.00     0.036 C 
BRANCH  18  20
ATOM     20  C   UNL A   1      33.323  21.221  25.739  1.00  0.00    -0.026 A 
ATOM     21  C   UNL A   1      34.679  21.006  25.444  1.00  0.00     0.009 A 
ATOM     22  C   UNL A   1      32.398  20.226  25.351  1.00  0.00     0.009 A 
ATOM     23  C   UNL A   1      35.091  19.837  24.796  1.00  0.00     0.039 A 
ATOM     24  C   UNL A   1      32.809  19.062  24.703  1.00  0.00     0.039 A 
ATOM     25  C   UNL A   1      34.155  18.874  24.439  1.00  0.00     0.123 A 
ATOM     26  F   UNL A   1      34.556  17.734  23.862  1.00  0.00    -0.207 F 
ENDBRANCH  18  20
ENDBRANCH  16  18
ENDBRANCH  13  14
ENDBRANCH  10  13
ENDBRANCH   6  10
ENDBRANCH   4   6
ENDBRANCH   3   4
ENDBRANCH   2   3
ENDBRANCH   1   2
BRANCH   1  27
ATOM     27  O   UNL A   1      33.709  31.618  27.958  1.00  0.00    -0.374 OA
BRANCH  27  28
ATOM     28  C   UNL A   1      33.669  33.043  27.901  1.00  0.00     0.202 C 
BRANCH  28  29
ATOM     29  C   UNL A   1      33.866  33.823  29.206  1.00  0.00     0.261 C 
BRANCH  29  30
ATOM     30  O   UNL A   1      35.170  33.701  29.794  1.00  0.00    -0.460 OA
BRANCH  30  31
ATOM     31  C   UNL A   1      35.272  32.708  30.711  1.00  0.00     0.338 C 
ATOM     32  O   UNL A   1      34.495  32.455  31.617  1.00  0.00    -0.246 OA
BRANCH  31  33
ATOM     33  C   UNL A   1      36.444  31.862  30.426  1.00  0.00     0.060 A 
ATOM     34  C   UNL A   1      37.142  31.319  31.511  1.00  0.00     0.016 A 
ATOM     35  C   UNL A   1      36.936  31.731  29.126  1.00  0.00     0.016 A 
ATOM     36  C   UNL A   1      38.366  30.683  31.306  1.00  0.00     0.010 A 
ATOM     37  C   UNL A   1      38.166  31.098  28.923  1.00  0.00     0.010 A 
ATOM     38  C   UNL A   1      38.904  30.606  30.014  1.00  0.00    -0.014 A 
BRANCH  38  39
ATOM     39  C   UNL A   1      40.292  30.129  29.802  1.00  0.00     0.031 A 
ATOM     40  C   UNL A   1      41.426  31.111  29.886  1.00  0.00     0.074 A 
ATOM     41  C   UNL A   1      40.535  28.840  29.507  1.00  0.00     0.049 A 
ATOM     42  N   UNL A   1      42.690  30.943  29.601  1.00  0.00    -0.248 NA
ATOM     43  C   UNL A   1      41.086  32.468  30.345  1.00  0.00     0.031 C 
ATOM     44  C   UNL A   1      39.524  27.787  29.443  1.00  0.00     0.029 A 
ATOM     45  N   UNL A   1      41.708  28.206  29.180  1.00  0.00    -0.354 N 
ATOM     46  C   UNL A   1      43.295  32.176  29.820  1.00  0.00     0.074 A 
ATOM     47  C   UNL A   1      42.255  33.085  30.253  1.00  0.00     0.031 C 
ATOM     48  C   UNL A   1      40.116  26.639  29.072  1.00  0.00     0.029 A 
ATOM     49  C   UNL A   1      41.537  26.890  28.828  1.00  0.00     0.049 A 
ATOM     50  H   UNL A   1      42.585  28.652  29.196  1.00  0.00     0.167 HD
ATOM     51  C   UNL A   1      44.597  32.515  29.671  1.00  0.00     0.037 A 
ATOM     52  C   UNL A   1      42.416  25.997  28.327  1.00  0.00     0.037 A 
ATOM     53  C   UNL A   1      45.624  31.598  29.251  1.00  0.00     0.049 A 
ATOM     54  C   UNL A   1      43.846  26.407  28.102  1.00  0.00     0.074 A 
ATOM     55  C   UNL A   1      46.982  31.832  29.119  1.00  0.00     0.029 A 
ATOM     56  N   UNL A   1      45.407  30.279  28.879  1.00  0.00    -0.354 N 
ATOM     57  N   UNL A   1      44.412  27.567  28.336  1.00  0.00    -0.248 NA
ATOM     58  C   UNL A   1      44.754  25.397  27.543  1.00  0.00     0.031 C 
ATOM     59  C   UNL A   1      47.576  30.671  28.614  1.00  0.00     0.029 A 
ATOM     60  C   UNL A   1      46.599  29.697  28.482  1.00  0.00     0.049 A 
ATOM     61  H   UNL A   1      44.535  29.825  28.896  1.00  0.00     0.167 HD
ATOM     62  C   UNL A   1      45.745  27.425  27.963  1.00  0.00     0.074 A 
ATOM     63  C   UNL A   1      45.902  26.063  27.494  1.00  0.00     0.031 C 
ATOM     64  C   UNL A   1      46.745  28.340  28.012  1.00  0.00     0.037 A 
BRANCH  51  65
ATOM     65  C   UNL A   1      44.980  33.947  29.925  1.00  0.00     0.058 A 
ATOM     66  C   UNL A   1      44.952  34.881  28.878  1.00  0.00     0.135 A 
ATOM     67  C   UNL A   1      45.399  34.392  31.189  1.00  0.00     0.135 A 
ATOM     68  F   UNL A   1      44.554  34.511  27.651  1.00  0.00    -0.206 F 
ATOM     69  C   UNL A   1      45.325  36.207  29.074  1.00  0.00     0.059 A 
ATOM     70  C   UNL A   1      45.753  35.720  31.414  1.00  0.00     0.059 A 
ATOM     71  F   UNL A   1      45.426  33.543  32.229  1.00  0.00    -0.206 F 
ATOM     72  C   UNL A   1      45.721  36.618  30.347  1.00  0.00     0.060 A 
BRANCH  72  73
ATOM     73  S   UNL A   1      46.133  38.357  30.601  1.00  0.00     0.124 S 
ATOM     74  O   UNL A   1      45.353  39.007  29.555  1.00  0.00    -0.237 OA
ATOM     75  O   UNL A   1      45.679  38.585  31.969  1.00  0.00    -0.237 OA
ATOM     76  O   UNL A   1      47.582  38.389  30.420  1.00  0.00    -0.744 OA
ENDBRANCH  72  73
ENDBRANCH  51  65
BRANCH  52  77
ATOM     77  C   UNL A   1      41.935  24.632  27.993  1.00  0.00     0.058 A 
ATOM     78  C   UNL A   1      42.283  23.529  28.789  1.00  0.00     0.135 A 
ATOM     79  C   UNL A   1      41.210  24.391  26.818  1.00  0.00     0.135 A 
ATOM     80  F   UNL A   1      42.981  23.709  29.921  1.00  0.00    -0.206 F 
ATOM     81  C   UNL A   1      41.978  22.229  28.403  1.00  0.00     0.059 A 
ATOM     82  C   UNL A   1      40.874  23.099  26.421  1.00  0.00     0.059 A 
ATOM     83  F   UNL A   1      40.841  25.418  26.038  1.00  0.00    -0.206 F 
ATOM     84  C   UNL A   1      41.289  22.024  27.206  1.00  0.00     0.060 A 
BRANCH  84  85
ATOM     85  S   UNL A   1      40.987  20.325  26.676  1.00  0.00     0.124 S 
ATOM     86  O   UNL A   1      40.848  19.641  27.959  1.00  0.00    -0.237 OA
ATOM     87  O   UNL A   1      39.764  20.461  25.893  1.00  0.00    -0.237 OA
ATOM     88  O   UNL A   1      42.185  19.989  25.914  1.00  0.00    -0.744 OA
ENDBRANCH  84  85
ENDBRANCH  52  77
BRANCH  64  89
ATOM     89  C   UNL A   1      48.115  27.921  27.556  1.00  0.00     0.058 A 
ATOM     90  C   UNL A   1      49.091  27.545  28.493  1.00  0.00     0.135 A 
ATOM     91  C   UNL A   1      48.500  28.021  26.210  1.00  0.00     0.135 A 
ATOM     92  F   UNL A   1      48.775  27.438  29.794  1.00  0.00    -0.206 F 
ATOM     93  C   UNL A   1      50.412  27.321  28.118  1.00  0.00     0.059 A 
ATOM     94  C   UNL A   1      49.813  27.778  25.809  1.00  0.00     0.059 A 
ATOM     95  F   UNL A   1      47.602  28.363  25.275  1.00  0.00    -0.206 F 
ATOM     96  C   UNL A   1      50.766  27.453  26.774  1.00  0.00     0.060 A 
BRANCH  96  97
ATOM     97  S   UNL A   1      52.493  27.200  26.313  1.00  0.00     0.124 S 
ATOM     98  O   UNL A   1      52.419  27.217  24.856  1.00  0.00    -0.237 OA
ATOM     99  O   UNL A   1      53.147  28.351  26.929  1.00  0.00    -0.237 OA
ATOM    100  O   UNL A   1      52.818  25.909  26.912  1.00  0.00    -0.744 OA
ENDBRANCH  96  97
ENDBRANCH  64  89
ENDBRANCH  38  39
ENDBRANCH  31  33
ENDBRANCH  30  31
ENDBRANCH  29  30
ENDBRANCH  28  29
ENDBRANCH  27  28
ENDBRANCH   1  27
TORSDOF 23
ENDMDL
MODEL 3
REMARK VINA RESULT:      -9.9      5.785      7.889
REMARK SMILES CC[C@@](C)([NH2+]CC(=O)N[C@@H](C)c1ccc(F)cc1)C(=O)OCCOCCOC(=O)c1ccc(-c2c3nc(c(-c4c(F)cc(S(=O)(=O)[O-])cc4F)c4ccc([nH]4)c(-c4c(F)cc(S(=O)(=O)[O-])cc4F)c4nc(c(-c5c(F)cc(S(=O)(=O)[O-])cc5F)c5ccc2[nH]5)C=C4)C=C3)cc1
REMARK SMILES IDX 23 1 22 2 21 3 19 4 20 5 3 6 4 7 2 8 1 9 5 10 6 13 7 14 8 15
REMARK SMILES IDX 9 16 10 18 11 19 12 20 13 21 18 22 14 23 17 24 15 25 16 26
REMARK SMILES IDX 24 27 25 28 26 29 27 30 28 31 29 32 30 33 31 34 95 35 32 36
REMARK SMILES IDX 94 37 33 38 34 39 35 40 88 41 36 42 93 43 87 44 89 45 37 46
REMARK SMILES IDX 92 47 86 48 85 49 38 51 72 52 51 53 71 54 52 55 55 56 70 57
REMARK SMILES IDX 90 58 53 59 54 60 69 62 91 63 56 64 39 65 40 66 49 67 41 68
REMARK SMILES IDX 42 69 48 70 50 71 43 72 44 73 45 74 46 75 47 76 73 77 74 78
REMARK SMILES IDX 83 79 75 80 76 81 82 82 84 83 77 84 78 85 79 86 80 87 81 88
REMARK SMILES IDX 57 89 58 90 67 91 59 92 60 93 66 94 68 95 61 96 62 97 63 98
REMARK SMILES IDX 64 99 65 100
REMARK H PARENT 5 11 5 12 9 17 89 50 55 61
REMARK Flexibility Score: inf
ROOT
ATOM      1  C   UNL A   1      37.303  21.490  25.182  1.00  0.00     0.202 C 
ENDROOT
BRANCH   1   2
ATOM      2  C   UNL A   1      36.378  22.216  24.194  1.00  0.00     0.261 C 
BRANCH   2   3
ATOM      3  O   UNL A   1      35.016  21.888  24.499  1.00  0.00    -0.459 OA
BRANCH   3   4
ATOM      4  C   UNL A   1      34.012  22.418  23.747  1.00  0.00     0.367 C 
ATOM      5  O   UNL A   1      34.139  23.405  23.033  1.00  0.00    -0.245 OA
BRANCH   4   6
ATOM      6  C   UNL A   1      32.689  21.600  23.909  1.00  0.00     0.191 C 
ATOM      7  C   UNL A   1      31.888  21.364  22.619  1.00  0.00     0.092 C 
BRANCH   6   8
ATOM      8  C   UNL A   1      33.147  20.185  24.392  1.00  0.00     0.077 C 
ATOM      9  C   UNL A   1      32.561  19.024  23.571  1.00  0.00     0.011 C 
ENDBRANCH   6   8
BRANCH   6  10
ATOM     10  N   UNL A   1      31.754  22.208  24.906  1.00  0.00    -0.325 N 
ATOM     11  H   UNL A   1      31.776  21.620  25.739  1.00  0.00     0.347 HD
ATOM     12  H   UNL A   1      30.861  22.258  24.414  1.00  0.00     0.347 HD
BRANCH  10  13
ATOM     13  C   UNL A   1      32.001  23.612  25.352  1.00  0.00     0.362 C 
BRANCH  13  14
ATOM     14  C   UNL A   1      30.861  24.312  26.114  1.00  0.00     0.275 C 
ATOM     15  O   UNL A   1      30.429  23.840  27.169  1.00  0.00    -0.268 OA
ATOM     16  N   UNL A   1      30.324  25.491  25.646  1.00  0.00    -0.345 N 
ATOM     17  H   UNL A   1      29.973  26.109  26.328  1.00  0.00     0.164 HD
BRANCH  16  18
ATOM     18  C   UNL A   1      30.212  25.931  24.259  1.00  0.00     0.109 C 
ATOM     19  C   UNL A   1      28.799  26.477  23.992  1.00  0.00     0.036 C 
BRANCH  18  20
ATOM     20  C   UNL A   1      31.332  26.809  23.726  1.00  0.00    -0.026 A 
ATOM     21  C   UNL A   1      31.713  27.984  24.395  1.00  0.00     0.009 A 
ATOM     22  C   UNL A   1      32.148  26.361  22.665  1.00  0.00     0.009 A 
ATOM     23  C   UNL A   1      32.870  28.675  24.021  1.00  0.00     0.039 A 
ATOM     24  C   UNL A   1      33.301  27.051  22.290  1.00  0.00     0.039 A 
ATOM     25  C   UNL A   1      33.656  28.198  22.979  1.00  0.00     0.123 A 
ATOM     26  F   UNL A   1      34.789  28.833  22.653  1.00  0.00    -0.207 F 
ENDBRANCH  18  20
ENDBRANCH  16  18
ENDBRANCH  13  14
ENDBRANCH  10  13
ENDBRANCH   6  10
ENDBRANCH   4   6
ENDBRANCH   3   4
ENDBRANCH   2   3
ENDBRANCH   1   2
BRANCH   1  27
ATOM     27  O   UNL A   1      38.129  22.326  25.997  1.00  0.00    -0.374 OA
BRANCH  27  28
ATOM     28  C   UNL A   1      39.372  21.787  26.443  1.00  0.00     0.202 C 
BRANCH  28  29
ATOM     29  C   UNL A   1      39.894  20.516  25.762  1.00  0.00     0.261 C 
BRANCH  29  30
ATOM     30  O   UNL A   1      40.566  19.594  26.634  1.00  0.00    -0.460 OA
BRANCH  30  31
ATOM     31  C   UNL A   1      41.875  19.407  26.336  1.00  0.00     0.338 C 
ATOM     32  O   UNL A   1      42.401  18.387  25.924  1.00  0.00    -0.246 OA
BRANCH  31  33
ATOM     33  C   UNL A   1      42.624  20.667  26.488  1.00  0.00     0.060 A 
ATOM     34  C   UNL A   1      42.649  21.268  27.752  1.00  0.00     0.016 A 
ATOM     35  C   UNL A   1      43.160  21.323  25.378  1.00  0.00     0.016 A 
ATOM     36  C   UNL A   1      43.168  22.553  27.904  1.00  0.00     0.010 A 
ATOM     37  C   UNL A   1      43.674  22.614  25.531  1.00  0.00     0.010 A 
ATOM     38  C   UNL A   1      43.646  23.248  26.785  1.00  0.00    -0.014 A 
BRANCH  38  39
ATOM     39  C   UNL A   1      44.002  24.685  26.885  1.00  0.00     0.031 A 
ATOM     40  C   UNL A   1      45.429  25.104  26.663  1.00  0.00     0.074 A 
ATOM     41  C   UNL A   1      43.071  25.601  27.200  1.00  0.00     0.049 A 
ATOM     42  N   UNL A   1      45.984  26.274  26.836  1.00  0.00    -0.248 NA
ATOM     43  C   UNL A   1      46.353  24.060  26.191  1.00  0.00     0.031 C 
ATOM     44  C   UNL A   1      41.649  25.322  27.393  1.00  0.00     0.029 A 
ATOM     45  N   UNL A   1      43.189  26.947  27.440  1.00  0.00    -0.354 N 
ATOM     46  C   UNL A   1      47.328  26.105  26.520  1.00  0.00     0.074 A 
ATOM     47  C   UNL A   1      47.504  24.717  26.154  1.00  0.00     0.031 C 
ATOM     48  C   UNL A   1      41.028  26.460  27.748  1.00  0.00     0.029 A 
ATOM     49  C   UNL A   1      42.017  27.534  27.850  1.00  0.00     0.049 A 
ATOM     50  H   UNL A   1      44.031  27.443  27.327  1.00  0.00     0.167 HD
ATOM     51  C   UNL A   1      48.320  27.026  26.537  1.00  0.00     0.037 A 
ATOM     52  C   UNL A   1      41.774  28.783  28.298  1.00  0.00     0.037 A 
ATOM     53  C   UNL A   1      48.130  28.408  26.892  1.00  0.00     0.049 A 
ATOM     54  C   UNL A   1      42.900  29.777  28.376  1.00  0.00     0.074 A 
ATOM     55  C   UNL A   1      49.062  29.431  26.890  1.00  0.00     0.029 A 
ATOM     56  N   UNL A   1      46.932  28.958  27.327  1.00  0.00    -0.354 N 
ATOM     57  N   UNL A   1      44.161  29.614  28.052  1.00  0.00    -0.248 NA
ATOM     58  C   UNL A   1      42.578  31.117  28.884  1.00  0.00     0.031 C 
ATOM     59  C   UNL A   1      48.442  30.586  27.377  1.00  0.00     0.029 A 
ATOM     60  C   UNL A   1      47.109  30.297  27.632  1.00  0.00     0.049 A 
ATOM     61  H   UNL A   1      46.083  28.468  27.406  1.00  0.00     0.167 HD
ATOM     62  C   UNL A   1      44.782  30.834  28.305  1.00  0.00     0.074 A 
ATOM     63  C   UNL A   1      43.756  31.727  28.804  1.00  0.00     0.031 C 
ATOM     64  C   UNL A   1      46.082  31.178  28.133  1.00  0.00     0.037 A 
BRANCH  51  65
ATOM     65  C   UNL A   1      49.710  26.562  26.199  1.00  0.00     0.058 A 
ATOM     66  C   UNL A   1      50.515  25.969  27.185  1.00  0.00     0.135 A 
ATOM     67  C   UNL A   1      50.258  26.724  24.917  1.00  0.00     0.135 A 
ATOM     68  F   UNL A   1      50.039  25.784  28.427  1.00  0.00    -0.206 F 
ATOM     69  C   UNL A   1      51.814  25.553  26.913  1.00  0.00     0.059 A 
ATOM     70  C   UNL A   1      51.548  26.292  24.615  1.00  0.00     0.059 A 
ATOM     71  F   UNL A   1      49.525  27.268  23.933  1.00  0.00    -0.206 F 
ATOM     72  C   UNL A   1      52.320  25.715  25.623  1.00  0.00     0.060 A 
BRANCH  72  73
ATOM     73  S   UNL A   1      53.981  25.104  25.267  1.00  0.00     0.124 S 
ATOM     74  O   UNL A   1      54.684  25.400  26.510  1.00  0.00    -0.237 OA
ATOM     75  O   UNL A   1      53.739  23.691  24.993  1.00  0.00    -0.237 OA
ATOM     76  O   UNL A   1      54.389  25.894  24.108  1.00  0.00    -0.744 OA
ENDBRANCH  72  73
ENDBRANCH  51  65
BRANCH  52  77
ATOM     77  C   UNL A   1      40.394  29.134  28.722  1.00  0.00     0.058 A 
ATOM     78  C   UNL A   1      39.403  29.439  27.775  1.00  0.00     0.135 A 
ATOM     79  C   UNL A   1      40.070  29.272  30.079  1.00  0.00     0.135 A 
ATOM     80  F   UNL A   1      39.667  29.326  26.464  1.00  0.00    -0.206 F 
ATOM     81  C   UNL A   1      38.158  29.924  28.156  1.00  0.00     0.059 A 
ATOM     82  C   UNL A   1      38.822  29.735  30.486  1.00  0.00     0.059 A 
ATOM     83  F   UNL A   1      40.980  28.972  31.017  1.00  0.00    -0.206 F 
ATOM     84  C   UNL A   1      37.884  30.087  29.516  1.00  0.00     0.060 A 
BRANCH  84  85
ATOM     85  S   UNL A   1      36.296  30.807  29.986  1.00  0.00     0.124 S 
ATOM     86  O   UNL A   1      36.020  30.109  31.238  1.00  0.00    -0.237 OA
ATOM     87  O   UNL A   1      36.626  32.223  30.107  1.00  0.00    -0.237 OA
ATOM     88  O   UNL A   1      35.423  30.460  28.869  1.00  0.00    -0.744 OA
ENDBRANCH  84  85
ENDBRANCH  52  77
BRANCH  64  89
ATOM     89  C   UNL A   1      46.496  32.582  28.475  1.00  0.00     0.058 A 
ATOM     90  C   UNL A   1      46.452  33.593  27.501  1.00  0.00     0.135 A 
ATOM     91  C   UNL A   1      47.061  32.895  29.721  1.00  0.00     0.135 A 
ATOM     92  F   UNL A   1      45.925  33.344  26.291  1.00  0.00    -0.206 F 
ATOM     93  C   UNL A   1      46.990  34.854  27.735  1.00  0.00     0.059 A 
ATOM     94  C   UNL A   1      47.585  34.159  29.986  1.00  0.00     0.059 A 
ATOM     95  F   UNL A   1      47.115  31.969  30.689  1.00  0.00    -0.206 F 
ATOM     96  C   UNL A   1      47.566  35.124  28.978  1.00  0.00     0.060 A 
BRANCH  96  97
ATOM     97  S   UNL A   1      48.297  36.752  29.250  1.00  0.00     0.124 S 
ATOM     98  O   UNL A   1      47.731  37.522  28.147  1.00  0.00    -0.237 OA
ATOM     99  O   UNL A   1      47.803  37.092  30.581  1.00  0.00    -0.237 OA
ATOM    100  O   UNL A   1      49.732  36.498  29.168  1.00  0.00    -0.744 OA
ENDBRANCH  96  97
ENDBRANCH  64  89
ENDBRANCH  38  39
ENDBRANCH  31  33
ENDBRANCH  30  31
ENDBRANCH  29  30
ENDBRANCH  28  29
ENDBRANCH  27  28
ENDBRANCH   1  27
TORSDOF 23
ENDMDL
