MODEL 1
REMARK VINA RESULT:      -8.6      0.000      0.000
REMARK SMILES Cc1cc(C)cc(C2(C(=O)OCCOCCOC(=O)c3ccc(-c4c5nc(c(-c6c(F)cc(S(=O)(=O)[O-])cc6F)c6ccc([nH]6)c(-c6c(F)cc(S(=O)(=O)[O-])cc6F)c6nc(c(-c7c(F)cc(S(=O)(=O)[O-])cc7F)c7ccc4[nH]7)C=C6)C=C5)cc3)CCOCC2)c1
REMARK SMILES IDX 15 1 14 2 13 3 12 4 11 5 9 6 10 7 8 8 86 9 90 10 87 11 89 12
REMARK SMILES IDX 88 13 7 14 1 15 2 16 3 17 91 18 4 19 5 20 6 21 16 22 17 23
REMARK SMILES IDX 18 24 19 25 20 26 21 27 85 28 22 29 84 30 23 31 24 32 25 33
REMARK SMILES IDX 78 34 26 35 83 36 77 37 79 38 27 39 82 40 76 41 75 42 28 44
REMARK SMILES IDX 62 45 41 46 61 47 42 48 45 49 60 50 80 51 43 52 44 53 59 55
REMARK SMILES IDX 81 56 46 57 29 58 30 59 39 60 31 61 32 62 38 63 40 64 33 65
REMARK SMILES IDX 34 66 35 67 36 68 37 69 63 70 64 71 73 72 65 73 66 74 72 75
REMARK SMILES IDX 74 76 67 77 68 78 69 79 70 80 71 81 47 82 48 83 57 84 49 85
REMARK SMILES IDX 50 86 56 87 58 88 51 89 52 90 53 91 54 92 55 93
REMARK H PARENT 79 43 45 54
REMARK Flexibility Score: inf
ROOT
ATOM      1  C   UNL A   1      34.455  33.035  30.448  1.00  0.00     0.202 C 
ENDROOT
BRANCH   1   2
ATOM      2  O   UNL A   1      34.936  34.223  31.076  1.00  0.00    -0.374 OA
BRANCH   2   3
ATOM      3  C   UNL A   1      36.343  34.346  31.282  1.00  0.00     0.202 C 
BRANCH   3   4
ATOM      4  C   UNL A   1      37.194  33.089  31.078  1.00  0.00     0.261 C 
BRANCH   4   5
ATOM      5  O   UNL A   1      38.151  32.911  32.134  1.00  0.00    -0.463 OA
BRANCH   5   6
ATOM      6  C   UNL A   1      37.720  32.156  33.179  1.00  0.00     0.316 C 
ATOM      7  O   UNL A   1      36.553  31.798  33.325  1.00  0.00    -0.251 OA
BRANCH   6   8
ATOM      8  C   UNL A   1      38.865  31.705  34.123  1.00  0.00     0.097 C 
ATOM      9  C   UNL A   1      39.995  32.753  34.324  1.00  0.00     0.052 C 
ATOM     10  C   UNL A   1      38.171  31.514  35.498  1.00  0.00     0.052 C 
ATOM     11  C   UNL A   1      39.522  34.020  35.020  1.00  0.00     0.161 C 
ATOM     12  C   UNL A   1      37.737  32.868  36.066  1.00  0.00     0.161 C 
ATOM     13  O   UNL A   1      38.878  33.703  36.249  1.00  0.00    -0.381 OA
BRANCH   8  14
ATOM     14  C   UNL A   1      39.532  30.415  33.566  1.00  0.00    -0.030 A 
ATOM     15  C   UNL A   1      38.524  27.082  31.967  1.00  0.00     0.044 C 
ATOM     16  C   UNL A   1      39.348  28.168  32.591  1.00  0.00    -0.051 A 
ATOM     17  C   UNL A   1      40.715  27.957  32.801  1.00  0.00     0.006 A 
ATOM     18  C   UNL A   1      38.768  29.390  32.976  1.00  0.00     0.008 A 
ATOM     19  C   UNL A   1      41.503  28.947  33.388  1.00  0.00    -0.051 A 
ATOM     20  C   UNL A   1      42.965  28.705  33.629  1.00  0.00     0.044 C 
ATOM     21  C   UNL A   1      40.911  30.168  33.742  1.00  0.00     0.008 A 
ENDBRANCH   8  14
ENDBRANCH   6   8
ENDBRANCH   5   6
ENDBRANCH   4   5
ENDBRANCH   3   4
ENDBRANCH   2   3
ENDBRANCH   1   2
BRANCH   1  22
ATOM     22  C   UNL A   1      34.033  33.103  28.974  1.00  0.00     0.261 C 
BRANCH  22  23
ATOM     23  O   UNL A   1      34.892  32.345  28.101  1.00  0.00    -0.460 OA
BRANCH  23  24
ATOM     24  C   UNL A   1      34.651  31.011  28.097  1.00  0.00     0.338 C 
ATOM     25  O   UNL A   1      33.581  30.458  27.872  1.00  0.00    -0.246 OA
BRANCH  24  26
ATOM     26  C   UNL A   1      35.907  30.254  28.217  1.00  0.00     0.060 A 
ATOM     27  C   UNL A   1      36.287  29.828  29.497  1.00  0.00     0.016 A 
ATOM     28  C   UNL A   1      36.758  30.077  27.126  1.00  0.00     0.016 A 
ATOM     29  C   UNL A   1      37.543  29.266  29.700  1.00  0.00     0.010 A 
ATOM     30  C   UNL A   1      38.027  29.524  27.334  1.00  0.00     0.010 A 
ATOM     31  C   UNL A   1      38.438  29.154  28.629  1.00  0.00    -0.014 A 
BRANCH  31  32
ATOM     32  C   UNL A   1      39.853  28.807  28.904  1.00  0.00     0.031 A 
ATOM     33  C   UNL A   1      40.743  29.839  29.543  1.00  0.00     0.074 A 
ATOM     34  C   UNL A   1      40.323  27.576  28.634  1.00  0.00     0.049 A 
ATOM     35  N   UNL A   1      42.007  29.757  29.867  1.00  0.00    -0.248 NA
ATOM     36  C   UNL A   1      40.122  31.135  29.865  1.00  0.00     0.031 C 
ATOM     37  C   UNL A   1      39.541  26.483  28.056  1.00  0.00     0.029 A 
ATOM     38  N   UNL A   1      41.572  27.040  28.811  1.00  0.00    -0.354 N 
ATOM     39  C   UNL A   1      42.335  30.988  30.423  1.00  0.00     0.074 A 
ATOM     40  C   UNL A   1      41.145  31.809  30.370  1.00  0.00     0.031 C 
ATOM     41  C   UNL A   1      40.336  25.408  27.914  1.00  0.00     0.029 A 
ATOM     42  C   UNL A   1      41.684  25.745  28.365  1.00  0.00     0.049 A 
ATOM     43  H   UNL A   1      42.319  27.536  29.217  1.00  0.00     0.167 HD
ATOM     44  C   UNL A   1      43.520  31.394  30.940  1.00  0.00     0.037 A 
ATOM     45  C   UNL A   1      42.759  24.934  28.310  1.00  0.00     0.037 A 
ATOM     46  C   UNL A   1      44.700  30.573  30.989  1.00  0.00     0.049 A 
ATOM     47  C   UNL A   1      44.083  25.429  28.829  1.00  0.00     0.074 A 
ATOM     48  C   UNL A   1      45.945  30.883  31.508  1.00  0.00     0.029 A 
ATOM     49  N   UNL A   1      44.784  29.279  30.496  1.00  0.00    -0.354 N 
ATOM     50  N   UNL A   1      44.375  26.589  29.373  1.00  0.00    -0.248 NA
ATOM     51  C   UNL A   1      45.224  24.509  28.732  1.00  0.00     0.031 C 
ATOM     52  C   UNL A   1      46.795  29.794  31.286  1.00  0.00     0.029 A 
ATOM     53  C   UNL A   1      46.066  28.785  30.673  1.00  0.00     0.049 A 
ATOM     54  H   UNL A   1      44.041  28.783  30.081  1.00  0.00     0.167 HD
ATOM     55  C   UNL A   1      45.725  26.528  29.700  1.00  0.00     0.074 A 
ATOM     56  C   UNL A   1      46.190  25.214  29.306  1.00  0.00     0.031 C 
ATOM     57  C   UNL A   1      46.510  27.473  30.275  1.00  0.00     0.037 A 
BRANCH  44  58
ATOM     58  C   UNL A   1      43.602  32.800  31.468  1.00  0.00     0.058 A 
ATOM     59  C   UNL A   1      43.800  33.899  30.617  1.00  0.00     0.135 A 
ATOM     60  C   UNL A   1      43.454  33.055  32.841  1.00  0.00     0.135 A 
ATOM     61  F   UNL A   1      43.967  33.711  29.298  1.00  0.00    -0.206 F 
ATOM     62  C   UNL A   1      43.875  35.197  31.111  1.00  0.00     0.059 A 
ATOM     63  C   UNL A   1      43.500  34.347  33.354  1.00  0.00     0.059 A 
ATOM     64  F   UNL A   1      43.265  32.039  33.699  1.00  0.00    -0.206 F 
ATOM     65  C   UNL A   1      43.726  35.411  32.483  1.00  0.00     0.060 A 
BRANCH  65  66
ATOM     66  S   UNL A   1      43.824  37.101  33.110  1.00  0.00     0.124 S 
ATOM     67  O   UNL A   1      45.112  37.080  33.800  1.00  0.00    -0.237 OA
ATOM     68  O   UNL A   1      43.775  37.893  31.886  1.00  0.00    -0.237 OA
ATOM     69  O   UNL A   1      42.653  37.213  33.973  1.00  0.00    -0.744 OA
ENDBRANCH  65  66
ENDBRANCH  44  58
BRANCH  45  70
ATOM     70  C   UNL A   1      42.630  23.572  27.726  1.00  0.00     0.058 A 
ATOM     71  C   UNL A   1      42.388  22.454  28.536  1.00  0.00     0.135 A 
ATOM     72  C   UNL A   1      42.742  23.365  26.342  1.00  0.00     0.135 A 
ATOM     73  F   UNL A   1      42.285  22.599  29.866  1.00  0.00    -0.206 F 
ATOM     74  C   UNL A   1      42.272  21.176  27.998  1.00  0.00     0.059 A 
ATOM     75  C   UNL A   1      42.606  22.101  25.777  1.00  0.00     0.059 A 
ATOM     76  F   UNL A   1      42.964  24.405  25.522  1.00  0.00    -0.206 F 
ATOM     77  C   UNL A   1      42.380  21.011  26.615  1.00  0.00     0.060 A 
BRANCH  77  78
ATOM     78  S   UNL A   1      42.176  19.356  25.920  1.00  0.00     0.124 S 
ATOM     79  O   UNL A   1      43.021  19.428  24.735  1.00  0.00    -0.237 OA
ATOM     80  O   UNL A   1      42.663  18.506  27.003  1.00  0.00    -0.237 OA
ATOM     81  O   UNL A   1      40.740  19.274  25.668  1.00  0.00    -0.744 OA
ENDBRANCH  77  78
ENDBRANCH  45  70
BRANCH  57  82
ATOM     82  C   UNL A   1      47.947  27.114  30.536  1.00  0.00     0.058 A 
ATOM     83  C   UNL A   1      48.969  27.478  29.648  1.00  0.00     0.135 A 
ATOM     84  C   UNL A   1      48.310  26.445  31.717  1.00  0.00     0.135 A 
ATOM     85  F   UNL A   1      48.676  28.114  28.503  1.00  0.00    -0.206 F 
ATOM     86  C   UNL A   1      50.302  27.173  29.909  1.00  0.00     0.059 A 
ATOM     87  C   UNL A   1      49.638  26.152  32.011  1.00  0.00     0.059 A 
ATOM     88  F   UNL A   1      47.371  26.084  32.606  1.00  0.00    -0.206 F 
ATOM     89  C   UNL A   1      50.626  26.511  31.095  1.00  0.00     0.060 A 
BRANCH  89  90
ATOM     90  S   UNL A   1      52.361  26.149  31.439  1.00  0.00     0.124 S 
ATOM     91  O   UNL A   1      52.737  27.282  32.278  1.00  0.00    -0.237 OA
ATOM     92  O   UNL A   1      52.285  24.858  32.114  1.00  0.00    -0.237 OA
ATOM     93  O   UNL A   1      52.971  26.121  30.113  1.00  0.00    -0.744 OA
ENDBRANCH  89  90
ENDBRANCH  57  82
ENDBRANCH  31  32
ENDBRANCH  24  26
ENDBRANCH  23  24
ENDBRANCH  22  23
ENDBRANCH   1  22
TORSDOF 18
ENDMDL
MODEL 2
REMARK VINA RESULT:      -8.5      4.889     11.984
REMARK SMILES Cc1cc(C)cc(C2(C(=O)OCCOCCOC(=O)c3ccc(-c4c5nc(c(-c6c(F)cc(S(=O)(=O)[O-])cc6F)c6ccc([nH]6)c(-c6c(F)cc(S(=O)(=O)[O-])cc6F)c6nc(c(-c7c(F)cc(S(=O)(=O)[O-])cc7F)c7ccc4[nH]7)C=C6)C=C5)cc3)CCOCC2)c1
REMARK SMILES IDX 15 1 14 2 13 3 12 4 11 5 9 6 10 7 8 8 86 9 90 10 87 11 89 12
REMARK SMILES IDX 88 13 7 14 1 15 2 16 3 17 91 18 4 19 5 20 6 21 16 22 17 23
REMARK SMILES IDX 18 24 19 25 20 26 21 27 85 28 22 29 84 30 23 31 24 32 25 33
REMARK SMILES IDX 78 34 26 35 83 36 77 37 79 38 27 39 82 40 76 41 75 42 28 44
REMARK SMILES IDX 62 45 41 46 61 47 42 48 45 49 60 50 80 51 43 52 44 53 59 55
REMARK SMILES IDX 81 56 46 57 29 58 30 59 39 60 31 61 32 62 38 63 40 64 33 65
REMARK SMILES IDX 34 66 35 67 36 68 37 69 63 70 64 71 73 72 65 73 66 74 72 75
REMARK SMILES IDX 74 76 67 77 68 78 69 79 70 80 71 81 47 82 48 83 57 84 49 85
REMARK SMILES IDX 50 86 56 87 58 88 51 89 52 90 53 91 54 92 55 93
REMARK H PARENT 79 43 45 54
REMARK Flexibility Score: inf
ROOT
ATOM      1  C   UNL A   1      39.349  21.887  25.846  1.00  0.00     0.202 C 
ENDROOT
BRANCH   1   2
ATOM      2  O   UNL A   1      38.020  21.396  26.016  1.00  0.00    -0.374 OA
BRANCH   2   3
ATOM      3  C   UNL A   1      37.200  21.271  24.855  1.00  0.00     0.202 C 
BRANCH   3   4
ATOM      4  C   UNL A   1      36.982  22.532  24.011  1.00  0.00     0.261 C 
BRANCH   4   5
ATOM      5  O   UNL A   1      36.049  23.433  24.625  1.00  0.00    -0.463 OA
BRANCH   5   6
ATOM      6  C   UNL A   1      34.901  23.636  23.925  1.00  0.00     0.316 C 
ATOM      7  O   UNL A   1      34.768  23.350  22.738  1.00  0.00    -0.251 OA
BRANCH   6   8
ATOM      8  C   UNL A   1      33.739  24.177  24.799  1.00  0.00     0.097 C 
ATOM      9  C   UNL A   1      32.317  23.787  24.308  1.00  0.00     0.052 C 
ATOM     10  C   UNL A   1      33.948  23.491  26.176  1.00  0.00     0.052 C 
ATOM     11  C   UNL A   1      32.052  22.290  24.360  1.00  0.00     0.161 C 
ATOM     12  C   UNL A   1      33.663  21.991  26.070  1.00  0.00     0.161 C 
ATOM     13  O   UNL A   1      32.312  21.784  25.664  1.00  0.00    -0.381 OA
BRANCH   8  14
ATOM     14  C   UNL A   1      33.795  25.731  24.850  1.00  0.00    -0.030 A 
ATOM     15  C   UNL A   1      33.332  28.571  27.379  1.00  0.00     0.044 C 
ATOM     16  C   UNL A   1      33.531  27.835  26.088  1.00  0.00    -0.051 A 
ATOM     17  C   UNL A   1      33.628  28.558  24.894  1.00  0.00     0.006 A 
ATOM     18  C   UNL A   1      33.612  26.432  26.057  1.00  0.00     0.008 A 
ATOM     19  C   UNL A   1      33.803  27.897  23.678  1.00  0.00    -0.051 A 
ATOM     20  C   UNL A   1      33.886  28.679  22.399  1.00  0.00     0.044 C 
ATOM     21  C   UNL A   1      33.907  26.500  23.672  1.00  0.00     0.008 A 
ENDBRANCH   8  14
ENDBRANCH   6   8
ENDBRANCH   5   6
ENDBRANCH   4   5
ENDBRANCH   3   4
ENDBRANCH   2   3
ENDBRANCH   1   2
BRANCH   1  22
ATOM     22  C   UNL A   1      39.868  22.956  26.817  1.00  0.00     0.261 C 
BRANCH  22  23
ATOM     23  O   UNL A   1      39.335  24.268  26.556  1.00  0.00    -0.460 OA
BRANCH  23  24
ATOM     24  C   UNL A   1      40.274  25.237  26.420  1.00  0.00     0.338 C 
ATOM     25  O   UNL A   1      40.818  25.594  25.382  1.00  0.00    -0.246 OA
BRANCH  24  26
ATOM     26  C   UNL A   1      40.445  25.976  27.681  1.00  0.00     0.060 A 
ATOM     27  C   UNL A   1      39.411  25.896  28.625  1.00  0.00     0.016 A 
ATOM     28  C   UNL A   1      41.529  26.830  27.884  1.00  0.00     0.016 A 
ATOM     29  C   UNL A   1      39.434  26.708  29.754  1.00  0.00     0.010 A 
ATOM     30  C   UNL A   1      41.543  27.656  29.014  1.00  0.00     0.010 A 
ATOM     31  C   UNL A   1      40.476  27.626  29.932  1.00  0.00    -0.014 A 
BRANCH  31  32
ATOM     32  C   UNL A   1      40.353  28.661  30.986  1.00  0.00     0.031 A 
ATOM     33  C   UNL A   1      41.249  28.580  32.192  1.00  0.00     0.074 A 
ATOM     34  C   UNL A   1      39.490  29.683  30.846  1.00  0.00     0.049 A 
ATOM     35  N   UNL A   1      41.311  29.367  33.234  1.00  0.00    -0.248 NA
ATOM     36  C   UNL A   1      42.209  27.463  32.225  1.00  0.00     0.031 C 
ATOM     37  C   UNL A   1      38.604  29.889  29.701  1.00  0.00     0.029 A 
ATOM     38  N   UNL A   1      39.219  30.741  31.676  1.00  0.00    -0.354 N 
ATOM     39  C   UNL A   1      42.307  28.840  34.048  1.00  0.00     0.074 A 
ATOM     40  C   UNL A   1      42.806  27.652  33.392  1.00  0.00     0.031 C 
ATOM     41  C   UNL A   1      37.876  31.000  29.908  1.00  0.00     0.029 A 
ATOM     42  C   UNL A   1      38.226  31.567  31.208  1.00  0.00     0.049 A 
ATOM     43  H   UNL A   1      39.691  30.893  32.527  1.00  0.00     0.167 HD
ATOM     44  C   UNL A   1      42.770  29.311  35.231  1.00  0.00     0.037 A 
ATOM     45  C   UNL A   1      37.653  32.646  31.777  1.00  0.00     0.037 A 
ATOM     46  C   UNL A   1      42.268  30.495  35.878  1.00  0.00     0.049 A 
ATOM     47  C   UNL A   1      38.138  33.114  33.124  1.00  0.00     0.074 A 
ATOM     48  C   UNL A   1      42.680  31.067  37.069  1.00  0.00     0.029 A 
ATOM     49  N   UNL A   1      41.238  31.286  35.390  1.00  0.00    -0.354 N 
ATOM     50  N   UNL A   1      39.096  32.619  33.874  1.00  0.00    -0.248 NA
ATOM     51  C   UNL A   1      37.468  34.286  33.704  1.00  0.00     0.031 C 
ATOM     52  C   UNL A   1      41.868  32.177  37.325  1.00  0.00     0.029 A 
ATOM     53  C   UNL A   1      40.981  32.326  36.269  1.00  0.00     0.049 A 
ATOM     54  H   UNL A   1      40.759  31.131  34.544  1.00  0.00     0.167 HD
ATOM     55  C   UNL A   1      39.156  33.431  35.001  1.00  0.00     0.074 A 
ATOM     56  C   UNL A   1      38.148  34.457  34.829  1.00  0.00     0.031 C 
ATOM     57  C   UNL A   1      39.973  33.339  36.080  1.00  0.00     0.037 A 
BRANCH  44  58
ATOM     58  C   UNL A   1      43.857  28.527  35.914  1.00  0.00     0.058 A 
ATOM     59  C   UNL A   1      43.568  27.436  36.748  1.00  0.00     0.135 A 
ATOM     60  C   UNL A   1      45.207  28.855  35.709  1.00  0.00     0.135 A 
ATOM     61  F   UNL A   1      42.293  27.090  36.993  1.00  0.00    -0.206 F 
ATOM     62  C   UNL A   1      44.577  26.714  37.377  1.00  0.00     0.059 A 
ATOM     63  C   UNL A   1      46.233  28.132  36.307  1.00  0.00     0.059 A 
ATOM     64  F   UNL A   1      45.538  29.892  34.922  1.00  0.00    -0.206 F 
ATOM     65  C   UNL A   1      45.908  27.071  37.151  1.00  0.00     0.060 A 
BRANCH  65  66
ATOM     66  S   UNL A   1      47.208  26.125  37.973  1.00  0.00     0.124 S 
ATOM     67  O   UNL A   1      46.869  24.761  37.576  1.00  0.00    -0.237 OA
ATOM     68  O   UNL A   1      48.421  26.674  37.377  1.00  0.00    -0.237 OA
ATOM     69  O   UNL A   1      47.012  26.433  39.386  1.00  0.00    -0.744 OA
ENDBRANCH  65  66
ENDBRANCH  44  58
BRANCH  45  70
ATOM     70  C   UNL A   1      36.544  33.349  31.080  1.00  0.00     0.058 A 
ATOM     71  C   UNL A   1      36.784  34.146  29.951  1.00  0.00     0.135 A 
ATOM     72  C   UNL A   1      35.218  33.233  31.528  1.00  0.00     0.135 A 
ATOM     73  F   UNL A   1      38.035  34.298  29.491  1.00  0.00    -0.206 F 
ATOM     74  C   UNL A   1      35.752  34.812  29.296  1.00  0.00     0.059 A 
ATOM     75  C   UNL A   1      34.166  33.869  30.876  1.00  0.00     0.059 A 
ATOM     76  F   UNL A   1      34.935  32.474  32.598  1.00  0.00    -0.206 F 
ATOM     77  C   UNL A   1      34.445  34.664  29.766  1.00  0.00     0.060 A 
BRANCH  77  78
ATOM     78  S   UNL A   1      33.106  35.489  28.878  1.00  0.00     0.124 S 
ATOM     79  O   UNL A   1      32.538  34.387  28.112  1.00  0.00    -0.237 OA
ATOM     80  O   UNL A   1      32.282  35.999  29.971  1.00  0.00    -0.237 OA
ATOM     81  O   UNL A   1      33.800  36.510  28.099  1.00  0.00    -0.744 OA
ENDBRANCH  77  78
ENDBRANCH  45  70
BRANCH  57  82
ATOM     82  C   UNL A   1      39.829  34.386  37.150  1.00  0.00     0.058 A 
ATOM     83  C   UNL A   1      39.043  34.169  38.291  1.00  0.00     0.135 A 
ATOM     84  C   UNL A   1      40.528  35.601  37.055  1.00  0.00     0.135 A 
ATOM     85  F   UNL A   1      38.349  33.028  38.427  1.00  0.00    -0.206 F 
ATOM     86  C   UNL A   1      38.937  35.127  39.294  1.00  0.00     0.059 A 
ATOM     87  C   UNL A   1      40.459  36.562  38.058  1.00  0.00     0.059 A 
ATOM     88  F   UNL A   1      41.303  35.853  35.989  1.00  0.00    -0.206 F 
ATOM     89  C   UNL A   1      39.651  36.321  39.168  1.00  0.00     0.060 A 
BRANCH  89  90
ATOM     90  S   UNL A   1      39.533  37.544  40.492  1.00  0.00     0.124 S 
ATOM     91  O   UNL A   1      38.959  36.751  41.574  1.00  0.00    -0.237 OA
ATOM     92  O   UNL A   1      40.924  37.947  40.672  1.00  0.00    -0.237 OA
ATOM     93  O   UNL A   1      38.658  38.568  39.931  1.00  0.00    -0.744 OA
ENDBRANCH  89  90
ENDBRANCH  57  82
ENDBRANCH  31  32
ENDBRANCH  24  26
ENDBRANCH  23  24
ENDBRANCH  22  23
ENDBRANCH   1  22
TORSDOF 18
ENDMDL
MODEL 3
REMARK VINA RESULT:      -8.4      4.396      7.548
REMARK SMILES Cc1cc(C)cc(C2(C(=O)OCCOCCOC(=O)c3ccc(-c4c5nc(c(-c6c(F)cc(S(=O)(=O)[O-])cc6F)c6ccc([nH]6)c(-c6c(F)cc(S(=O)(=O)[O-])cc6F)c6nc(c(-c7c(F)cc(S(=O)(=O)[O-])cc7F)c7ccc4[nH]7)C=C6)C=C5)cc3)CCOCC2)c1
REMARK SMILES IDX 15 1 14 2 13 3 12 4 11 5 9 6 10 7 8 8 86 9 90 10 87 11 89 12
REMARK SMILES IDX 88 13 7 14 1 15 2 16 3 17 91 18 4 19 5 20 6 21 16 22 17 23
REMARK SMILES IDX 18 24 19 25 20 26 21 27 85 28 22 29 84 30 23 31 24 32 25 33
REMARK SMILES IDX 78 34 26 35 83 36 77 37 79 38 27 39 82 40 76 41 75 42 28 44
REMARK SMILES IDX 62 45 41 46 61 47 42 48 45 49 60 50 80 51 43 52 44 53 59 55
REMARK SMILES IDX 81 56 46 57 29 58 30 59 39 60 31 61 32 62 38 63 40 64 33 65
REMARK SMILES IDX 34 66 35 67 36 68 37 69 63 70 64 71 73 72 65 73 66 74 72 75
REMARK SMILES IDX 74 76 67 77 68 78 69 79 70 80 71 81 47 82 48 83 57 84 49 85
REMARK SMILES IDX 50 86 56 87 58 88 51 89 52 90 53 91 54 92 55 93
REMARK H PARENT 79 43 45 54
REMARK Flexibility Score: inf
ROOT
ATOM      1  C   UNL A   1      33.961  31.587  27.763  1.00  0.00     0.202 C 
ENDROOT
BRANCH   1   2
ATOM      2  O   UNL A   1      33.620  30.508  26.893  1.00  0.00    -0.374 OA
BRANCH   2   3
ATOM      3  C   UNL A   1      32.237  30.265  26.641  1.00  0.00     0.202 C 
BRANCH   3   4
ATOM      4  C   UNL A   1      31.805  28.808  26.443  1.00  0.00     0.261 C 
BRANCH   4   5
ATOM      5  O   UNL A   1      32.207  28.299  25.162  1.00  0.00    -0.463 OA
BRANCH   5   6
ATOM      6  C   UNL A   1      31.581  27.156  24.776  1.00  0.00     0.316 C 
ATOM      7  O   UNL A   1      31.242  26.268  25.555  1.00  0.00    -0.251 OA
BRANCH   6   8
ATOM      8  C   UNL A   1      31.246  27.122  23.262  1.00  0.00     0.097 C 
ATOM      9  C   UNL A   1      32.349  27.707  22.337  1.00  0.00     0.052 C 
ATOM     10  C   UNL A   1      31.131  25.609  22.932  1.00  0.00     0.052 C 
ATOM     11  C   UNL A   1      33.646  26.911  22.370  1.00  0.00     0.161 C 
ATOM     12  C   UNL A   1      32.505  24.941  23.021  1.00  0.00     0.161 C 
ATOM     13  O   UNL A   1      33.395  25.540  22.082  1.00  0.00    -0.381 OA
BRANCH   8  14
ATOM     14  C   UNL A   1      29.945  27.930  22.990  1.00  0.00    -0.030 A 
ATOM     15  C   UNL A   1      28.883  31.356  21.644  1.00  0.00     0.044 C 
ATOM     16  C   UNL A   1      28.828  29.995  22.271  1.00  0.00    -0.051 A 
ATOM     17  C   UNL A   1      27.605  29.508  22.745  1.00  0.00     0.006 A 
ATOM     18  C   UNL A   1      29.985  29.207  22.399  1.00  0.00     0.008 A 
ATOM     19  C   UNL A   1      27.528  28.249  23.342  1.00  0.00    -0.051 A 
ATOM     20  C   UNL A   1      26.216  27.741  23.866  1.00  0.00     0.044 C 
ATOM     21  C   UNL A   1      28.688  27.468  23.437  1.00  0.00     0.008 A 
ENDBRANCH   8  14
ENDBRANCH   6   8
ENDBRANCH   5   6
ENDBRANCH   4   5
ENDBRANCH   3   4
ENDBRANCH   2   3
ENDBRANCH   1   2
BRANCH   1  22
ATOM     22  C   UNL A   1      35.177  31.430  28.686  1.00  0.00     0.261 C 
BRANCH  22  23
ATOM     23  O   UNL A   1      35.685  30.084  28.734  1.00  0.00    -0.460 OA
BRANCH  23  24
ATOM     24  C   UNL A   1      36.438  29.807  29.828  1.00  0.00     0.338 C 
ATOM     25  O   UNL A   1      36.033  29.448  30.927  1.00  0.00    -0.246 OA
BRANCH  24  26
ATOM     26  C   UNL A   1      37.869  29.806  29.488  1.00  0.00     0.060 A 
ATOM     27  C   UNL A   1      38.214  29.678  28.136  1.00  0.00     0.016 A 
ATOM     28  C   UNL A   1      38.853  29.799  30.477  1.00  0.00     0.016 A 
ATOM     29  C   UNL A   1      39.543  29.493  27.769  1.00  0.00     0.010 A 
ATOM     30  C   UNL A   1      40.188  29.599  30.108  1.00  0.00     0.010 A 
ATOM     31  C   UNL A   1      40.533  29.405  28.757  1.00  0.00    -0.014 A 
BRANCH  31  32
ATOM     32  C   UNL A   1      41.890  28.945  28.379  1.00  0.00     0.031 A 
ATOM     33  C   UNL A   1      43.013  29.947  28.340  1.00  0.00     0.074 A 
ATOM     34  C   UNL A   1      42.128  27.647  28.122  1.00  0.00     0.049 A 
ATOM     35  N   UNL A   1      44.270  29.771  28.032  1.00  0.00    -0.248 NA
ATOM     36  C   UNL A   1      42.670  31.333  28.703  1.00  0.00     0.031 C 
ATOM     37  C   UNL A   1      41.128  26.580  28.171  1.00  0.00     0.029 A 
ATOM     38  N   UNL A   1      43.286  27.005  27.767  1.00  0.00    -0.354 N 
ATOM     39  C   UNL A   1      44.869  31.020  28.157  1.00  0.00     0.074 A 
ATOM     40  C   UNL A   1      43.831  31.950  28.544  1.00  0.00     0.031 C 
ATOM     41  C   UNL A   1      41.716  25.416  27.845  1.00  0.00     0.029 A 
ATOM     42  C   UNL A   1      43.124  25.660  27.539  1.00  0.00     0.049 A 
ATOM     43  H   UNL A   1      44.153  27.465  27.683  1.00  0.00     0.167 HD
ATOM     44  C   UNL A   1      46.168  31.358  27.974  1.00  0.00     0.037 A 
ATOM     45  C   UNL A   1      44.008  24.737  27.112  1.00  0.00     0.037 A 
ATOM     46  C   UNL A   1      47.195  30.426  27.589  1.00  0.00     0.049 A 
ATOM     47  C   UNL A   1      45.434  25.148  26.850  1.00  0.00     0.074 A 
ATOM     48  C   UNL A   1      48.545  30.663  27.394  1.00  0.00     0.029 A 
ATOM     49  N   UNL A   1      46.985  29.079  27.333  1.00  0.00    -0.354 N 
ATOM     50  N   UNL A   1      45.991  26.329  26.993  1.00  0.00    -0.248 NA
ATOM     51  C   UNL A   1      46.351  24.106  26.373  1.00  0.00     0.031 C 
ATOM     52  C   UNL A   1      49.142  29.469  26.975  1.00  0.00     0.029 A 
ATOM     53  C   UNL A   1      48.174  28.476  26.956  1.00  0.00     0.049 A 
ATOM     54  H   UNL A   1      46.118  28.618  27.408  1.00  0.00     0.167 HD
ATOM     55  C   UNL A   1      47.327  26.164  26.643  1.00  0.00     0.074 A 
ATOM     56  C   UNL A   1      47.497  24.768  26.295  1.00  0.00     0.031 C 
ATOM     57  C   UNL A   1      48.324  27.084  26.613  1.00  0.00     0.037 A 
BRANCH  44  58
ATOM     58  C   UNL A   1      46.544  32.802  28.163  1.00  0.00     0.058 A 
ATOM     59  C   UNL A   1      47.011  33.289  29.394  1.00  0.00     0.135 A 
ATOM     60  C   UNL A   1      46.461  33.704  27.090  1.00  0.00     0.135 A 
ATOM     61  F   UNL A   1      47.093  32.474  30.457  1.00  0.00    -0.206 F 
ATOM     62  C   UNL A   1      47.357  34.626  29.562  1.00  0.00     0.059 A 
ATOM     63  C   UNL A   1      46.825  35.040  27.229  1.00  0.00     0.059 A 
ATOM     64  F   UNL A   1      46.018  33.290  25.892  1.00  0.00    -0.206 F 
ATOM     65  C   UNL A   1      47.259  35.494  28.473  1.00  0.00     0.060 A 
BRANCH  65  66
ATOM     66  S   UNL A   1      47.713  37.227  28.706  1.00  0.00     0.124 S 
ATOM     67  O   UNL A   1      47.278  37.458  30.081  1.00  0.00    -0.237 OA
ATOM     68  O   UNL A   1      49.156  37.205  28.493  1.00  0.00    -0.237 OA
ATOM     69  O   UNL A   1      46.941  37.921  27.680  1.00  0.00    -0.744 OA
ENDBRANCH  65  66
ENDBRANCH  44  58
BRANCH  45  70
ATOM     70  C   UNL A   1      43.566  23.335  26.889  1.00  0.00     0.058 A 
ATOM     71  C   UNL A   1      43.312  22.474  27.966  1.00  0.00     0.135 A 
ATOM     72  C   UNL A   1      43.384  22.831  25.591  1.00  0.00     0.135 A 
ATOM     73  F   UNL A   1      43.483  22.905  29.224  1.00  0.00    -0.206 F 
ATOM     74  C   UNL A   1      42.904  21.158  27.766  1.00  0.00     0.059 A 
ATOM     75  C   UNL A   1      42.953  21.528  25.366  1.00  0.00     0.059 A 
ATOM     76  F   UNL A   1      43.605  23.619  24.527  1.00  0.00    -0.206 F 
ATOM     77  C   UNL A   1      42.724  20.696  26.460  1.00  0.00     0.060 A 
BRANCH  77  78
ATOM     78  S   UNL A   1      42.143  19.004  26.211  1.00  0.00     0.124 S 
ATOM     79  O   UNL A   1      43.086  18.513  25.213  1.00  0.00    -0.237 OA
ATOM     80  O   UNL A   1      42.275  18.434  27.549  1.00  0.00    -0.237 OA
ATOM     81  O   UNL A   1      40.770  19.186  25.749  1.00  0.00    -0.744 OA
ENDBRANCH  77  78
ENDBRANCH  45  70
BRANCH  57  82
ATOM     82  C   UNL A   1      49.694  26.608  26.214  1.00  0.00     0.058 A 
ATOM     83  C   UNL A   1      50.180  26.778  24.910  1.00  0.00     0.135 A 
ATOM     84  C   UNL A   1      50.548  26.023  27.163  1.00  0.00     0.135 A 
ATOM     85  F   UNL A   1      49.401  27.326  23.964  1.00  0.00    -0.206 F 
ATOM     86  C   UNL A   1      51.460  26.366  24.552  1.00  0.00     0.059 A 
ATOM     87  C   UNL A   1      51.841  25.627  26.835  1.00  0.00     0.059 A 
ATOM     88  F   UNL A   1      50.136  25.848  28.428  1.00  0.00    -0.206 F 
ATOM     89  C   UNL A   1      52.284  25.792  25.523  1.00  0.00     0.060 A 
BRANCH  89  90
ATOM     90  S   UNL A   1      53.955  25.291  25.056  1.00  0.00     0.124 S 
ATOM     91  O   UNL A   1      54.732  25.761  26.197  1.00  0.00    -0.237 OA
ATOM     92  O   UNL A   1      53.825  23.843  24.931  1.00  0.00    -0.237 OA
ATOM     93  O   UNL A   1      54.184  26.005  23.803  1.00  0.00    -0.744 OA
ENDBRANCH  89  90
ENDBRANCH  57  82
ENDBRANCH  31  32
ENDBRANCH  24  26
ENDBRANCH  23  24
ENDBRANCH  22  23
ENDBRANCH   1  22
TORSDOF 18
ENDMDL
