MODEL 1
REMARK VINA RESULT:     -10.8      0.000      0.000
REMARK SMILES CC(C)(C)Nc1ncnc(N2CCC(C(=O)OCCOCCOC(=O)c3ccc(-c4c5nc(c(-c6c(F)cc(S(=O)(=O)[O-])cc6F)c6ccc([nH]6)c(-c6c(F)cc(S(=O)(=O)[O-])cc6F)c6nc(c(-c7c(F)cc(S(=O)(=O)[O-])cc7F)c7ccc4[nH]7)C=C6)C=C5)cc3)CC2)c1N
REMARK SMILES IDX 20 1 19 2 18 3 17 4 15 5 16 6 14 7 11 8 12 9 93 10 13 11
REMARK SMILES IDX 92 12 10 13 6 14 7 15 94 16 8 17 9 18 5 19 2 21 1 22 3 23
REMARK SMILES IDX 4 24 95 25 21 28 22 29 23 30 24 31 25 32 26 33 27 34 91 35
REMARK SMILES IDX 28 36 90 37 29 38 30 39 31 40 84 41 32 42 89 43 83 44 85 45
REMARK SMILES IDX 33 46 88 47 82 48 81 49 34 51 68 52 47 53 67 54 48 55 51 56
REMARK SMILES IDX 66 57 86 58 49 59 50 60 65 62 87 63 52 64 35 65 36 66 45 67
REMARK SMILES IDX 37 68 38 69 44 70 46 71 39 72 40 73 41 74 42 75 43 76 69 77
REMARK SMILES IDX 70 78 79 79 71 80 72 81 78 82 80 83 73 84 74 85 75 86 76 87
REMARK SMILES IDX 77 88 53 89 54 90 63 91 55 92 56 93 62 94 64 95 57 96 58 97
REMARK SMILES IDX 59 98 60 99 61 100
REMARK H PARENT 5 20 95 26 95 27 85 50 51 61
REMARK Flexibility Score: inf
ROOT
ATOM      1  O   UNL A   1      38.135  21.834  25.977  1.00  0.00    -0.374 OA
ENDROOT
BRANCH   1   2
ATOM      2  C   UNL A   1      37.437  21.431  24.798  1.00  0.00     0.202 C 
BRANCH   2   3
ATOM      3  C   UNL A   1      36.333  20.386  24.970  1.00  0.00     0.261 C 
BRANCH   3   4
ATOM      4  O   UNL A   1      35.080  20.993  25.320  1.00  0.00    -0.463 OA
BRANCH   4   5
ATOM      5  C   UNL A   1      33.973  20.337  24.894  1.00  0.00     0.309 C 
ATOM      6  O   UNL A   1      33.869  19.122  24.771  1.00  0.00    -0.252 OA
BRANCH   5   7
ATOM      7  C   UNL A   1      32.842  21.273  24.545  1.00  0.00     0.103 C 
ATOM      8  N   UNL A   1      31.440  23.693  24.126  1.00  0.00    -0.355 N 
ATOM      9  C   UNL A   1      31.008  22.842  25.221  1.00  0.00     0.119 C 
ATOM     10  C   UNL A   1      32.215  23.141  23.024  1.00  0.00     0.119 C 
ATOM     11  C   UNL A   1      32.158  21.977  25.723  1.00  0.00     0.037 C 
ATOM     12  C   UNL A   1      33.365  22.305  23.556  1.00  0.00     0.037 C 
BRANCH   8  13
ATOM     13  C   UNL A   1      31.217  25.059  24.212  1.00  0.00     0.157 A 
ATOM     14  C   UNL A   1      31.823  27.273  24.834  1.00  0.00     0.155 A 
ATOM     15  N   UNL A   1      30.659  27.747  24.368  1.00  0.00    -0.217 NA
ATOM     16  C   UNL A   1      32.142  25.910  24.837  1.00  0.00     0.118 A 
ATOM     17  C   UNL A   1      29.843  26.842  23.813  1.00  0.00     0.226 A 
ATOM     18  N   UNL A   1      30.083  25.533  23.663  1.00  0.00    -0.217 NA
BRANCH  14  19
ATOM     19  N   UNL A   1      32.709  28.247  25.286  1.00  0.00    -0.364 N 
ATOM     20  H   UNL A   1      33.439  28.528  24.688  1.00  0.00     0.162 HD
BRANCH  19  21
ATOM     21  C   UNL A   1      32.611  28.880  26.619  1.00  0.00     0.030 C 
ATOM     22  C   UNL A   1      33.945  29.110  27.348  1.00  0.00     0.034 C 
ATOM     23  C   UNL A   1      31.679  28.021  27.489  1.00  0.00     0.034 C 
ATOM     24  C   UNL A   1      31.948  30.261  26.431  1.00  0.00     0.034 C 
ENDBRANCH  19  21
ENDBRANCH  14  19
BRANCH  16  25
ATOM     25  N   UNL A   1      33.300  25.438  25.469  1.00  0.00    -0.393 N 
ATOM     26  H   UNL A   1      33.240  24.701  26.117  1.00  0.00     0.156 HD
ATOM     27  H   UNL A   1      34.173  25.845  25.264  1.00  0.00     0.156 HD
ENDBRANCH  16  25
ENDBRANCH   8  13
ENDBRANCH   5   7
ENDBRANCH   4   5
ENDBRANCH   3   4
ENDBRANCH   2   3
ENDBRANCH   1   2
BRANCH   1  28
ATOM     28  C   UNL A   1      39.506  21.461  26.094  1.00  0.00     0.202 C 
BRANCH  28  29
ATOM     29  C   UNL A   1      40.405  22.344  26.970  1.00  0.00     0.261 C 
BRANCH  29  30
ATOM     30  O   UNL A   1      40.308  23.740  26.634  1.00  0.00    -0.460 OA
BRANCH  30  31
ATOM     31  C   UNL A   1      41.388  24.480  26.978  1.00  0.00     0.338 C 
ATOM     32  O   UNL A   1      42.535  24.345  26.564  1.00  0.00    -0.246 OA
BRANCH  31  33
ATOM     33  C   UNL A   1      40.985  25.631  27.803  1.00  0.00     0.060 A 
ATOM     34  C   UNL A   1      41.908  26.675  27.948  1.00  0.00     0.016 A 
ATOM     35  C   UNL A   1      39.778  25.650  28.503  1.00  0.00     0.016 A 
ATOM     36  C   UNL A   1      41.650  27.719  28.832  1.00  0.00     0.010 A 
ATOM     37  C   UNL A   1      39.525  26.692  29.402  1.00  0.00     0.010 A 
ATOM     38  C   UNL A   1      40.477  27.711  29.597  1.00  0.00    -0.014 A 
BRANCH  38  39
ATOM     39  C   UNL A   1      40.332  28.684  30.708  1.00  0.00     0.031 A 
ATOM     40  C   UNL A   1      41.243  28.569  31.900  1.00  0.00     0.074 A 
ATOM     41  C   UNL A   1      39.444  29.691  30.628  1.00  0.00     0.049 A 
ATOM     42  N   UNL A   1      41.290  29.302  32.982  1.00  0.00    -0.248 NA
ATOM     43  C   UNL A   1      42.243  27.487  31.864  1.00  0.00     0.031 C 
ATOM     44  C   UNL A   1      38.548  29.938  29.500  1.00  0.00     0.029 A 
ATOM     45  N   UNL A   1      39.154  30.699  31.515  1.00  0.00    -0.354 N 
ATOM     46  C   UNL A   1      42.321  28.776  33.751  1.00  0.00     0.074 A 
ATOM     47  C   UNL A   1      42.854  27.642  33.029  1.00  0.00     0.031 C 
ATOM     48  C   UNL A   1      37.807  31.029  29.762  1.00  0.00     0.029 A 
ATOM     49  C   UNL A   1      38.154  31.538  31.088  1.00  0.00     0.049 A 
ATOM     50  H   UNL A   1      39.620  30.809  32.375  1.00  0.00     0.167 HD
ATOM     51  C   UNL A   1      42.789  29.208  34.946  1.00  0.00     0.037 A 
ATOM     52  C   UNL A   1      37.575  32.588  31.704  1.00  0.00     0.037 A 
ATOM     53  C   UNL A   1      42.253  30.336  35.662  1.00  0.00     0.049 A 
ATOM     54  C   UNL A   1      38.055  32.997  33.073  1.00  0.00     0.074 A 
ATOM     55  C   UNL A   1      42.652  30.846  36.886  1.00  0.00     0.029 A 
ATOM     56  N   UNL A   1      41.204  31.128  35.222  1.00  0.00    -0.354 N 
ATOM     57  N   UNL A   1      39.025  32.485  33.793  1.00  0.00    -0.248 NA
ATOM     58  C   UNL A   1      37.363  34.125  33.713  1.00  0.00     0.031 C 
ATOM     59  C   UNL A   1      41.816  31.921  37.205  1.00  0.00     0.029 A 
ATOM     60  C   UNL A   1      40.929  32.111  36.157  1.00  0.00     0.049 A 
ATOM     61  H   UNL A   1      40.725  31.009  34.370  1.00  0.00     0.167 HD
ATOM     62  C   UNL A   1      39.076  33.245  34.959  1.00  0.00     0.074 A 
ATOM     63  C   UNL A   1      38.046  34.256  34.843  1.00  0.00     0.031 C 
ATOM     64  C   UNL A   1      39.904  33.117  36.025  1.00  0.00     0.037 A 
BRANCH  51  65
ATOM     65  C   UNL A   1      43.933  28.455  35.565  1.00  0.00     0.058 A 
ATOM     66  C   UNL A   1      43.716  27.392  36.455  1.00  0.00     0.135 A 
ATOM     67  C   UNL A   1      45.259  28.759  35.217  1.00  0.00     0.135 A 
ATOM     68  F   UNL A   1      42.468  27.073  36.838  1.00  0.00    -0.206 F 
ATOM     69  C   UNL A   1      44.774  26.663  36.988  1.00  0.00     0.059 A 
ATOM     70  C   UNL A   1      46.332  28.028  35.719  1.00  0.00     0.059 A 
ATOM     71  F   UNL A   1      45.521  29.769  34.373  1.00  0.00    -0.206 F 
ATOM     72  C   UNL A   1      46.079  26.985  36.609  1.00  0.00     0.060 A 
BRANCH  72  73
ATOM     73  S   UNL A   1      47.438  26.009  37.287  1.00  0.00     0.124 S 
ATOM     74  O   UNL A   1      46.952  25.727  38.634  1.00  0.00    -0.237 OA
ATOM     75  O   UNL A   1      47.484  24.868  36.379  1.00  0.00    -0.237 OA
ATOM     76  O   UNL A   1      48.580  26.915  37.211  1.00  0.00    -0.744 OA
ENDBRANCH  72  73
ENDBRANCH  51  65
BRANCH  52  77
ATOM     77  C   UNL A   1      36.473  33.328  31.033  1.00  0.00     0.058 A 
ATOM     78  C   UNL A   1      36.729  34.183  29.952  1.00  0.00     0.135 A 
ATOM     79  C   UNL A   1      35.141  33.188  31.455  1.00  0.00     0.135 A 
ATOM     80  F   UNL A   1      37.987  34.360  29.520  1.00  0.00    -0.206 F 
ATOM     81  C   UNL A   1      35.707  34.881  29.316  1.00  0.00     0.059 A 
ATOM     82  C   UNL A   1      34.099  33.855  30.820  1.00  0.00     0.059 A 
ATOM     83  F   UNL A   1      34.843  32.377  32.481  1.00  0.00    -0.206 F 
ATOM     84  C   UNL A   1      34.393  34.706  29.755  1.00  0.00     0.060 A 
BRANCH  84  85
ATOM     85  S   UNL A   1      33.068  35.575  28.886  1.00  0.00     0.124 S 
ATOM     86  O   UNL A   1      32.463  34.493  28.118  1.00  0.00    -0.237 OA
ATOM     87  O   UNL A   1      32.271  36.098  29.991  1.00  0.00    -0.237 OA
ATOM     88  O   UNL A   1      33.782  36.582  28.106  1.00  0.00    -0.744 OA
ENDBRANCH  84  85
ENDBRANCH  52  77
BRANCH  64  89
ATOM     89  C   UNL A   1      39.758  34.109  37.146  1.00  0.00     0.058 A 
ATOM     90  C   UNL A   1      39.041  33.802  38.313  1.00  0.00     0.135 A 
ATOM     91  C   UNL A   1      40.407  35.353  37.083  1.00  0.00     0.135 A 
ATOM     92  F   UNL A   1      38.399  32.628  38.422  1.00  0.00    -0.206 F 
ATOM     93  C   UNL A   1      38.959  34.701  39.372  1.00  0.00     0.059 A 
ATOM     94  C   UNL A   1      40.360  36.256  38.140  1.00  0.00     0.059 A 
ATOM     95  F   UNL A   1      41.115  35.691  35.993  1.00  0.00    -0.206 F 
ATOM     96  C   UNL A   1      39.627  35.925  39.278  1.00  0.00     0.060 A 
BRANCH  96  97
ATOM     97  S   UNL A   1      39.546  37.061  40.678  1.00  0.00     0.124 S 
ATOM     98  O   UNL A   1      40.931  37.062  41.137  1.00  0.00    -0.237 OA
ATOM     99  O   UNL A   1      39.084  38.296  40.053  1.00  0.00    -0.237 OA
ATOM    100  O   UNL A   1      38.587  36.425  41.578  1.00  0.00    -0.744 OA
ENDBRANCH  96  97
ENDBRANCH  64  89
ENDBRANCH  38  39
ENDBRANCH  31  33
ENDBRANCH  30  31
ENDBRANCH  29  30
ENDBRANCH  28  29
ENDBRANCH   1  28
TORSDOF 21
ENDMDL
MODEL 2
REMARK VINA RESULT:     -10.7      1.358      2.425
REMARK SMILES CC(C)(C)Nc1ncnc(N2CCC(C(=O)OCCOCCOC(=O)c3ccc(-c4c5nc(c(-c6c(F)cc(S(=O)(=O)[O-])cc6F)c6ccc([nH]6)c(-c6c(F)cc(S(=O)(=O)[O-])cc6F)c6nc(c(-c7c(F)cc(S(=O)(=O)[O-])cc7F)c7ccc4[nH]7)C=C6)C=C5)cc3)CC2)c1N
REMARK SMILES IDX 20 1 19 2 18 3 17 4 15 5 16 6 14 7 11 8 12 9 93 10 13 11
REMARK SMILES IDX 92 12 10 13 6 14 7 15 94 16 8 17 9 18 5 19 2 21 1 22 3 23
REMARK SMILES IDX 4 24 95 25 21 28 22 29 23 30 24 31 25 32 26 33 27 34 91 35
REMARK SMILES IDX 28 36 90 37 29 38 30 39 31 40 84 41 32 42 89 43 83 44 85 45
REMARK SMILES IDX 33 46 88 47 82 48 81 49 34 51 68 52 47 53 67 54 48 55 51 56
REMARK SMILES IDX 66 57 86 58 49 59 50 60 65 62 87 63 52 64 35 65 36 66 45 67
REMARK SMILES IDX 37 68 38 69 44 70 46 71 39 72 40 73 41 74 42 75 43 76 69 77
REMARK SMILES IDX 70 78 79 79 71 80 72 81 78 82 80 83 73 84 74 85 75 86 76 87
REMARK SMILES IDX 77 88 53 89 54 90 63 91 55 92 56 93 62 94 64 95 57 96 58 97
REMARK SMILES IDX 59 98 60 99 61 100
REMARK H PARENT 5 20 95 26 95 27 85 50 51 61
REMARK Flexibility Score: inf
ROOT
ATOM      1  O   UNL A   1      39.561  21.749  26.860  1.00  0.00    -0.374 OA
ENDROOT
BRANCH   1   2
ATOM      2  C   UNL A   1      38.731  22.540  26.009  1.00  0.00     0.202 C 
BRANCH   2   3
ATOM      3  C   UNL A   1      37.313  22.026  25.754  1.00  0.00     0.261 C 
BRANCH   3   4
ATOM      4  O   UNL A   1      36.335  22.796  26.470  1.00  0.00    -0.463 OA
BRANCH   4   5
ATOM      5  C   UNL A   1      35.043  22.548  26.146  1.00  0.00     0.309 C 
ATOM      6  O   UNL A   1      34.571  21.445  25.894  1.00  0.00    -0.252 OA
BRANCH   5   7
ATOM      7  C   UNL A   1      34.206  23.802  26.093  1.00  0.00     0.103 C 
ATOM      8  N   UNL A   1      32.534  25.829  25.046  1.00  0.00    -0.355 N 
ATOM      9  C   UNL A   1      33.886  26.198  25.429  1.00  0.00     0.119 C 
ATOM     10  C   UNL A   1      31.913  24.632  25.595  1.00  0.00     0.119 C 
ATOM     11  C   UNL A   1      34.819  24.995  25.352  1.00  0.00     0.037 C 
ATOM     12  C   UNL A   1      32.857  23.449  25.482  1.00  0.00     0.037 C 
BRANCH   8  13
ATOM     13  C   UNL A   1      31.897  26.559  24.054  1.00  0.00     0.157 A 
ATOM     14  C   UNL A   1      30.734  28.465  23.237  1.00  0.00     0.155 A 
ATOM     15  N   UNL A   1      30.623  27.906  22.024  1.00  0.00    -0.217 NA
ATOM     16  C   UNL A   1      31.319  27.808  24.325  1.00  0.00     0.118 A 
ATOM     17  C   UNL A   1      31.192  26.701  21.884  1.00  0.00     0.226 A 
ATOM     18  N   UNL A   1      31.868  26.023  22.820  1.00  0.00    -0.217 NA
BRANCH  14  19
ATOM     19  N   UNL A   1      30.252  29.769  23.323  1.00  0.00    -0.364 N 
ATOM     20  H   UNL A   1      30.860  30.470  23.653  1.00  0.00     0.162 HD
BRANCH  19  21
ATOM     21  C   UNL A   1      28.875  30.153  22.947  1.00  0.00     0.030 C 
ATOM     22  C   UNL A   1      28.294  31.366  23.694  1.00  0.00     0.034 C 
ATOM     23  C   UNL A   1      27.966  28.929  23.147  1.00  0.00     0.034 C 
ATOM     24  C   UNL A   1      28.882  30.501  21.444  1.00  0.00     0.034 C 
ENDBRANCH  19  21
ENDBRANCH  14  19
BRANCH  16  25
ATOM     25  N   UNL A   1      31.282  28.363  25.611  1.00  0.00    -0.393 N 
ATOM     26  H   UNL A   1      31.625  29.272  25.765  1.00  0.00     0.156 HD
ATOM     27  H   UNL A   1      30.913  27.842  26.361  1.00  0.00     0.156 HD
ENDBRANCH  16  25
ENDBRANCH   8  13
ENDBRANCH   5   7
ENDBRANCH   4   5
ENDBRANCH   3   4
ENDBRANCH   2   3
ENDBRANCH   1   2
BRANCH   1  28
ATOM     28  C   UNL A   1      40.737  21.177  26.291  1.00  0.00     0.202 C 
BRANCH  28  29
ATOM     29  C   UNL A   1      41.956  22.094  26.121  1.00  0.00     0.261 C 
BRANCH  29  30
ATOM     30  O   UNL A   1      41.951  23.200  27.042  1.00  0.00    -0.460 OA
BRANCH  30  31
ATOM     31  C   UNL A   1      42.181  24.408  26.475  1.00  0.00     0.338 C 
ATOM     32  O   UNL A   1      42.598  24.621  25.342  1.00  0.00    -0.246 OA
BRANCH  31  33
ATOM     33  C   UNL A   1      41.684  25.489  27.342  1.00  0.00     0.060 A 
ATOM     34  C   UNL A   1      42.433  26.672  27.390  1.00  0.00     0.016 A 
ATOM     35  C   UNL A   1      40.570  25.320  28.167  1.00  0.00     0.016 A 
ATOM     36  C   UNL A   1      42.101  27.672  28.300  1.00  0.00     0.010 A 
ATOM     37  C   UNL A   1      40.246  26.320  29.091  1.00  0.00     0.010 A 
ATOM     38  C   UNL A   1      41.032  27.484  29.186  1.00  0.00    -0.014 A 
BRANCH  38  39
ATOM     39  C   UNL A   1      40.848  28.436  30.308  1.00  0.00     0.031 A 
ATOM     40  C   UNL A   1      41.778  28.358  31.489  1.00  0.00     0.074 A 
ATOM     41  C   UNL A   1      39.905  29.394  30.250  1.00  0.00     0.049 A 
ATOM     42  N   UNL A   1      41.797  29.082  32.578  1.00  0.00    -0.248 NA
ATOM     43  C   UNL A   1      42.834  27.333  31.430  1.00  0.00     0.031 C 
ATOM     44  C   UNL A   1      38.984  29.603  29.134  1.00  0.00     0.029 A 
ATOM     45  N   UNL A   1      39.572  30.375  31.150  1.00  0.00    -0.354 N 
ATOM     46  C   UNL A   1      42.864  28.606  33.330  1.00  0.00     0.074 A 
ATOM     47  C   UNL A   1      43.450  27.509  32.590  1.00  0.00     0.031 C 
ATOM     48  C   UNL A   1      38.188  30.649  29.416  1.00  0.00     0.029 A 
ATOM     49  C   UNL A   1      38.522  31.163  30.743  1.00  0.00     0.049 A 
ATOM     50  H   UNL A   1      40.040  30.501  32.006  1.00  0.00     0.167 HD
ATOM     51  C   UNL A   1      43.322  29.050  34.525  1.00  0.00     0.037 A 
ATOM     52  C   UNL A   1      37.893  32.173  31.378  1.00  0.00     0.037 A 
ATOM     53  C   UNL A   1      42.734  30.140  35.259  1.00  0.00     0.049 A 
ATOM     54  C   UNL A   1      38.367  32.594  32.745  1.00  0.00     0.074 A 
ATOM     55  C   UNL A   1      43.118  30.658  36.484  1.00  0.00     0.029 A 
ATOM     56  N   UNL A   1      41.637  30.878  34.839  1.00  0.00    -0.354 N 
ATOM     57  N   UNL A   1      39.371  32.128  33.449  1.00  0.00    -0.248 NA
ATOM     58  C   UNL A   1      37.622  33.675  33.405  1.00  0.00     0.031 C 
ATOM     59  C   UNL A   1      42.229  31.682  36.823  1.00  0.00     0.029 A 
ATOM     60  C   UNL A   1      41.320  31.835  35.788  1.00  0.00     0.049 A 
ATOM     61  H   UNL A   1      41.156  30.741  33.991  1.00  0.00     0.167 HD
ATOM     62  C   UNL A   1      39.395  32.877  34.622  1.00  0.00     0.074 A 
ATOM     63  C   UNL A   1      38.310  33.832  34.529  1.00  0.00     0.031 C 
ATOM     64  C   UNL A   1      40.240  32.784  35.678  1.00  0.00     0.037 A 
BRANCH  51  65
ATOM     65  C   UNL A   1      44.512  28.354  35.123  1.00  0.00     0.058 A 
ATOM     66  C   UNL A   1      45.820  28.805  34.889  1.00  0.00     0.135 A 
ATOM     67  C   UNL A   1      44.340  27.261  35.987  1.00  0.00     0.135 A 
ATOM     68  F   UNL A   1      46.043  29.833  34.054  1.00  0.00    -0.206 F 
ATOM     69  C   UNL A   1      46.918  28.190  35.483  1.00  0.00     0.059 A 
ATOM     70  C   UNL A   1      45.421  26.646  36.612  1.00  0.00     0.059 A 
ATOM     71  F   UNL A   1      43.110  26.788  36.241  1.00  0.00    -0.206 F 
ATOM     72  C   UNL A   1      46.708  27.115  36.348  1.00  0.00     0.060 A 
BRANCH  72  73
ATOM     73  S   UNL A   1      48.141  26.348  37.134  1.00  0.00     0.124 S 
ATOM     74  O   UNL A   1      47.990  24.956  36.722  1.00  0.00    -0.237 OA
ATOM     75  O   UNL A   1      49.252  27.072  36.525  1.00  0.00    -0.237 OA
ATOM     76  O   UNL A   1      47.930  26.606  38.555  1.00  0.00    -0.744 OA
ENDBRANCH  72  73
ENDBRANCH  51  65
BRANCH  52  77
ATOM     77  C   UNL A   1      36.745  32.858  30.726  1.00  0.00     0.058 A 
ATOM     78  C   UNL A   1      35.425  32.574  31.102  1.00  0.00     0.135 A 
ATOM     79  C   UNL A   1      36.947  33.815  29.719  1.00  0.00     0.135 A 
ATOM     80  F   UNL A   1      35.180  31.657  32.051  1.00  0.00    -0.206 F 
ATOM     81  C   UNL A   1      34.343  33.208  30.500  1.00  0.00     0.059 A 
ATOM     82  C   UNL A   1      35.883  34.480  29.118  1.00  0.00     0.059 A 
ATOM     83  F   UNL A   1      38.192  34.127  29.327  1.00  0.00    -0.206 F 
ATOM     84  C   UNL A   1      34.583  34.164  29.510  1.00  0.00     0.060 A 
BRANCH  84  85
ATOM     85  S   UNL A   1      33.172  35.019  28.774  1.00  0.00     0.124 S 
ATOM     86  O   UNL A   1      32.682  34.020  27.832  1.00  0.00    -0.237 OA
ATOM     87  O   UNL A   1      32.327  35.270  29.937  1.00  0.00    -0.237 OA
ATOM     88  O   UNL A   1      33.774  36.208  28.178  1.00  0.00    -0.744 OA
ENDBRANCH  84  85
ENDBRANCH  52  77
BRANCH  64  89
ATOM     89  C   UNL A   1      40.054  33.756  36.811  1.00  0.00     0.058 A 
ATOM     90  C   UNL A   1      40.682  35.011  36.816  1.00  0.00     0.135 A 
ATOM     91  C   UNL A   1      39.179  33.456  37.867  1.00  0.00     0.135 A 
ATOM     92  F   UNL A   1      41.532  35.345  35.831  1.00  0.00    -0.206 F 
ATOM     93  C   UNL A   1      40.459  35.930  37.836  1.00  0.00     0.059 A 
ATOM     94  C   UNL A   1      38.922  34.370  38.885  1.00  0.00     0.059 A 
ATOM     95  F   UNL A   1      38.545  32.273  37.905  1.00  0.00    -0.206 F 
ATOM     96  C   UNL A   1      39.573  35.601  38.865  1.00  0.00     0.060 A 
BRANCH  96  97
ATOM     97  S   UNL A   1      39.262  36.822  40.159  1.00  0.00     0.124 S 
ATOM     98  O   UNL A   1      40.601  37.021  40.702  1.00  0.00    -0.237 OA
ATOM     99  O   UNL A   1      38.711  37.943  39.405  1.00  0.00    -0.237 OA
ATOM    100  O   UNL A   1      38.319  36.146  41.045  1.00  0.00    -0.744 OA
ENDBRANCH  96  97
ENDBRANCH  64  89
ENDBRANCH  38  39
ENDBRANCH  31  33
ENDBRANCH  30  31
ENDBRANCH  29  30
ENDBRANCH  28  29
ENDBRANCH   1  28
TORSDOF 21
ENDMDL
MODEL 3
REMARK VINA RESULT:     -10.6      6.444     11.772
REMARK SMILES CC(C)(C)Nc1ncnc(N2CCC(C(=O)OCCOCCOC(=O)c3ccc(-c4c5nc(c(-c6c(F)cc(S(=O)(=O)[O-])cc6F)c6ccc([nH]6)c(-c6c(F)cc(S(=O)(=O)[O-])cc6F)c6nc(c(-c7c(F)cc(S(=O)(=O)[O-])cc7F)c7ccc4[nH]7)C=C6)C=C5)cc3)CC2)c1N
REMARK SMILES IDX 20 1 19 2 18 3 17 4 15 5 16 6 14 7 11 8 12 9 93 10 13 11
REMARK SMILES IDX 92 12 10 13 6 14 7 15 94 16 8 17 9 18 5 19 2 21 1 22 3 23
REMARK SMILES IDX 4 24 95 25 21 28 22 29 23 30 24 31 25 32 26 33 27 34 91 35
REMARK SMILES IDX 28 36 90 37 29 38 30 39 31 40 84 41 32 42 89 43 83 44 85 45
REMARK SMILES IDX 33 46 88 47 82 48 81 49 34 51 68 52 47 53 67 54 48 55 51 56
REMARK SMILES IDX 66 57 86 58 49 59 50 60 65 62 87 63 52 64 35 65 36 66 45 67
REMARK SMILES IDX 37 68 38 69 44 70 46 71 39 72 40 73 41 74 42 75 43 76 69 77
REMARK SMILES IDX 70 78 79 79 71 80 72 81 78 82 80 83 73 84 74 85 75 86 76 87
REMARK SMILES IDX 77 88 53 89 54 90 63 91 55 92 56 93 62 94 64 95 57 96 58 97
REMARK SMILES IDX 59 98 60 99 61 100
REMARK H PARENT 5 20 95 26 95 27 85 50 51 61
REMARK Flexibility Score: inf
ROOT
ATOM      1  O   UNL A   1      33.581  31.701  27.647  1.00  0.00    -0.374 OA
ENDROOT
BRANCH   1   2
ATOM      2  C   UNL A   1      33.366  30.340  27.274  1.00  0.00     0.202 C 
BRANCH   2   3
ATOM      3  C   UNL A   1      32.441  30.086  26.083  1.00  0.00     0.261 C 
BRANCH   3   4
ATOM      4  O   UNL A   1      32.554  28.738  25.603  1.00  0.00    -0.463 OA
BRANCH   4   5
ATOM      5  C   UNL A   1      31.509  28.290  24.866  1.00  0.00     0.309 C 
ATOM      6  O   UNL A   1      30.692  28.995  24.286  1.00  0.00    -0.252 OA
BRANCH   5   7
ATOM      7  C   UNL A   1      31.420  26.784  24.840  1.00  0.00     0.103 C 
ATOM      8  N   UNL A   1      32.246  24.080  24.923  1.00  0.00    -0.355 N 
ATOM      9  C   UNL A   1      31.723  24.590  23.667  1.00  0.00     0.119 C 
ATOM     10  C   UNL A   1      31.932  24.747  26.177  1.00  0.00     0.119 C 
ATOM     11  C   UNL A   1      31.925  26.097  23.566  1.00  0.00     0.037 C 
ATOM     12  C   UNL A   1      32.166  26.242  26.053  1.00  0.00     0.037 C 
BRANCH   8  13
ATOM     13  C   UNL A   1      33.153  23.031  24.893  1.00  0.00     0.157 A 
ATOM     14  C   UNL A   1      33.821  20.791  25.327  1.00  0.00     0.155 A 
ATOM     15  N   UNL A   1      35.037  21.030  24.817  1.00  0.00    -0.217 NA
ATOM     16  C   UNL A   1      32.839  21.780  25.447  1.00  0.00     0.118 A 
ATOM     17  C   UNL A   1      35.234  22.265  24.337  1.00  0.00     0.226 A 
ATOM     18  N   UNL A   1      34.339  23.261  24.300  1.00  0.00    -0.217 NA
BRANCH  14  19
ATOM     19  N   UNL A   1      33.595  19.467  25.699  1.00  0.00    -0.364 N 
ATOM     20  H   UNL A   1      33.582  19.248  26.658  1.00  0.00     0.162 HD
BRANCH  19  21
ATOM     21  C   UNL A   1      33.376  18.376  24.725  1.00  0.00     0.030 C 
ATOM     22  C   UNL A   1      34.646  17.689  24.197  1.00  0.00     0.034 C 
ATOM     23  C   UNL A   1      32.557  18.939  23.552  1.00  0.00     0.034 C 
ATOM     24  C   UNL A   1      32.526  17.293  25.423  1.00  0.00     0.034 C 
ENDBRANCH  19  21
ENDBRANCH  14  19
BRANCH  16  25
ATOM     25  N   UNL A   1      31.636  21.531  26.121  1.00  0.00    -0.393 N 
ATOM     26  H   UNL A   1      31.624  20.922  26.894  1.00  0.00     0.156 HD
ATOM     27  H   UNL A   1      30.804  21.963  25.820  1.00  0.00     0.156 HD
ENDBRANCH  16  25
ENDBRANCH   8  13
ENDBRANCH   5   7
ENDBRANCH   4   5
ENDBRANCH   3   4
ENDBRANCH   2   3
ENDBRANCH   1   2
BRANCH   1  28
ATOM     28  C   UNL A   1      34.911  32.094  27.982  1.00  0.00     0.202 C 
BRANCH  28  29
ATOM     29  C   UNL A   1      35.161  32.584  29.415  1.00  0.00     0.261 C 
BRANCH  29  30
ATOM     30  O   UNL A   1      36.517  32.367  29.846  1.00  0.00    -0.460 OA
BRANCH  30  31
ATOM     31  C   UNL A   1      36.711  31.227  30.550  1.00  0.00     0.338 C 
ATOM     32  O   UNL A   1      35.945  30.729  31.368  1.00  0.00    -0.246 OA
BRANCH  31  33
ATOM     33  C   UNL A   1      37.913  30.522  30.074  1.00  0.00     0.060 A 
ATOM     34  C   UNL A   1      38.861  30.146  31.033  1.00  0.00     0.016 A 
ATOM     35  C   UNL A   1      38.160  30.323  28.714  1.00  0.00     0.016 A 
ATOM     36  C   UNL A   1      40.084  29.612  30.634  1.00  0.00     0.010 A 
ATOM     37  C   UNL A   1      39.395  29.799  28.314  1.00  0.00     0.010 A 
ATOM     38  C   UNL A   1      40.375  29.477  29.271  1.00  0.00    -0.014 A 
BRANCH  38  39
ATOM     39  C   UNL A   1      41.762  29.149  28.857  1.00  0.00     0.031 A 
ATOM     40  C   UNL A   1      42.076  27.745  28.416  1.00  0.00     0.074 A 
ATOM     41  C   UNL A   1      42.711  30.101  28.816  1.00  0.00     0.049 A 
ATOM     42  N   UNL A   1      43.214  27.235  28.021  1.00  0.00    -0.248 NA
ATOM     43  C   UNL A   1      40.956  26.788  28.412  1.00  0.00     0.031 C 
ATOM     44  C   UNL A   1      42.510  31.507  29.164  1.00  0.00     0.029 A 
ATOM     45  N   UNL A   1      44.034  30.028  28.457  1.00  0.00    -0.354 N 
ATOM     46  C   UNL A   1      42.949  25.905  27.718  1.00  0.00     0.074 A 
ATOM     47  C   UNL A   1      41.549  25.675  28.005  1.00  0.00     0.031 C 
ATOM     48  C   UNL A   1      43.671  32.166  29.001  1.00  0.00     0.029 A 
ATOM     49  C   UNL A   1      44.702  31.224  28.568  1.00  0.00     0.049 A 
ATOM     50  H   UNL A   1      44.463  29.198  28.149  1.00  0.00     0.167 HD
ATOM     51  C   UNL A   1      43.793  24.964  27.232  1.00  0.00     0.037 A 
ATOM     52  C   UNL A   1      46.001  31.520  28.359  1.00  0.00     0.037 A 
ATOM     53  C   UNL A   1      45.185  25.197  26.951  1.00  0.00     0.049 A 
ATOM     54  C   UNL A   1      46.940  30.434  27.901  1.00  0.00     0.074 A 
ATOM     55  C   UNL A   1      46.125  24.304  26.467  1.00  0.00     0.029 A 
ATOM     56  N   UNL A   1      45.837  26.408  27.128  1.00  0.00    -0.354 N 
ATOM     57  N   UNL A   1      46.677  29.178  27.627  1.00  0.00    -0.248 NA
ATOM     58  C   UNL A   1      48.352  30.804  27.724  1.00  0.00     0.031 C 
ATOM     59  C   UNL A   1      47.356  24.963  26.391  1.00  0.00     0.029 A 
ATOM     60  C   UNL A   1      47.172  26.281  26.781  1.00  0.00     0.049 A 
ATOM     61  H   UNL A   1      45.414  27.235  27.453  1.00  0.00     0.167 HD
ATOM     62  C   UNL A   1      47.884  28.616  27.221  1.00  0.00     0.074 A 
ATOM     63  C   UNL A   1      48.875  29.670  27.276  1.00  0.00     0.031 C 
ATOM     64  C   UNL A   1      48.146  27.342  26.835  1.00  0.00     0.037 A 
BRANCH  51  65
ATOM     65  C   UNL A   1      43.240  23.589  26.982  1.00  0.00     0.058 A 
ATOM     66  C   UNL A   1      42.914  23.153  25.689  1.00  0.00     0.135 A 
ATOM     67  C   UNL A   1      43.091  22.677  28.039  1.00  0.00     0.135 A 
ATOM     68  F   UNL A   1      43.017  23.992  24.645  1.00  0.00    -0.206 F 
ATOM     69  C   UNL A   1      42.449  21.863  25.452  1.00  0.00     0.059 A 
ATOM     70  C   UNL A   1      42.651  21.374  27.823  1.00  0.00     0.059 A 
ATOM     71  F   UNL A   1      43.384  23.044  29.296  1.00  0.00    -0.206 F 
ATOM     72  C   UNL A   1      42.327  20.978  26.526  1.00  0.00     0.060 A 
BRANCH  72  73
ATOM     73  S   UNL A   1      41.752  19.299  26.196  1.00  0.00     0.124 S 
ATOM     74  O   UNL A   1      42.670  18.877  25.143  1.00  0.00    -0.237 OA
ATOM     75  O   UNL A   1      41.932  18.650  27.490  1.00  0.00    -0.237 OA
ATOM     76  O   UNL A   1      40.366  19.488  25.780  1.00  0.00    -0.744 OA
ENDBRANCH  72  73
ENDBRANCH  51  65
BRANCH  52  77
ATOM     77  C   UNL A   1      46.491  32.906  28.581  1.00  0.00     0.058 A 
ATOM     78  C   UNL A   1      46.591  33.818  27.520  1.00  0.00     0.135 A 
ATOM     79  C   UNL A   1      46.864  33.348  29.860  1.00  0.00     0.135 A 
ATOM     80  F   UNL A   1      46.260  33.438  26.276  1.00  0.00    -0.206 F 
ATOM     81  C   UNL A   1      47.049  35.117  27.716  1.00  0.00     0.059 A 
ATOM     82  C   UNL A   1      47.301  34.649  30.086  1.00  0.00     0.059 A 
ATOM     83  F   UNL A   1      46.781  32.516  30.910  1.00  0.00    -0.206 F 
ATOM     84  C   UNL A   1      47.398  35.525  29.005  1.00  0.00     0.060 A 
BRANCH  84  85
ATOM     85  S   UNL A   1      47.939  37.230  29.256  1.00  0.00     0.124 S 
ATOM     86  O   UNL A   1      47.367  37.530  30.563  1.00  0.00    -0.237 OA
ATOM     87  O   UNL A   1      49.391  37.099  29.209  1.00  0.00    -0.237 OA
ATOM     88  O   UNL A   1      47.344  37.941  28.128  1.00  0.00    -0.744 OA
ENDBRANCH  84  85
ENDBRANCH  52  77
BRANCH  64  89
ATOM     89  C   UNL A   1      49.551  27.015  26.409  1.00  0.00     0.058 A 
ATOM     90  C   UNL A   1      50.503  26.533  27.321  1.00  0.00     0.135 A 
ATOM     91  C   UNL A   1      49.927  27.116  25.060  1.00  0.00     0.135 A 
ATOM     92  F   UNL A   1      50.195  26.422  28.623  1.00  0.00    -0.206 F 
ATOM     93  C   UNL A   1      51.783  26.175  26.912  1.00  0.00     0.059 A 
ATOM     94  C   UNL A   1      51.194  26.739  24.625  1.00  0.00     0.059 A 
ATOM     95  F   UNL A   1      49.051  27.561  24.146  1.00  0.00    -0.206 F 
ATOM     96  C   UNL A   1      52.118  26.277  25.559  1.00  0.00     0.060 A 
BRANCH  96  97
ATOM     97  S   UNL A   1      53.770  25.768  25.039  1.00  0.00     0.124 S 
ATOM     98  O   UNL A   1      54.113  24.789  26.065  1.00  0.00    -0.237 OA
ATOM     99  O   UNL A   1      53.526  25.230  23.705  1.00  0.00    -0.237 OA
ATOM    100  O   UNL A   1      54.537  27.011  25.076  1.00  0.00    -0.744 OA
ENDBRANCH  96  97
ENDBRANCH  64  89
ENDBRANCH  38  39
ENDBRANCH  31  33
ENDBRANCH  30  31
ENDBRANCH  29  30
ENDBRANCH  28  29
ENDBRANCH   1  28
TORSDOF 21
ENDMDL
