MODEL 1
REMARK VINA RESULT:      -9.6      0.000      0.000
REMARK SMILES Cc1cccc(Nc2nc(C)c(CCO)c(OCC(=O)OCCOCCOC(=O)c3ccc(-c4c5nc(c(-c6c(F)cc(S(=O)(=O)[O-])cc6F)c6ccc([nH]6)c(-c6c(F)cc(S(=O)(=O)[O-])cc6F)c6nc(c(-c7c(F)cc(S(=O)(=O)[O-])cc7F)c7ccc4[nH]7)C=C6)C=C5)cc3)n2)c1
REMARK SMILES IDX 23 1 22 2 21 3 19 4 20 5 18 6 17 7 16 8 8 9 9 10 96 11 10 12
REMARK SMILES IDX 11 13 12 14 7 15 6 17 1 18 2 19 3 20 97 21 4 22 5 23 13 24
REMARK SMILES IDX 14 25 15 26 24 28 25 29 26 30 27 31 28 32 29 33 30 34 31 35
REMARK SMILES IDX 95 36 32 37 94 38 33 39 34 40 35 41 88 42 36 43 93 44 87 45
REMARK SMILES IDX 89 46 37 47 92 48 86 49 85 50 38 52 72 53 51 54 71 55 52 56
REMARK SMILES IDX 55 57 70 58 90 59 53 60 54 61 69 63 91 64 56 65 39 66 40 67
REMARK SMILES IDX 49 68 41 69 42 70 48 71 50 72 43 73 44 74 45 75 46 76 47 77
REMARK SMILES IDX 73 78 74 79 83 80 75 81 76 82 82 83 84 84 77 85 78 86 79 87
REMARK SMILES IDX 80 88 81 89 57 90 58 91 67 92 59 93 60 94 66 95 68 96 61 97
REMARK SMILES IDX 62 98 63 99 64 100 65 101
REMARK H PARENT 7 16 15 27 89 51 55 62
REMARK Flexibility Score: inf
ROOT
ATOM      1  C   UNL A   1      38.230  32.018  35.486  1.00  0.00     0.202 C 
ENDROOT
BRANCH   1   2
ATOM      2  C   UNL A   1      37.469  33.238  34.975  1.00  0.00     0.261 C 
BRANCH   2   3
ATOM      3  O   UNL A   1      36.049  33.148  34.973  1.00  0.00    -0.461 OA
BRANCH   3   4
ATOM      4  C   UNL A   1      35.369  33.975  34.142  1.00  0.00     0.344 C 
ATOM      5  O   UNL A   1      35.238  35.183  34.303  1.00  0.00    -0.248 OA
BRANCH   4   6
ATOM      6  C   UNL A   1      34.929  33.208  32.901  1.00  0.00     0.353 C 
BRANCH   6   7
ATOM      7  O   UNL A   1      33.710  33.711  32.354  1.00  0.00    -0.465 OA
BRANCH   7   8
ATOM      8  C   UNL A   1      33.923  34.043  31.036  1.00  0.00     0.222 A 
ATOM      9  C   UNL A   1      34.732  33.363  29.025  1.00  0.00     0.230 A 
ATOM     10  N   UNL A   1      34.531  34.575  28.489  1.00  0.00    -0.218 NA
ATOM     11  N   UNL A   1      34.498  33.079  30.308  1.00  0.00    -0.177 NA
ATOM     12  C   UNL A   1      33.905  35.504  29.246  1.00  0.00     0.050 A 
ATOM     13  C   UNL A   1      33.642  36.807  28.550  1.00  0.00     0.067 C 
ATOM     14  C   UNL A   1      33.477  35.253  30.543  1.00  0.00     0.038 A 
BRANCH   9  15
ATOM     15  N   UNL A   1      35.004  32.336  28.120  1.00  0.00    -0.324 N 
ATOM     16  H   UNL A   1      35.942  32.206  27.848  1.00  0.00     0.170 HD
BRANCH  15  17
ATOM     17  C   UNL A   1      34.039  31.471  27.567  1.00  0.00     0.041 A 
ATOM     18  C   UNL A   1      33.825  27.868  26.315  1.00  0.00     0.044 C 
ATOM     19  C   UNL A   1      33.452  29.275  26.668  1.00  0.00    -0.049 A 
ATOM     20  C   UNL A   1      32.158  29.733  26.396  1.00  0.00     0.003 A 
ATOM     21  C   UNL A   1      34.379  30.144  27.270  1.00  0.00     0.029 A 
ATOM     22  C   UNL A   1      31.792  31.032  26.728  1.00  0.00     0.002 A 
ATOM     23  C   UNL A   1      32.723  31.884  27.317  1.00  0.00     0.026 A 
ENDBRANCH  15  17
ENDBRANCH   9  15
BRANCH  14  24
ATOM     24  C   UNL A   1      32.657  36.252  31.318  1.00  0.00     0.071 C 
BRANCH  24  25
ATOM     25  C   UNL A   1      33.369  37.230  32.266  1.00  0.00     0.161 C 
BRANCH  25  26
ATOM     26  O   UNL A   1      33.098  36.947  33.634  1.00  0.00    -0.396 OA
ATOM     27  H   UNL A   1      33.926  36.725  34.090  1.00  0.00     0.210 HD
ENDBRANCH  25  26
ENDBRANCH  24  25
ENDBRANCH  14  24
ENDBRANCH   7   8
ENDBRANCH   6   7
ENDBRANCH   4   6
ENDBRANCH   3   4
ENDBRANCH   2   3
ENDBRANCH   1   2
BRANCH   1  28
ATOM     28  O   UNL A   1      38.130  30.769  34.821  1.00  0.00    -0.374 OA
BRANCH  28  29
ATOM     29  C   UNL A   1      38.098  30.744  33.395  1.00  0.00     0.202 C 
BRANCH  29  30
ATOM     30  C   UNL A   1      36.838  30.206  32.709  1.00  0.00     0.261 C 
BRANCH  30  31
ATOM     31  O   UNL A   1      37.102  29.088  31.855  1.00  0.00    -0.460 OA
BRANCH  31  32
ATOM     32  C   UNL A   1      37.015  29.307  30.508  1.00  0.00     0.338 C 
ATOM     33  O   UNL A   1      36.217  29.966  29.887  1.00  0.00    -0.246 OA
BRANCH  32  34
ATOM     34  C   UNL A   1      38.322  28.845  29.993  1.00  0.00     0.060 A 
ATOM     35  C   UNL A   1      39.103  27.978  30.754  1.00  0.00     0.016 A 
ATOM     36  C   UNL A   1      38.897  29.669  29.026  1.00  0.00     0.016 A 
ATOM     37  C   UNL A   1      40.480  28.166  30.755  1.00  0.00     0.010 A 
ATOM     38  C   UNL A   1      40.260  29.900  29.090  1.00  0.00     0.010 A 
ATOM     39  C   UNL A   1      40.994  29.302  30.118  1.00  0.00    -0.014 A 
BRANCH  39  40
ATOM     40  C   UNL A   1      42.081  30.085  30.745  1.00  0.00     0.031 A 
ATOM     41  C   UNL A   1      41.800  30.991  31.859  1.00  0.00     0.074 A 
ATOM     42  C   UNL A   1      43.391  29.910  30.443  1.00  0.00     0.049 A 
ATOM     43  N   UNL A   1      41.610  32.260  31.734  1.00  0.00    -0.248 NA
ATOM     44  C   UNL A   1      41.776  30.489  33.234  1.00  0.00     0.031 C 
ATOM     45  C   UNL A   1      44.530  30.662  30.965  1.00  0.00     0.029 A 
ATOM     46  N   UNL A   1      43.969  29.061  29.507  1.00  0.00    -0.354 N 
ATOM     47  C   UNL A   1      41.727  32.760  33.014  1.00  0.00     0.074 A 
ATOM     48  C   UNL A   1      41.631  31.626  33.917  1.00  0.00     0.031 C 
ATOM     49  C   UNL A   1      45.578  30.472  30.140  1.00  0.00     0.029 A 
ATOM     50  C   UNL A   1      45.167  29.599  29.048  1.00  0.00     0.049 A 
ATOM     51  H   UNL A   1      43.587  28.202  29.212  1.00  0.00     0.167 HD
ATOM     52  C   UNL A   1      42.380  33.928  33.288  1.00  0.00     0.037 A 
ATOM     53  C   UNL A   1      45.338  29.835  27.717  1.00  0.00     0.037 A 
ATOM     54  C   UNL A   1      43.342  34.236  32.221  1.00  0.00     0.049 A 
ATOM     55  C   UNL A   1      44.976  31.280  27.418  1.00  0.00     0.074 A 
ATOM     56  C   UNL A   1      44.726  34.150  32.194  1.00  0.00     0.029 A 
ATOM     57  N   UNL A   1      42.945  34.354  30.888  1.00  0.00    -0.354 N 
ATOM     58  N   UNL A   1      44.673  32.142  28.354  1.00  0.00    -0.248 NA
ATOM     59  C   UNL A   1      44.922  31.893  26.093  1.00  0.00     0.031 C 
ATOM     60  C   UNL A   1      45.152  34.141  30.841  1.00  0.00     0.029 A 
ATOM     61  C   UNL A   1      44.034  34.248  30.032  1.00  0.00     0.049 A 
ATOM     62  H   UNL A   1      42.017  34.492  30.593  1.00  0.00     0.167 HD
ATOM     63  C   UNL A   1      44.321  33.345  27.813  1.00  0.00     0.074 A 
ATOM     64  C   UNL A   1      44.533  33.151  26.389  1.00  0.00     0.031 C 
ATOM     65  C   UNL A   1      43.878  34.385  28.585  1.00  0.00     0.037 A 
BRANCH  52  66
ATOM     66  C   UNL A   1      42.416  34.470  34.708  1.00  0.00     0.058 A 
ATOM     67  C   UNL A   1      43.433  34.152  35.627  1.00  0.00     0.135 A 
ATOM     68  C   UNL A   1      41.449  35.389  35.190  1.00  0.00     0.135 A 
ATOM     69  F   UNL A   1      44.481  33.397  35.275  1.00  0.00    -0.206 F 
ATOM     70  C   UNL A   1      43.428  34.613  36.949  1.00  0.00     0.059 A 
ATOM     71  C   UNL A   1      41.399  35.829  36.515  1.00  0.00     0.059 A 
ATOM     72  F   UNL A   1      40.508  35.893  34.373  1.00  0.00    -0.206 F 
ATOM     73  C   UNL A   1      42.395  35.432  37.392  1.00  0.00     0.060 A 
BRANCH  73  74
ATOM     74  S   UNL A   1      42.380  35.979  39.111  1.00  0.00     0.124 S 
ATOM     75  O   UNL A   1      43.803  36.030  39.434  1.00  0.00    -0.237 OA
ATOM     76  O   UNL A   1      41.703  37.267  39.011  1.00  0.00    -0.237 OA
ATOM     77  O   UNL A   1      41.629  34.930  39.795  1.00  0.00    -0.744 OA
ENDBRANCH  73  74
ENDBRANCH  52  66
BRANCH  53  78
ATOM     78  C   UNL A   1      45.138  28.584  26.914  1.00  0.00     0.058 A 
ATOM     79  C   UNL A   1      46.189  27.638  26.986  1.00  0.00     0.135 A 
ATOM     80  C   UNL A   1      43.895  28.100  26.485  1.00  0.00     0.135 A 
ATOM     81  F   UNL A   1      47.412  28.039  27.371  1.00  0.00    -0.206 F 
ATOM     82  C   UNL A   1      45.989  26.270  26.805  1.00  0.00     0.059 A 
ATOM     83  C   UNL A   1      43.671  26.727  26.290  1.00  0.00     0.059 A 
ATOM     84  F   UNL A   1      42.844  28.927  26.396  1.00  0.00    -0.206 F 
ATOM     85  C   UNL A   1      44.710  25.816  26.502  1.00  0.00     0.060 A 
BRANCH  85  86
ATOM     86  S   UNL A   1      44.356  24.038  26.585  1.00  0.00     0.124 S 
ATOM     87  O   UNL A   1      45.027  23.656  27.821  1.00  0.00    -0.237 OA
ATOM     88  O   UNL A   1      42.897  23.994  26.610  1.00  0.00    -0.237 OA
ATOM     89  O   UNL A   1      44.961  23.542  25.352  1.00  0.00    -0.744 OA
ENDBRANCH  85  86
ENDBRANCH  53  78
BRANCH  65  90
ATOM     90  C   UNL A   1      43.346  35.691  28.054  1.00  0.00     0.058 A 
ATOM     91  C   UNL A   1      41.986  36.032  28.031  1.00  0.00     0.135 A 
ATOM     92  C   UNL A   1      44.248  36.714  27.673  1.00  0.00     0.135 A 
ATOM     93  F   UNL A   1      41.047  35.173  28.455  1.00  0.00    -0.206 F 
ATOM     94  C   UNL A   1      41.544  37.286  27.606  1.00  0.00     0.059 A 
ATOM     95  C   UNL A   1      43.834  37.988  27.304  1.00  0.00     0.059 A 
ATOM     96  F   UNL A   1      45.575  36.508  27.657  1.00  0.00    -0.206 F 
ATOM     97  C   UNL A   1      42.474  38.258  27.247  1.00  0.00     0.060 A 
BRANCH  97  98
ATOM     98  S   UNL A   1      41.920  39.897  26.750  1.00  0.00     0.124 S 
ATOM     99  O   UNL A   1      41.592  40.495  28.041  1.00  0.00    -0.237 OA
ATOM    100  O   UNL A   1      43.094  40.448  26.081  1.00  0.00    -0.237 OA
ATOM    101  O   UNL A   1      40.786  39.615  25.876  1.00  0.00    -0.744 OA
ENDBRANCH  97  98
ENDBRANCH  65  90
ENDBRANCH  39  40
ENDBRANCH  32  34
ENDBRANCH  31  32
ENDBRANCH  30  31
ENDBRANCH  29  30
ENDBRANCH  28  29
ENDBRANCH   1  28
TORSDOF 24
ENDMDL
MODEL 2
REMARK VINA RESULT:      -8.9      4.958     11.545
REMARK SMILES Cc1cccc(Nc2nc(C)c(CCO)c(OCC(=O)OCCOCCOC(=O)c3ccc(-c4c5nc(c(-c6c(F)cc(S(=O)(=O)[O-])cc6F)c6ccc([nH]6)c(-c6c(F)cc(S(=O)(=O)[O-])cc6F)c6nc(c(-c7c(F)cc(S(=O)(=O)[O-])cc7F)c7ccc4[nH]7)C=C6)C=C5)cc3)n2)c1
REMARK SMILES IDX 23 1 22 2 21 3 19 4 20 5 18 6 17 7 16 8 8 9 9 10 96 11 10 12
REMARK SMILES IDX 11 13 12 14 7 15 6 17 1 18 2 19 3 20 97 21 4 22 5 23 13 24
REMARK SMILES IDX 14 25 15 26 24 28 25 29 26 30 27 31 28 32 29 33 30 34 31 35
REMARK SMILES IDX 95 36 32 37 94 38 33 39 34 40 35 41 88 42 36 43 93 44 87 45
REMARK SMILES IDX 89 46 37 47 92 48 86 49 85 50 38 52 72 53 51 54 71 55 52 56
REMARK SMILES IDX 55 57 70 58 90 59 53 60 54 61 69 63 91 64 56 65 39 66 40 67
REMARK SMILES IDX 49 68 41 69 42 70 48 71 50 72 43 73 44 74 45 75 46 76 47 77
REMARK SMILES IDX 73 78 74 79 83 80 75 81 76 82 82 83 84 84 77 85 78 86 79 87
REMARK SMILES IDX 80 88 81 89 57 90 58 91 67 92 59 93 60 94 66 95 68 96 61 97
REMARK SMILES IDX 62 98 63 99 64 100 65 101
REMARK H PARENT 7 16 15 27 89 51 55 62
REMARK Flexibility Score: inf
ROOT
ATOM      1  C   UNL A   1      42.708  27.481  26.039  1.00  0.00     0.202 C 
ENDROOT
BRANCH   1   2
ATOM      2  C   UNL A   1      43.861  26.895  25.228  1.00  0.00     0.261 C 
BRANCH   2   3
ATOM      3  O   UNL A   1      44.561  25.803  25.812  1.00  0.00    -0.461 OA
BRANCH   3   4
ATOM      4  C   UNL A   1      45.268  24.996  24.984  1.00  0.00     0.344 C 
ATOM      5  O   UNL A   1      46.409  25.216  24.593  1.00  0.00    -0.248 OA
BRANCH   4   6
ATOM      6  C   UNL A   1      44.497  23.704  24.743  1.00  0.00     0.353 C 
BRANCH   6   7
ATOM      7  O   UNL A   1      45.033  22.605  25.481  1.00  0.00    -0.465 OA
BRANCH   7   8
ATOM      8  C   UNL A   1      43.991  21.838  25.946  1.00  0.00     0.222 A 
ATOM      9  C   UNL A   1      42.076  21.795  27.169  1.00  0.00     0.230 A 
ATOM     10  N   UNL A   1      41.976  20.465  27.041  1.00  0.00    -0.218 NA
ATOM     11  N   UNL A   1      43.099  22.505  26.688  1.00  0.00    -0.177 NA
ATOM     12  C   UNL A   1      42.871  19.838  26.244  1.00  0.00     0.050 A 
ATOM     13  C   UNL A   1      42.645  18.363  26.085  1.00  0.00     0.067 C 
ATOM     14  C   UNL A   1      43.880  20.514  25.570  1.00  0.00     0.038 A 
BRANCH   9  15
ATOM     15  N   UNL A   1      40.941  22.446  27.653  1.00  0.00    -0.324 N 
ATOM     16  H   UNL A   1      40.970  22.787  28.576  1.00  0.00     0.170 HD
BRANCH  15  17
ATOM     17  C   UNL A   1      39.755  22.652  26.919  1.00  0.00     0.041 A 
ATOM     18  C   UNL A   1      37.420  20.647  24.655  1.00  0.00     0.044 C 
ATOM     19  C   UNL A   1      38.022  21.776  25.435  1.00  0.00    -0.049 A 
ATOM     20  C   UNL A   1      37.426  23.041  25.385  1.00  0.00     0.003 A 
ATOM     21  C   UNL A   1      39.173  21.586  26.218  1.00  0.00     0.029 A 
ATOM     22  C   UNL A   1      37.964  24.096  26.112  1.00  0.00     0.002 A 
ATOM     23  C   UNL A   1      39.110  23.896  26.878  1.00  0.00     0.026 A 
ENDBRANCH  15  17
ENDBRANCH   9  15
BRANCH  14  24
ATOM     24  C   UNL A   1      44.777  19.820  24.577  1.00  0.00     0.071 C 
BRANCH  24  25
ATOM     25  C   UNL A   1      46.119  19.243  25.057  1.00  0.00     0.161 C 
BRANCH  25  26
ATOM     26  O   UNL A   1      46.011  17.876  25.438  1.00  0.00    -0.396 OA
ATOM     27  H   UNL A   1      46.877  17.553  25.734  1.00  0.00     0.210 HD
ENDBRANCH  25  26
ENDBRANCH  24  25
ENDBRANCH  14  24
ENDBRANCH   7   8
ENDBRANCH   6   7
ENDBRANCH   4   6
ENDBRANCH   3   4
ENDBRANCH   2   3
ENDBRANCH   1   2
BRANCH   1  28
ATOM     28  O   UNL A   1      41.563  26.700  26.341  1.00  0.00    -0.374 OA
BRANCH  28  29
ATOM     29  C   UNL A   1      40.413  27.341  26.889  1.00  0.00     0.202 C 
BRANCH  29  30
ATOM     30  C   UNL A   1      40.047  27.046  28.347  1.00  0.00     0.261 C 
BRANCH  30  31
ATOM     31  O   UNL A   1      40.513  28.051  29.253  1.00  0.00    -0.460 OA
BRANCH  31  32
ATOM     32  C   UNL A   1      39.571  28.672  30.024  1.00  0.00     0.338 C 
ATOM     33  O   UNL A   1      38.498  29.127  29.708  1.00  0.00    -0.246 OA
BRANCH  32  34
ATOM     34  C   UNL A   1      39.988  28.359  31.408  1.00  0.00     0.060 A 
ATOM     35  C   UNL A   1      39.167  28.707  32.478  1.00  0.00     0.016 A 
ATOM     36  C   UNL A   1      41.360  28.184  31.582  1.00  0.00     0.016 A 
ATOM     37  C   UNL A   1      39.769  29.174  33.641  1.00  0.00     0.010 A 
ATOM     38  C   UNL A   1      41.950  28.720  32.713  1.00  0.00     0.010 A 
ATOM     39  C   UNL A   1      41.148  29.414  33.623  1.00  0.00    -0.014 A 
BRANCH  39  40
ATOM     40  C   UNL A   1      41.705  30.626  34.262  1.00  0.00     0.031 A 
ATOM     41  C   UNL A   1      42.635  30.516  35.387  1.00  0.00     0.074 A 
ATOM     42  C   UNL A   1      41.521  31.876  33.769  1.00  0.00     0.049 A 
ATOM     43  N   UNL A   1      42.289  30.606  36.626  1.00  0.00    -0.248 NA
ATOM     44  C   UNL A   1      44.069  30.346  35.149  1.00  0.00     0.031 C 
ATOM     45  C   UNL A   1      41.983  33.135  34.349  1.00  0.00     0.029 A 
ATOM     46  N   UNL A   1      40.777  32.284  32.669  1.00  0.00    -0.354 N 
ATOM     47  C   UNL A   1      43.475  30.792  37.308  1.00  0.00     0.074 A 
ATOM     48  C   UNL A   1      44.545  30.430  36.393  1.00  0.00     0.031 C 
ATOM     49  C   UNL A   1      41.270  34.140  33.806  1.00  0.00     0.029 A 
ATOM     50  C   UNL A   1      40.313  33.581  32.859  1.00  0.00     0.049 A 
ATOM     51  H   UNL A   1      40.604  31.734  31.870  1.00  0.00     0.167 HD
ATOM     52  C   UNL A   1      43.593  31.672  38.344  1.00  0.00     0.037 A 
ATOM     53  C   UNL A   1      38.976  33.835  32.818  1.00  0.00     0.037 A 
ATOM     54  C   UNL A   1      42.553  32.708  38.256  1.00  0.00     0.049 A 
ATOM     55  C   UNL A   1      38.419  33.800  34.232  1.00  0.00     0.074 A 
ATOM     56  C   UNL A   1      42.630  34.042  37.882  1.00  0.00     0.029 A 
ATOM     57  N   UNL A   1      41.197  32.382  38.218  1.00  0.00    -0.354 N 
ATOM     58  N   UNL A   1      39.179  33.664  35.288  1.00  0.00    -0.248 NA
ATOM     59  C   UNL A   1      37.010  33.915  34.602  1.00  0.00     0.031 C 
ATOM     60  C   UNL A   1      41.327  34.492  37.548  1.00  0.00     0.029 A 
ATOM     61  C   UNL A   1      40.442  33.446  37.741  1.00  0.00     0.049 A 
ATOM     62  H   UNL A   1      40.824  31.513  38.491  1.00  0.00     0.167 HD
ATOM     63  C   UNL A   1      38.425  33.594  36.424  1.00  0.00     0.074 A 
ATOM     64  C   UNL A   1      37.069  33.798  35.945  1.00  0.00     0.031 C 
ATOM     65  C   UNL A   1      38.985  33.362  37.652  1.00  0.00     0.037 A 
BRANCH  52  66
ATOM     66  C   UNL A   1      44.903  31.785  39.107  1.00  0.00     0.058 A 
ATOM     67  C   UNL A   1      46.007  32.521  38.636  1.00  0.00     0.135 A 
ATOM     68  C   UNL A   1      45.085  31.199  40.386  1.00  0.00     0.135 A 
ATOM     69  F   UNL A   1      45.940  33.233  37.504  1.00  0.00    -0.206 F 
ATOM     70  C   UNL A   1      47.227  32.574  39.320  1.00  0.00     0.059 A 
ATOM     71  C   UNL A   1      46.304  31.202  41.067  1.00  0.00     0.059 A 
ATOM     72  F   UNL A   1      44.066  30.594  41.020  1.00  0.00    -0.206 F 
ATOM     73  C   UNL A   1      47.376  31.892  40.523  1.00  0.00     0.060 A 
BRANCH  73  74
ATOM     74  S   UNL A   1      48.969  31.933  41.368  1.00  0.00     0.124 S 
ATOM     75  O   UNL A   1      49.536  30.631  41.026  1.00  0.00    -0.237 OA
ATOM     76  O   UNL A   1      49.609  33.088  40.750  1.00  0.00    -0.237 OA
ATOM     77  O   UNL A   1      48.605  32.096  42.773  1.00  0.00    -0.744 OA
ENDBRANCH  73  74
ENDBRANCH  52  66
BRANCH  53  78
ATOM     78  C   UNL A   1      38.379  33.393  31.515  1.00  0.00     0.058 A 
ATOM     79  C   UNL A   1      37.499  32.286  31.591  1.00  0.00     0.135 A 
ATOM     80  C   UNL A   1      38.268  34.198  30.373  1.00  0.00     0.135 A 
ATOM     81  F   UNL A   1      37.565  31.461  32.649  1.00  0.00    -0.206 F 
ATOM     82  C   UNL A   1      36.464  32.079  30.679  1.00  0.00     0.059 A 
ATOM     83  C   UNL A   1      37.238  34.005  29.438  1.00  0.00     0.059 A 
ATOM     84  F   UNL A   1      39.057  35.270  30.226  1.00  0.00    -0.206 F 
ATOM     85  C   UNL A   1      36.311  32.975  29.627  1.00  0.00     0.060 A 
BRANCH  85  86
ATOM     86  S   UNL A   1      34.797  32.922  28.629  1.00  0.00     0.124 S 
ATOM     87  O   UNL A   1      33.805  33.446  29.561  1.00  0.00    -0.237 OA
ATOM     88  O   UNL A   1      35.120  33.781  27.493  1.00  0.00    -0.237 OA
ATOM     89  O   UNL A   1      34.683  31.503  28.309  1.00  0.00    -0.744 OA
ENDBRANCH  85  86
ENDBRANCH  53  78
BRANCH  65  90
ATOM     90  C   UNL A   1      38.213  33.139  38.926  1.00  0.00     0.058 A 
ATOM     91  C   UNL A   1      38.170  34.054  39.988  1.00  0.00     0.135 A 
ATOM     92  C   UNL A   1      37.360  32.014  39.043  1.00  0.00     0.135 A 
ATOM     93  F   UNL A   1      38.868  35.199  39.946  1.00  0.00    -0.206 F 
ATOM     94  C   UNL A   1      37.376  33.844  41.116  1.00  0.00     0.059 A 
ATOM     95  C   UNL A   1      36.517  31.814  40.130  1.00  0.00     0.059 A 
ATOM     96  F   UNL A   1      37.312  31.070  38.090  1.00  0.00    -0.206 F 
ATOM     97  C   UNL A   1      36.551  32.723  41.177  1.00  0.00     0.060 A 
BRANCH  97  98
ATOM     98  S   UNL A   1      35.481  32.467  42.603  1.00  0.00     0.124 S 
ATOM     99  O   UNL A   1      34.931  33.805  42.795  1.00  0.00    -0.237 OA
ATOM    100  O   UNL A   1      34.538  31.461  42.124  1.00  0.00    -0.237 OA
ATOM    101  O   UNL A   1      36.405  32.008  43.635  1.00  0.00    -0.744 OA
ENDBRANCH  97  98
ENDBRANCH  65  90
ENDBRANCH  39  40
ENDBRANCH  32  34
ENDBRANCH  31  32
ENDBRANCH  30  31
ENDBRANCH  29  30
ENDBRANCH  28  29
ENDBRANCH   1  28
TORSDOF 24
ENDMDL
MODEL 3
REMARK VINA RESULT:      -8.9      4.009      8.119
REMARK SMILES Cc1cccc(Nc2nc(C)c(CCO)c(OCC(=O)OCCOCCOC(=O)c3ccc(-c4c5nc(c(-c6c(F)cc(S(=O)(=O)[O-])cc6F)c6ccc([nH]6)c(-c6c(F)cc(S(=O)(=O)[O-])cc6F)c6nc(c(-c7c(F)cc(S(=O)(=O)[O-])cc7F)c7ccc4[nH]7)C=C6)C=C5)cc3)n2)c1
REMARK SMILES IDX 23 1 22 2 21 3 19 4 20 5 18 6 17 7 16 8 8 9 9 10 96 11 10 12
REMARK SMILES IDX 11 13 12 14 7 15 6 17 1 18 2 19 3 20 97 21 4 22 5 23 13 24
REMARK SMILES IDX 14 25 15 26 24 28 25 29 26 30 27 31 28 32 29 33 30 34 31 35
REMARK SMILES IDX 95 36 32 37 94 38 33 39 34 40 35 41 88 42 36 43 93 44 87 45
REMARK SMILES IDX 89 46 37 47 92 48 86 49 85 50 38 52 72 53 51 54 71 55 52 56
REMARK SMILES IDX 55 57 70 58 90 59 53 60 54 61 69 63 91 64 56 65 39 66 40 67
REMARK SMILES IDX 49 68 41 69 42 70 48 71 50 72 43 73 44 74 45 75 46 76 47 77
REMARK SMILES IDX 73 78 74 79 83 80 75 81 76 82 82 83 84 84 77 85 78 86 79 87
REMARK SMILES IDX 80 88 81 89 57 90 58 91 67 92 59 93 60 94 66 95 68 96 61 97
REMARK SMILES IDX 62 98 63 99 64 100 65 101
REMARK H PARENT 7 16 15 27 89 51 55 62
REMARK Flexibility Score: inf
ROOT
ATOM      1  C   UNL A   1      40.247  21.923  26.414  1.00  0.00     0.202 C 
ENDROOT
BRANCH   1   2
ATOM      2  C   UNL A   1      39.082  22.721  25.833  1.00  0.00     0.261 C 
BRANCH   2   3
ATOM      3  O   UNL A   1      38.122  21.989  25.081  1.00  0.00    -0.461 OA
BRANCH   3   4
ATOM      4  C   UNL A   1      37.010  22.647  24.673  1.00  0.00     0.344 C 
ATOM      5  O   UNL A   1      36.832  23.098  23.548  1.00  0.00    -0.248 OA
BRANCH   4   6
ATOM      6  C   UNL A   1      35.954  22.602  25.772  1.00  0.00     0.353 C 
BRANCH   6   7
ATOM      7  O   UNL A   1      34.746  21.974  25.341  1.00  0.00    -0.465 OA
BRANCH   7   8
ATOM      8  C   UNL A   1      33.685  22.774  25.694  1.00  0.00     0.222 A 
ATOM      9  C   UNL A   1      33.013  24.850  26.329  1.00  0.00     0.230 A 
ATOM     10  N   UNL A   1      31.757  24.427  26.528  1.00  0.00    -0.218 NA
ATOM     11  N   UNL A   1      34.013  24.041  25.972  1.00  0.00    -0.177 NA
ATOM     12  C   UNL A   1      31.459  23.152  26.189  1.00  0.00     0.050 A 
ATOM     13  C   UNL A   1      30.017  22.777  26.364  1.00  0.00     0.067 C 
ATOM     14  C   UNL A   1      32.397  22.277  25.658  1.00  0.00     0.038 A 
BRANCH   9  15
ATOM     15  N   UNL A   1      33.192  26.234  26.306  1.00  0.00    -0.324 N 
ATOM     16  H   UNL A   1      33.758  26.631  27.007  1.00  0.00     0.170 HD
BRANCH  15  17
ATOM     17  C   UNL A   1      32.623  27.105  25.356  1.00  0.00     0.041 A 
ATOM     18  C   UNL A   1      29.362  27.444  23.394  1.00  0.00     0.044 C 
ATOM     19  C   UNL A   1      30.744  27.703  23.911  1.00  0.00    -0.049 A 
ATOM     20  C   UNL A   1      31.478  28.782  23.405  1.00  0.00     0.003 A 
ATOM     21  C   UNL A   1      31.317  26.882  24.899  1.00  0.00     0.029 A 
ATOM     22  C   UNL A   1      32.756  29.044  23.883  1.00  0.00     0.002 A 
ATOM     23  C   UNL A   1      33.314  28.218  24.856  1.00  0.00     0.026 A 
ENDBRANCH  15  17
ENDBRANCH   9  15
BRANCH  14  24
ATOM     24  C   UNL A   1      32.014  20.908  25.155  1.00  0.00     0.071 C 
BRANCH  24  25
ATOM     25  C   UNL A   1      32.866  19.695  25.563  1.00  0.00     0.161 C 
BRANCH  25  26
ATOM     26  O   UNL A   1      33.228  19.731  26.939  1.00  0.00    -0.396 OA
ATOM     27  H   UNL A   1      33.831  20.475  27.097  1.00  0.00     0.210 HD
ENDBRANCH  25  26
ENDBRANCH  24  25
ENDBRANCH  14  24
ENDBRANCH   7   8
ENDBRANCH   6   7
ENDBRANCH   4   6
ENDBRANCH   3   4
ENDBRANCH   2   3
ENDBRANCH   1   2
BRANCH   1  28
ATOM     28  O   UNL A   1      41.559  22.073  25.896  1.00  0.00    -0.374 OA
BRANCH  28  29
ATOM     29  C   UNL A   1      42.575  22.626  26.731  1.00  0.00     0.202 C 
BRANCH  29  30
ATOM     30  C   UNL A   1      43.099  24.027  26.400  1.00  0.00     0.261 C 
BRANCH  30  31
ATOM     31  O   UNL A   1      42.074  25.025  26.422  1.00  0.00    -0.460 OA
BRANCH  31  32
ATOM     32  C   UNL A   1      41.855  25.659  27.614  1.00  0.00     0.338 C 
ATOM     33  O   UNL A   1      42.440  25.544  28.663  1.00  0.00    -0.246 OA
BRANCH  32  34
ATOM     34  C   UNL A   1      40.964  26.783  27.254  1.00  0.00     0.060 A 
ATOM     35  C   UNL A   1      41.504  28.033  26.964  1.00  0.00     0.016 A 
ATOM     36  C   UNL A   1      39.647  26.653  27.694  1.00  0.00     0.016 A 
ATOM     37  C   UNL A   1      40.823  29.160  27.409  1.00  0.00     0.010 A 
ATOM     38  C   UNL A   1      39.013  27.774  28.200  1.00  0.00     0.010 A 
ATOM     39  C   UNL A   1      39.720  28.979  28.251  1.00  0.00    -0.014 A 
BRANCH  39  40
ATOM     40  C   UNL A   1      39.522  29.854  29.427  1.00  0.00     0.031 A 
ATOM     41  C   UNL A   1      38.384  30.772  29.490  1.00  0.00     0.074 A 
ATOM     42  C   UNL A   1      40.268  29.761  30.555  1.00  0.00     0.049 A 
ATOM     43  N   UNL A   1      38.439  32.020  29.173  1.00  0.00    -0.248 NA
ATOM     44  C   UNL A   1      37.088  30.312  29.992  1.00  0.00     0.031 C 
ATOM     45  C   UNL A   1      40.187  30.606  31.744  1.00  0.00     0.029 A 
ATOM     46  N   UNL A   1      41.345  28.926  30.827  1.00  0.00    -0.354 N 
ATOM     47  C   UNL A   1      37.285  32.567  29.696  1.00  0.00     0.074 A 
ATOM     48  C   UNL A   1      36.402  31.456  30.011  1.00  0.00     0.031 C 
ATOM     49  C   UNL A   1      41.329  30.464  32.444  1.00  0.00     0.029 A 
ATOM     50  C   UNL A   1      42.202  29.532  31.741  1.00  0.00     0.049 A 
ATOM     51  H   UNL A   1      41.482  28.034  30.431  1.00  0.00     0.167 HD
ATOM     52  C   UNL A   1      37.266  33.784  30.313  1.00  0.00     0.037 A 
ATOM     53  C   UNL A   1      43.507  29.738  31.411  1.00  0.00     0.037 A 
ATOM     54  C   UNL A   1      38.606  34.126  30.810  1.00  0.00     0.049 A 
ATOM     55  C   UNL A   1      43.664  31.145  30.859  1.00  0.00     0.074 A 
ATOM     56  C   UNL A   1      39.122  34.136  32.098  1.00  0.00     0.029 A 
ATOM     57  N   UNL A   1      39.711  34.175  29.960  1.00  0.00    -0.354 N 
ATOM     58  N   UNL A   1      42.685  32.012  30.842  1.00  0.00    -0.248 NA
ATOM     59  C   UNL A   1      44.886  31.712  30.293  1.00  0.00     0.031 C 
ATOM     60  C   UNL A   1      40.538  34.114  32.017  1.00  0.00     0.029 A 
ATOM     61  C   UNL A   1      40.897  34.119  30.680  1.00  0.00     0.049 A 
ATOM     62  H   UNL A   1      39.659  34.240  28.979  1.00  0.00     0.167 HD
ATOM     63  C   UNL A   1      43.070  33.170  30.232  1.00  0.00     0.074 A 
ATOM     64  C   UNL A   1      44.476  32.948  29.941  1.00  0.00     0.031 C 
ATOM     65  C   UNL A   1      42.196  34.200  30.012  1.00  0.00     0.037 A 
BRANCH  52  66
ATOM     66  C   UNL A   1      35.953  34.371  30.808  1.00  0.00     0.058 A 
ATOM     67  C   UNL A   1      35.675  34.595  32.169  1.00  0.00     0.135 A 
ATOM     68  C   UNL A   1      34.931  34.791  29.919  1.00  0.00     0.135 A 
ATOM     69  F   UNL A   1      36.593  34.365  33.116  1.00  0.00    -0.206 F 
ATOM     70  C   UNL A   1      34.443  35.084  32.618  1.00  0.00     0.059 A 
ATOM     71  C   UNL A   1      33.679  35.242  30.343  1.00  0.00     0.059 A 
ATOM     72  F   UNL A   1      35.123  34.773  28.588  1.00  0.00    -0.206 F 
ATOM     73  C   UNL A   1      33.441  35.383  31.701  1.00  0.00     0.060 A 
BRANCH  73  74
ATOM     74  S   UNL A   1      31.844  35.970  32.300  1.00  0.00     0.124 S 
ATOM     75  O   UNL A   1      31.189  36.400  31.067  1.00  0.00    -0.237 OA
ATOM     76  O   UNL A   1      31.298  34.771  32.926  1.00  0.00    -0.237 OA
ATOM     77  O   UNL A   1      32.200  37.049  33.217  1.00  0.00    -0.744 OA
ENDBRANCH  73  74
ENDBRANCH  52  66
BRANCH  53  78
ATOM     78  C   UNL A   1      44.182  28.452  31.036  1.00  0.00     0.058 A 
ATOM     79  C   UNL A   1      44.464  28.291  29.657  1.00  0.00     0.135 A 
ATOM     80  C   UNL A   1      44.913  27.646  31.918  1.00  0.00     0.135 A 
ATOM     81  F   UNL A   1      43.784  29.018  28.755  1.00  0.00    -0.206 F 
ATOM     82  C   UNL A   1      45.516  27.505  29.188  1.00  0.00     0.059 A 
ATOM     83  C   UNL A   1      45.973  26.842  31.467  1.00  0.00     0.059 A 
ATOM     84  F   UNL A   1      44.715  27.741  33.239  1.00  0.00    -0.206 F 
ATOM     85  C   UNL A   1      46.298  26.818  30.108  1.00  0.00     0.060 A 
BRANCH  85  86
ATOM     86  S   UNL A   1      47.855  26.062  29.560  1.00  0.00     0.124 S 
ATOM     87  O   UNL A   1      48.368  25.498  30.803  1.00  0.00    -0.237 OA
ATOM     88  O   UNL A   1      47.417  25.098  28.555  1.00  0.00    -0.237 OA
ATOM     89  O   UNL A   1      48.588  27.207  29.029  1.00  0.00    -0.744 OA
ENDBRANCH  85  86
ENDBRANCH  53  78
BRANCH  65  90
ATOM     90  C   UNL A   1      42.509  35.449  29.231  1.00  0.00     0.058 A 
ATOM     91  C   UNL A   1      41.990  35.727  27.958  1.00  0.00     0.135 A 
ATOM     92  C   UNL A   1      43.256  36.489  29.835  1.00  0.00     0.135 A 
ATOM     93  F   UNL A   1      41.193  34.853  27.326  1.00  0.00    -0.206 F 
ATOM     94  C   UNL A   1      42.240  36.935  27.303  1.00  0.00     0.059 A 
ATOM     95  C   UNL A   1      43.468  37.720  29.228  1.00  0.00     0.059 A 
ATOM     96  F   UNL A   1      43.802  36.341  31.053  1.00  0.00    -0.206 F 
ATOM     97  C   UNL A   1      42.978  37.926  27.947  1.00  0.00     0.060 A 
BRANCH  97  98
ATOM     98  S   UNL A   1      43.262  39.508  27.136  1.00  0.00     0.124 S 
ATOM     99  O   UNL A   1      43.391  40.401  28.283  1.00  0.00    -0.237 OA
ATOM    100  O   UNL A   1      44.488  39.271  26.380  1.00  0.00    -0.237 OA
ATOM    101  O   UNL A   1      42.061  39.688  26.326  1.00  0.00    -0.744 OA
ENDBRANCH  97  98
ENDBRANCH  65  90
ENDBRANCH  39  40
ENDBRANCH  32  34
ENDBRANCH  31  32
ENDBRANCH  30  31
ENDBRANCH  29  30
ENDBRANCH  28  29
ENDBRANCH   1  28
TORSDOF 24
ENDMDL
