MODEL 1
REMARK VINA RESULT:     -10.7      0.000      0.000
REMARK SMILES CC(C)CN(C)c1cc2c(cc1Cl)C=C(C(=O)OCCOCCOC(=O)c1ccc(-c3c4nc(c(-c5c(F)cc(S(=O)(=O)[O-])cc5F)c5ccc([nH]5)c(-c5c(F)cc(S(=O)(=O)[O-])cc5F)c5nc(c(-c6c(F)cc(S(=O)(=O)[O-])cc6F)c6ccc3[nH]6)C=C5)C=C4)cc1)[C@H](C(F)(F)F)O2
REMARK SMILES IDX 21 1 20 2 19 3 18 4 16 5 17 6 15 7 7 8 8 9 12 10 9 11 11 12
REMARK SMILES IDX 13 13 10 14 98 15 14 16 93 17 5 18 6 19 4 20 2 21 1 22 3 23
REMARK SMILES IDX 94 24 95 25 96 26 97 27 22 28 23 29 24 30 25 31 26 32 27 33
REMARK SMILES IDX 28 34 92 35 29 36 91 37 30 38 31 39 32 40 85 41 33 42 90 43
REMARK SMILES IDX 84 44 86 45 34 46 89 47 83 48 82 49 35 51 69 52 48 53 68 54
REMARK SMILES IDX 49 55 52 56 67 57 87 58 50 59 51 60 66 62 88 63 53 64 36 65
REMARK SMILES IDX 37 66 46 67 38 68 39 69 45 70 47 71 40 72 41 73 42 74 43 75
REMARK SMILES IDX 44 76 70 77 71 78 80 79 72 80 73 81 79 82 81 83 74 84 75 85
REMARK SMILES IDX 76 86 77 87 78 88 54 89 55 90 64 91 56 92 57 93 63 94 65 95
REMARK SMILES IDX 58 96 59 97 60 98 61 99 62 100
REMARK H PARENT 86 50 52 61
REMARK Flexibility Score: inf
ROOT
ATOM      1  O   UNL A   1      39.814  21.891  26.081  1.00  0.00    -0.374 OA
ENDROOT
BRANCH   1   2
ATOM      2  C   UNL A   1      38.914  22.900  26.537  1.00  0.00     0.202 C 
BRANCH   2   3
ATOM      3  C   UNL A   1      37.644  23.130  25.716  1.00  0.00     0.261 C 
BRANCH   3   4
ATOM      4  O   UNL A   1      36.533  22.385  26.241  1.00  0.00    -0.460 OA
BRANCH   4   5
ATOM      5  C   UNL A   1      35.598  22.085  25.321  1.00  0.00     0.338 C 
ATOM      6  O   UNL A   1      35.574  21.075  24.630  1.00  0.00    -0.246 OA
BRANCH   5   7
ATOM      7  C   UNL A   1      34.501  23.074  25.305  1.00  0.00     0.087 C 
ATOM      8  C   UNL A   1      32.131  27.318  23.977  1.00  0.00     0.059 A 
ATOM      9  C   UNL A   1      32.001  26.415  25.054  1.00  0.00     0.074 A 
ATOM     10  C   UNL A   1      33.130  27.044  23.022  1.00  0.00     0.065 A 
ATOM     11  C   UNL A   1      32.794  25.266  25.139  1.00  0.00     0.130 A 
ATOM     12  C   UNL A   1      33.836  25.843  23.045  1.00  0.00     0.034 A 
ATOM     13  Cl  UNL A   1      33.610  28.186  21.812  1.00  0.00    -0.082 Cl
ATOM     14  C   UNL A   1      33.661  24.956  24.101  1.00  0.00     0.019 A 
ATOM     15  O   UNL A   1      32.675  24.499  26.262  1.00  0.00    -0.475 OA
ATOM     16  C   UNL A   1      34.470  23.764  24.158  1.00  0.00     0.027 C 
ATOM     17  C   UNL A   1      33.612  23.388  26.486  1.00  0.00     0.316 C 
BRANCH   8  18
ATOM     18  N   UNL A   1      31.285  28.430  23.860  1.00  0.00    -0.373 N 
ATOM     19  C   UNL A   1      31.374  29.409  24.941  1.00  0.00     0.143 C 
BRANCH  18  20
ATOM     20  C   UNL A   1      29.951  28.202  23.261  1.00  0.00     0.119 C 
BRANCH  20  21
ATOM     21  C   UNL A   1      29.154  29.509  23.042  1.00  0.00     0.002 C 
ATOM     22  C   UNL A   1      29.550  30.226  21.746  1.00  0.00     0.009 C 
ATOM     23  C   UNL A   1      27.644  29.258  23.011  1.00  0.00     0.009 C 
ENDBRANCH  20  21
ENDBRANCH  18  20
ENDBRANCH   8  18
BRANCH  17  24
ATOM     24  C   UNL A   1      32.770  22.203  27.004  1.00  0.00     0.430 C 
ATOM     25  F   UNL A   1      31.617  22.612  27.583  1.00  0.00    -0.167 F 
ATOM     26  F   UNL A   1      32.460  21.331  26.019  1.00  0.00    -0.167 F 
ATOM     27  F   UNL A   1      33.440  21.490  27.945  1.00  0.00    -0.167 F 
ENDBRANCH  17  24
ENDBRANCH   5   7
ENDBRANCH   4   5
ENDBRANCH   3   4
ENDBRANCH   2   3
ENDBRANCH   1   2
BRANCH   1  28
ATOM     28  C   UNL A   1      41.101  21.821  26.699  1.00  0.00     0.202 C 
BRANCH  28  29
ATOM     29  C   UNL A   1      42.233  22.661  26.088  1.00  0.00     0.261 C 
BRANCH  29  30
ATOM     30  O   UNL A   1      41.931  24.067  26.083  1.00  0.00    -0.460 OA
BRANCH  30  31
ATOM     31  C   UNL A   1      42.946  24.885  26.455  1.00  0.00     0.338 C 
ATOM     32  O   UNL A   1      44.033  25.001  25.910  1.00  0.00    -0.246 OA
BRANCH  31  33
ATOM     33  C   UNL A   1      42.458  25.818  27.494  1.00  0.00     0.060 A 
ATOM     34  C   UNL A   1      41.327  25.537  28.260  1.00  0.00     0.016 A 
ATOM     35  C   UNL A   1      43.170  27.009  27.693  1.00  0.00     0.016 A 
ATOM     36  C   UNL A   1      40.933  26.438  29.256  1.00  0.00     0.010 A 
ATOM     37  C   UNL A   1      42.775  27.906  28.686  1.00  0.00     0.010 A 
ATOM     38  C   UNL A   1      41.667  27.617  29.493  1.00  0.00    -0.014 A 
BRANCH  38  39
ATOM     39  C   UNL A   1      41.359  28.470  30.670  1.00  0.00     0.031 A 
ATOM     40  C   UNL A   1      42.156  28.383  31.939  1.00  0.00     0.074 A 
ATOM     41  C   UNL A   1      40.319  29.323  30.585  1.00  0.00     0.049 A 
ATOM     42  N   UNL A   1      42.036  29.092  33.033  1.00  0.00    -0.248 NA
ATOM     43  C   UNL A   1      43.220  27.371  31.993  1.00  0.00     0.031 C 
ATOM     44  C   UNL A   1      39.449  29.468  29.415  1.00  0.00     0.029 A 
ATOM     45  N   UNL A   1      39.821  30.231  31.484  1.00  0.00    -0.354 N 
ATOM     46  C   UNL A   1      43.024  28.636  33.896  1.00  0.00     0.074 A 
ATOM     47  C   UNL A   1      43.697  27.546  33.220  1.00  0.00     0.031 C 
ATOM     48  C   UNL A   1      38.552  30.438  29.653  1.00  0.00     0.029 A 
ATOM     49  C   UNL A   1      38.758  30.958  31.001  1.00  0.00     0.049 A 
ATOM     50  H   UNL A   1      40.190  30.352  32.389  1.00  0.00     0.167 HD
ATOM     51  C   UNL A   1      43.353  29.103  35.126  1.00  0.00     0.037 A 
ATOM     52  C   UNL A   1      38.031  31.936  31.576  1.00  0.00     0.037 A 
ATOM     53  C   UNL A   1      42.664  30.177  35.800  1.00  0.00     0.049 A 
ATOM     54  C   UNL A   1      38.377  32.386  32.969  1.00  0.00     0.074 A 
ATOM     55  C   UNL A   1      42.938  30.727  37.041  1.00  0.00     0.029 A 
ATOM     56  N   UNL A   1      41.562  30.857  35.300  1.00  0.00    -0.354 N 
ATOM     57  N   UNL A   1      39.353  31.985  33.748  1.00  0.00    -0.248 NA
ATOM     58  C   UNL A   1      37.522  33.424  33.564  1.00  0.00     0.031 C 
ATOM     59  C   UNL A   1      41.974  31.704  37.312  1.00  0.00     0.029 A 
ATOM     60  C   UNL A   1      41.132  31.803  36.217  1.00  0.00     0.049 A 
ATOM     61  H   UNL A   1      41.147  30.692  34.423  1.00  0.00     0.167 HD
ATOM     62  C   UNL A   1      39.247  32.741  34.911  1.00  0.00     0.074 A 
ATOM     63  C   UNL A   1      38.121  33.633  34.727  1.00  0.00     0.031 C 
ATOM     64  C   UNL A   1      40.013  32.695  36.028  1.00  0.00     0.037 A 
BRANCH  51  65
ATOM     65  C   UNL A   1      44.529  28.477  35.826  1.00  0.00     0.058 A 
ATOM     66  C   UNL A   1      45.829  28.975  35.648  1.00  0.00     0.135 A 
ATOM     67  C   UNL A   1      44.351  27.433  36.750  1.00  0.00     0.135 A 
ATOM     68  F   UNL A   1      46.060  29.967  34.771  1.00  0.00    -0.206 F 
ATOM     69  C   UNL A   1      46.912  28.454  36.348  1.00  0.00     0.059 A 
ATOM     70  C   UNL A   1      45.417  26.914  37.481  1.00  0.00     0.059 A 
ATOM     71  F   UNL A   1      43.129  26.921  36.963  1.00  0.00    -0.206 F 
ATOM     72  C   UNL A   1      46.695  27.427  37.267  1.00  0.00     0.060 A 
BRANCH  72  73
ATOM     73  S   UNL A   1      48.114  26.780  38.177  1.00  0.00     0.124 S 
ATOM     74  O   UNL A   1      47.938  27.416  39.479  1.00  0.00    -0.237 OA
ATOM     75  O   UNL A   1      47.876  25.341  38.138  1.00  0.00    -0.237 OA
ATOM     76  O   UNL A   1      49.260  27.247  37.402  1.00  0.00    -0.744 OA
ENDBRANCH  72  73
ENDBRANCH  51  65
BRANCH  52  77
ATOM     77  C   UNL A   1      36.927  32.584  30.819  1.00  0.00     0.058 A 
ATOM     78  C   UNL A   1      35.592  32.217  31.044  1.00  0.00     0.135 A 
ATOM     79  C   UNL A   1      37.178  33.584  29.866  1.00  0.00     0.135 A 
ATOM     80  F   UNL A   1      35.301  31.262  31.940  1.00  0.00    -0.206 F 
ATOM     81  C   UNL A   1      34.546  32.802  30.337  1.00  0.00     0.059 A 
ATOM     82  C   UNL A   1      36.147  34.205  29.169  1.00  0.00     0.059 A 
ATOM     83  F   UNL A   1      38.437  33.983  29.625  1.00  0.00    -0.206 F 
ATOM     84  C   UNL A   1      34.835  33.800  29.405  1.00  0.00     0.060 A 
BRANCH  84  85
ATOM     85  S   UNL A   1      33.464  34.574  28.522  1.00  0.00     0.124 S 
ATOM     86  O   UNL A   1      34.126  35.708  27.887  1.00  0.00    -0.237 OA
ATOM     87  O   UNL A   1      33.033  33.503  27.631  1.00  0.00    -0.237 OA
ATOM     88  O   UNL A   1      32.525  34.910  29.588  1.00  0.00    -0.744 OA
ENDBRANCH  84  85
ENDBRANCH  52  77
BRANCH  64  89
ATOM     89  C   UNL A   1      39.682  33.650  37.144  1.00  0.00     0.058 A 
ATOM     90  C   UNL A   1      38.799  33.297  38.177  1.00  0.00     0.135 A 
ATOM     91  C   UNL A   1      40.309  34.904  37.220  1.00  0.00     0.135 A 
ATOM     92  F   UNL A   1      38.166  32.114  38.151  1.00  0.00    -0.206 F 
ATOM     93  C   UNL A   1      38.538  34.159  39.237  1.00  0.00     0.059 A 
ATOM     94  C   UNL A   1      40.086  35.771  38.287  1.00  0.00     0.059 A 
ATOM     95  F   UNL A   1      41.168  35.291  36.264  1.00  0.00    -0.206 F 
ATOM     96  C   UNL A   1      39.194  35.391  39.288  1.00  0.00     0.060 A 
BRANCH  96  97
ATOM     97  S   UNL A   1      38.880  36.476  40.697  1.00  0.00     0.124 S 
ATOM     98  O   UNL A   1      37.925  35.689  41.470  1.00  0.00    -0.237 OA
ATOM     99  O   UNL A   1      40.210  36.613  41.284  1.00  0.00    -0.237 OA
ATOM    100  O   UNL A   1      38.344  37.687  40.084  1.00  0.00    -0.744 OA
ENDBRANCH  96  97
ENDBRANCH  64  89
ENDBRANCH  38  39
ENDBRANCH  31  33
ENDBRANCH  30  31
ENDBRANCH  29  30
ENDBRANCH  28  29
ENDBRANCH   1  28
TORSDOF 21
ENDMDL
MODEL 2
REMARK VINA RESULT:     -10.5      6.107     11.837
REMARK SMILES CC(C)CN(C)c1cc2c(cc1Cl)C=C(C(=O)OCCOCCOC(=O)c1ccc(-c3c4nc(c(-c5c(F)cc(S(=O)(=O)[O-])cc5F)c5ccc([nH]5)c(-c5c(F)cc(S(=O)(=O)[O-])cc5F)c5nc(c(-c6c(F)cc(S(=O)(=O)[O-])cc6F)c6ccc3[nH]6)C=C5)C=C4)cc1)[C@H](C(F)(F)F)O2
REMARK SMILES IDX 21 1 20 2 19 3 18 4 16 5 17 6 15 7 7 8 8 9 12 10 9 11 11 12
REMARK SMILES IDX 13 13 10 14 98 15 14 16 93 17 5 18 6 19 4 20 2 21 1 22 3 23
REMARK SMILES IDX 94 24 95 25 96 26 97 27 22 28 23 29 24 30 25 31 26 32 27 33
REMARK SMILES IDX 28 34 92 35 29 36 91 37 30 38 31 39 32 40 85 41 33 42 90 43
REMARK SMILES IDX 84 44 86 45 34 46 89 47 83 48 82 49 35 51 69 52 48 53 68 54
REMARK SMILES IDX 49 55 52 56 67 57 87 58 50 59 51 60 66 62 88 63 53 64 36 65
REMARK SMILES IDX 37 66 46 67 38 68 39 69 45 70 47 71 40 72 41 73 42 74 43 75
REMARK SMILES IDX 44 76 70 77 71 78 80 79 72 80 73 81 79 82 81 83 74 84 75 85
REMARK SMILES IDX 76 86 77 87 78 88 54 89 55 90 64 91 56 92 57 93 63 94 65 95
REMARK SMILES IDX 58 96 59 97 60 98 61 99 62 100
REMARK H PARENT 86 50 52 61
REMARK Flexibility Score: inf
ROOT
ATOM      1  O   UNL A   1      34.288  32.929  28.089  1.00  0.00    -0.374 OA
ENDROOT
BRANCH   1   2
ATOM      2  C   UNL A   1      34.488  31.584  27.656  1.00  0.00     0.202 C 
BRANCH   2   3
ATOM      3  C   UNL A   1      33.247  30.789  27.246  1.00  0.00     0.261 C 
BRANCH   3   4
ATOM      4  O   UNL A   1      33.578  29.719  26.346  1.00  0.00    -0.460 OA
BRANCH   4   5
ATOM      5  C   UNL A   1      32.507  29.153  25.758  1.00  0.00     0.338 C 
ATOM      6  O   UNL A   1      31.418  29.687  25.596  1.00  0.00    -0.246 OA
BRANCH   5   7
ATOM      7  C   UNL A   1      32.819  27.820  25.206  1.00  0.00     0.087 C 
ATOM      8  C   UNL A   1      33.710  22.863  25.336  1.00  0.00     0.059 A 
ATOM      9  C   UNL A   1      33.995  23.888  24.410  1.00  0.00     0.074 A 
ATOM     10  C   UNL A   1      33.034  23.228  26.517  1.00  0.00     0.065 A 
ATOM     11  C   UNL A   1      33.575  25.204  24.630  1.00  0.00     0.130 A 
ATOM     12  C   UNL A   1      32.515  24.510  26.679  1.00  0.00     0.034 A 
ATOM     13  Cl  UNL A   1      32.864  22.161  27.870  1.00  0.00    -0.082 Cl
ATOM     14  C   UNL A   1      32.783  25.492  25.732  1.00  0.00     0.019 A 
ATOM     15  O   UNL A   1      33.977  26.153  23.736  1.00  0.00    -0.475 OA
ATOM     16  C   UNL A   1      32.319  26.838  25.964  1.00  0.00     0.027 C 
ATOM     17  C   UNL A   1      33.720  27.573  24.018  1.00  0.00     0.316 C 
BRANCH   8  18
ATOM     18  N   UNL A   1      34.073  21.533  25.076  1.00  0.00    -0.373 N 
ATOM     19  C   UNL A   1      32.965  20.589  24.945  1.00  0.00     0.143 C 
BRANCH  18  20
ATOM     20  C   UNL A   1      35.315  21.036  25.712  1.00  0.00     0.119 C 
BRANCH  20  21
ATOM     21  C   UNL A   1      36.509  20.966  24.732  1.00  0.00     0.002 C 
ATOM     22  C   UNL A   1      37.426  22.190  24.838  1.00  0.00     0.009 C 
ATOM     23  C   UNL A   1      37.355  19.710  24.954  1.00  0.00     0.009 C 
ENDBRANCH  20  21
ENDBRANCH  18  20
ENDBRANCH   8  18
BRANCH  17  24
ATOM     24  C   UNL A   1      33.242  28.203  22.692  1.00  0.00     0.430 C 
ATOM     25  F   UNL A   1      32.995  27.269  21.745  1.00  0.00    -0.167 F 
ATOM     26  F   UNL A   1      32.123  28.943  22.856  1.00  0.00    -0.167 F 
ATOM     27  F   UNL A   1      34.177  29.038  22.172  1.00  0.00    -0.167 F 
ENDBRANCH  17  24
ENDBRANCH   5   7
ENDBRANCH   4   5
ENDBRANCH   3   4
ENDBRANCH   2   3
ENDBRANCH   1   2
BRANCH   1  28
ATOM     28  C   UNL A   1      34.334  33.187  29.494  1.00  0.00     0.202 C 
BRANCH  28  29
ATOM     29  C   UNL A   1      35.658  32.922  30.227  1.00  0.00     0.261 C 
BRANCH  29  30
ATOM     30  O   UNL A   1      35.931  31.517  30.374  1.00  0.00    -0.460 OA
BRANCH  30  31
ATOM     31  C   UNL A   1      36.786  31.188  31.373  1.00  0.00     0.338 C 
ATOM     32  O   UNL A   1      36.541  31.157  32.569  1.00  0.00    -0.246 OA
BRANCH  31  33
ATOM     33  C   UNL A   1      38.021  30.626  30.784  1.00  0.00     0.060 A 
ATOM     34  C   UNL A   1      38.207  30.547  29.404  1.00  0.00     0.016 A 
ATOM     35  C   UNL A   1      39.016  30.168  31.660  1.00  0.00     0.016 A 
ATOM     36  C   UNL A   1      39.412  30.042  28.903  1.00  0.00     0.010 A 
ATOM     37  C   UNL A   1      40.216  29.662  31.158  1.00  0.00     0.010 A 
ATOM     38  C   UNL A   1      40.434  29.618  29.775  1.00  0.00    -0.014 A 
BRANCH  38  39
ATOM     39  C   UNL A   1      41.775  29.263  29.243  1.00  0.00     0.031 A 
ATOM     40  C   UNL A   1      42.895  30.262  29.192  1.00  0.00     0.074 A 
ATOM     41  C   UNL A   1      41.968  28.012  28.780  1.00  0.00     0.049 A 
ATOM     42  N   UNL A   1      44.131  30.090  28.798  1.00  0.00    -0.248 NA
ATOM     43  C   UNL A   1      42.590  31.631  29.633  1.00  0.00     0.031 C 
ATOM     44  C   UNL A   1      40.944  26.965  28.745  1.00  0.00     0.029 A 
ATOM     45  N   UNL A   1      43.083  27.404  28.261  1.00  0.00    -0.354 N 
ATOM     46  C   UNL A   1      44.763  31.314  28.968  1.00  0.00     0.074 A 
ATOM     47  C   UNL A   1      43.755  32.240  29.446  1.00  0.00     0.031 C 
ATOM     48  C   UNL A   1      41.489  25.834  28.273  1.00  0.00     0.029 A 
ATOM     49  C   UNL A   1      42.887  26.081  27.936  1.00  0.00     0.049 A 
ATOM     50  H   UNL A   1      43.941  27.868  28.134  1.00  0.00     0.167 HD
ATOM     51  C   UNL A   1      46.067  31.628  28.770  1.00  0.00     0.037 A 
ATOM     52  C   UNL A   1      43.738  25.168  27.428  1.00  0.00     0.037 A 
ATOM     53  C   UNL A   1      47.059  30.704  28.276  1.00  0.00     0.049 A 
ATOM     54  C   UNL A   1      45.163  25.564  27.154  1.00  0.00     0.074 A 
ATOM     55  C   UNL A   1      48.409  30.929  28.058  1.00  0.00     0.029 A 
ATOM     56  N   UNL A   1      46.814  29.388  27.912  1.00  0.00    -0.354 N 
ATOM     57  N   UNL A   1      45.758  26.712  27.378  1.00  0.00    -0.248 NA
ATOM     58  C   UNL A   1      46.034  24.542  26.556  1.00  0.00     0.031 C 
ATOM     59  C   UNL A   1      48.968  29.767  27.518  1.00  0.00     0.029 A 
ATOM     60  C   UNL A   1      47.981  28.797  27.451  1.00  0.00     0.049 A 
ATOM     61  H   UNL A   1      45.941  28.938  27.974  1.00  0.00     0.167 HD
ATOM     62  C   UNL A   1      47.079  26.539  26.976  1.00  0.00     0.074 A 
ATOM     63  C   UNL A   1      47.198  25.173  26.510  1.00  0.00     0.031 C 
ATOM     64  C   UNL A   1      48.097  27.433  26.992  1.00  0.00     0.037 A 
BRANCH  51  65
ATOM     65  C   UNL A   1      46.516  33.023  29.109  1.00  0.00     0.058 A 
ATOM     66  C   UNL A   1      47.046  33.328  30.373  1.00  0.00     0.135 A 
ATOM     67  C   UNL A   1      46.506  34.043  28.143  1.00  0.00     0.135 A 
ATOM     68  F   UNL A   1      47.074  32.395  31.339  1.00  0.00    -0.206 F 
ATOM     69  C   UNL A   1      47.535  34.596  30.673  1.00  0.00     0.059 A 
ATOM     70  C   UNL A   1      47.014  35.312  28.413  1.00  0.00     0.059 A 
ATOM     71  F   UNL A   1      46.015  33.807  26.916  1.00  0.00    -0.206 F 
ATOM     72  C   UNL A   1      47.519  35.580  29.684  1.00  0.00     0.060 A 
BRANCH  72  73
ATOM     73  S   UNL A   1      48.177  37.211  30.091  1.00  0.00     0.124 S 
ATOM     74  O   UNL A   1      47.780  37.986  28.919  1.00  0.00    -0.237 OA
ATOM     75  O   UNL A   1      47.471  37.529  31.328  1.00  0.00    -0.237 OA
ATOM     76  O   UNL A   1      49.611  36.978  30.230  1.00  0.00    -0.744 OA
ENDBRANCH  72  73
ENDBRANCH  51  65
BRANCH  52  77
ATOM     77  C   UNL A   1      43.273  23.777  27.182  1.00  0.00     0.058 A 
ATOM     78  C   UNL A   1      42.793  23.395  25.921  1.00  0.00     0.135 A 
ATOM     79  C   UNL A   1      43.307  22.803  28.191  1.00  0.00     0.135 A 
ATOM     80  F   UNL A   1      42.735  24.292  24.924  1.00  0.00    -0.206 F 
ATOM     81  C   UNL A   1      42.343  22.102  25.673  1.00  0.00     0.059 A 
ATOM     82  C   UNL A   1      42.891  21.495  27.960  1.00  0.00     0.059 A 
ATOM     83  F   UNL A   1      43.774  23.113  29.411  1.00  0.00    -0.206 F 
ATOM     84  C   UNL A   1      42.401  21.158  26.700  1.00  0.00     0.060 A 
BRANCH  84  85
ATOM     85  S   UNL A   1      41.847  19.475  26.353  1.00  0.00     0.124 S 
ATOM     86  O   UNL A   1      40.410  19.667  26.188  1.00  0.00    -0.237 OA
ATOM     87  O   UNL A   1      42.593  19.154  25.141  1.00  0.00    -0.237 OA
ATOM     88  O   UNL A   1      42.250  18.735  27.545  1.00  0.00    -0.744 OA
ENDBRANCH  84  85
ENDBRANCH  52  77
BRANCH  64  89
ATOM     89  C   UNL A   1      49.445  26.969  26.510  1.00  0.00     0.058 A 
ATOM     90  C   UNL A   1      50.397  26.430  27.391  1.00  0.00     0.135 A 
ATOM     91  C   UNL A   1      49.763  26.995  25.142  1.00  0.00     0.135 A 
ATOM     92  F   UNL A   1      50.149  26.388  28.709  1.00  0.00    -0.206 F 
ATOM     93  C   UNL A   1      51.620  25.949  26.935  1.00  0.00     0.059 A 
ATOM     94  C   UNL A   1      50.968  26.492  24.660  1.00  0.00     0.059 A 
ATOM     95  F   UNL A   1      48.887  27.492  24.253  1.00  0.00    -0.206 F 
ATOM     96  C   UNL A   1      51.893  25.976  25.566  1.00  0.00     0.060 A 
BRANCH  96  97
ATOM     97  S   UNL A   1      53.465  25.302  24.988  1.00  0.00     0.124 S 
ATOM     98  O   UNL A   1      53.281  23.874  25.227  1.00  0.00    -0.237 OA
ATOM     99  O   UNL A   1      53.483  25.714  23.587  1.00  0.00    -0.237 OA
ATOM    100  O   UNL A   1      54.453  25.957  25.840  1.00  0.00    -0.744 OA
ENDBRANCH  96  97
ENDBRANCH  64  89
ENDBRANCH  38  39
ENDBRANCH  31  33
ENDBRANCH  30  31
ENDBRANCH  29  30
ENDBRANCH  28  29
ENDBRANCH   1  28
TORSDOF 21
ENDMDL
MODEL 3
REMARK VINA RESULT:     -10.4      6.143     11.657
REMARK SMILES CC(C)CN(C)c1cc2c(cc1Cl)C=C(C(=O)OCCOCCOC(=O)c1ccc(-c3c4nc(c(-c5c(F)cc(S(=O)(=O)[O-])cc5F)c5ccc([nH]5)c(-c5c(F)cc(S(=O)(=O)[O-])cc5F)c5nc(c(-c6c(F)cc(S(=O)(=O)[O-])cc6F)c6ccc3[nH]6)C=C5)C=C4)cc1)[C@H](C(F)(F)F)O2
REMARK SMILES IDX 21 1 20 2 19 3 18 4 16 5 17 6 15 7 7 8 8 9 12 10 9 11 11 12
REMARK SMILES IDX 13 13 10 14 98 15 14 16 93 17 5 18 6 19 4 20 2 21 1 22 3 23
REMARK SMILES IDX 94 24 95 25 96 26 97 27 22 28 23 29 24 30 25 31 26 32 27 33
REMARK SMILES IDX 28 34 92 35 29 36 91 37 30 38 31 39 32 40 85 41 33 42 90 43
REMARK SMILES IDX 84 44 86 45 34 46 89 47 83 48 82 49 35 51 69 52 48 53 68 54
REMARK SMILES IDX 49 55 52 56 67 57 87 58 50 59 51 60 66 62 88 63 53 64 36 65
REMARK SMILES IDX 37 66 46 67 38 68 39 69 45 70 47 71 40 72 41 73 42 74 43 75
REMARK SMILES IDX 44 76 70 77 71 78 80 79 72 80 73 81 79 82 81 83 74 84 75 85
REMARK SMILES IDX 76 86 77 87 78 88 54 89 55 90 64 91 56 92 57 93 63 94 65 95
REMARK SMILES IDX 58 96 59 97 60 98 61 99 62 100
REMARK H PARENT 86 50 52 61
REMARK Flexibility Score: inf
ROOT
ATOM      1  O   UNL A   1      34.180  33.032  28.032  1.00  0.00    -0.374 OA
ENDROOT
BRANCH   1   2
ATOM      2  C   UNL A   1      34.287  31.658  27.662  1.00  0.00     0.202 C 
BRANCH   2   3
ATOM      3  C   UNL A   1      33.007  30.952  27.215  1.00  0.00     0.261 C 
BRANCH   3   4
ATOM      4  O   UNL A   1      33.274  29.619  26.748  1.00  0.00    -0.460 OA
BRANCH   4   5
ATOM      5  C   UNL A   1      32.388  29.176  25.836  1.00  0.00     0.338 C 
ATOM      6  O   UNL A   1      31.426  29.804  25.412  1.00  0.00    -0.246 OA
BRANCH   5   7
ATOM      7  C   UNL A   1      32.767  27.857  25.290  1.00  0.00     0.087 C 
ATOM      8  C   UNL A   1      33.843  22.937  25.440  1.00  0.00     0.059 A 
ATOM      9  C   UNL A   1      34.117  23.976  24.524  1.00  0.00     0.074 A 
ATOM     10  C   UNL A   1      33.118  23.274  26.600  1.00  0.00     0.065 A 
ATOM     11  C   UNL A   1      33.640  25.274  24.734  1.00  0.00     0.130 A 
ATOM     12  C   UNL A   1      32.546  24.534  26.749  1.00  0.00     0.034 A 
ATOM     13  Cl  UNL A   1      32.949  22.197  27.946  1.00  0.00    -0.082 Cl
ATOM     14  C   UNL A   1      32.805  25.529  25.811  1.00  0.00     0.019 A 
ATOM     15  O   UNL A   1      34.033  26.240  23.854  1.00  0.00    -0.475 OA
ATOM     16  C   UNL A   1      32.282  26.854  26.032  1.00  0.00     0.027 C 
ATOM     17  C   UNL A   1      33.713  27.648  24.130  1.00  0.00     0.316 C 
BRANCH   8  18
ATOM     18  N   UNL A   1      34.265  21.623  25.189  1.00  0.00    -0.373 N 
ATOM     19  C   UNL A   1      33.199  20.637  25.028  1.00  0.00     0.143 C 
BRANCH  18  20
ATOM     20  C   UNL A   1      35.507  21.175  25.857  1.00  0.00     0.119 C 
BRANCH  20  21
ATOM     21  C   UNL A   1      36.756  21.290  24.952  1.00  0.00     0.002 C 
ATOM     22  C   UNL A   1      37.813  22.238  25.529  1.00  0.00     0.009 C 
ATOM     23  C   UNL A   1      37.411  19.928  24.710  1.00  0.00     0.009 C 
ENDBRANCH  20  21
ENDBRANCH  18  20
ENDBRANCH   8  18
BRANCH  17  24
ATOM     24  C   UNL A   1      33.251  28.264  22.791  1.00  0.00     0.430 C 
ATOM     25  F   UNL A   1      31.905  28.228  22.652  1.00  0.00    -0.167 F 
ATOM     26  F   UNL A   1      33.655  29.546  22.656  1.00  0.00    -0.167 F 
ATOM     27  F   UNL A   1      33.764  27.590  21.730  1.00  0.00    -0.167 F 
ENDBRANCH  17  24
ENDBRANCH   5   7
ENDBRANCH   4   5
ENDBRANCH   3   4
ENDBRANCH   2   3
ENDBRANCH   1   2
BRANCH   1  28
ATOM     28  C   UNL A   1      34.244  33.352  29.424  1.00  0.00     0.202 C 
BRANCH  28  29
ATOM     29  C   UNL A   1      35.554  33.051  30.167  1.00  0.00     0.261 C 
BRANCH  29  30
ATOM     30  O   UNL A   1      35.814  31.640  30.270  1.00  0.00    -0.460 OA
BRANCH  30  31
ATOM     31  C   UNL A   1      36.614  31.265  31.298  1.00  0.00     0.338 C 
ATOM     32  O   UNL A   1      36.310  31.202  32.479  1.00  0.00    -0.246 OA
BRANCH  31  33
ATOM     33  C   UNL A   1      37.867  30.698  30.752  1.00  0.00     0.060 A 
ATOM     34  C   UNL A   1      38.092  30.601  29.379  1.00  0.00     0.016 A 
ATOM     35  C   UNL A   1      38.837  30.255  31.662  1.00  0.00     0.016 A 
ATOM     36  C   UNL A   1      39.312  30.093  28.920  1.00  0.00     0.010 A 
ATOM     37  C   UNL A   1      40.052  29.746  31.202  1.00  0.00     0.010 A 
ATOM     38  C   UNL A   1      40.310  29.684  29.826  1.00  0.00    -0.014 A 
BRANCH  38  39
ATOM     39  C   UNL A   1      41.667  29.326  29.338  1.00  0.00     0.031 A 
ATOM     40  C   UNL A   1      42.000  27.936  28.878  1.00  0.00     0.074 A 
ATOM     41  C   UNL A   1      42.617  30.282  29.334  1.00  0.00     0.049 A 
ATOM     42  N   UNL A   1      43.124  27.483  28.385  1.00  0.00    -0.248 NA
ATOM     43  C   UNL A   1      40.942  26.922  28.991  1.00  0.00     0.031 C 
ATOM     44  C   UNL A   1      42.420  31.659  29.791  1.00  0.00     0.029 A 
ATOM     45  N   UNL A   1      43.926  30.251  28.927  1.00  0.00    -0.354 N 
ATOM     46  C   UNL A   1      42.905  26.141  28.099  1.00  0.00     0.074 A 
ATOM     47  C   UNL A   1      41.556  25.838  28.532  1.00  0.00     0.031 C 
ATOM     48  C   UNL A   1      43.553  32.352  29.600  1.00  0.00     0.029 A 
ATOM     49  C   UNL A   1      44.567  31.463  29.043  1.00  0.00     0.049 A 
ATOM     50  H   UNL A   1      44.365  29.440  28.584  1.00  0.00     0.167 HD
ATOM     51  C   UNL A   1      43.744  25.255  27.506  1.00  0.00     0.037 A 
ATOM     52  C   UNL A   1      45.829  31.820  28.731  1.00  0.00     0.037 A 
ATOM     53  C   UNL A   1      45.092  25.561  27.095  1.00  0.00     0.049 A 
ATOM     54  C   UNL A   1      46.758  30.797  28.138  1.00  0.00     0.074 A 
ATOM     55  C   UNL A   1      46.009  24.731  26.473  1.00  0.00     0.029 A 
ATOM     56  N   UNL A   1      45.723  26.784  27.272  1.00  0.00    -0.354 N 
ATOM     57  N   UNL A   1      46.514  29.548  27.819  1.00  0.00    -0.248 NA
ATOM     58  C   UNL A   1      48.135  31.230  27.862  1.00  0.00     0.031 C 
ATOM     59  C   UNL A   1      47.207  25.435  26.318  1.00  0.00     0.029 A 
ATOM     60  C   UNL A   1      47.022  26.723  26.792  1.00  0.00     0.049 A 
ATOM     61  H   UNL A   1      45.309  27.580  27.678  1.00  0.00     0.167 HD
ATOM     62  C   UNL A   1      47.698  29.056  27.279  1.00  0.00     0.074 A 
ATOM     63  C   UNL A   1      48.651  30.146  27.300  1.00  0.00     0.031 C 
ATOM     64  C   UNL A   1      47.967  27.813  26.810  1.00  0.00     0.037 A 
BRANCH  51  65
ATOM     65  C   UNL A   1      43.227  23.868  27.237  1.00  0.00     0.058 A 
ATOM     66  C   UNL A   1      42.754  23.503  25.966  1.00  0.00     0.135 A 
ATOM     67  C   UNL A   1      43.287  22.868  28.223  1.00  0.00     0.135 A 
ATOM     68  F   UNL A   1      42.666  24.419  24.988  1.00  0.00    -0.206 F 
ATOM     69  C   UNL A   1      42.345  22.203  25.686  1.00  0.00     0.059 A 
ATOM     70  C   UNL A   1      42.908  21.554  27.956  1.00  0.00     0.059 A 
ATOM     71  F   UNL A   1      43.734  23.159  29.454  1.00  0.00    -0.206 F 
ATOM     72  C   UNL A   1      42.431  21.234  26.686  1.00  0.00     0.060 A 
BRANCH  72  73
ATOM     73  S   UNL A   1      41.913  19.550  26.291  1.00  0.00     0.124 S 
ATOM     74  O   UNL A   1      40.473  19.722  26.119  1.00  0.00    -0.237 OA
ATOM     75  O   UNL A   1      42.668  19.272  25.075  1.00  0.00    -0.237 OA
ATOM     76  O   UNL A   1      42.314  18.784  27.467  1.00  0.00    -0.744 OA
ENDBRANCH  72  73
ENDBRANCH  51  65
BRANCH  52  77
ATOM     77  C   UNL A   1      46.275  33.223  28.940  1.00  0.00     0.058 A 
ATOM     78  C   UNL A   1      46.162  34.172  27.912  1.00  0.00     0.135 A 
ATOM     79  C   UNL A   1      46.812  33.649  30.165  1.00  0.00     0.135 A 
ATOM     80  F   UNL A   1      45.660  33.813  26.720  1.00  0.00    -0.206 F 
ATOM     81  C   UNL A   1      46.585  35.486  28.083  1.00  0.00     0.059 A 
ATOM     82  C   UNL A   1      47.214  34.965  30.370  1.00  0.00     0.059 A 
ATOM     83  F   UNL A   1      46.927  32.785  31.186  1.00  0.00    -0.206 F 
ATOM     84  C   UNL A   1      47.105  35.873  29.319  1.00  0.00     0.060 A 
BRANCH  84  85
ATOM     85  S   UNL A   1      47.616  37.591  29.536  1.00  0.00     0.124 S 
ATOM     86  O   UNL A   1      49.069  37.468  29.541  1.00  0.00    -0.237 OA
ATOM     87  O   UNL A   1      47.032  38.232  28.363  1.00  0.00    -0.237 OA
ATOM     88  O   UNL A   1      47.012  37.963  30.812  1.00  0.00    -0.744 OA
ENDBRANCH  84  85
ENDBRANCH  52  77
BRANCH  64  89
ATOM     89  C   UNL A   1      49.344  27.556  26.258  1.00  0.00     0.058 A 
ATOM     90  C   UNL A   1      50.430  27.256  27.096  1.00  0.00     0.135 A 
ATOM     91  C   UNL A   1      49.566  27.539  24.871  1.00  0.00     0.135 A 
ATOM     92  F   UNL A   1      50.277  27.266  28.430  1.00  0.00    -0.206 F 
ATOM     93  C   UNL A   1      51.688  26.963  26.581  1.00  0.00     0.059 A 
ATOM     94  C   UNL A   1      50.809  27.219  24.332  1.00  0.00     0.059 A 
ATOM     95  F   UNL A   1      48.562  27.811  24.022  1.00  0.00    -0.206 F 
ATOM     96  C   UNL A   1      51.866  26.939  25.196  1.00  0.00     0.060 A 
BRANCH  96  97
ATOM     97  S   UNL A   1      53.494  26.508  24.544  1.00  0.00     0.124 S 
ATOM     98  O   UNL A   1      53.717  27.574  23.574  1.00  0.00    -0.237 OA
ATOM     99  O   UNL A   1      54.328  26.555  25.741  1.00  0.00    -0.237 OA
ATOM    100  O   UNL A   1      53.295  25.177  23.978  1.00  0.00    -0.744 OA
ENDBRANCH  96  97
ENDBRANCH  64  89
ENDBRANCH  38  39
ENDBRANCH  31  33
ENDBRANCH  30  31
ENDBRANCH  29  30
ENDBRANCH  28  29
ENDBRANCH   1  28
TORSDOF 21
ENDMDL
