MODEL 1
REMARK VINA RESULT:     -10.8      0.000      0.000
REMARK SMILES CC(C)[C@@H](CNC(=O)[C@@H]1CC[C@@H]2CCCC[C@@H]2[NH2+]1)C(=O)OCCOCCOC(=O)c1ccc(-c2c3nc(c(-c4c(F)cc(S(=O)(=O)[O-])cc4F)c4ccc([nH]4)c(-c4c(F)cc(S(=O)(=O)[O-])cc4F)c4nc(c(-c5c(F)cc(S(=O)(=O)[O-])cc5F)c5ccc2[nH]5)C=C4)C=C3)cc1
REMARK SMILES IDX 24 1 23 2 22 3 21 4 19 5 20 6 4 7 2 8 1 9 3 10 5 11 6 12
REMARK SMILES IDX 7 13 8 15 9 16 10 17 18 18 11 19 17 20 12 23 16 24 13 25
REMARK SMILES IDX 15 26 14 27 25 28 26 29 27 30 28 31 29 32 30 33 31 34 95 35
REMARK SMILES IDX 32 36 94 37 33 38 34 39 35 40 88 41 36 42 93 43 87 44 89 45
REMARK SMILES IDX 37 46 92 47 86 48 85 49 38 51 72 52 51 53 71 54 52 55 55 56
REMARK SMILES IDX 70 57 90 58 53 59 54 60 69 62 91 63 56 64 39 65 40 66 49 67
REMARK SMILES IDX 41 68 42 69 48 70 50 71 43 72 44 73 45 74 46 75 47 76 73 77
REMARK SMILES IDX 74 78 83 79 75 80 76 81 82 82 84 83 77 84 78 85 79 86 80 87
REMARK SMILES IDX 81 88 57 89 58 90 67 91 59 92 60 93 66 94 68 95 61 96 62 97
REMARK SMILES IDX 63 98 64 99 65 100
REMARK H PARENT 6 14 18 21 18 22 89 50 55 61
REMARK Flexibility Score: inf
ROOT
ATOM      1  O   UNL A   1      34.827  30.869  27.717  1.00  0.00    -0.374 OA
ENDROOT
BRANCH   1   2
ATOM      2  C   UNL A   1      33.872  30.097  27.014  1.00  0.00     0.202 C 
BRANCH   2   3
ATOM      3  C   UNL A   1      33.856  28.571  27.182  1.00  0.00     0.261 C 
BRANCH   3   4
ATOM      4  O   UNL A   1      33.025  27.761  26.335  1.00  0.00    -0.463 OA
BRANCH   4   5
ATOM      5  C   UNL A   1      31.726  27.630  26.696  1.00  0.00     0.311 C 
ATOM      6  O   UNL A   1      31.307  27.757  27.843  1.00  0.00    -0.252 OA
BRANCH   5   7
ATOM      7  C   UNL A   1      30.803  27.238  25.545  1.00  0.00     0.121 C 
BRANCH   7   8
ATOM      8  C   UNL A   1      30.831  28.101  24.246  1.00  0.00    -0.001 C 
ATOM      9  C   UNL A   1      29.550  27.898  23.418  1.00  0.00     0.008 C 
ATOM     10  C   UNL A   1      30.951  29.604  24.520  1.00  0.00     0.008 C 
ENDBRANCH   7   8
BRANCH   7  11
ATOM     11  C   UNL A   1      30.998  25.723  25.296  1.00  0.00     0.131 C 
BRANCH  11  12
ATOM     12  N   UNL A   1      31.820  25.397  24.141  1.00  0.00    -0.350 N 
ATOM     13  C   UNL A   1      32.989  24.722  23.992  1.00  0.00     0.278 C 
ATOM     14  H   UNL A   1      31.453  25.735  23.293  1.00  0.00     0.163 HD
ATOM     15  O   UNL A   1      33.133  24.207  22.871  1.00  0.00    -0.268 OA
BRANCH  13  16
ATOM     16  C   UNL A   1      34.087  24.496  25.081  1.00  0.00     0.272 C 
ATOM     17  C   UNL A   1      35.469  23.983  24.707  1.00  0.00     0.076 C 
ATOM     18  N   UNL A   1      33.536  23.624  26.167  1.00  0.00    -0.333 N 
ATOM     19  C   UNL A   1      35.388  22.548  24.235  1.00  0.00     0.016 C 
ATOM     20  C   UNL A   1      33.558  22.162  25.925  1.00  0.00     0.186 C 
ATOM     21  H   UNL A   1      32.565  23.898  26.319  1.00  0.00     0.347 HD
ATOM     22  H   UNL A   1      34.153  23.773  26.966  1.00  0.00     0.347 HD
ATOM     23  C   UNL A   1      34.903  21.656  25.372  1.00  0.00     0.048 C 
ATOM     24  C   UNL A   1      32.304  21.642  25.192  1.00  0.00     0.065 C 
ATOM     25  C   UNL A   1      34.903  20.172  24.972  1.00  0.00     0.010 C 
ATOM     26  C   UNL A   1      32.568  20.672  24.051  1.00  0.00     0.006 C 
ATOM     27  C   UNL A   1      33.602  19.619  24.396  1.00  0.00     0.001 C 
ENDBRANCH  13  16
ENDBRANCH  11  12
ENDBRANCH   7  11
ENDBRANCH   5   7
ENDBRANCH   4   5
ENDBRANCH   3   4
ENDBRANCH   2   3
ENDBRANCH   1   2
BRANCH   1  28
ATOM     28  C   UNL A   1      34.362  32.016  28.415  1.00  0.00     0.202 C 
BRANCH  28  29
ATOM     29  C   UNL A   1      35.109  32.423  29.688  1.00  0.00     0.261 C 
BRANCH  29  30
ATOM     30  O   UNL A   1      35.943  31.366  30.219  1.00  0.00    -0.460 OA
BRANCH  30  31
ATOM     31  C   UNL A   1      37.222  31.744  30.468  1.00  0.00     0.338 C 
ATOM     32  O   UNL A   1      37.573  32.721  31.111  1.00  0.00    -0.246 OA
BRANCH  31  33
ATOM     33  C   UNL A   1      38.210  30.757  29.983  1.00  0.00     0.060 A 
ATOM     34  C   UNL A   1      39.278  30.458  30.837  1.00  0.00     0.016 A 
ATOM     35  C   UNL A   1      38.214  30.291  28.666  1.00  0.00     0.016 A 
ATOM     36  C   UNL A   1      40.396  29.778  30.352  1.00  0.00     0.010 A 
ATOM     37  C   UNL A   1      39.341  29.606  28.180  1.00  0.00     0.010 A 
ATOM     38  C   UNL A   1      40.464  29.402  29.003  1.00  0.00    -0.014 A 
BRANCH  38  39
ATOM     39  C   UNL A   1      41.782  28.970  28.454  1.00  0.00     0.031 A 
ATOM     40  C   UNL A   1      42.916  29.964  28.380  1.00  0.00     0.074 A 
ATOM     41  C   UNL A   1      42.012  27.685  28.125  1.00  0.00     0.049 A 
ATOM     42  N   UNL A   1      44.174  29.766  28.072  1.00  0.00    -0.248 NA
ATOM     43  C   UNL A   1      42.590  31.362  28.697  1.00  0.00     0.031 C 
ATOM     44  C   UNL A   1      41.016  26.618  28.159  1.00  0.00     0.029 A 
ATOM     45  N   UNL A   1      43.162  27.057  27.713  1.00  0.00    -0.354 N 
ATOM     46  C   UNL A   1      44.791  31.007  28.172  1.00  0.00     0.074 A 
ATOM     47  C   UNL A   1      43.760  31.961  28.523  1.00  0.00     0.031 C 
ATOM     48  C   UNL A   1      41.598  25.463  27.793  1.00  0.00     0.029 A 
ATOM     49  C   UNL A   1      43.008  25.710  27.492  1.00  0.00     0.049 A 
ATOM     50  H   UNL A   1      44.017  27.528  27.587  1.00  0.00     0.167 HD
ATOM     51  C   UNL A   1      46.098  31.327  28.004  1.00  0.00     0.037 A 
ATOM     52  C   UNL A   1      43.898  24.777  27.100  1.00  0.00     0.037 A 
ATOM     53  C   UNL A   1      47.131  30.387  27.652  1.00  0.00     0.049 A 
ATOM     54  C   UNL A   1      45.341  25.160  26.890  1.00  0.00     0.074 A 
ATOM     55  C   UNL A   1      48.487  30.620  27.483  1.00  0.00     0.029 A 
ATOM     56  N   UNL A   1      46.928  29.038  27.409  1.00  0.00    -0.354 N 
ATOM     57  N   UNL A   1      45.914  26.330  27.035  1.00  0.00    -0.248 NA
ATOM     58  C   UNL A   1      46.259  24.089  26.479  1.00  0.00     0.031 C 
ATOM     59  C   UNL A   1      49.095  29.419  27.098  1.00  0.00     0.029 A 
ATOM     60  C   UNL A   1      48.126  28.430  27.071  1.00  0.00     0.049 A 
ATOM     61  H   UNL A   1      46.059  28.579  27.466  1.00  0.00     0.167 HD
ATOM     62  C   UNL A   1      47.264  26.130  26.759  1.00  0.00     0.074 A 
ATOM     63  C   UNL A   1      47.423  24.724  26.452  1.00  0.00     0.031 C 
ATOM     64  C   UNL A   1      48.280  27.030  26.763  1.00  0.00     0.037 A 
BRANCH  51  65
ATOM     65  C   UNL A   1      46.486  32.768  28.190  1.00  0.00     0.058 A 
ATOM     66  C   UNL A   1      46.972  33.247  29.416  1.00  0.00     0.135 A 
ATOM     67  C   UNL A   1      46.401  33.674  27.120  1.00  0.00     0.135 A 
ATOM     68  F   UNL A   1      47.058  32.427  30.476  1.00  0.00    -0.206 F 
ATOM     69  C   UNL A   1      47.335  34.580  29.584  1.00  0.00     0.059 A 
ATOM     70  C   UNL A   1      46.782  35.005  27.258  1.00  0.00     0.059 A 
ATOM     71  F   UNL A   1      45.944  33.267  25.925  1.00  0.00    -0.206 F 
ATOM     72  C   UNL A   1      47.233  35.452  28.499  1.00  0.00     0.060 A 
BRANCH  72  73
ATOM     73  S   UNL A   1      47.706  37.180  28.730  1.00  0.00     0.124 S 
ATOM     74  O   UNL A   1      46.414  37.850  28.624  1.00  0.00    -0.237 OA
ATOM     75  O   UNL A   1      48.305  37.166  30.061  1.00  0.00    -0.237 OA
ATOM     76  O   UNL A   1      48.634  37.428  27.631  1.00  0.00    -0.744 OA
ENDBRANCH  72  73
ENDBRANCH  51  65
BRANCH  52  77
ATOM     77  C   UNL A   1      43.457  23.371  26.895  1.00  0.00     0.058 A 
ATOM     78  C   UNL A   1      43.183  22.528  27.982  1.00  0.00     0.135 A 
ATOM     79  C   UNL A   1      43.311  22.845  25.603  1.00  0.00     0.135 A 
ATOM     80  F   UNL A   1      43.322  22.983  29.236  1.00  0.00    -0.206 F 
ATOM     81  C   UNL A   1      42.794  21.205  27.796  1.00  0.00     0.059 A 
ATOM     82  C   UNL A   1      42.899  21.532  25.392  1.00  0.00     0.059 A 
ATOM     83  F   UNL A   1      43.552  23.614  24.531  1.00  0.00    -0.206 F 
ATOM     84  C   UNL A   1      42.654  20.717  26.496  1.00  0.00     0.060 A 
BRANCH  84  85
ATOM     85  S   UNL A   1      42.103  19.013  26.263  1.00  0.00     0.124 S 
ATOM     86  O   UNL A   1      42.258  18.469  27.607  1.00  0.00    -0.237 OA
ATOM     87  O   UNL A   1      40.729  19.194  25.801  1.00  0.00    -0.237 OA
ATOM     88  O   UNL A   1      43.030  18.496  25.261  1.00  0.00    -0.744 OA
ENDBRANCH  84  85
ENDBRANCH  52  77
BRANCH  64  89
ATOM     89  C   UNL A   1      49.660  26.514  26.456  1.00  0.00     0.058 A 
ATOM     90  C   UNL A   1      50.160  26.475  25.143  1.00  0.00     0.135 A 
ATOM     91  C   UNL A   1      50.500  26.064  27.488  1.00  0.00     0.135 A 
ATOM     92  F   UNL A   1      49.401  26.892  24.119  1.00  0.00    -0.206 F 
ATOM     93  C   UNL A   1      51.425  25.969  24.862  1.00  0.00     0.059 A 
ATOM     94  C   UNL A   1      51.779  25.578  27.232  1.00  0.00     0.059 A 
ATOM     95  F   UNL A   1      50.079  26.094  28.762  1.00  0.00    -0.206 F 
ATOM     96  C   UNL A   1      52.225  25.515  25.913  1.00  0.00     0.060 A 
BRANCH  96  97
ATOM     97  S   UNL A   1      53.863  24.851  25.538  1.00  0.00     0.124 S 
ATOM     98  O   UNL A   1      54.526  24.959  26.832  1.00  0.00    -0.237 OA
ATOM     99  O   UNL A   1      53.559  23.495  25.092  1.00  0.00    -0.237 OA
ATOM    100  O   UNL A   1      54.361  25.748  24.499  1.00  0.00    -0.744 OA
ENDBRANCH  96  97
ENDBRANCH  64  89
ENDBRANCH  38  39
ENDBRANCH  31  33
ENDBRANCH  30  31
ENDBRANCH  29  30
ENDBRANCH  28  29
ENDBRANCH   1  28
TORSDOF 21
ENDMDL
MODEL 2
REMARK VINA RESULT:     -10.7      2.195      8.859
REMARK SMILES CC(C)[C@@H](CNC(=O)[C@@H]1CC[C@@H]2CCCC[C@@H]2[NH2+]1)C(=O)OCCOCCOC(=O)c1ccc(-c2c3nc(c(-c4c(F)cc(S(=O)(=O)[O-])cc4F)c4ccc([nH]4)c(-c4c(F)cc(S(=O)(=O)[O-])cc4F)c4nc(c(-c5c(F)cc(S(=O)(=O)[O-])cc5F)c5ccc2[nH]5)C=C4)C=C3)cc1
REMARK SMILES IDX 24 1 23 2 22 3 21 4 19 5 20 6 4 7 2 8 1 9 3 10 5 11 6 12
REMARK SMILES IDX 7 13 8 15 9 16 10 17 18 18 11 19 17 20 12 23 16 24 13 25
REMARK SMILES IDX 15 26 14 27 25 28 26 29 27 30 28 31 29 32 30 33 31 34 95 35
REMARK SMILES IDX 32 36 94 37 33 38 34 39 35 40 88 41 36 42 93 43 87 44 89 45
REMARK SMILES IDX 37 46 92 47 86 48 85 49 38 51 72 52 51 53 71 54 52 55 55 56
REMARK SMILES IDX 70 57 90 58 53 59 54 60 69 62 91 63 56 64 39 65 40 66 49 67
REMARK SMILES IDX 41 68 42 69 48 70 50 71 43 72 44 73 45 74 46 75 47 76 73 77
REMARK SMILES IDX 74 78 83 79 75 80 76 81 82 82 84 83 77 84 78 85 79 86 80 87
REMARK SMILES IDX 81 88 57 89 58 90 67 91 59 92 60 93 66 94 68 95 61 96 62 97
REMARK SMILES IDX 63 98 64 99 65 100
REMARK H PARENT 6 14 18 21 18 22 89 50 55 61
REMARK Flexibility Score: inf
ROOT
ATOM      1  O   UNL A   1      37.157  22.180  25.913  1.00  0.00    -0.374 OA
ENDROOT
BRANCH   1   2
ATOM      2  C   UNL A   1      36.480  22.918  24.915  1.00  0.00     0.202 C 
BRANCH   2   3
ATOM      3  C   UNL A   1      35.455  22.216  24.013  1.00  0.00     0.261 C 
BRANCH   3   4
ATOM      4  O   UNL A   1      34.049  22.410  24.231  1.00  0.00    -0.463 OA
BRANCH   4   5
ATOM      5  C   UNL A   1      33.447  23.389  23.512  1.00  0.00     0.311 C 
ATOM      6  O   UNL A   1      33.978  24.000  22.590  1.00  0.00    -0.252 OA
BRANCH   5   7
ATOM      7  C   UNL A   1      32.039  23.730  23.994  1.00  0.00     0.121 C 
BRANCH   7   8
ATOM      8  C   UNL A   1      31.858  24.227  25.461  1.00  0.00    -0.001 C 
ATOM      9  C   UNL A   1      31.231  23.132  26.343  1.00  0.00     0.008 C 
ATOM     10  C   UNL A   1      33.175  24.636  26.128  1.00  0.00     0.008 C 
ENDBRANCH   7   8
BRANCH   7  11
ATOM     11  C   UNL A   1      31.404  24.662  22.934  1.00  0.00     0.131 C 
BRANCH  11  12
ATOM     12  N   UNL A   1      30.593  25.740  23.478  1.00  0.00    -0.350 N 
ATOM     13  C   UNL A   1      30.550  27.078  23.252  1.00  0.00     0.278 C 
ATOM     14  H   UNL A   1      29.940  25.436  24.149  1.00  0.00     0.163 HD
ATOM     15  O   UNL A   1      29.445  27.593  23.489  1.00  0.00    -0.268 OA
BRANCH  13  16
ATOM     16  C   UNL A   1      31.701  27.970  22.684  1.00  0.00     0.272 C 
ATOM     17  C   UNL A   1      33.135  27.466  22.641  1.00  0.00     0.076 C 
ATOM     18  N   UNL A   1      31.686  29.299  23.375  1.00  0.00    -0.333 N 
ATOM     19  C   UNL A   1      33.687  27.333  24.044  1.00  0.00     0.016 C 
ATOM     20  C   UNL A   1      32.358  29.373  24.694  1.00  0.00     0.186 C 
ATOM     21  H   UNL A   1      30.711  29.565  23.510  1.00  0.00     0.347 HD
ATOM     22  H   UNL A   1      32.219  29.920  22.767  1.00  0.00     0.347 HD
ATOM     23  C   UNL A   1      33.744  28.703  24.711  1.00  0.00     0.048 C 
ATOM     24  C   UNL A   1      31.434  29.010  25.875  1.00  0.00     0.065 C 
ATOM     25  C   UNL A   1      34.395  28.634  26.101  1.00  0.00     0.010 C 
ATOM     26  C   UNL A   1      32.034  28.073  26.911  1.00  0.00     0.006 C 
ATOM     27  C   UNL A   1      33.456  28.438  27.288  1.00  0.00     0.001 C 
ENDBRANCH  13  16
ENDBRANCH  11  12
ENDBRANCH   7  11
ENDBRANCH   5   7
ENDBRANCH   4   5
ENDBRANCH   3   4
ENDBRANCH   2   3
ENDBRANCH   1   2
BRANCH   1  28
ATOM     28  C   UNL A   1      38.560  22.010  25.768  1.00  0.00     0.202 C 
BRANCH  28  29
ATOM     29  C   UNL A   1      39.095  20.578  25.668  1.00  0.00     0.261 C 
BRANCH  29  30
ATOM     30  O   UNL A   1      40.015  20.242  26.733  1.00  0.00    -0.460 OA
BRANCH  30  31
ATOM     31  C   UNL A   1      41.253  19.889  26.303  1.00  0.00     0.338 C 
ATOM     32  O   UNL A   1      41.547  18.857  25.720  1.00  0.00    -0.246 OA
BRANCH  31  33
ATOM     33  C   UNL A   1      42.248  20.967  26.491  1.00  0.00     0.060 A 
ATOM     34  C   UNL A   1      42.565  21.313  27.810  1.00  0.00     0.016 A 
ATOM     35  C   UNL A   1      42.704  21.753  25.431  1.00  0.00     0.016 A 
ATOM     36  C   UNL A   1      43.253  22.496  28.078  1.00  0.00     0.010 A 
ATOM     37  C   UNL A   1      43.398  22.945  25.705  1.00  0.00     0.010 A 
ATOM     38  C   UNL A   1      43.620  23.355  27.032  1.00  0.00    -0.014 A 
BRANCH  38  39
ATOM     39  C   UNL A   1      44.062  24.738  27.373  1.00  0.00     0.031 A 
ATOM     40  C   UNL A   1      45.499  25.136  27.141  1.00  0.00     0.074 A 
ATOM     41  C   UNL A   1      43.180  25.669  27.782  1.00  0.00     0.049 A 
ATOM     42  N   UNL A   1      46.058  26.317  27.233  1.00  0.00    -0.248 NA
ATOM     43  C   UNL A   1      46.426  24.064  26.750  1.00  0.00     0.031 C 
ATOM     44  C   UNL A   1      41.762  25.430  28.037  1.00  0.00     0.029 A 
ATOM     45  N   UNL A   1      43.344  27.008  28.040  1.00  0.00    -0.354 N 
ATOM     46  C   UNL A   1      47.395  26.134  26.900  1.00  0.00     0.074 A 
ATOM     47  C   UNL A   1      47.574  24.720  26.647  1.00  0.00     0.031 C 
ATOM     48  C   UNL A   1      41.181  26.585  28.404  1.00  0.00     0.029 A 
ATOM     49  C   UNL A   1      42.188  27.645  28.418  1.00  0.00     0.049 A 
ATOM     50  H   UNL A   1      44.211  27.469  27.961  1.00  0.00     0.167 HD
ATOM     51  C   UNL A   1      48.383  27.056  26.795  1.00  0.00     0.037 A 
ATOM     52  C   UNL A   1      41.958  28.936  28.733  1.00  0.00     0.037 A 
ATOM     53  C   UNL A   1      48.216  28.465  27.046  1.00  0.00     0.049 A 
ATOM     54  C   UNL A   1      43.079  29.939  28.639  1.00  0.00     0.074 A 
ATOM     55  C   UNL A   1      49.158  29.476  26.942  1.00  0.00     0.029 A 
ATOM     56  N   UNL A   1      47.036  29.065  27.456  1.00  0.00    -0.354 N 
ATOM     57  N   UNL A   1      44.325  29.755  28.276  1.00  0.00    -0.248 NA
ATOM     58  C   UNL A   1      42.754  31.332  28.982  1.00  0.00     0.031 C 
ATOM     59  C   UNL A   1      48.557  30.680  27.329  1.00  0.00     0.029 A 
ATOM     60  C   UNL A   1      47.229  30.426  27.630  1.00  0.00     0.049 A 
ATOM     61  H   UNL A   1      46.185  28.593  27.603  1.00  0.00     0.167 HD
ATOM     62  C   UNL A   1      44.925  31.011  28.321  1.00  0.00     0.074 A 
ATOM     63  C   UNL A   1      43.901  31.948  28.733  1.00  0.00     0.031 C 
ATOM     64  C   UNL A   1      46.208  31.355  28.043  1.00  0.00     0.037 A 
BRANCH  51  65
ATOM     65  C   UNL A   1      49.748  26.565  26.399  1.00  0.00     0.058 A 
ATOM     66  C   UNL A   1      50.608  25.955  27.325  1.00  0.00     0.135 A 
ATOM     67  C   UNL A   1      50.189  26.677  25.070  1.00  0.00     0.135 A 
ATOM     68  F   UNL A   1      50.242  25.837  28.611  1.00  0.00    -0.206 F 
ATOM     69  C   UNL A   1      51.869  25.497  26.954  1.00  0.00     0.059 A 
ATOM     70  C   UNL A   1      51.435  26.204  24.672  1.00  0.00     0.059 A 
ATOM     71  F   UNL A   1      49.404  27.252  24.144  1.00  0.00    -0.206 F 
ATOM     72  C   UNL A   1      52.274  25.629  25.625  1.00  0.00     0.060 A 
BRANCH  72  73
ATOM     73  S   UNL A   1      53.913  25.032  25.157  1.00  0.00     0.124 S 
ATOM     74  O   UNL A   1      54.698  25.385  26.336  1.00  0.00    -0.237 OA
ATOM     75  O   UNL A   1      53.682  23.605  24.954  1.00  0.00    -0.237 OA
ATOM     76  O   UNL A   1      54.220  25.792  23.949  1.00  0.00    -0.744 OA
ENDBRANCH  72  73
ENDBRANCH  51  65
BRANCH  52  77
ATOM     77  C   UNL A   1      40.598  29.365  29.155  1.00  0.00     0.058 A 
ATOM     78  C   UNL A   1      39.565  29.529  28.222  1.00  0.00     0.135 A 
ATOM     79  C   UNL A   1      40.312  29.629  30.503  1.00  0.00     0.135 A 
ATOM     80  F   UNL A   1      39.794  29.302  26.919  1.00  0.00    -0.206 F 
ATOM     81  C   UNL A   1      38.298  29.955  28.606  1.00  0.00     0.059 A 
ATOM     82  C   UNL A   1      39.046  30.032  30.916  1.00  0.00     0.059 A 
ATOM     83  F   UNL A   1      41.266  29.478  31.435  1.00  0.00    -0.206 F 
ATOM     84  C   UNL A   1      38.048  30.203  29.958  1.00  0.00     0.060 A 
BRANCH  84  85
ATOM     85  S   UNL A   1      36.388  30.710  30.456  1.00  0.00     0.124 S 
ATOM     86  O   UNL A   1      35.685  30.705  29.178  1.00  0.00    -0.237 OA
ATOM     87  O   UNL A   1      36.013  29.655  31.394  1.00  0.00    -0.237 OA
ATOM     88  O   UNL A   1      36.604  32.023  31.054  1.00  0.00    -0.744 OA
ENDBRANCH  84  85
ENDBRANCH  52  77
BRANCH  64  89
ATOM     89  C   UNL A   1      46.569  32.813  28.145  1.00  0.00     0.058 A 
ATOM     90  C   UNL A   1      47.195  33.342  29.285  1.00  0.00     0.135 A 
ATOM     91  C   UNL A   1      46.296  33.692  27.083  1.00  0.00     0.135 A 
ATOM     92  F   UNL A   1      47.479  32.548  30.330  1.00  0.00    -0.206 F 
ATOM     93  C   UNL A   1      47.498  34.696  29.386  1.00  0.00     0.059 A 
ATOM     94  C   UNL A   1      46.614  35.044  27.152  1.00  0.00     0.059 A 
ATOM     95  F   UNL A   1      45.712  33.236  25.963  1.00  0.00    -0.206 F 
ATOM     96  C   UNL A   1      47.197  35.542  28.317  1.00  0.00     0.060 A 
BRANCH  96  97
ATOM     97  S   UNL A   1      47.586  37.300  28.459  1.00  0.00     0.124 S 
ATOM     98  O   UNL A   1      46.974  37.835  27.249  1.00  0.00    -0.237 OA
ATOM     99  O   UNL A   1      46.936  37.667  29.714  1.00  0.00    -0.237 OA
ATOM    100  O   UNL A   1      49.046  37.322  28.489  1.00  0.00    -0.744 OA
ENDBRANCH  96  97
ENDBRANCH  64  89
ENDBRANCH  38  39
ENDBRANCH  31  33
ENDBRANCH  30  31
ENDBRANCH  29  30
ENDBRANCH  28  29
ENDBRANCH   1  28
TORSDOF 21
ENDMDL
MODEL 3
REMARK VINA RESULT:     -10.6      2.982      9.567
REMARK SMILES CC(C)[C@@H](CNC(=O)[C@@H]1CC[C@@H]2CCCC[C@@H]2[NH2+]1)C(=O)OCCOCCOC(=O)c1ccc(-c2c3nc(c(-c4c(F)cc(S(=O)(=O)[O-])cc4F)c4ccc([nH]4)c(-c4c(F)cc(S(=O)(=O)[O-])cc4F)c4nc(c(-c5c(F)cc(S(=O)(=O)[O-])cc5F)c5ccc2[nH]5)C=C4)C=C3)cc1
REMARK SMILES IDX 24 1 23 2 22 3 21 4 19 5 20 6 4 7 2 8 1 9 3 10 5 11 6 12
REMARK SMILES IDX 7 13 8 15 9 16 10 17 18 18 11 19 17 20 12 23 16 24 13 25
REMARK SMILES IDX 15 26 14 27 25 28 26 29 27 30 28 31 29 32 30 33 31 34 95 35
REMARK SMILES IDX 32 36 94 37 33 38 34 39 35 40 88 41 36 42 93 43 87 44 89 45
REMARK SMILES IDX 37 46 92 47 86 48 85 49 38 51 72 52 51 53 71 54 52 55 55 56
REMARK SMILES IDX 70 57 90 58 53 59 54 60 69 62 91 63 56 64 39 65 40 66 49 67
REMARK SMILES IDX 41 68 42 69 48 70 50 71 43 72 44 73 45 74 46 75 47 76 73 77
REMARK SMILES IDX 74 78 83 79 75 80 76 81 82 82 84 83 77 84 78 85 79 86 80 87
REMARK SMILES IDX 81 88 57 89 58 90 67 91 59 92 60 93 66 94 68 95 61 96 62 97
REMARK SMILES IDX 63 98 64 99 65 100
REMARK H PARENT 6 14 18 21 18 22 89 50 55 61
REMARK Flexibility Score: inf
ROOT
ATOM      1  O   UNL A   1      35.554  22.119  25.027  1.00  0.00    -0.374 OA
ENDROOT
BRANCH   1   2
ATOM      2  C   UNL A   1      34.908  22.588  26.195  1.00  0.00     0.202 C 
BRANCH   2   3
ATOM      3  C   UNL A   1      33.875  21.699  26.901  1.00  0.00     0.261 C 
BRANCH   3   4
ATOM      4  O   UNL A   1      33.400  20.500  26.268  1.00  0.00    -0.463 OA
BRANCH   4   5
ATOM      5  C   UNL A   1      32.433  20.646  25.330  1.00  0.00     0.311 C 
ATOM      6  O   UNL A   1      31.325  21.127  25.543  1.00  0.00    -0.252 OA
BRANCH   5   7
ATOM      7  C   UNL A   1      32.816  20.089  23.960  1.00  0.00     0.121 C 
BRANCH   7   8
ATOM      8  C   UNL A   1      32.592  18.570  23.689  1.00  0.00    -0.001 C 
ATOM      9  C   UNL A   1      32.277  18.313  22.205  1.00  0.00     0.008 C 
ATOM     10  C   UNL A   1      33.808  17.707  24.042  1.00  0.00     0.008 C 
ENDBRANCH   7   8
BRANCH   7  11
ATOM     11  C   UNL A   1      32.183  21.017  22.895  1.00  0.00     0.131 C 
BRANCH  11  12
ATOM     12  N   UNL A   1      32.787  22.337  22.801  1.00  0.00    -0.350 N 
ATOM     13  C   UNL A   1      32.369  23.579  23.155  1.00  0.00     0.278 C 
ATOM     14  H   UNL A   1      33.686  22.327  22.398  1.00  0.00     0.163 HD
ATOM     15  O   UNL A   1      33.294  24.371  23.400  1.00  0.00    -0.268 OA
BRANCH  13  16
ATOM     16  C   UNL A   1      30.892  24.055  23.333  1.00  0.00     0.272 C 
ATOM     17  C   UNL A   1      30.433  25.406  22.805  1.00  0.00     0.076 C 
ATOM     18  N   UNL A   1      30.510  23.957  24.778  1.00  0.00    -0.333 N 
ATOM     19  C   UNL A   1      31.078  26.525  23.593  1.00  0.00     0.016 C 
ATOM     20  C   UNL A   1      30.916  25.082  25.654  1.00  0.00     0.186 C 
ATOM     21  H   UNL A   1      30.932  23.107  25.152  1.00  0.00     0.347 HD
ATOM     22  H   UNL A   1      29.490  23.968  24.785  1.00  0.00     0.347 HD
ATOM     23  C   UNL A   1      30.620  26.466  25.046  1.00  0.00     0.048 C 
ATOM     24  C   UNL A   1      32.326  24.914  26.255  1.00  0.00     0.065 C 
ATOM     25  C   UNL A   1      31.167  27.645  25.865  1.00  0.00     0.010 C 
ATOM     26  C   UNL A   1      33.214  26.147  26.201  1.00  0.00     0.006 C 
ATOM     27  C   UNL A   1      32.488  27.417  26.595  1.00  0.00     0.001 C 
ENDBRANCH  13  16
ENDBRANCH  11  12
ENDBRANCH   7  11
ENDBRANCH   5   7
ENDBRANCH   4   5
ENDBRANCH   3   4
ENDBRANCH   2   3
ENDBRANCH   1   2
BRANCH   1  28
ATOM     28  C   UNL A   1      36.337  20.938  25.136  1.00  0.00     0.202 C 
BRANCH  28  29
ATOM     29  C   UNL A   1      37.857  21.080  25.004  1.00  0.00     0.261 C 
BRANCH  29  30
ATOM     30  O   UNL A   1      38.359  22.323  25.547  1.00  0.00    -0.460 OA
BRANCH  30  31
ATOM     31  C   UNL A   1      39.551  22.205  26.186  1.00  0.00     0.338 C 
ATOM     32  O   UNL A   1      40.387  21.336  25.996  1.00  0.00    -0.246 OA
BRANCH  31  33
ATOM     33  C   UNL A   1      39.828  23.344  27.086  1.00  0.00     0.060 A 
ATOM     34  C   UNL A   1      39.176  24.550  26.801  1.00  0.00     0.016 A 
ATOM     35  C   UNL A   1      40.839  23.305  28.049  1.00  0.00     0.016 A 
ATOM     36  C   UNL A   1      39.598  25.735  27.404  1.00  0.00     0.010 A 
ATOM     37  C   UNL A   1      41.262  24.501  28.656  1.00  0.00     0.010 A 
ATOM     38  C   UNL A   1      40.686  25.731  28.289  1.00  0.00    -0.014 A 
BRANCH  38  39
ATOM     39  C   UNL A   1      41.301  27.038  28.660  1.00  0.00     0.031 A 
ATOM     40  C   UNL A   1      42.773  27.260  28.417  1.00  0.00     0.074 A 
ATOM     41  C   UNL A   1      40.547  28.060  29.108  1.00  0.00     0.049 A 
ATOM     42  N   UNL A   1      43.477  28.359  28.533  1.00  0.00    -0.248 NA
ATOM     43  C   UNL A   1      43.555  26.093  27.982  1.00  0.00     0.031 C 
ATOM     44  C   UNL A   1      39.114  27.992  29.378  1.00  0.00     0.029 A 
ATOM     45  N   UNL A   1      40.881  29.359  29.400  1.00  0.00    -0.354 N 
ATOM     46  C   UNL A   1      44.777  28.020  28.174  1.00  0.00     0.074 A 
ATOM     47  C   UNL A   1      44.774  26.603  27.880  1.00  0.00     0.031 C 
ATOM     48  C   UNL A   1      38.686  29.199  29.786  1.00  0.00     0.029 A 
ATOM     49  C   UNL A   1      39.818  30.125  29.814  1.00  0.00     0.049 A 
ATOM     50  H   UNL A   1      41.798  29.711  29.320  1.00  0.00     0.167 HD
ATOM     51  C   UNL A   1      45.871  28.815  28.079  1.00  0.00     0.037 A 
ATOM     52  C   UNL A   1      39.756  31.424  30.167  1.00  0.00     0.037 A 
ATOM     53  C   UNL A   1      45.885  30.225  28.371  1.00  0.00     0.049 A 
ATOM     54  C   UNL A   1      40.992  32.282  30.083  1.00  0.00     0.074 A 
ATOM     55  C   UNL A   1      46.945  31.114  28.280  1.00  0.00     0.029 A 
ATOM     56  N   UNL A   1      44.794  30.956  28.815  1.00  0.00    -0.354 N 
ATOM     57  N   UNL A   1      42.201  31.955  29.695  1.00  0.00    -0.248 NA
ATOM     58  C   UNL A   1      40.848  33.694  30.469  1.00  0.00     0.031 C 
ATOM     59  C   UNL A   1      46.504  32.371  28.709  1.00  0.00     0.029 A 
ATOM     60  C   UNL A   1      45.158  32.276  29.023  1.00  0.00     0.049 A 
ATOM     61  H   UNL A   1      43.892  30.589  28.963  1.00  0.00     0.167 HD
ATOM     62  C   UNL A   1      42.954  33.124  29.766  1.00  0.00     0.074 A 
ATOM     63  C   UNL A   1      42.061  34.169  30.219  1.00  0.00     0.031 C 
ATOM     64  C   UNL A   1      44.266  33.314  29.477  1.00  0.00     0.037 A 
BRANCH  51  65
ATOM     65  C   UNL A   1      47.159  28.168  27.648  1.00  0.00     0.058 A 
ATOM     66  C   UNL A   1      48.030  27.575  28.574  1.00  0.00     0.135 A 
ATOM     67  C   UNL A   1      47.511  28.115  26.290  1.00  0.00     0.135 A 
ATOM     68  F   UNL A   1      47.749  27.612  29.887  1.00  0.00    -0.206 F 
ATOM     69  C   UNL A   1      49.219  26.973  28.173  1.00  0.00     0.059 A 
ATOM     70  C   UNL A   1      48.682  27.497  25.863  1.00  0.00     0.059 A 
ATOM     71  F   UNL A   1      46.712  28.667  25.363  1.00  0.00    -0.206 F 
ATOM     72  C   UNL A   1      49.537  26.943  26.814  1.00  0.00     0.060 A 
BRANCH  72  73
ATOM     73  S   UNL A   1      51.084  26.160  26.305  1.00  0.00     0.124 S 
ATOM     74  O   UNL A   1      50.947  24.834  26.899  1.00  0.00    -0.237 OA
ATOM     75  O   UNL A   1      50.999  26.215  24.849  1.00  0.00    -0.237 OA
ATOM     76  O   UNL A   1      52.108  27.012  26.902  1.00  0.00    -0.744 OA
ENDBRANCH  72  73
ENDBRANCH  51  65
BRANCH  52  77
ATOM     77  C   UNL A   1      38.466  32.008  30.621  1.00  0.00     0.058 A 
ATOM     78  C   UNL A   1      38.056  31.918  31.959  1.00  0.00     0.135 A 
ATOM     79  C   UNL A   1      37.613  32.659  29.717  1.00  0.00     0.135 A 
ATOM     80  F   UNL A   1      38.832  31.293  32.858  1.00  0.00    -0.206 F 
ATOM     81  C   UNL A   1      36.839  32.439  32.384  1.00  0.00     0.059 A 
ATOM     82  C   UNL A   1      36.401  33.210  30.123  1.00  0.00     0.059 A 
ATOM     83  F   UNL A   1      37.964  32.778  28.427  1.00  0.00    -0.206 F 
ATOM     84  C   UNL A   1      36.018  33.085  31.457  1.00  0.00     0.060 A 
BRANCH  84  85
ATOM     85  S   UNL A   1      34.461  33.802  32.026  1.00  0.00     0.124 S 
ATOM     86  O   UNL A   1      33.824  34.158  30.764  1.00  0.00    -0.237 OA
ATOM     87  O   UNL A   1      33.858  32.688  32.754  1.00  0.00    -0.237 OA
ATOM     88  O   UNL A   1      34.892  34.923  32.856  1.00  0.00    -0.744 OA
ENDBRANCH  84  85
ENDBRANCH  52  77
BRANCH  64  89
ATOM     89  C   UNL A   1      44.808  34.711  29.613  1.00  0.00     0.058 A 
ATOM     90  C   UNL A   1      45.359  35.177  30.819  1.00  0.00     0.135 A 
ATOM     91  C   UNL A   1      44.788  35.594  28.521  1.00  0.00     0.135 A 
ATOM     92  F   UNL A   1      45.403  34.377  31.895  1.00  0.00    -0.206 F 
ATOM     93  C   UNL A   1      45.829  36.480  30.947  1.00  0.00     0.059 A 
ATOM     94  C   UNL A   1      45.277  36.893  28.619  1.00  0.00     0.059 A 
ATOM     95  F   UNL A   1      44.287  35.196  27.341  1.00  0.00    -0.206 F 
ATOM     96  C   UNL A   1      45.778  37.334  29.844  1.00  0.00     0.060 A 
BRANCH  96  97
ATOM     97  S   UNL A   1      46.383  39.026  30.021  1.00  0.00     0.124 S 
ATOM     98  O   UNL A   1      45.675  39.468  31.217  1.00  0.00    -0.237 OA
ATOM     99  O   UNL A   1      47.822  38.833  30.172  1.00  0.00    -0.237 OA
ATOM    100  O   UNL A   1      45.972  39.665  28.774  1.00  0.00    -0.744 OA
ENDBRANCH  96  97
ENDBRANCH  64  89
ENDBRANCH  38  39
ENDBRANCH  31  33
ENDBRANCH  30  31
ENDBRANCH  29  30
ENDBRANCH  28  29
ENDBRANCH   1  28
TORSDOF 21
ENDMDL
