MODEL 1
REMARK VINA RESULT:      -9.9      0.000      0.000
REMARK SMILES Cc1cc(C)n([C@@H](C(=O)OCCOCCOC(=O)c2ccc(-c3c4nc(c(-c5c(F)cc(S(=O)(=O)[O-])cc5F)c5ccc([nH]5)c(-c5c(F)cc(S(=O)(=O)[O-])cc5F)c5nc(c(-c6c(F)cc(S(=O)(=O)[O-])cc6F)c6ccc3[nH]6)C=C5)C=C4)cc2)C(C)C)n1
REMARK SMILES IDX 14 1 13 2 12 3 11 4 10 5 8 6 9 7 7 8 6 9 1 10 2 11 3 12
REMARK SMILES IDX 88 13 4 14 5 15 85 16 86 17 87 18 15 19 16 20 17 21 18 22
REMARK SMILES IDX 19 23 20 24 84 25 21 26 83 27 22 28 23 29 24 30 77 31 25 32
REMARK SMILES IDX 82 33 76 34 78 35 26 36 81 37 75 38 74 39 27 41 61 42 40 43
REMARK SMILES IDX 60 44 41 45 44 46 59 47 79 48 42 49 43 50 58 52 80 53 45 54
REMARK SMILES IDX 28 55 29 56 38 57 30 58 31 59 37 60 39 61 32 62 33 63 34 64
REMARK SMILES IDX 35 65 36 66 62 67 63 68 72 69 64 70 65 71 71 72 73 73 66 74
REMARK SMILES IDX 67 75 68 76 69 77 70 78 46 79 47 80 56 81 48 82 49 83 55 84
REMARK SMILES IDX 57 85 50 86 51 87 52 88 53 89 54 90
REMARK H PARENT 78 40 44 51
REMARK Flexibility Score: inf
ROOT
ATOM      1  C   UNL A   1      42.272  19.886  26.363  1.00  0.00     0.202 C 
ENDROOT
BRANCH   1   2
ATOM      2  O   UNL A   1      42.900  20.489  25.237  1.00  0.00    -0.374 OA
BRANCH   2   3
ATOM      3  C   UNL A   1      43.842  21.535  25.461  1.00  0.00     0.202 C 
BRANCH   3   4
ATOM      4  C   UNL A   1      45.328  21.234  25.231  1.00  0.00     0.261 C 
BRANCH   4   5
ATOM      5  O   UNL A   1      46.079  22.346  24.701  1.00  0.00    -0.462 OA
BRANCH   5   6
ATOM      6  C   UNL A   1      46.342  23.342  25.587  1.00  0.00     0.331 C 
ATOM      7  O   UNL A   1      46.689  23.122  26.748  1.00  0.00    -0.250 OA
BRANCH   6   8
ATOM      8  C   UNL A   1      46.188  24.769  25.067  1.00  0.00     0.219 C 
BRANCH   8   9
ATOM      9  N   UNL A   1      47.453  25.512  24.890  1.00  0.00    -0.255 N 
ATOM     10  C   UNL A   1      49.350  27.337  22.483  1.00  0.00     0.069 C 
ATOM     11  C   UNL A   1      48.792  26.677  23.688  1.00  0.00     0.060 A 
ATOM     12  C   UNL A   1      49.149  26.923  25.021  1.00  0.00     0.048 A 
ATOM     13  N   UNL A   1      47.795  25.792  23.603  1.00  0.00    -0.177 NA
ATOM     14  C   UNL A   1      48.245  26.215  25.788  1.00  0.00     0.037 A 
ATOM     15  C   UNL A   1      48.109  26.306  27.263  1.00  0.00     0.066 C 
ENDBRANCH   8   9
BRANCH   8  16
ATOM     16  C   UNL A   1      45.036  25.587  25.734  1.00  0.00     0.019 C 
ATOM     17  C   UNL A   1      43.711  25.312  25.006  1.00  0.00     0.010 C 
ATOM     18  C   UNL A   1      44.821  25.326  27.229  1.00  0.00     0.010 C 
ENDBRANCH   8  16
ENDBRANCH   6   8
ENDBRANCH   5   6
ENDBRANCH   4   5
ENDBRANCH   3   4
ENDBRANCH   2   3
ENDBRANCH   1   2
BRANCH   1  19
ATOM     19  C   UNL A   1      40.852  20.307  26.718  1.00  0.00     0.261 C 
BRANCH  19  20
ATOM     20  O   UNL A   1      40.787  21.541  27.416  1.00  0.00    -0.460 OA
BRANCH  20  21
ATOM     21  C   UNL A   1      39.810  22.358  26.956  1.00  0.00     0.338 C 
ATOM     22  O   UNL A   1      38.837  22.031  26.302  1.00  0.00    -0.246 OA
BRANCH  21  23
ATOM     23  C   UNL A   1      40.237  23.745  27.150  1.00  0.00     0.060 A 
ATOM     24  C   UNL A   1      41.391  23.915  27.914  1.00  0.00     0.016 A 
ATOM     25  C   UNL A   1      39.389  24.819  26.832  1.00  0.00     0.016 A 
ATOM     26  C   UNL A   1      41.601  25.136  28.508  1.00  0.00     0.010 A 
ATOM     27  C   UNL A   1      39.601  26.042  27.430  1.00  0.00     0.010 A 
ATOM     28  C   UNL A   1      40.670  26.168  28.309  1.00  0.00    -0.014 A 
BRANCH  28  29
ATOM     29  C   UNL A   1      41.001  27.450  28.892  1.00  0.00     0.031 A 
ATOM     30  C   UNL A   1      42.185  28.044  28.235  1.00  0.00     0.074 A 
ATOM     31  C   UNL A   1      40.321  28.037  29.890  1.00  0.00     0.049 A 
ATOM     32  N   UNL A   1      43.391  28.062  28.692  1.00  0.00    -0.248 NA
ATOM     33  C   UNL A   1      42.070  28.427  26.819  1.00  0.00     0.031 C 
ATOM     34  C   UNL A   1      39.016  27.683  30.447  1.00  0.00     0.029 A 
ATOM     35  N   UNL A   1      40.656  29.157  30.584  1.00  0.00    -0.354 N 
ATOM     36  C   UNL A   1      44.145  28.696  27.716  1.00  0.00     0.074 A 
ATOM     37  C   UNL A   1      43.344  28.684  26.520  1.00  0.00     0.031 C 
ATOM     38  C   UNL A   1      38.578  28.701  31.228  1.00  0.00     0.029 A 
ATOM     39  C   UNL A   1      39.624  29.706  31.333  1.00  0.00     0.049 A 
ATOM     40  H   UNL A   1      41.560  29.548  30.557  1.00  0.00     0.167 HD
ATOM     41  C   UNL A   1      45.233  29.432  28.061  1.00  0.00     0.037 A 
ATOM     42  C   UNL A   1      39.634  30.928  31.930  1.00  0.00     0.037 A 
ATOM     43  C   UNL A   1      45.699  29.078  29.381  1.00  0.00     0.049 A 
ATOM     44  C   UNL A   1      41.060  31.321  32.100  1.00  0.00     0.074 A 
ATOM     45  C   UNL A   1      46.126  27.904  29.976  1.00  0.00     0.029 A 
ATOM     46  N   UNL A   1      45.386  29.929  30.415  1.00  0.00    -0.354 N 
ATOM     47  N   UNL A   1      41.887  30.715  32.908  1.00  0.00    -0.248 NA
ATOM     48  C   UNL A   1      41.690  32.077  31.026  1.00  0.00     0.031 C 
ATOM     49  C   UNL A   1      45.597  27.945  31.300  1.00  0.00     0.029 A 
ATOM     50  C   UNL A   1      44.945  29.167  31.467  1.00  0.00     0.049 A 
ATOM     51  H   UNL A   1      45.463  30.910  30.401  1.00  0.00     0.167 HD
ATOM     52  C   UNL A   1      43.079  30.636  32.205  1.00  0.00     0.074 A 
ATOM     53  C   UNL A   1      42.923  31.566  31.088  1.00  0.00     0.031 C 
ATOM     54  C   UNL A   1      43.966  29.620  32.430  1.00  0.00     0.037 A 
BRANCH  41  55
ATOM     55  C   UNL A   1      45.587  30.743  27.397  1.00  0.00     0.058 A 
ATOM     56  C   UNL A   1      46.911  30.951  26.965  1.00  0.00     0.135 A 
ATOM     57  C   UNL A   1      44.769  31.897  27.431  1.00  0.00     0.135 A 
ATOM     58  F   UNL A   1      47.779  29.928  26.900  1.00  0.00    -0.206 F 
ATOM     59  C   UNL A   1      47.408  32.221  26.673  1.00  0.00     0.059 A 
ATOM     60  C   UNL A   1      45.228  33.160  27.090  1.00  0.00     0.059 A 
ATOM     61  F   UNL A   1      43.513  31.885  27.889  1.00  0.00    -0.206 F 
ATOM     62  C   UNL A   1      46.559  33.321  26.753  1.00  0.00     0.060 A 
BRANCH  62  63
ATOM     63  S   UNL A   1      47.213  34.971  26.467  1.00  0.00     0.124 S 
ATOM     64  O   UNL A   1      47.801  34.822  25.141  1.00  0.00    -0.237 OA
ATOM     65  O   UNL A   1      46.007  35.789  26.547  1.00  0.00    -0.237 OA
ATOM     66  O   UNL A   1      48.159  35.151  27.563  1.00  0.00    -0.744 OA
ENDBRANCH  62  63
ENDBRANCH  41  55
BRANCH  42  67
ATOM     67  C   UNL A   1      38.527  31.922  32.002  1.00  0.00     0.058 A 
ATOM     68  C   UNL A   1      38.018  32.527  30.837  1.00  0.00     0.135 A 
ATOM     69  C   UNL A   1      37.744  32.069  33.166  1.00  0.00     0.135 A 
ATOM     70  F   UNL A   1      38.687  32.428  29.678  1.00  0.00    -0.206 F 
ATOM     71  C   UNL A   1      36.780  33.181  30.811  1.00  0.00     0.059 A 
ATOM     72  C   UNL A   1      36.513  32.723  33.166  1.00  0.00     0.059 A 
ATOM     73  F   UNL A   1      38.106  31.496  34.322  1.00  0.00    -0.206 F 
ATOM     74  C   UNL A   1      36.021  33.251  31.979  1.00  0.00     0.060 A 
BRANCH  74  75
ATOM     75  S   UNL A   1      34.340  33.916  31.914  1.00  0.00     0.124 S 
ATOM     76  O   UNL A   1      34.562  35.327  32.212  1.00  0.00    -0.237 OA
ATOM     77  O   UNL A   1      33.937  33.609  30.547  1.00  0.00    -0.237 OA
ATOM     78  O   UNL A   1      33.639  33.163  32.951  1.00  0.00    -0.744 OA
ENDBRANCH  74  75
ENDBRANCH  42  67
BRANCH  54  79
ATOM     79  C   UNL A   1      43.803  28.794  33.680  1.00  0.00     0.058 A 
ATOM     80  C   UNL A   1      44.348  29.107  34.938  1.00  0.00     0.135 A 
ATOM     81  C   UNL A   1      42.951  27.681  33.613  1.00  0.00     0.135 A 
ATOM     82  F   UNL A   1      45.082  30.216  35.119  1.00  0.00    -0.206 F 
ATOM     83  C   UNL A   1      44.106  28.311  36.061  1.00  0.00     0.059 A 
ATOM     84  C   UNL A   1      42.667  26.895  34.724  1.00  0.00     0.059 A 
ATOM     85  F   UNL A   1      42.349  27.363  32.455  1.00  0.00    -0.206 F 
ATOM     86  C   UNL A   1      43.267  27.203  35.942  1.00  0.00     0.060 A 
BRANCH  86  87
ATOM     87  S   UNL A   1      42.929  26.185  37.396  1.00  0.00     0.124 S 
ATOM     88  O   UNL A   1      41.518  26.461  37.641  1.00  0.00    -0.237 OA
ATOM     89  O   UNL A   1      43.241  24.840  36.921  1.00  0.00    -0.237 OA
ATOM     90  O   UNL A   1      43.850  26.710  38.402  1.00  0.00    -0.744 OA
ENDBRANCH  86  87
ENDBRANCH  54  79
ENDBRANCH  28  29
ENDBRANCH  21  23
ENDBRANCH  20  21
ENDBRANCH  19  20
ENDBRANCH   1  19
TORSDOF 19
ENDMDL
MODEL 2
REMARK VINA RESULT:      -9.6      4.535     11.205
REMARK SMILES Cc1cc(C)n([C@@H](C(=O)OCCOCCOC(=O)c2ccc(-c3c4nc(c(-c5c(F)cc(S(=O)(=O)[O-])cc5F)c5ccc([nH]5)c(-c5c(F)cc(S(=O)(=O)[O-])cc5F)c5nc(c(-c6c(F)cc(S(=O)(=O)[O-])cc6F)c6ccc3[nH]6)C=C5)C=C4)cc2)C(C)C)n1
REMARK SMILES IDX 14 1 13 2 12 3 11 4 10 5 8 6 9 7 7 8 6 9 1 10 2 11 3 12
REMARK SMILES IDX 88 13 4 14 5 15 85 16 86 17 87 18 15 19 16 20 17 21 18 22
REMARK SMILES IDX 19 23 20 24 84 25 21 26 83 27 22 28 23 29 24 30 77 31 25 32
REMARK SMILES IDX 82 33 76 34 78 35 26 36 81 37 75 38 74 39 27 41 61 42 40 43
REMARK SMILES IDX 60 44 41 45 44 46 59 47 79 48 42 49 43 50 58 52 80 53 45 54
REMARK SMILES IDX 28 55 29 56 38 57 30 58 31 59 37 60 39 61 32 62 33 63 34 64
REMARK SMILES IDX 35 65 36 66 62 67 63 68 72 69 64 70 65 71 71 72 73 73 66 74
REMARK SMILES IDX 67 75 68 76 69 77 70 78 46 79 47 80 56 81 48 82 49 83 55 84
REMARK SMILES IDX 57 85 50 86 51 87 52 88 53 89 54 90
REMARK H PARENT 78 40 44 51
REMARK Flexibility Score: inf
ROOT
ATOM      1  C   UNL A   1      31.942  30.551  26.726  1.00  0.00     0.202 C 
ENDROOT
BRANCH   1   2
ATOM      2  O   UNL A   1      32.101  29.393  25.913  1.00  0.00    -0.374 OA
BRANCH   2   3
ATOM      3  C   UNL A   1      33.001  29.453  24.810  1.00  0.00     0.202 C 
BRANCH   3   4
ATOM      4  C   UNL A   1      33.754  28.176  24.418  1.00  0.00     0.261 C 
BRANCH   4   5
ATOM      5  O   UNL A   1      33.853  27.965  22.994  1.00  0.00    -0.462 OA
BRANCH   5   6
ATOM      6  C   UNL A   1      33.276  26.823  22.536  1.00  0.00     0.331 C 
ATOM      7  O   UNL A   1      33.562  26.328  21.445  1.00  0.00    -0.250 OA
BRANCH   6   8
ATOM      8  C   UNL A   1      32.245  26.170  23.452  1.00  0.00     0.219 C 
BRANCH   8   9
ATOM      9  N   UNL A   1      32.503  24.751  23.776  1.00  0.00    -0.255 N 
ATOM     10  C   UNL A   1      32.113  21.441  22.506  1.00  0.00     0.069 C 
ATOM     11  C   UNL A   1      32.441  22.669  23.269  1.00  0.00     0.060 A 
ATOM     12  C   UNL A   1      33.399  22.796  24.284  1.00  0.00     0.048 A 
ATOM     13  N   UNL A   1      31.867  23.842  22.988  1.00  0.00    -0.177 NA
ATOM     14  C   UNL A   1      33.475  24.146  24.563  1.00  0.00     0.037 A 
ATOM     15  C   UNL A   1      34.480  24.789  25.444  1.00  0.00     0.066 C 
ENDBRANCH   8   9
BRANCH   8  16
ATOM     16  C   UNL A   1      30.759  26.502  23.105  1.00  0.00     0.019 C 
ATOM     17  C   UNL A   1      29.879  26.324  24.353  1.00  0.00     0.010 C 
ATOM     18  C   UNL A   1      30.510  27.907  22.545  1.00  0.00     0.010 C 
ENDBRANCH   8  16
ENDBRANCH   6   8
ENDBRANCH   5   6
ENDBRANCH   4   5
ENDBRANCH   3   4
ENDBRANCH   2   3
ENDBRANCH   1   2
BRANCH   1  19
ATOM     19  C   UNL A   1      33.182  31.351  27.105  1.00  0.00     0.261 C 
BRANCH  19  20
ATOM     20  O   UNL A   1      34.069  30.645  27.960  1.00  0.00    -0.460 OA
BRANCH  20  21
ATOM     21  C   UNL A   1      34.852  31.465  28.701  1.00  0.00     0.338 C 
ATOM     22  O   UNL A   1      34.509  32.491  29.258  1.00  0.00    -0.246 OA
BRANCH  21  23
ATOM     23  C   UNL A   1      36.247  31.061  28.516  1.00  0.00     0.060 A 
ATOM     24  C   UNL A   1      36.440  29.752  28.076  1.00  0.00     0.016 A 
ATOM     25  C   UNL A   1      37.303  31.841  29.017  1.00  0.00     0.016 A 
ATOM     26  C   UNL A   1      37.660  29.164  28.304  1.00  0.00     0.010 A 
ATOM     27  C   UNL A   1      38.526  31.249  29.247  1.00  0.00     0.010 A 
ATOM     28  C   UNL A   1      38.670  29.900  28.944  1.00  0.00    -0.014 A 
BRANCH  28  29
ATOM     29  C   UNL A   1      39.955  29.247  29.072  1.00  0.00     0.031 A 
ATOM     30  C   UNL A   1      40.292  29.009  30.492  1.00  0.00     0.074 A 
ATOM     31  C   UNL A   1      40.739  28.889  28.042  1.00  0.00     0.049 A 
ATOM     32  N   UNL A   1      41.107  29.698  31.215  1.00  0.00    -0.248 NA
ATOM     33  C   UNL A   1      39.450  28.073  31.255  1.00  0.00     0.031 C 
ATOM     34  C   UNL A   1      40.419  28.841  26.616  1.00  0.00     0.029 A 
ATOM     35  N   UNL A   1      42.011  28.414  28.086  1.00  0.00    -0.354 N 
ATOM     36  C   UNL A   1      41.068  29.113  32.472  1.00  0.00     0.074 A 
ATOM     37  C   UNL A   1      39.887  28.291  32.496  1.00  0.00     0.031 C 
ATOM     38  C   UNL A   1      41.391  28.151  25.969  1.00  0.00     0.029 A 
ATOM     39  C   UNL A   1      42.457  27.834  26.906  1.00  0.00     0.049 A 
ATOM     40  H   UNL A   1      42.574  28.476  28.893  1.00  0.00     0.167 HD
ATOM     41  C   UNL A   1      42.168  29.128  33.269  1.00  0.00     0.037 A 
ATOM     42  C   UNL A   1      43.589  27.097  26.756  1.00  0.00     0.037 A 
ATOM     43  C   UNL A   1      43.096  30.152  32.850  1.00  0.00     0.049 A 
ATOM     44  C   UNL A   1      44.500  27.462  27.877  1.00  0.00     0.074 A 
ATOM     45  C   UNL A   1      43.018  31.523  32.688  1.00  0.00     0.029 A 
ATOM     46  N   UNL A   1      44.203  29.753  32.137  1.00  0.00    -0.354 N 
ATOM     47  N   UNL A   1      45.059  28.635  28.002  1.00  0.00    -0.248 NA
ATOM     48  C   UNL A   1      44.412  26.685  29.105  1.00  0.00     0.031 C 
ATOM     49  C   UNL A   1      43.783  31.803  31.517  1.00  0.00     0.029 A 
ATOM     50  C   UNL A   1      44.346  30.607  31.073  1.00  0.00     0.049 A 
ATOM     51  H   UNL A   1      44.786  28.990  32.351  1.00  0.00     0.167 HD
ATOM     52  C   UNL A   1      44.981  28.924  29.356  1.00  0.00     0.074 A 
ATOM     53  C   UNL A   1      44.651  27.651  29.996  1.00  0.00     0.031 C 
ATOM     54  C   UNL A   1      44.910  30.214  29.800  1.00  0.00     0.037 A 
BRANCH  41  55
ATOM     55  C   UNL A   1      42.584  27.953  34.123  1.00  0.00     0.058 A 
ATOM     56  C   UNL A   1      42.655  28.118  35.520  1.00  0.00     0.135 A 
ATOM     57  C   UNL A   1      43.189  26.778  33.619  1.00  0.00     0.135 A 
ATOM     58  F   UNL A   1      42.121  29.201  36.109  1.00  0.00    -0.206 F 
ATOM     59  C   UNL A   1      43.349  27.230  36.342  1.00  0.00     0.059 A 
ATOM     60  C   UNL A   1      43.834  25.852  34.425  1.00  0.00     0.059 A 
ATOM     61  F   UNL A   1      43.277  26.509  32.312  1.00  0.00    -0.206 F 
ATOM     62  C   UNL A   1      43.947  26.107  35.779  1.00  0.00     0.060 A 
BRANCH  62  63
ATOM     63  S   UNL A   1      44.919  25.004  36.815  1.00  0.00     0.124 S 
ATOM     64  O   UNL A   1      44.481  25.400  38.148  1.00  0.00    -0.237 OA
ATOM     65  O   UNL A   1      44.474  23.692  36.356  1.00  0.00    -0.237 OA
ATOM     66  O   UNL A   1      46.295  25.349  36.472  1.00  0.00    -0.744 OA
ENDBRANCH  62  63
ENDBRANCH  41  55
BRANCH  42  67
ATOM     67  C   UNL A   1      43.774  25.850  25.962  1.00  0.00     0.058 A 
ATOM     68  C   UNL A   1      44.989  25.583  25.302  1.00  0.00     0.135 A 
ATOM     69  C   UNL A   1      42.887  24.761  26.085  1.00  0.00     0.135 A 
ATOM     70  F   UNL A   1      45.902  26.555  25.151  1.00  0.00    -0.206 F 
ATOM     71  C   UNL A   1      45.331  24.303  24.851  1.00  0.00     0.059 A 
ATOM     72  C   UNL A   1      43.203  23.480  25.635  1.00  0.00     0.059 A 
ATOM     73  F   UNL A   1      41.721  24.886  26.735  1.00  0.00    -0.206 F 
ATOM     74  C   UNL A   1      44.439  23.250  25.045  1.00  0.00     0.060 A 
BRANCH  74  75
ATOM     75  S   UNL A   1      44.948  21.560  24.646  1.00  0.00     0.124 S 
ATOM     76  O   UNL A   1      44.486  21.423  23.269  1.00  0.00    -0.237 OA
ATOM     77  O   UNL A   1      46.394  21.620  24.830  1.00  0.00    -0.237 OA
ATOM     78  O   UNL A   1      44.231  20.750  25.627  1.00  0.00    -0.744 OA
ENDBRANCH  74  75
ENDBRANCH  42  67
BRANCH  54  79
ATOM     79  C   UNL A   1      45.268  31.320  28.840  1.00  0.00     0.058 A 
ATOM     80  C   UNL A   1      46.571  31.786  28.587  1.00  0.00     0.135 A 
ATOM     81  C   UNL A   1      44.235  31.856  28.056  1.00  0.00     0.135 A 
ATOM     82  F   UNL A   1      47.632  31.251  29.210  1.00  0.00    -0.206 F 
ATOM     83  C   UNL A   1      46.822  32.784  27.641  1.00  0.00     0.059 A 
ATOM     84  C   UNL A   1      44.466  32.823  27.084  1.00  0.00     0.059 A 
ATOM     85  F   UNL A   1      42.977  31.409  28.204  1.00  0.00    -0.206 F 
ATOM     86  C   UNL A   1      45.760  33.301  26.898  1.00  0.00     0.060 A 
BRANCH  86  87
ATOM     87  S   UNL A   1      46.081  34.572  25.656  1.00  0.00     0.124 S 
ATOM     88  O   UNL A   1      45.160  34.197  24.589  1.00  0.00    -0.237 OA
ATOM     89  O   UNL A   1      45.759  35.803  26.371  1.00  0.00    -0.237 OA
ATOM     90  O   UNL A   1      47.498  34.395  25.345  1.00  0.00    -0.744 OA
ENDBRANCH  86  87
ENDBRANCH  54  79
ENDBRANCH  28  29
ENDBRANCH  21  23
ENDBRANCH  20  21
ENDBRANCH  19  20
ENDBRANCH   1  19
TORSDOF 19
ENDMDL
MODEL 3
REMARK VINA RESULT:      -9.5      3.626      6.414
REMARK SMILES Cc1cc(C)n([C@@H](C(=O)OCCOCCOC(=O)c2ccc(-c3c4nc(c(-c5c(F)cc(S(=O)(=O)[O-])cc5F)c5ccc([nH]5)c(-c5c(F)cc(S(=O)(=O)[O-])cc5F)c5nc(c(-c6c(F)cc(S(=O)(=O)[O-])cc6F)c6ccc3[nH]6)C=C5)C=C4)cc2)C(C)C)n1
REMARK SMILES IDX 14 1 13 2 12 3 11 4 10 5 8 6 9 7 7 8 6 9 1 10 2 11 3 12
REMARK SMILES IDX 88 13 4 14 5 15 85 16 86 17 87 18 15 19 16 20 17 21 18 22
REMARK SMILES IDX 19 23 20 24 84 25 21 26 83 27 22 28 23 29 24 30 77 31 25 32
REMARK SMILES IDX 82 33 76 34 78 35 26 36 81 37 75 38 74 39 27 41 61 42 40 43
REMARK SMILES IDX 60 44 41 45 44 46 59 47 79 48 42 49 43 50 58 52 80 53 45 54
REMARK SMILES IDX 28 55 29 56 38 57 30 58 31 59 37 60 39 61 32 62 33 63 34 64
REMARK SMILES IDX 35 65 36 66 62 67 63 68 72 69 64 70 65 71 71 72 73 73 66 74
REMARK SMILES IDX 67 75 68 76 69 77 70 78 46 79 47 80 56 81 48 82 49 83 55 84
REMARK SMILES IDX 57 85 50 86 51 87 52 88 53 89 54 90
REMARK H PARENT 78 40 44 51
REMARK Flexibility Score: inf
ROOT
ATOM      1  C   UNL A   1      36.650  21.607  24.436  1.00  0.00     0.202 C 
ENDROOT
BRANCH   1   2
ATOM      2  O   UNL A   1      35.481  22.078  25.099  1.00  0.00    -0.374 OA
BRANCH   2   3
ATOM      3  C   UNL A   1      34.317  22.343  24.321  1.00  0.00     0.202 C 
BRANCH   3   4
ATOM      4  C   UNL A   1      34.499  22.965  22.931  1.00  0.00     0.261 C 
BRANCH   4   5
ATOM      5  O   UNL A   1      34.616  24.403  22.941  1.00  0.00    -0.462 OA
BRANCH   5   6
ATOM      6  C   UNL A   1      33.552  25.075  22.429  1.00  0.00     0.331 C 
ATOM      7  O   UNL A   1      33.062  24.802  21.332  1.00  0.00    -0.250 OA
BRANCH   6   8
ATOM      8  C   UNL A   1      32.982  26.199  23.289  1.00  0.00     0.219 C 
BRANCH   8   9
ATOM      9  N   UNL A   1      32.233  25.755  24.484  1.00  0.00    -0.255 N 
ATOM     10  C   UNL A   1      30.644  22.910  25.933  1.00  0.00     0.069 C 
ATOM     11  C   UNL A   1      31.240  24.230  25.616  1.00  0.00     0.060 A 
ATOM     12  C   UNL A   1      31.557  25.248  26.526  1.00  0.00     0.048 A 
ATOM     13  N   UNL A   1      31.609  24.551  24.373  1.00  0.00    -0.177 NA
ATOM     14  C   UNL A   1      32.248  26.198  25.800  1.00  0.00     0.037 A 
ATOM     15  C   UNL A   1      32.946  27.378  26.369  1.00  0.00     0.066 C 
ENDBRANCH   8   9
BRANCH   8  16
ATOM     16  C   UNL A   1      32.311  27.360  22.489  1.00  0.00     0.019 C 
ATOM     17  C   UNL A   1      30.783  27.288  22.646  1.00  0.00     0.010 C 
ATOM     18  C   UNL A   1      32.763  28.774  22.871  1.00  0.00     0.010 C 
ENDBRANCH   8  16
ENDBRANCH   6   8
ENDBRANCH   5   6
ENDBRANCH   4   5
ENDBRANCH   3   4
ENDBRANCH   2   3
ENDBRANCH   1   2
BRANCH   1  19
ATOM     19  C   UNL A   1      37.908  21.366  25.261  1.00  0.00     0.261 C 
BRANCH  19  20
ATOM     20  O   UNL A   1      38.375  22.529  25.929  1.00  0.00    -0.460 OA
BRANCH  20  21
ATOM     21  C   UNL A   1      39.640  22.397  26.395  1.00  0.00     0.338 C 
ATOM     22  O   UNL A   1      40.370  21.433  26.256  1.00  0.00    -0.246 OA
BRANCH  21  23
ATOM     23  C   UNL A   1      39.909  23.502  27.318  1.00  0.00     0.060 A 
ATOM     24  C   UNL A   1      39.016  24.570  27.252  1.00  0.00     0.016 A 
ATOM     25  C   UNL A   1      41.131  23.594  28.006  1.00  0.00     0.016 A 
ATOM     26  C   UNL A   1      39.429  25.791  27.728  1.00  0.00     0.010 A 
ATOM     27  C   UNL A   1      41.544  24.820  28.480  1.00  0.00     0.010 A 
ATOM     28  C   UNL A   1      40.713  25.916  28.280  1.00  0.00    -0.014 A 
BRANCH  28  29
ATOM     29  C   UNL A   1      41.046  27.208  28.839  1.00  0.00     0.031 A 
ATOM     30  C   UNL A   1      42.251  27.773  28.195  1.00  0.00     0.074 A 
ATOM     31  C   UNL A   1      40.351  27.827  29.807  1.00  0.00     0.049 A 
ATOM     32  N   UNL A   1      43.446  27.788  28.678  1.00  0.00    -0.248 NA
ATOM     33  C   UNL A   1      42.172  28.122  26.767  1.00  0.00     0.031 C 
ATOM     34  C   UNL A   1      39.030  27.502  30.342  1.00  0.00     0.029 A 
ATOM     35  N   UNL A   1      40.683  28.959  30.481  1.00  0.00    -0.354 N 
ATOM     36  C   UNL A   1      44.229  28.390  27.704  1.00  0.00     0.074 A 
ATOM     37  C   UNL A   1      43.456  28.358  26.491  1.00  0.00     0.031 C 
ATOM     38  C   UNL A   1      38.587  28.543  31.089  1.00  0.00     0.029 A 
ATOM     39  C   UNL A   1      39.642  29.539  31.194  1.00  0.00     0.049 A 
ATOM     40  H   UNL A   1      41.592  29.340  30.465  1.00  0.00     0.167 HD
ATOM     41  C   UNL A   1      45.318  29.122  28.056  1.00  0.00     0.037 A 
ATOM     42  C   UNL A   1      39.652  30.774  31.761  1.00  0.00     0.037 A 
ATOM     43  C   UNL A   1      45.751  28.795  29.395  1.00  0.00     0.049 A 
ATOM     44  C   UNL A   1      41.079  31.155  31.953  1.00  0.00     0.074 A 
ATOM     45  C   UNL A   1      46.150  27.632  30.027  1.00  0.00     0.029 A 
ATOM     46  N   UNL A   1      45.424  29.675  30.400  1.00  0.00    -0.354 N 
ATOM     47  N   UNL A   1      41.880  30.560  32.795  1.00  0.00    -0.248 NA
ATOM     48  C   UNL A   1      41.741  31.878  30.875  1.00  0.00     0.031 C 
ATOM     49  C   UNL A   1      45.593  27.711  31.338  1.00  0.00     0.029 A 
ATOM     50  C   UNL A   1      44.952  28.944  31.460  1.00  0.00     0.049 A 
ATOM     51  H   UNL A   1      45.514  30.654  30.364  1.00  0.00     0.167 HD
ATOM     52  C   UNL A   1      43.087  30.450  32.121  1.00  0.00     0.074 A 
ATOM     53  C   UNL A   1      42.966  31.355  30.978  1.00  0.00     0.031 C 
ATOM     54  C   UNL A   1      43.956  29.431  32.390  1.00  0.00     0.037 A 
BRANCH  41  55
ATOM     55  C   UNL A   1      45.702  30.412  27.369  1.00  0.00     0.058 A 
ATOM     56  C   UNL A   1      47.054  30.636  27.047  1.00  0.00     0.135 A 
ATOM     57  C   UNL A   1      44.860  31.546  27.280  1.00  0.00     0.135 A 
ATOM     58  F   UNL A   1      47.946  29.633  27.104  1.00  0.00    -0.206 F 
ATOM     59  C   UNL A   1      47.549  31.904  26.744  1.00  0.00     0.059 A 
ATOM     60  C   UNL A   1      45.321  32.805  26.925  1.00  0.00     0.059 A 
ATOM     61  F   UNL A   1      43.569  31.522  27.626  1.00  0.00    -0.206 F 
ATOM     62  C   UNL A   1      46.673  32.984  26.700  1.00  0.00     0.060 A 
BRANCH  62  63
ATOM     63  S   UNL A   1      47.315  34.637  26.401  1.00  0.00     0.124 S 
ATOM     64  O   UNL A   1      48.570  34.599  27.142  1.00  0.00    -0.237 OA
ATOM     65  O   UNL A   1      47.428  34.655  24.945  1.00  0.00    -0.237 OA
ATOM     66  O   UNL A   1      46.279  35.504  26.953  1.00  0.00    -0.744 OA
ENDBRANCH  62  63
ENDBRANCH  41  55
BRANCH  42  67
ATOM     67  C   UNL A   1      38.555  31.782  31.784  1.00  0.00     0.058 A 
ATOM     68  C   UNL A   1      37.948  32.221  30.592  1.00  0.00     0.135 A 
ATOM     69  C   UNL A   1      37.876  32.103  32.977  1.00  0.00     0.135 A 
ATOM     70  F   UNL A   1      38.515  31.950  29.406  1.00  0.00    -0.206 F 
ATOM     71  C   UNL A   1      36.712  32.879  30.578  1.00  0.00     0.059 A 
ATOM     72  C   UNL A   1      36.649  32.765  32.988  1.00  0.00     0.059 A 
ATOM     73  F   UNL A   1      38.336  31.696  34.168  1.00  0.00    -0.206 F 
ATOM     74  C   UNL A   1      36.057  33.125  31.784  1.00  0.00     0.060 A 
BRANCH  74  75
ATOM     75  S   UNL A   1      34.377  33.795  31.769  1.00  0.00     0.124 S 
ATOM     76  O   UNL A   1      34.586  35.146  32.278  1.00  0.00    -0.237 OA
ATOM     77  O   UNL A   1      34.015  33.693  30.359  1.00  0.00    -0.237 OA
ATOM     78  O   UNL A   1      33.647  32.898  32.662  1.00  0.00    -0.744 OA
ENDBRANCH  74  75
ENDBRANCH  42  67
BRANCH  54  79
ATOM     79  C   UNL A   1      43.756  28.637  33.655  1.00  0.00     0.058 A 
ATOM     80  C   UNL A   1      44.289  28.967  34.915  1.00  0.00     0.135 A 
ATOM     81  C   UNL A   1      42.880  27.542  33.600  1.00  0.00     0.135 A 
ATOM     82  F   UNL A   1      45.045  30.063  35.082  1.00  0.00    -0.206 F 
ATOM     83  C   UNL A   1      44.012  28.202  36.051  1.00  0.00     0.059 A 
ATOM     84  C   UNL A   1      42.562  26.788  34.724  1.00  0.00     0.059 A 
ATOM     85  F   UNL A   1      42.289  27.211  32.440  1.00  0.00    -0.206 F 
ATOM     86  C   UNL A   1      43.150  27.110  35.944  1.00  0.00     0.060 A 
BRANCH  86  87
ATOM     87  S   UNL A   1      42.767  26.134  37.414  1.00  0.00     0.124 S 
ATOM     88  O   UNL A   1      41.355  26.432  37.621  1.00  0.00    -0.237 OA
ATOM     89  O   UNL A   1      43.073  24.773  36.981  1.00  0.00    -0.237 OA
ATOM     90  O   UNL A   1      43.672  26.673  38.427  1.00  0.00    -0.744 OA
ENDBRANCH  86  87
ENDBRANCH  54  79
ENDBRANCH  28  29
ENDBRANCH  21  23
ENDBRANCH  20  21
ENDBRANCH  19  20
ENDBRANCH   1  19
TORSDOF 19
ENDMDL
