MODEL 1
REMARK VINA RESULT:      -8.8      0.000      0.000
REMARK SMILES CC[C@@H](Oc1ccccc1)C(=O)OCCOCCOC(=O)c1ccc(-c2c3nc(c(-c4c(F)cc(S(=O)(=O)[O-])cc4F)c4ccc([nH]4)c(-c4c(F)cc(S(=O)(=O)[O-])cc4F)c4nc(c(-c5c(F)cc(S(=O)(=O)[O-])cc5F)c5ccc2[nH]5)C=C4)C=C3)cc1
REMARK SMILES IDX 17 1 16 2 15 3 14 4 13 5 11 6 12 7 3 8 2 9 1 10 4 11 5 12
REMARK SMILES IDX 6 13 10 14 7 15 9 16 8 17 18 18 19 19 20 20 21 21 22 22
REMARK SMILES IDX 23 23 87 24 24 25 86 26 25 27 26 28 27 29 80 30 28 31 85 32
REMARK SMILES IDX 79 33 81 34 29 35 84 36 78 37 77 38 30 40 64 41 43 42 63 43
REMARK SMILES IDX 44 44 47 45 62 46 82 47 45 48 46 49 61 51 83 52 48 53 31 54
REMARK SMILES IDX 32 55 41 56 33 57 34 58 40 59 42 60 35 61 36 62 37 63 38 64
REMARK SMILES IDX 39 65 65 66 66 67 75 68 67 69 68 70 74 71 76 72 69 73 70 74
REMARK SMILES IDX 71 75 72 76 73 77 49 78 50 79 59 80 51 81 52 82 58 83 60 84
REMARK SMILES IDX 53 85 54 86 55 87 56 88 57 89
REMARK H PARENT 81 39 47 50
REMARK Flexibility Score: inf
ROOT
ATOM      1  C   UNL A   1      32.619  32.931  27.282  1.00  0.00     0.202 C 
ENDROOT
BRANCH   1   2
ATOM      2  O   UNL A   1      33.560  33.396  28.246  1.00  0.00    -0.374 OA
BRANCH   2   3
ATOM      3  C   UNL A   1      33.731  34.809  28.369  1.00  0.00     0.202 C 
BRANCH   3   4
ATOM      4  C   UNL A   1      33.144  35.456  29.627  1.00  0.00     0.261 C 
BRANCH   4   5
ATOM      5  O   UNL A   1      33.194  34.567  30.760  1.00  0.00    -0.461 OA
BRANCH   5   6
ATOM      6  C   UNL A   1      33.748  35.072  31.896  1.00  0.00     0.347 C 
ATOM      7  O   UNL A   1      33.338  36.063  32.495  1.00  0.00    -0.248 OA
BRANCH   6   8
ATOM      8  C   UNL A   1      34.957  34.268  32.377  1.00  0.00     0.282 C 
BRANCH   8   9
ATOM      9  C   UNL A   1      34.746  33.529  33.711  1.00  0.00     0.054 C 
ATOM     10  C   UNL A   1      35.448  34.242  34.866  1.00  0.00     0.008 C 
ENDBRANCH   8   9
BRANCH   8  11
ATOM     11  O   UNL A   1      35.273  33.324  31.340  1.00  0.00    -0.479 OA
BRANCH  11  12
ATOM     12  C   UNL A   1      36.489  33.613  30.783  1.00  0.00     0.120 A 
ATOM     13  C   UNL A   1      36.783  33.164  29.499  1.00  0.00     0.046 A 
ATOM     14  C   UNL A   1      37.426  34.331  31.523  1.00  0.00     0.046 A 
ATOM     15  C   UNL A   1      38.014  33.486  28.927  1.00  0.00     0.004 A 
ATOM     16  C   UNL A   1      38.650  34.663  30.944  1.00  0.00     0.004 A 
ATOM     17  C   UNL A   1      38.941  34.245  29.645  1.00  0.00     0.000 A 
ENDBRANCH  11  12
ENDBRANCH   8  11
ENDBRANCH   6   8
ENDBRANCH   5   6
ENDBRANCH   4   5
ENDBRANCH   3   4
ENDBRANCH   2   3
ENDBRANCH   1   2
BRANCH   1  18
ATOM     18  C   UNL A   1      32.702  31.445  26.906  1.00  0.00     0.261 C 
BRANCH  18  19
ATOM     19  O   UNL A   1      33.462  30.670  27.853  1.00  0.00    -0.460 OA
BRANCH  19  20
ATOM     20  C   UNL A   1      34.379  29.840  27.293  1.00  0.00     0.338 C 
ATOM     21  O   UNL A   1      34.278  29.245  26.233  1.00  0.00    -0.246 OA
BRANCH  20  22
ATOM     22  C   UNL A   1      35.638  29.858  28.063  1.00  0.00     0.060 A 
ATOM     23  C   UNL A   1      36.828  30.018  27.342  1.00  0.00     0.016 A 
ATOM     24  C   UNL A   1      35.671  29.618  29.439  1.00  0.00     0.016 A 
ATOM     25  C   UNL A   1      38.058  29.886  27.984  1.00  0.00     0.010 A 
ATOM     26  C   UNL A   1      36.909  29.478  30.080  1.00  0.00     0.010 A 
ATOM     27  C   UNL A   1      38.108  29.576  29.349  1.00  0.00    -0.014 A 
BRANCH  27  28
ATOM     28  C   UNL A   1      39.410  29.217  29.966  1.00  0.00     0.031 A 
ATOM     29  C   UNL A   1      39.880  29.969  31.183  1.00  0.00     0.074 A 
ATOM     30  C   UNL A   1      40.145  28.200  29.481  1.00  0.00     0.049 A 
ATOM     31  N   UNL A   1      40.978  29.819  31.879  1.00  0.00    -0.248 NA
ATOM     32  C   UNL A   1      38.992  31.032  31.682  1.00  0.00     0.031 C 
ATOM     33  C   UNL A   1      39.783  27.371  28.331  1.00  0.00     0.029 A 
ATOM     34  N   UNL A   1      41.352  27.692  29.896  1.00  0.00    -0.354 N 
ATOM     35  C   UNL A   1      40.915  30.766  32.895  1.00  0.00     0.074 A 
ATOM     36  C   UNL A   1      39.685  31.506  32.707  1.00  0.00     0.031 C 
ATOM     37  C   UNL A   1      40.754  26.463  28.127  1.00  0.00     0.029 A 
ATOM     38  C   UNL A   1      41.814  26.662  29.113  1.00  0.00     0.049 A 
ATOM     39  H   UNL A   1      41.839  28.036  30.678  1.00  0.00     0.167 HD
ATOM     40  C   UNL A   1      41.796  30.991  33.900  1.00  0.00     0.037 A 
ATOM     41  C   UNL A   1      42.969  25.968  29.176  1.00  0.00     0.037 A 
ATOM     42  C   UNL A   1      43.018  30.256  34.087  1.00  0.00     0.049 A 
ATOM     43  C   UNL A   1      43.961  26.274  30.267  1.00  0.00     0.074 A 
ATOM     44  C   UNL A   1      43.968  30.402  35.083  1.00  0.00     0.029 A 
ATOM     45  N   UNL A   1      43.465  29.238  33.257  1.00  0.00    -0.354 N 
ATOM     46  N   UNL A   1      43.878  27.159  31.232  1.00  0.00    -0.248 NA
ATOM     47  C   UNL A   1      45.202  25.487  30.280  1.00  0.00     0.031 C 
ATOM     48  C   UNL A   1      45.009  29.501  34.832  1.00  0.00     0.029 A 
ATOM     49  C   UNL A   1      44.687  28.763  33.705  1.00  0.00     0.049 A 
ATOM     50  H   UNL A   1      42.986  28.903  32.465  1.00  0.00     0.167 HD
ATOM     51  C   UNL A   1      45.044  27.019  31.979  1.00  0.00     0.074 A 
ATOM     52  C   UNL A   1      45.811  25.958  31.359  1.00  0.00     0.031 C 
ATOM     53  C   UNL A   1      45.440  27.704  33.080  1.00  0.00     0.037 A 
BRANCH  40  54
ATOM     54  C   UNL A   1      41.474  32.099  34.865  1.00  0.00     0.058 A 
ATOM     55  C   UNL A   1      41.963  33.402  34.679  1.00  0.00     0.135 A 
ATOM     56  C   UNL A   1      40.651  31.859  35.976  1.00  0.00     0.135 A 
ATOM     57  F   UNL A   1      42.768  33.681  33.642  1.00  0.00    -0.206 F 
ATOM     58  C   UNL A   1      41.670  34.423  35.579  1.00  0.00     0.059 A 
ATOM     59  C   UNL A   1      40.325  32.871  36.875  1.00  0.00     0.059 A 
ATOM     60  F   UNL A   1      40.158  30.632  36.200  1.00  0.00    -0.206 F 
ATOM     61  C   UNL A   1      40.853  34.146  36.676  1.00  0.00     0.060 A 
BRANCH  61  62
ATOM     62  S   UNL A   1      40.488  35.476  37.842  1.00  0.00     0.124 S 
ATOM     63  O   UNL A   1      40.439  36.633  36.954  1.00  0.00    -0.237 OA
ATOM     64  O   UNL A   1      39.210  35.056  38.406  1.00  0.00    -0.237 OA
ATOM     65  O   UNL A   1      41.619  35.440  38.763  1.00  0.00    -0.744 OA
ENDBRANCH  61  62
ENDBRANCH  40  54
BRANCH  41  66
ATOM     66  C   UNL A   1      43.254  24.918  28.163  1.00  0.00     0.058 A 
ATOM     67  C   UNL A   1      43.855  25.233  26.937  1.00  0.00     0.135 A 
ATOM     68  C   UNL A   1      42.938  23.572  28.412  1.00  0.00     0.135 A 
ATOM     69  F   UNL A   1      44.162  26.507  26.649  1.00  0.00    -0.206 F 
ATOM     70  C   UNL A   1      44.128  24.253  25.987  1.00  0.00     0.059 A 
ATOM     71  C   UNL A   1      43.222  22.572  27.489  1.00  0.00     0.059 A 
ATOM     72  F   UNL A   1      42.369  23.219  29.575  1.00  0.00    -0.206 F 
ATOM     73  C   UNL A   1      43.810  22.924  26.274  1.00  0.00     0.060 A 
BRANCH  73  74
ATOM     74  S   UNL A   1      44.224  21.650  25.062  1.00  0.00     0.124 S 
ATOM     75  O   UNL A   1      44.111  22.390  23.810  1.00  0.00    -0.237 OA
ATOM     76  O   UNL A   1      45.576  21.272  25.461  1.00  0.00    -0.237 OA
ATOM     77  O   UNL A   1      43.204  20.631  25.288  1.00  0.00    -0.744 OA
ENDBRANCH  73  74
ENDBRANCH  41  66
BRANCH  53  78
ATOM     78  C   UNL A   1      46.752  27.316  33.705  1.00  0.00     0.058 A 
ATOM     79  C   UNL A   1      47.954  27.948  33.350  1.00  0.00     0.135 A 
ATOM     80  C   UNL A   1      46.798  26.337  34.711  1.00  0.00     0.135 A 
ATOM     81  F   UNL A   1      47.965  28.886  32.390  1.00  0.00    -0.206 F 
ATOM     82  C   UNL A   1      49.159  27.609  33.956  1.00  0.00     0.059 A 
ATOM     83  C   UNL A   1      47.989  25.999  35.348  1.00  0.00     0.059 A 
ATOM     84  F   UNL A   1      45.675  25.709  35.096  1.00  0.00    -0.206 F 
ATOM     85  C   UNL A   1      49.166  26.633  34.955  1.00  0.00     0.060 A 
BRANCH  85  86
ATOM     86  S   UNL A   1      50.731  26.226  35.761  1.00  0.00     0.124 S 
ATOM     87  O   UNL A   1      51.445  27.496  35.674  1.00  0.00    -0.237 OA
ATOM     88  O   UNL A   1      50.303  25.831  37.099  1.00  0.00    -0.237 OA
ATOM     89  O   UNL A   1      51.266  25.146  34.936  1.00  0.00    -0.744 OA
ENDBRANCH  85  86
ENDBRANCH  53  78
ENDBRANCH  27  28
ENDBRANCH  20  22
ENDBRANCH  19  20
ENDBRANCH  18  19
ENDBRANCH   1  18
TORSDOF 20
ENDMDL
MODEL 2
REMARK VINA RESULT:      -8.6      3.153     11.488
REMARK SMILES CC[C@@H](Oc1ccccc1)C(=O)OCCOCCOC(=O)c1ccc(-c2c3nc(c(-c4c(F)cc(S(=O)(=O)[O-])cc4F)c4ccc([nH]4)c(-c4c(F)cc(S(=O)(=O)[O-])cc4F)c4nc(c(-c5c(F)cc(S(=O)(=O)[O-])cc5F)c5ccc2[nH]5)C=C4)C=C3)cc1
REMARK SMILES IDX 17 1 16 2 15 3 14 4 13 5 11 6 12 7 3 8 2 9 1 10 4 11 5 12
REMARK SMILES IDX 6 13 10 14 7 15 9 16 8 17 18 18 19 19 20 20 21 21 22 22
REMARK SMILES IDX 23 23 87 24 24 25 86 26 25 27 26 28 27 29 80 30 28 31 85 32
REMARK SMILES IDX 79 33 81 34 29 35 84 36 78 37 77 38 30 40 64 41 43 42 63 43
REMARK SMILES IDX 44 44 47 45 62 46 82 47 45 48 46 49 61 51 83 52 48 53 31 54
REMARK SMILES IDX 32 55 41 56 33 57 34 58 40 59 42 60 35 61 36 62 37 63 38 64
REMARK SMILES IDX 39 65 65 66 66 67 75 68 67 69 68 70 74 71 76 72 69 73 70 74
REMARK SMILES IDX 71 75 72 76 73 77 49 78 50 79 59 80 51 81 52 82 58 83 60 84
REMARK SMILES IDX 53 85 54 86 55 87 56 88 57 89
REMARK H PARENT 81 39 47 50
REMARK Flexibility Score: inf
ROOT
ATOM      1  C   UNL A   1      43.020  22.242  25.028  1.00  0.00     0.202 C 
ENDROOT
BRANCH   1   2
ATOM      2  O   UNL A   1      43.610  21.159  25.741  1.00  0.00    -0.374 OA
BRANCH   2   3
ATOM      3  C   UNL A   1      44.907  20.727  25.326  1.00  0.00     0.202 C 
BRANCH   3   4
ATOM      4  C   UNL A   1      45.694  21.698  24.441  1.00  0.00     0.261 C 
BRANCH   4   5
ATOM      5  O   UNL A   1      46.652  22.460  25.201  1.00  0.00    -0.461 OA
BRANCH   5   6
ATOM      6  C   UNL A   1      46.304  23.743  25.493  1.00  0.00     0.347 C 
ATOM      7  O   UNL A   1      45.792  24.528  24.699  1.00  0.00    -0.248 OA
BRANCH   6   8
ATOM      8  C   UNL A   1      46.612  24.128  26.941  1.00  0.00     0.282 C 
BRANCH   8   9
ATOM      9  C   UNL A   1      47.957  24.851  27.139  1.00  0.00     0.054 C 
ATOM     10  C   UNL A   1      47.843  26.344  26.833  1.00  0.00     0.008 C 
ENDBRANCH   8   9
BRANCH   8  11
ATOM     11  O   UNL A   1      45.535  24.969  27.391  1.00  0.00    -0.479 OA
BRANCH  11  12
ATOM     12  C   UNL A   1      45.084  24.554  28.614  1.00  0.00     0.120 A 
ATOM     13  C   UNL A   1      45.372  25.309  29.748  1.00  0.00     0.046 A 
ATOM     14  C   UNL A   1      44.364  23.365  28.710  1.00  0.00     0.046 A 
ATOM     15  C   UNL A   1      44.886  24.894  30.987  1.00  0.00     0.004 A 
ATOM     16  C   UNL A   1      43.868  22.960  29.947  1.00  0.00     0.004 A 
ATOM     17  C   UNL A   1      44.125  23.727  31.084  1.00  0.00     0.000 A 
ENDBRANCH  11  12
ENDBRANCH   8  11
ENDBRANCH   6   8
ENDBRANCH   5   6
ENDBRANCH   4   5
ENDBRANCH   3   4
ENDBRANCH   2   3
ENDBRANCH   1   2
BRANCH   1  18
ATOM     18  C   UNL A   1      42.208  23.247  25.857  1.00  0.00     0.261 C 
BRANCH  18  19
ATOM     19  O   UNL A   1      42.810  24.554  25.898  1.00  0.00    -0.460 OA
BRANCH  19  20
ATOM     20  C   UNL A   1      41.923  25.582  25.895  1.00  0.00     0.338 C 
ATOM     21  O   UNL A   1      41.123  25.856  25.017  1.00  0.00    -0.246 OA
BRANCH  20  22
ATOM     22  C   UNL A   1      41.921  26.274  27.199  1.00  0.00     0.060 A 
ATOM     23  C   UNL A   1      40.896  25.950  28.095  1.00  0.00     0.016 A 
ATOM     24  C   UNL A   1      42.830  27.291  27.501  1.00  0.00     0.016 A 
ATOM     25  C   UNL A   1      40.742  26.676  29.275  1.00  0.00     0.010 A 
ATOM     26  C   UNL A   1      42.668  28.025  28.684  1.00  0.00     0.010 A 
ATOM     27  C   UNL A   1      41.602  27.744  29.559  1.00  0.00    -0.014 A 
BRANCH  27  28
ATOM     28  C   UNL A   1      41.290  28.646  30.697  1.00  0.00     0.031 A 
ATOM     29  C   UNL A   1      42.110  28.551  31.956  1.00  0.00     0.074 A 
ATOM     30  C   UNL A   1      40.321  29.573  30.595  1.00  0.00     0.049 A 
ATOM     31  N   UNL A   1      42.011  29.240  33.065  1.00  0.00    -0.248 NA
ATOM     32  C   UNL A   1      43.185  27.546  31.967  1.00  0.00     0.031 C 
ATOM     33  C   UNL A   1      39.481  29.790  29.417  1.00  0.00     0.029 A 
ATOM     34  N   UNL A   1      39.879  30.507  31.500  1.00  0.00    -0.354 N 
ATOM     35  C   UNL A   1      43.007  28.754  33.903  1.00  0.00     0.074 A 
ATOM     36  C   UNL A   1      43.679  27.691  33.188  1.00  0.00     0.031 C 
ATOM     37  C   UNL A   1      38.618  30.788  29.676  1.00  0.00     0.029 A 
ATOM     38  C   UNL A   1      38.827  31.263  31.043  1.00  0.00     0.049 A 
ATOM     39  H   UNL A   1      40.278  30.622  32.392  1.00  0.00     0.167 HD
ATOM     40  C   UNL A   1      43.339  29.163  35.152  1.00  0.00     0.037 A 
ATOM     41  C   UNL A   1      38.104  32.218  31.661  1.00  0.00     0.037 A 
ATOM     42  C   UNL A   1      42.671  30.220  35.864  1.00  0.00     0.049 A 
ATOM     43  C   UNL A   1      38.453  32.618  33.071  1.00  0.00     0.074 A 
ATOM     44  C   UNL A   1      42.943  30.715  37.127  1.00  0.00     0.029 A 
ATOM     45  N   UNL A   1      41.591  30.943  35.377  1.00  0.00    -0.354 N 
ATOM     46  N   UNL A   1      39.411  32.163  33.843  1.00  0.00    -0.248 NA
ATOM     47  C   UNL A   1      37.627  33.662  33.692  1.00  0.00     0.031 C 
ATOM     48  C   UNL A   1      42.003  31.709  37.421  1.00  0.00     0.029 A 
ATOM     49  C   UNL A   1      41.172  31.864  36.324  1.00  0.00     0.049 A 
ATOM     50  H   UNL A   1      41.182  30.819  34.491  1.00  0.00     0.167 HD
ATOM     51  C   UNL A   1      39.315  32.880  35.032  1.00  0.00     0.074 A 
ATOM     52  C   UNL A   1      38.213  33.806  34.873  1.00  0.00     0.031 C 
ATOM     53  C   UNL A   1      40.074  32.782  36.152  1.00  0.00     0.037 A 
BRANCH  40  54
ATOM     54  C   UNL A   1      44.468  28.443  35.838  1.00  0.00     0.058 A 
ATOM     55  C   UNL A   1      45.791  28.906  35.761  1.00  0.00     0.135 A 
ATOM     56  C   UNL A   1      44.219  27.290  36.597  1.00  0.00     0.135 A 
ATOM     57  F   UNL A   1      46.085  29.995  35.034  1.00  0.00    -0.206 F 
ATOM     58  C   UNL A   1      46.833  28.232  36.391  1.00  0.00     0.059 A 
ATOM     59  C   UNL A   1      45.242  26.613  37.255  1.00  0.00     0.059 A 
ATOM     60  F   UNL A   1      42.972  26.805  36.702  1.00  0.00    -0.206 F 
ATOM     61  C   UNL A   1      46.549  27.084  37.132  1.00  0.00     0.060 A 
BRANCH  61  62
ATOM     62  S   UNL A   1      47.912  26.213  37.936  1.00  0.00     0.124 S 
ATOM     63  O   UNL A   1      47.261  25.707  39.140  1.00  0.00    -0.237 OA
ATOM     64  O   UNL A   1      48.272  25.209  36.941  1.00  0.00    -0.237 OA
ATOM     65  O   UNL A   1      48.904  27.261  38.152  1.00  0.00    -0.744 OA
ENDBRANCH  61  62
ENDBRANCH  40  54
BRANCH  41  66
ATOM     66  C   UNL A   1      36.967  32.860  30.950  1.00  0.00     0.058 A 
ATOM     67  C   UNL A   1      35.649  32.424  31.144  1.00  0.00     0.135 A 
ATOM     68  C   UNL A   1      37.180  33.931  30.068  1.00  0.00     0.135 A 
ATOM     69  F   UNL A   1      35.398  31.394  31.966  1.00  0.00    -0.206 F 
ATOM     70  C   UNL A   1      34.580  33.024  30.484  1.00  0.00     0.059 A 
ATOM     71  C   UNL A   1      36.127  34.561  29.416  1.00  0.00     0.059 A 
ATOM     72  F   UNL A   1      38.424  34.390  29.856  1.00  0.00    -0.206 F 
ATOM     73  C   UNL A   1      34.829  34.094  29.624  1.00  0.00     0.060 A 
BRANCH  73  74
ATOM     74  S   UNL A   1      33.430  34.906  28.819  1.00  0.00     0.124 S 
ATOM     75  O   UNL A   1      33.056  33.916  27.816  1.00  0.00    -0.237 OA
ATOM     76  O   UNL A   1      32.496  35.078  29.927  1.00  0.00    -0.237 OA
ATOM     77  O   UNL A   1      34.013  36.140  28.302  1.00  0.00    -0.744 OA
ENDBRANCH  73  74
ENDBRANCH  41  66
BRANCH  53  78
ATOM     78  C   UNL A   1      39.759  33.716  37.288  1.00  0.00     0.058 A 
ATOM     79  C   UNL A   1      38.883  33.349  38.322  1.00  0.00     0.135 A 
ATOM     80  C   UNL A   1      40.383  34.971  37.371  1.00  0.00     0.135 A 
ATOM     81  F   UNL A   1      38.256  32.163  38.288  1.00  0.00    -0.206 F 
ATOM     82  C   UNL A   1      38.622  34.203  39.389  1.00  0.00     0.059 A 
ATOM     83  C   UNL A   1      40.154  35.832  38.442  1.00  0.00     0.059 A 
ATOM     84  F   UNL A   1      41.237  35.366  36.414  1.00  0.00    -0.206 F 
ATOM     85  C   UNL A   1      39.263  35.442  39.440  1.00  0.00     0.060 A 
BRANCH  85  86
ATOM     86  S   UNL A   1      38.943  36.528  40.848  1.00  0.00     0.124 S 
ATOM     87  O   UNL A   1      40.256  36.578  41.485  1.00  0.00    -0.237 OA
ATOM     88  O   UNL A   1      38.507  37.762  40.201  1.00  0.00    -0.237 OA
ATOM     89  O   UNL A   1      37.909  35.819  41.595  1.00  0.00    -0.744 OA
ENDBRANCH  85  86
ENDBRANCH  53  78
ENDBRANCH  27  28
ENDBRANCH  20  22
ENDBRANCH  19  20
ENDBRANCH  18  19
ENDBRANCH   1  18
TORSDOF 20
ENDMDL
MODEL 3
REMARK VINA RESULT:      -8.3      5.223      7.662
REMARK SMILES CC[C@@H](Oc1ccccc1)C(=O)OCCOCCOC(=O)c1ccc(-c2c3nc(c(-c4c(F)cc(S(=O)(=O)[O-])cc4F)c4ccc([nH]4)c(-c4c(F)cc(S(=O)(=O)[O-])cc4F)c4nc(c(-c5c(F)cc(S(=O)(=O)[O-])cc5F)c5ccc2[nH]5)C=C4)C=C3)cc1
REMARK SMILES IDX 17 1 16 2 15 3 14 4 13 5 11 6 12 7 3 8 2 9 1 10 4 11 5 12
REMARK SMILES IDX 6 13 10 14 7 15 9 16 8 17 18 18 19 19 20 20 21 21 22 22
REMARK SMILES IDX 23 23 87 24 24 25 86 26 25 27 26 28 27 29 80 30 28 31 85 32
REMARK SMILES IDX 79 33 81 34 29 35 84 36 78 37 77 38 30 40 64 41 43 42 63 43
REMARK SMILES IDX 44 44 47 45 62 46 82 47 45 48 46 49 61 51 83 52 48 53 31 54
REMARK SMILES IDX 32 55 41 56 33 57 34 58 40 59 42 60 35 61 36 62 37 63 38 64
REMARK SMILES IDX 39 65 65 66 66 67 75 68 67 69 68 70 74 71 76 72 69 73 70 74
REMARK SMILES IDX 71 75 72 76 73 77 49 78 50 79 59 80 51 81 52 82 58 83 60 84
REMARK SMILES IDX 53 85 54 86 55 87 56 88 57 89
REMARK H PARENT 81 39 47 50
REMARK Flexibility Score: inf
ROOT
ATOM      1  C   UNL A   1      34.110  31.111  27.617  1.00  0.00     0.202 C 
ENDROOT
BRANCH   1   2
ATOM      2  O   UNL A   1      34.393  29.716  27.674  1.00  0.00    -0.374 OA
BRANCH   2   3
ATOM      3  C   UNL A   1      33.548  28.842  26.924  1.00  0.00     0.202 C 
BRANCH   3   4
ATOM      4  C   UNL A   1      33.362  29.186  25.443  1.00  0.00     0.261 C 
BRANCH   4   5
ATOM      5  O   UNL A   1      34.143  28.325  24.591  1.00  0.00    -0.461 OA
BRANCH   5   6
ATOM      6  C   UNL A   1      33.542  27.911  23.441  1.00  0.00     0.347 C 
ATOM      7  O   UNL A   1      33.651  28.470  22.353  1.00  0.00    -0.248 OA
BRANCH   6   8
ATOM      8  C   UNL A   1      32.700  26.649  23.632  1.00  0.00     0.282 C 
BRANCH   8   9
ATOM      9  C   UNL A   1      31.313  26.697  22.963  1.00  0.00     0.054 C 
ATOM     10  C   UNL A   1      30.278  27.366  23.866  1.00  0.00     0.008 C 
ENDBRANCH   8   9
BRANCH   8  11
ATOM     11  O   UNL A   1      33.461  25.551  23.099  1.00  0.00    -0.479 OA
BRANCH  11  12
ATOM     12  C   UNL A   1      33.928  24.757  24.111  1.00  0.00     0.120 A 
ATOM     13  C   UNL A   1      35.115  24.049  23.940  1.00  0.00     0.046 A 
ATOM     14  C   UNL A   1      33.193  24.648  25.289  1.00  0.00     0.046 A 
ATOM     15  C   UNL A   1      35.599  23.264  24.985  1.00  0.00     0.004 A 
ATOM     16  C   UNL A   1      33.687  23.873  26.338  1.00  0.00     0.004 A 
ATOM     17  C   UNL A   1      34.892  23.186  26.187  1.00  0.00     0.000 A 
ENDBRANCH  11  12
ENDBRANCH   8  11
ENDBRANCH   6   8
ENDBRANCH   5   6
ENDBRANCH   4   5
ENDBRANCH   3   4
ENDBRANCH   2   3
ENDBRANCH   1   2
BRANCH   1  18
ATOM     18  C   UNL A   1      34.605  31.959  28.796  1.00  0.00     0.261 C 
BRANCH  18  19
ATOM     19  O   UNL A   1      36.039  31.964  28.919  1.00  0.00    -0.460 OA
BRANCH  19  20
ATOM     20  C   UNL A   1      36.516  31.253  29.974  1.00  0.00     0.338 C 
ATOM     21  O   UNL A   1      36.001  31.140  31.074  1.00  0.00    -0.246 OA
BRANCH  20  22
ATOM     22  C   UNL A   1      37.700  30.465  29.580  1.00  0.00     0.060 A 
ATOM     23  C   UNL A   1      38.655  30.204  30.570  1.00  0.00     0.016 A 
ATOM     24  C   UNL A   1      37.931  30.081  28.257  1.00  0.00     0.016 A 
ATOM     25  C   UNL A   1      39.868  29.605  30.233  1.00  0.00     0.010 A 
ATOM     26  C   UNL A   1      39.154  29.486  27.919  1.00  0.00     0.010 A 
ATOM     27  C   UNL A   1      40.142  29.277  28.899  1.00  0.00    -0.014 A 
BRANCH  27  28
ATOM     28  C   UNL A   1      41.514  28.853  28.522  1.00  0.00     0.031 A 
ATOM     29  C   UNL A   1      42.622  29.872  28.512  1.00  0.00     0.074 A 
ATOM     30  C   UNL A   1      41.783  27.566  28.239  1.00  0.00     0.049 A 
ATOM     31  N   UNL A   1      43.888  29.719  28.218  1.00  0.00    -0.248 NA
ATOM     32  C   UNL A   1      42.253  31.248  28.885  1.00  0.00     0.031 C 
ATOM     33  C   UNL A   1      40.807  26.477  28.249  1.00  0.00     0.029 A 
ATOM     34  N   UNL A   1      42.963  26.956  27.887  1.00  0.00    -0.354 N 
ATOM     35  C   UNL A   1      44.467  30.974  28.368  1.00  0.00     0.074 A 
ATOM     36  C   UNL A   1      43.408  31.884  28.750  1.00  0.00     0.031 C 
ATOM     37  C   UNL A   1      41.426  25.333  27.908  1.00  0.00     0.029 A 
ATOM     38  C   UNL A   1      42.834  25.612  27.633  1.00  0.00     0.049 A 
ATOM     39  H   UNL A   1      43.818  27.438  27.821  1.00  0.00     0.167 HD
ATOM     40  C   UNL A   1      45.764  31.334  28.212  1.00  0.00     0.037 A 
ATOM     41  C   UNL A   1      43.745  24.712  27.211  1.00  0.00     0.037 A 
ATOM     42  C   UNL A   1      46.817  30.429  27.833  1.00  0.00     0.049 A 
ATOM     43  C   UNL A   1      45.170  25.146  26.988  1.00  0.00     0.074 A 
ATOM     44  C   UNL A   1      48.164  30.697  27.663  1.00  0.00     0.029 A 
ATOM     45  N   UNL A   1      46.641  29.081  27.557  1.00  0.00    -0.354 N 
ATOM     46  N   UNL A   1      45.706  26.332  27.154  1.00  0.00    -0.248 NA
ATOM     47  C   UNL A   1      46.115  24.120  26.525  1.00  0.00     0.031 C 
ATOM     48  C   UNL A   1      48.796  29.521  27.245  1.00  0.00     0.029 A 
ATOM     49  C   UNL A   1      47.851  28.510  27.196  1.00  0.00     0.049 A 
ATOM     50  H   UNL A   1      45.784  28.601  27.608  1.00  0.00     0.167 HD
ATOM     51  C   UNL A   1      47.053  26.189  26.836  1.00  0.00     0.074 A 
ATOM     52  C   UNL A   1      47.252  24.800  26.478  1.00  0.00     0.031 C 
ATOM     53  C   UNL A   1      48.036  27.123  26.844  1.00  0.00     0.037 A 
BRANCH  40  54
ATOM     54  C   UNL A   1      46.111  32.780  28.433  1.00  0.00     0.058 A 
ATOM     55  C   UNL A   1      46.050  33.720  27.392  1.00  0.00     0.135 A 
ATOM     56  C   UNL A   1      46.488  33.235  29.706  1.00  0.00     0.135 A 
ATOM     57  F   UNL A   1      45.711  33.333  26.151  1.00  0.00    -0.206 F 
ATOM     58  C   UNL A   1      46.380  35.056  27.599  1.00  0.00     0.059 A 
ATOM     59  C   UNL A   1      46.799  34.572  29.942  1.00  0.00     0.059 A 
ATOM     60  F   UNL A   1      46.563  32.379  30.736  1.00  0.00    -0.206 F 
ATOM     61  C   UNL A   1      46.757  35.472  28.876  1.00  0.00     0.060 A 
BRANCH  61  62
ATOM     62  S   UNL A   1      47.192  37.206  29.130  1.00  0.00     0.124 S 
ATOM     63  O   UNL A   1      48.378  37.332  28.290  1.00  0.00    -0.237 OA
ATOM     64  O   UNL A   1      46.001  37.900  28.653  1.00  0.00    -0.237 OA
ATOM     65  O   UNL A   1      47.430  37.289  30.567  1.00  0.00    -0.744 OA
ENDBRANCH  61  62
ENDBRANCH  40  54
BRANCH  41  66
ATOM     66  C   UNL A   1      43.331  23.306  26.961  1.00  0.00     0.058 A 
ATOM     67  C   UNL A   1      43.047  22.851  25.666  1.00  0.00     0.135 A 
ATOM     68  C   UNL A   1      43.225  22.388  28.018  1.00  0.00     0.135 A 
ATOM     69  F   UNL A   1      43.121  23.696  24.627  1.00  0.00    -0.206 F 
ATOM     70  C   UNL A   1      42.664  21.534  25.426  1.00  0.00     0.059 A 
ATOM     71  C   UNL A   1      42.867  21.062  27.800  1.00  0.00     0.059 A 
ATOM     72  F   UNL A   1      43.496  22.774  29.274  1.00  0.00    -0.206 F 
ATOM     73  C   UNL A   1      42.579  20.647  26.500  1.00  0.00     0.060 A 
BRANCH  73  74
ATOM     74  S   UNL A   1      42.141  18.925  26.171  1.00  0.00     0.124 S 
ATOM     75  O   UNL A   1      42.369  18.311  27.474  1.00  0.00    -0.237 OA
ATOM     76  O   UNL A   1      40.747  19.037  25.753  1.00  0.00    -0.237 OA
ATOM     77  O   UNL A   1      43.074  18.538  25.118  1.00  0.00    -0.744 OA
ENDBRANCH  73  74
ENDBRANCH  41  66
BRANCH  53  78
ATOM     78  C   UNL A   1      49.424  26.675  26.479  1.00  0.00     0.058 A 
ATOM     79  C   UNL A   1      50.280  26.085  27.422  1.00  0.00     0.135 A 
ATOM     80  C   UNL A   1      49.884  26.787  25.156  1.00  0.00     0.135 A 
ATOM     81  F   UNL A   1      49.893  25.960  28.701  1.00  0.00    -0.206 F 
ATOM     82  C   UNL A   1      51.551  25.640  27.072  1.00  0.00     0.059 A 
ATOM     83  C   UNL A   1      51.142  26.326  24.778  1.00  0.00     0.059 A 
ATOM     84  F   UNL A   1      49.100  27.333  24.213  1.00  0.00    -0.206 F 
ATOM     85  C   UNL A   1      51.972  25.764  25.746  1.00  0.00     0.060 A 
BRANCH  85  86
ATOM     86  S   UNL A   1      53.610  25.151  25.294  1.00  0.00     0.124 S 
ATOM     87  O   UNL A   1      53.834  25.825  24.018  1.00  0.00    -0.237 OA
ATOM     88  O   UNL A   1      54.437  25.612  26.406  1.00  0.00    -0.237 OA
ATOM     89  O   UNL A   1      53.422  23.705  25.217  1.00  0.00    -0.744 OA
ENDBRANCH  85  86
ENDBRANCH  53  78
ENDBRANCH  27  28
ENDBRANCH  20  22
ENDBRANCH  19  20
ENDBRANCH  18  19
ENDBRANCH   1  18
TORSDOF 20
ENDMDL
