MODEL 1
REMARK VINA RESULT:     -11.5      0.000      0.000
REMARK SMILES CCc1cc(C(=O)c2[nH]c3cc(Cl)ccc3c2CC(=O)OCCOCCOC(=O)c2ccc(-c3c4nc(c(-c5c(F)cc(S(=O)(=O)[O-])cc5F)c5ccc([nH]5)c(-c5c(F)cc(S(=O)(=O)[O-])cc5F)c5nc(c(-c6c(F)cc(S(=O)(=O)[O-])cc6F)c6ccc3[nH]6)C=C5)C=C4)cc2)ncc1Cl
REMARK SMILES IDX 23 1 22 2 21 3 19 4 20 5 18 6 17 7 8 8 9 9 10 10 16 12 11 13
REMARK SMILES IDX 15 14 12 15 14 16 13 17 6 18 7 19 5 20 3 21 4 22 98 23 97 24
REMARK SMILES IDX 99 25 96 26 2 27 1 28 24 29 25 30 26 31 27 32 28 33 29 34
REMARK SMILES IDX 30 35 31 36 95 37 32 38 94 39 33 40 34 41 35 42 88 43 36 44
REMARK SMILES IDX 93 45 87 46 89 47 37 48 92 49 86 50 85 51 38 53 72 54 51 55
REMARK SMILES IDX 71 56 52 57 55 58 70 59 90 60 53 61 54 62 69 64 91 65 56 66
REMARK SMILES IDX 39 67 40 68 49 69 41 70 42 71 48 72 50 73 43 74 44 75 45 76
REMARK SMILES IDX 46 77 47 78 73 79 74 80 83 81 75 82 76 83 82 84 84 85 77 86
REMARK SMILES IDX 78 87 79 88 80 89 81 90 57 91 58 92 67 93 59 94 60 95 66 96
REMARK SMILES IDX 68 97 61 98 62 99 63 100 64 101 65 102
REMARK H PARENT 9 11 89 52 55 63
REMARK Flexibility Score: inf
ROOT
ATOM      1  C   UNL A   1      38.951  21.493  25.775  1.00  0.00     0.202 C 
ENDROOT
BRANCH   1   2
ATOM      2  C   UNL A   1      37.766  22.460  25.668  1.00  0.00     0.261 C 
BRANCH   2   3
ATOM      3  O   UNL A   1      37.166  22.438  24.351  1.00  0.00    -0.463 OA
BRANCH   3   4
ATOM      4  C   UNL A   1      36.118  23.287  24.175  1.00  0.00     0.310 C 
ATOM      5  O   UNL A   1      35.556  23.472  23.097  1.00  0.00    -0.252 OA
BRANCH   4   6
ATOM      6  C   UNL A   1      35.719  24.083  25.399  1.00  0.00     0.161 C 
BRANCH   6   7
ATOM      7  C   UNL A   1      34.258  24.350  25.652  1.00  0.00     0.000 A 
ATOM      8  C   UNL A   1      33.284  23.431  26.058  1.00  0.00     0.093 A 
ATOM      9  N   UNL A   1      32.107  24.138  26.187  1.00  0.00    -0.351 N 
ATOM     10  C   UNL A   1      32.217  25.370  25.591  1.00  0.00     0.048 A 
ATOM     11  H   UNL A   1      31.300  23.806  26.643  1.00  0.00     0.167 HD
ATOM     12  C   UNL A   1      33.564  25.552  25.287  1.00  0.00     0.004 A 
ATOM     13  C   UNL A   1      31.235  26.326  25.296  1.00  0.00     0.047 A 
ATOM     14  C   UNL A   1      33.955  26.758  24.665  1.00  0.00     0.012 A 
ATOM     15  C   UNL A   1      31.646  27.488  24.638  1.00  0.00     0.043 A 
ATOM     16  C   UNL A   1      32.984  27.711  24.329  1.00  0.00     0.021 A 
ATOM     17  Cl  UNL A   1      30.465  28.653  24.172  1.00  0.00    -0.084 Cl
BRANCH   8  18
ATOM     18  C   UNL A   1      33.451  22.003  26.314  1.00  0.00     0.227 C 
ATOM     19  O   UNL A   1      33.819  21.572  27.405  1.00  0.00    -0.285 OA
BRANCH  18  20
ATOM     20  C   UNL A   1      33.249  21.009  25.214  1.00  0.00     0.113 A 
ATOM     21  C   UNL A   1      33.243  18.726  24.406  1.00  0.00    -0.026 A 
ATOM     22  C   UNL A   1      33.580  19.665  25.396  1.00  0.00     0.037 A 
ATOM     23  C   UNL A   1      32.574  19.200  23.265  1.00  0.00     0.062 A 
ATOM     24  C   UNL A   1      32.297  20.559  23.163  1.00  0.00     0.132 A 
ATOM     25  Cl  UNL A   1      32.056  18.156  21.994  1.00  0.00    -0.082 Cl
ATOM     26  N   UNL A   1      32.623  21.473  24.104  1.00  0.00    -0.251 NA
BRANCH  21  27
ATOM     27  C   UNL A   1      33.547  17.249  24.558  1.00  0.00     0.034 C 
ATOM     28  C   UNL A   1      35.010  16.860  24.740  1.00  0.00     0.009 C 
ENDBRANCH  21  27
ENDBRANCH  18  20
ENDBRANCH   8  18
ENDBRANCH   6   7
ENDBRANCH   4   6
ENDBRANCH   3   4
ENDBRANCH   2   3
ENDBRANCH   1   2
BRANCH   1  29
ATOM     29  O   UNL A   1      39.971  21.854  26.714  1.00  0.00    -0.374 OA
BRANCH  29  30
ATOM     30  C   UNL A   1      41.293  21.975  26.190  1.00  0.00     0.202 C 
BRANCH  30  31
ATOM     31  C   UNL A   1      41.861  23.397  26.158  1.00  0.00     0.261 C 
BRANCH  31  32
ATOM     32  O   UNL A   1      40.832  24.396  26.254  1.00  0.00    -0.460 OA
BRANCH  32  33
ATOM     33  C   UNL A   1      41.286  25.663  26.125  1.00  0.00     0.338 C 
ATOM     34  O   UNL A   1      41.528  26.257  25.079  1.00  0.00    -0.246 OA
BRANCH  33  35
ATOM     35  C   UNL A   1      41.318  26.343  27.429  1.00  0.00     0.060 A 
ATOM     36  C   UNL A   1      40.331  25.980  28.350  1.00  0.00     0.016 A 
ATOM     37  C   UNL A   1      42.220  27.372  27.717  1.00  0.00     0.016 A 
ATOM     38  C   UNL A   1      40.194  26.694  29.536  1.00  0.00     0.010 A 
ATOM     39  C   UNL A   1      42.080  28.089  28.913  1.00  0.00     0.010 A 
ATOM     40  C   UNL A   1      41.038  27.781  29.805  1.00  0.00    -0.014 A 
BRANCH  40  41
ATOM     41  C   UNL A   1      40.711  28.644  30.965  1.00  0.00     0.031 A 
ATOM     42  C   UNL A   1      41.551  28.553  32.210  1.00  0.00     0.074 A 
ATOM     43  C   UNL A   1      39.752  29.581  30.856  1.00  0.00     0.049 A 
ATOM     44  N   UNL A   1      41.557  29.326  33.265  1.00  0.00    -0.248 NA
ATOM     45  C   UNL A   1      42.520  27.446  32.272  1.00  0.00     0.031 C 
ATOM     46  C   UNL A   1      38.884  29.764  29.693  1.00  0.00     0.029 A 
ATOM     47  N   UNL A   1      39.366  30.570  31.723  1.00  0.00    -0.354 N 
ATOM     48  C   UNL A   1      42.535  28.812  34.108  1.00  0.00     0.074 A 
ATOM     49  C   UNL A   1      43.072  27.634  33.463  1.00  0.00     0.031 C 
ATOM     50  C   UNL A   1      38.079  30.818  29.911  1.00  0.00     0.029 A 
ATOM     51  C   UNL A   1      38.371  31.379  31.228  1.00  0.00     0.049 A 
ATOM     52  H   UNL A   1      39.762  30.689  32.616  1.00  0.00     0.167 HD
ATOM     53  C   UNL A   1      42.960  29.290  35.304  1.00  0.00     0.037 A 
ATOM     54  C   UNL A   1      37.776  32.459  31.770  1.00  0.00     0.037 A 
ATOM     55  C   UNL A   1      42.412  30.460  35.942  1.00  0.00     0.049 A 
ATOM     56  C   UNL A   1      38.256  32.964  33.105  1.00  0.00     0.074 A 
ATOM     57  C   UNL A   1      42.771  31.033  37.148  1.00  0.00     0.029 A 
ATOM     58  N   UNL A   1      41.384  31.235  35.423  1.00  0.00    -0.354 N 
ATOM     59  N   UNL A   1      39.207  32.488  33.873  1.00  0.00    -0.248 NA
ATOM     60  C   UNL A   1      37.593  34.161  33.638  1.00  0.00     0.031 C 
ATOM     61  C   UNL A   1      41.933  32.132  37.378  1.00  0.00     0.029 A 
ATOM     62  C   UNL A   1      41.083  32.270  36.293  1.00  0.00     0.049 A 
ATOM     63  H   UNL A   1      40.934  31.071  34.563  1.00  0.00     0.167 HD
ATOM     64  C   UNL A   1      39.271  33.339  34.972  1.00  0.00     0.074 A 
ATOM     65  C   UNL A   1      38.275  34.370  34.755  1.00  0.00     0.031 C 
ATOM     66  C   UNL A   1      40.078  33.277  36.061  1.00  0.00     0.037 A 
BRANCH  53  67
ATOM     67  C   UNL A   1      44.057  28.535  36.002  1.00  0.00     0.058 A 
ATOM     68  C   UNL A   1      45.407  28.895  35.861  1.00  0.00     0.135 A 
ATOM     69  C   UNL A   1      43.756  27.450  36.841  1.00  0.00     0.135 A 
ATOM     70  F   UNL A   1      45.754  29.913  35.057  1.00  0.00    -0.206 F 
ATOM     71  C   UNL A   1      46.421  28.190  36.502  1.00  0.00     0.059 A 
ATOM     72  C   UNL A   1      44.752  26.744  37.512  1.00  0.00     0.059 A 
ATOM     73  F   UNL A   1      42.483  27.060  37.011  1.00  0.00    -0.206 F 
ATOM     74  C   UNL A   1      46.083  27.113  37.324  1.00  0.00     0.060 A 
BRANCH  74  75
ATOM     75  S   UNL A   1      47.408  26.203  38.148  1.00  0.00     0.124 S 
ATOM     76  O   UNL A   1      48.408  26.121  37.088  1.00  0.00    -0.237 OA
ATOM     77  O   UNL A   1      47.742  27.078  39.267  1.00  0.00    -0.237 OA
ATOM     78  O   UNL A   1      46.776  24.938  38.513  1.00  0.00    -0.744 OA
ENDBRANCH  74  75
ENDBRANCH  53  67
BRANCH  54  79
ATOM     79  C   UNL A   1      36.683  33.150  31.035  1.00  0.00     0.058 A 
ATOM     80  C   UNL A   1      36.956  34.042  29.989  1.00  0.00     0.135 A 
ATOM     81  C   UNL A   1      35.338  32.914  31.359  1.00  0.00     0.135 A 
ATOM     82  F   UNL A   1      38.227  34.306  29.646  1.00  0.00    -0.206 F 
ATOM     83  C   UNL A   1      35.936  34.687  29.297  1.00  0.00     0.059 A 
ATOM     84  C   UNL A   1      34.300  33.528  30.667  1.00  0.00     0.059 A 
ATOM     85  F   UNL A   1      35.024  32.058  32.345  1.00  0.00    -0.206 F 
ATOM     86  C   UNL A   1      34.609  34.421  29.642  1.00  0.00     0.060 A 
BRANCH  86  87
ATOM     87  S   UNL A   1      33.287  35.216  28.701  1.00  0.00     0.124 S 
ATOM     88  O   UNL A   1      34.046  36.061  27.786  1.00  0.00    -0.237 OA
ATOM     89  O   UNL A   1      32.607  34.072  28.100  1.00  0.00    -0.237 OA
ATOM     90  O   UNL A   1      32.524  35.919  29.727  1.00  0.00    -0.744 OA
ENDBRANCH  86  87
ENDBRANCH  54  79
BRANCH  66  91
ATOM     91  C   UNL A   1      39.918  34.365  37.087  1.00  0.00     0.058 A 
ATOM     92  C   UNL A   1      39.050  34.223  38.182  1.00  0.00     0.135 A 
ATOM     93  C   UNL A   1      40.639  35.564  36.973  1.00  0.00     0.135 A 
ATOM     94  F   UNL A   1      38.337  33.095  38.336  1.00  0.00    -0.206 F 
ATOM     95  C   UNL A   1      38.867  35.250  39.101  1.00  0.00     0.059 A 
ATOM     96  C   UNL A   1      40.491  36.594  37.896  1.00  0.00     0.059 A 
ATOM     97  F   UNL A   1      41.494  35.745  35.953  1.00  0.00    -0.206 F 
ATOM     98  C   UNL A   1      39.585  36.436  38.943  1.00  0.00     0.060 A 
BRANCH  98  99
ATOM     99  S   UNL A   1      39.325  37.774  40.129  1.00  0.00     0.124 S 
ATOM    100  O   UNL A   1      39.131  37.030  41.369  1.00  0.00    -0.237 OA
ATOM    101  O   UNL A   1      40.571  38.529  40.030  1.00  0.00    -0.237 OA
ATOM    102  O   UNL A   1      38.143  38.457  39.613  1.00  0.00    -0.744 OA
ENDBRANCH  98  99
ENDBRANCH  66  91
ENDBRANCH  40  41
ENDBRANCH  33  35
ENDBRANCH  32  33
ENDBRANCH  31  32
ENDBRANCH  30  31
ENDBRANCH  29  30
ENDBRANCH   1  29
TORSDOF 21
ENDMDL
MODEL 2
REMARK VINA RESULT:     -11.3      0.950      3.673
REMARK SMILES CCc1cc(C(=O)c2[nH]c3cc(Cl)ccc3c2CC(=O)OCCOCCOC(=O)c2ccc(-c3c4nc(c(-c5c(F)cc(S(=O)(=O)[O-])cc5F)c5ccc([nH]5)c(-c5c(F)cc(S(=O)(=O)[O-])cc5F)c5nc(c(-c6c(F)cc(S(=O)(=O)[O-])cc6F)c6ccc3[nH]6)C=C5)C=C4)cc2)ncc1Cl
REMARK SMILES IDX 23 1 22 2 21 3 19 4 20 5 18 6 17 7 8 8 9 9 10 10 16 12 11 13
REMARK SMILES IDX 15 14 12 15 14 16 13 17 6 18 7 19 5 20 3 21 4 22 98 23 97 24
REMARK SMILES IDX 99 25 96 26 2 27 1 28 24 29 25 30 26 31 27 32 28 33 29 34
REMARK SMILES IDX 30 35 31 36 95 37 32 38 94 39 33 40 34 41 35 42 88 43 36 44
REMARK SMILES IDX 93 45 87 46 89 47 37 48 92 49 86 50 85 51 38 53 72 54 51 55
REMARK SMILES IDX 71 56 52 57 55 58 70 59 90 60 53 61 54 62 69 64 91 65 56 66
REMARK SMILES IDX 39 67 40 68 49 69 41 70 42 71 48 72 50 73 43 74 44 75 45 76
REMARK SMILES IDX 46 77 47 78 73 79 74 80 83 81 75 82 76 83 82 84 84 85 77 86
REMARK SMILES IDX 78 87 79 88 80 89 81 90 57 91 58 92 67 93 59 94 60 95 66 96
REMARK SMILES IDX 68 97 61 98 62 99 63 100 64 101 65 102
REMARK H PARENT 9 11 89 52 55 63
REMARK Flexibility Score: inf
ROOT
ATOM      1  C   UNL A   1      39.069  22.066  26.115  1.00  0.00     0.202 C 
ENDROOT
BRANCH   1   2
ATOM      2  C   UNL A   1      38.046  23.191  25.909  1.00  0.00     0.261 C 
BRANCH   2   3
ATOM      3  O   UNL A   1      36.718  22.799  26.330  1.00  0.00    -0.463 OA
BRANCH   3   4
ATOM      4  C   UNL A   1      35.697  23.472  25.735  1.00  0.00     0.310 C 
ATOM      5  O   UNL A   1      35.843  24.261  24.803  1.00  0.00    -0.252 OA
BRANCH   4   6
ATOM      6  C   UNL A   1      34.333  23.255  26.355  1.00  0.00     0.161 C 
BRANCH   6   7
ATOM      7  C   UNL A   1      33.355  22.338  25.667  1.00  0.00     0.000 A 
ATOM      8  C   UNL A   1      31.963  22.462  25.620  1.00  0.00     0.093 A 
ATOM      9  N   UNL A   1      31.501  21.411  24.855  1.00  0.00    -0.351 N 
ATOM     10  C   UNL A   1      32.488  20.471  24.683  1.00  0.00     0.048 A 
ATOM     11  H   UNL A   1      30.592  21.344  24.484  1.00  0.00     0.167 HD
ATOM     12  C   UNL A   1      33.673  21.041  25.140  1.00  0.00     0.004 A 
ATOM     13  C   UNL A   1      32.419  19.169  24.168  1.00  0.00     0.047 A 
ATOM     14  C   UNL A   1      34.857  20.277  25.069  1.00  0.00     0.012 A 
ATOM     15  C   UNL A   1      33.599  18.420  24.155  1.00  0.00     0.043 A 
ATOM     16  C   UNL A   1      34.804  18.961  24.590  1.00  0.00     0.021 A 
ATOM     17  Cl  UNL A   1      33.551  16.785  23.616  1.00  0.00    -0.084 Cl
BRANCH   8  18
ATOM     18  C   UNL A   1      31.134  23.494  26.236  1.00  0.00     0.227 C 
ATOM     19  O   UNL A   1      30.529  23.306  27.289  1.00  0.00    -0.285 OA
BRANCH  18  20
ATOM     20  C   UNL A   1      30.932  24.810  25.552  1.00  0.00     0.113 A 
ATOM     21  C   UNL A   1      31.173  27.219  25.494  1.00  0.00    -0.026 A 
ATOM     22  C   UNL A   1      31.228  26.007  26.205  1.00  0.00     0.037 A 
ATOM     23  C   UNL A   1      30.819  27.157  24.135  1.00  0.00     0.062 A 
ATOM     24  C   UNL A   1      30.528  25.920  23.572  1.00  0.00     0.132 A 
ATOM     25  Cl  UNL A   1      30.760  28.556  23.129  1.00  0.00    -0.082 Cl
ATOM     26  N   UNL A   1      30.569  24.749  24.247  1.00  0.00    -0.251 NA
BRANCH  21  27
ATOM     27  C   UNL A   1      31.513  28.548  26.138  1.00  0.00     0.034 C 
ATOM     28  C   UNL A   1      32.141  28.502  27.527  1.00  0.00     0.009 C 
ENDBRANCH  21  27
ENDBRANCH  18  20
ENDBRANCH   8  18
ENDBRANCH   6   7
ENDBRANCH   4   6
ENDBRANCH   3   4
ENDBRANCH   2   3
ENDBRANCH   1   2
BRANCH   1  29
ATOM     29  O   UNL A   1      40.135  22.350  27.029  1.00  0.00    -0.374 OA
BRANCH  29  30
ATOM     30  C   UNL A   1      41.458  22.215  26.511  1.00  0.00     0.202 C 
BRANCH  30  31
ATOM     31  C   UNL A   1      42.120  23.517  26.050  1.00  0.00     0.261 C 
BRANCH  31  32
ATOM     32  O   UNL A   1      41.196  24.617  26.023  1.00  0.00    -0.460 OA
BRANCH  32  33
ATOM     33  C   UNL A   1      41.790  25.830  25.966  1.00  0.00     0.338 C 
ATOM     34  O   UNL A   1      42.191  26.409  24.962  1.00  0.00    -0.246 OA
BRANCH  33  35
ATOM     35  C   UNL A   1      41.769  26.486  27.283  1.00  0.00     0.060 A 
ATOM     36  C   UNL A   1      40.775  26.071  28.175  1.00  0.00     0.016 A 
ATOM     37  C   UNL A   1      42.628  27.539  27.611  1.00  0.00     0.016 A 
ATOM     38  C   UNL A   1      40.587  26.756  29.370  1.00  0.00     0.010 A 
ATOM     39  C   UNL A   1      42.437  28.227  28.817  1.00  0.00     0.010 A 
ATOM     40  C   UNL A   1      41.386  27.866  29.678  1.00  0.00    -0.014 A 
BRANCH  40  41
ATOM     41  C   UNL A   1      41.004  28.695  30.847  1.00  0.00     0.031 A 
ATOM     42  C   UNL A   1      41.831  28.623  32.102  1.00  0.00     0.074 A 
ATOM     43  C   UNL A   1      40.003  29.587  30.739  1.00  0.00     0.049 A 
ATOM     44  N   UNL A   1      41.785  29.379  33.168  1.00  0.00    -0.248 NA
ATOM     45  C   UNL A   1      42.849  27.561  32.161  1.00  0.00     0.031 C 
ATOM     46  C   UNL A   1      39.144  29.748  29.566  1.00  0.00     0.029 A 
ATOM     47  N   UNL A   1      39.560  30.543  31.615  1.00  0.00    -0.354 N 
ATOM     48  C   UNL A   1      42.776  28.897  34.018  1.00  0.00     0.074 A 
ATOM     49  C   UNL A   1      43.376  27.756  33.362  1.00  0.00     0.031 C 
ATOM     50  C   UNL A   1      38.287  30.760  29.789  1.00  0.00     0.029 A 
ATOM     51  C   UNL A   1      38.535  31.313  31.118  1.00  0.00     0.049 A 
ATOM     52  H   UNL A   1      39.938  30.667  32.515  1.00  0.00     0.167 HD
ATOM     53  C   UNL A   1      43.162  29.375  35.226  1.00  0.00     0.037 A 
ATOM     54  C   UNL A   1      37.883  32.355  31.668  1.00  0.00     0.037 A 
ATOM     55  C   UNL A   1      42.551  30.508  35.874  1.00  0.00     0.049 A 
ATOM     56  C   UNL A   1      38.320  32.860  33.017  1.00  0.00     0.074 A 
ATOM     57  C   UNL A   1      42.866  31.079  37.094  1.00  0.00     0.029 A 
ATOM     58  N   UNL A   1      41.495  31.242  35.353  1.00  0.00    -0.354 N 
ATOM     59  N   UNL A   1      39.283  32.417  33.792  1.00  0.00    -0.248 NA
ATOM     60  C   UNL A   1      37.595  34.017  33.559  1.00  0.00     0.031 C 
ATOM     61  C   UNL A   1      41.975  32.133  37.329  1.00  0.00     0.029 A 
ATOM     62  C   UNL A   1      41.134  32.248  36.234  1.00  0.00     0.049 A 
ATOM     63  H   UNL A   1      41.065  31.072  34.484  1.00  0.00     0.167 HD
ATOM     64  C   UNL A   1      39.292  33.253  34.904  1.00  0.00     0.074 A 
ATOM     65  C   UNL A   1      38.252  34.240  34.689  1.00  0.00     0.031 C 
ATOM     66  C   UNL A   1      40.086  33.211  36.003  1.00  0.00     0.037 A 
BRANCH  53  67
ATOM     67  C   UNL A   1      44.283  28.661  35.929  1.00  0.00     0.058 A 
ATOM     68  C   UNL A   1      45.626  29.022  35.732  1.00  0.00     0.135 A 
ATOM     69  C   UNL A   1      44.014  27.616  36.826  1.00  0.00     0.135 A 
ATOM     70  F   UNL A   1      45.943  30.003  34.872  1.00  0.00    -0.206 F 
ATOM     71  C   UNL A   1      46.663  28.355  36.378  1.00  0.00     0.059 A 
ATOM     72  C   UNL A   1      45.033  26.949  37.502  1.00  0.00     0.059 A 
ATOM     73  F   UNL A   1      42.749  27.227  37.050  1.00  0.00    -0.206 F 
ATOM     74  C   UNL A   1      46.356  27.316  37.259  1.00  0.00     0.060 A 
BRANCH  74  75
ATOM     75  S   UNL A   1      47.710  26.455  38.088  1.00  0.00     0.124 S 
ATOM     76  O   UNL A   1      48.696  27.524  38.221  1.00  0.00    -0.237 OA
ATOM     77  O   UNL A   1      47.086  26.010  39.330  1.00  0.00    -0.237 OA
ATOM     78  O   UNL A   1      48.061  25.392  37.151  1.00  0.00    -0.744 OA
ENDBRANCH  74  75
ENDBRANCH  53  67
BRANCH  54  79
ATOM     79  C   UNL A   1      36.769  33.006  30.929  1.00  0.00     0.058 A 
ATOM     80  C   UNL A   1      35.430  32.781  31.278  1.00  0.00     0.135 A 
ATOM     81  C   UNL A   1      37.028  33.883  29.864  1.00  0.00     0.135 A 
ATOM     82  F   UNL A   1      35.131  31.945  32.284  1.00  0.00    -0.206 F 
ATOM     83  C   UNL A   1      34.386  33.391  30.591  1.00  0.00     0.059 A 
ATOM     84  C   UNL A   1      36.002  34.524  29.177  1.00  0.00     0.059 A 
ATOM     85  F   UNL A   1      38.294  34.143  29.499  1.00  0.00    -0.206 F 
ATOM     86  C   UNL A   1      34.683  34.264  29.542  1.00  0.00     0.060 A 
BRANCH  86  87
ATOM     87  S   UNL A   1      33.325  35.100  28.692  1.00  0.00     0.124 S 
ATOM     88  O   UNL A   1      32.800  34.028  27.853  1.00  0.00    -0.237 OA
ATOM     89  O   UNL A   1      32.474  35.515  29.804  1.00  0.00    -0.237 OA
ATOM     90  O   UNL A   1      33.993  36.187  27.985  1.00  0.00    -0.744 OA
ENDBRANCH  86  87
ENDBRANCH  54  79
BRANCH  66  91
ATOM     91  C   UNL A   1      39.862  34.274  37.043  1.00  0.00     0.058 A 
ATOM     92  C   UNL A   1      40.417  35.558  36.916  1.00  0.00     0.135 A 
ATOM     93  C   UNL A   1      39.086  34.005  38.182  1.00  0.00     0.135 A 
ATOM     94  F   UNL A   1      41.169  35.865  35.847  1.00  0.00    -0.206 F 
ATOM     95  C   UNL A   1      40.250  36.522  37.904  1.00  0.00     0.059 A 
ATOM     96  C   UNL A   1      38.883  34.964  39.169  1.00  0.00     0.059 A 
ATOM     97  F   UNL A   1      38.518  32.799  38.345  1.00  0.00    -0.206 F 
ATOM     98  C   UNL A   1      39.490  36.212  39.032  1.00  0.00     0.060 A 
BRANCH  98  99
ATOM     99  S   UNL A   1      39.295  37.462  40.321  1.00  0.00     0.124 S 
ATOM    100  O   UNL A   1      38.884  36.646  41.458  1.00  0.00    -0.237 OA
ATOM    101  O   UNL A   1      40.633  38.040  40.405  1.00  0.00    -0.237 OA
ATOM    102  O   UNL A   1      38.269  38.348  39.779  1.00  0.00    -0.744 OA
ENDBRANCH  98  99
ENDBRANCH  66  91
ENDBRANCH  40  41
ENDBRANCH  33  35
ENDBRANCH  32  33
ENDBRANCH  31  32
ENDBRANCH  30  31
ENDBRANCH  29  30
ENDBRANCH   1  29
TORSDOF 21
ENDMDL
MODEL 3
REMARK VINA RESULT:     -11.2      2.608      8.703
REMARK SMILES CCc1cc(C(=O)c2[nH]c3cc(Cl)ccc3c2CC(=O)OCCOCCOC(=O)c2ccc(-c3c4nc(c(-c5c(F)cc(S(=O)(=O)[O-])cc5F)c5ccc([nH]5)c(-c5c(F)cc(S(=O)(=O)[O-])cc5F)c5nc(c(-c6c(F)cc(S(=O)(=O)[O-])cc6F)c6ccc3[nH]6)C=C5)C=C4)cc2)ncc1Cl
REMARK SMILES IDX 23 1 22 2 21 3 19 4 20 5 18 6 17 7 8 8 9 9 10 10 16 12 11 13
REMARK SMILES IDX 15 14 12 15 14 16 13 17 6 18 7 19 5 20 3 21 4 22 98 23 97 24
REMARK SMILES IDX 99 25 96 26 2 27 1 28 24 29 25 30 26 31 27 32 28 33 29 34
REMARK SMILES IDX 30 35 31 36 95 37 32 38 94 39 33 40 34 41 35 42 88 43 36 44
REMARK SMILES IDX 93 45 87 46 89 47 37 48 92 49 86 50 85 51 38 53 72 54 51 55
REMARK SMILES IDX 71 56 52 57 55 58 70 59 90 60 53 61 54 62 69 64 91 65 56 66
REMARK SMILES IDX 39 67 40 68 49 69 41 70 42 71 48 72 50 73 43 74 44 75 45 76
REMARK SMILES IDX 46 77 47 78 73 79 74 80 83 81 75 82 76 83 82 84 84 85 77 86
REMARK SMILES IDX 78 87 79 88 80 89 81 90 57 91 58 92 67 93 59 94 60 95 66 96
REMARK SMILES IDX 68 97 61 98 62 99 63 100 64 101 65 102
REMARK H PARENT 9 11 89 52 55 63
REMARK Flexibility Score: inf
ROOT
ATOM      1  C   UNL A   1      32.620  29.480  27.249  1.00  0.00     0.202 C 
ENDROOT
BRANCH   1   2
ATOM      2  C   UNL A   1      32.239  27.995  27.271  1.00  0.00     0.261 C 
BRANCH   2   3
ATOM      3  O   UNL A   1      31.027  27.734  26.523  1.00  0.00    -0.463 OA
BRANCH   3   4
ATOM      4  C   UNL A   1      30.845  26.442  26.142  1.00  0.00     0.310 C 
ATOM      5  O   UNL A   1      31.064  25.473  26.866  1.00  0.00    -0.252 OA
BRANCH   4   6
ATOM      6  C   UNL A   1      30.424  26.247  24.700  1.00  0.00     0.161 C 
BRANCH   6   7
ATOM      7  C   UNL A   1      30.738  27.327  23.697  1.00  0.00     0.000 A 
ATOM      8  C   UNL A   1      32.000  27.808  23.334  1.00  0.00     0.093 A 
ATOM      9  N   UNL A   1      31.790  28.767  22.364  1.00  0.00    -0.351 N 
ATOM     10  C   UNL A   1      30.466  29.130  22.324  1.00  0.00     0.048 A 
ATOM     11  H   UNL A   1      32.492  29.139  21.781  1.00  0.00     0.167 HD
ATOM     12  C   UNL A   1      29.773  28.216  23.114  1.00  0.00     0.004 A 
ATOM     13  C   UNL A   1      29.837  30.192  21.660  1.00  0.00     0.047 A 
ATOM     14  C   UNL A   1      28.375  28.361  23.238  1.00  0.00     0.012 A 
ATOM     15  C   UNL A   1      28.459  30.337  21.842  1.00  0.00     0.043 A 
ATOM     16  C   UNL A   1      27.732  29.437  22.612  1.00  0.00     0.021 A 
ATOM     17  Cl  UNL A   1      27.653  31.678  21.121  1.00  0.00    -0.084 Cl
BRANCH   8  18
ATOM     18  C   UNL A   1      33.301  27.391  23.850  1.00  0.00     0.227 C 
ATOM     19  O   UNL A   1      34.148  28.200  24.222  1.00  0.00    -0.285 OA
BRANCH  18  20
ATOM     20  C   UNL A   1      33.676  25.943  23.871  1.00  0.00     0.113 A 
ATOM     21  C   UNL A   1      34.526  23.998  25.039  1.00  0.00    -0.026 A 
ATOM     22  C   UNL A   1      34.318  25.387  24.980  1.00  0.00     0.037 A 
ATOM     23  C   UNL A   1      34.064  23.228  23.958  1.00  0.00     0.062 A 
ATOM     24  C   UNL A   1      33.447  23.869  22.889  1.00  0.00     0.132 A 
ATOM     25  Cl  UNL A   1      34.206  21.510  23.917  1.00  0.00    -0.082 Cl
ATOM     26  N   UNL A   1      33.249  25.205  22.817  1.00  0.00    -0.251 NA
BRANCH  21  27
ATOM     27  C   UNL A   1      35.188  23.332  26.227  1.00  0.00     0.034 C 
ATOM     28  C   UNL A   1      36.666  22.983  26.089  1.00  0.00     0.009 C 
ENDBRANCH  21  27
ENDBRANCH  18  20
ENDBRANCH   8  18
ENDBRANCH   6   7
ENDBRANCH   4   6
ENDBRANCH   3   4
ENDBRANCH   2   3
ENDBRANCH   1   2
BRANCH   1  29
ATOM     29  O   UNL A   1      31.602  30.379  26.793  1.00  0.00    -0.374 OA
BRANCH  29  30
ATOM     30  C   UNL A   1      31.913  31.770  26.870  1.00  0.00     0.202 C 
BRANCH  30  31
ATOM     31  C   UNL A   1      33.211  32.115  27.606  1.00  0.00     0.261 C 
BRANCH  31  32
ATOM     32  O   UNL A   1      33.575  33.496  27.447  1.00  0.00    -0.460 OA
BRANCH  32  33
ATOM     33  C   UNL A   1      33.467  34.225  28.581  1.00  0.00     0.338 C 
ATOM     34  O   UNL A   1      32.528  34.941  28.911  1.00  0.00    -0.246 OA
BRANCH  33  35
ATOM     35  C   UNL A   1      34.583  33.938  29.496  1.00  0.00     0.060 A 
ATOM     36  C   UNL A   1      35.867  34.246  29.036  1.00  0.00     0.016 A 
ATOM     37  C   UNL A   1      34.401  33.300  30.727  1.00  0.00     0.016 A 
ATOM     38  C   UNL A   1      36.980  33.853  29.771  1.00  0.00     0.010 A 
ATOM     39  C   UNL A   1      35.523  32.906  31.466  1.00  0.00     0.010 A 
ATOM     40  C   UNL A   1      36.817  33.140  30.968  1.00  0.00    -0.014 A 
BRANCH  40  41
ATOM     41  C   UNL A   1      38.024  32.550  31.596  1.00  0.00     0.031 A 
ATOM     42  C   UNL A   1      38.474  33.053  32.941  1.00  0.00     0.074 A 
ATOM     43  C   UNL A   1      38.632  31.497  31.021  1.00  0.00     0.049 A 
ATOM     44  N   UNL A   1      39.385  32.567  33.744  1.00  0.00    -0.248 NA
ATOM     45  C   UNL A   1      37.804  34.260  33.452  1.00  0.00     0.031 C 
ATOM     46  C   UNL A   1      38.273  30.922  29.725  1.00  0.00     0.029 A 
ATOM     47  N   UNL A   1      39.660  30.707  31.467  1.00  0.00    -0.354 N 
ATOM     48  C   UNL A   1      39.387  33.397  34.860  1.00  0.00     0.074 A 
ATOM     49  C   UNL A   1      38.420  34.442  34.612  1.00  0.00     0.031 C 
ATOM     50  C   UNL A   1      39.056  29.856  29.488  1.00  0.00     0.029 A 
ATOM     51  C   UNL A   1      39.973  29.677  30.611  1.00  0.00     0.049 A 
ATOM     52  H   UNL A   1      40.130  30.862  32.318  1.00  0.00     0.167 HD
ATOM     53  C   UNL A   1      40.118  33.285  35.997  1.00  0.00     0.037 A 
ATOM     54  C   UNL A   1      40.884  28.692  30.731  1.00  0.00     0.037 A 
ATOM     55  C   UNL A   1      41.087  32.244  36.230  1.00  0.00     0.049 A 
ATOM     56  C   UNL A   1      41.694  28.596  31.997  1.00  0.00     0.074 A 
ATOM     57  C   UNL A   1      41.877  32.034  37.346  1.00  0.00     0.029 A 
ATOM     58  N   UNL A   1      41.398  31.237  35.327  1.00  0.00    -0.354 N 
ATOM     59  N   UNL A   1      41.659  29.367  33.059  1.00  0.00    -0.248 NA
ATOM     60  C   UNL A   1      42.653  27.488  32.088  1.00  0.00     0.031 C 
ATOM     61  C   UNL A   1      42.695  30.924  37.102  1.00  0.00     0.029 A 
ATOM     62  C   UNL A   1      42.381  30.414  35.852  1.00  0.00     0.049 A 
ATOM     63  H   UNL A   1      40.981  31.125  34.443  1.00  0.00     0.167 HD
ATOM     64  C   UNL A   1      42.577  28.825  33.953  1.00  0.00     0.074 A 
ATOM     65  C   UNL A   1      43.134  27.649  33.312  1.00  0.00     0.031 C 
ATOM     66  C   UNL A   1      42.929  29.257  35.190  1.00  0.00     0.037 A 
BRANCH  53  67
ATOM     67  C   UNL A   1      39.908  34.326  37.062  1.00  0.00     0.058 A 
ATOM     68  C   UNL A   1      39.102  34.080  38.185  1.00  0.00     0.135 A 
ATOM     69  C   UNL A   1      40.535  35.579  36.971  1.00  0.00     0.135 A 
ATOM     70  F   UNL A   1      38.464  32.906  38.315  1.00  0.00    -0.206 F 
ATOM     71  C   UNL A   1      38.903  35.047  39.166  1.00  0.00     0.059 A 
ATOM     72  C   UNL A   1      40.371  36.554  37.951  1.00  0.00     0.059 A 
ATOM     73  F   UNL A   1      41.314  35.869  35.917  1.00  0.00    -0.206 F 
ATOM     74  C   UNL A   1      39.539  36.284  39.038  1.00  0.00     0.060 A 
BRANCH  74  75
ATOM     75  S   UNL A   1      39.270  37.533  40.314  1.00  0.00     0.124 S 
ATOM     76  O   UNL A   1      38.601  36.751  41.350  1.00  0.00    -0.237 OA
ATOM     77  O   UNL A   1      40.630  37.963  40.625  1.00  0.00    -0.237 OA
ATOM     78  O   UNL A   1      38.439  38.529  39.645  1.00  0.00    -0.744 OA
ENDBRANCH  74  75
ENDBRANCH  53  67
BRANCH  54  79
ATOM     79  C   UNL A   1      41.056  27.705  29.633  1.00  0.00     0.058 A 
ATOM     80  C   UNL A   1      40.107  26.701  29.397  1.00  0.00     0.135 A 
ATOM     81  C   UNL A   1      42.173  27.761  28.784  1.00  0.00     0.135 A 
ATOM     82  F   UNL A   1      39.026  26.601  30.186  1.00  0.00    -0.206 F 
ATOM     83  C   UNL A   1      40.263  25.778  28.368  1.00  0.00     0.059 A 
ATOM     84  C   UNL A   1      42.339  26.865  27.733  1.00  0.00     0.059 A 
ATOM     85  F   UNL A   1      43.104  28.713  28.959  1.00  0.00    -0.206 F 
ATOM     86  C   UNL A   1      41.383  25.870  27.539  1.00  0.00     0.060 A 
BRANCH  86  87
ATOM     87  S   UNL A   1      41.551  24.706  26.167  1.00  0.00     0.124 S 
ATOM     88  O   UNL A   1      42.766  23.989  26.538  1.00  0.00    -0.237 OA
ATOM     89  O   UNL A   1      40.308  23.945  26.255  1.00  0.00    -0.237 OA
ATOM     90  O   UNL A   1      41.661  25.577  25.002  1.00  0.00    -0.744 OA
ENDBRANCH  86  87
ENDBRANCH  54  79
BRANCH  66  91
ATOM     91  C   UNL A   1      43.954  28.441  35.927  1.00  0.00     0.058 A 
ATOM     92  C   UNL A   1      43.583  27.394  36.787  1.00  0.00     0.135 A 
ATOM     93  C   UNL A   1      45.324  28.710  35.776  1.00  0.00     0.135 A 
ATOM     94  F   UNL A   1      42.285  27.097  36.968  1.00  0.00    -0.206 F 
ATOM     95  C   UNL A   1      44.530  26.674  37.506  1.00  0.00     0.059 A 
ATOM     96  C   UNL A   1      46.290  27.984  36.465  1.00  0.00     0.059 A 
ATOM     97  F   UNL A   1      45.734  29.689  34.954  1.00  0.00    -0.206 F 
ATOM     98  C   UNL A   1      45.881  26.984  37.347  1.00  0.00     0.060 A 
BRANCH  98  99
ATOM     99  S   UNL A   1      47.105  26.060  38.301  1.00  0.00     0.124 S 
ATOM    100  O   UNL A   1      48.046  25.662  37.259  1.00  0.00    -0.237 OA
ATOM    101  O   UNL A   1      47.590  27.061  39.246  1.00  0.00    -0.237 OA
ATOM    102  O   UNL A   1      46.324  24.976  38.891  1.00  0.00    -0.744 OA
ENDBRANCH  98  99
ENDBRANCH  66  91
ENDBRANCH  40  41
ENDBRANCH  33  35
ENDBRANCH  32  33
ENDBRANCH  31  32
ENDBRANCH  30  31
ENDBRANCH  29  30
ENDBRANCH   1  29
TORSDOF 21
ENDMDL
