MODEL 1
REMARK VINA RESULT:     -11.4      0.000      0.000
REMARK SMILES Cc1cc(C)cc(N(C)S(=O)(=O)c2ccc(F)c(C(=O)OCCOCCOC(=O)c3ccc(-c4c5nc(c(-c6c(F)cc(S(=O)(=O)[O-])cc6F)c6ccc([nH]6)c(-c6c(F)cc(S(=O)(=O)[O-])cc6F)c6nc(c(-c7c(F)cc(S(=O)(=O)[O-])cc7F)c7ccc4[nH]7)C=C6)C=C5)cc3)c2)c1
REMARK SMILES IDX 24 1 23 2 22 3 21 4 19 5 20 6 18 7 13 8 14 9 96 10 15 11
REMARK SMILES IDX 16 12 17 13 10 14 11 15 12 16 8 17 9 18 7 19 1 20 2 21 3 22
REMARK SMILES IDX 97 23 4 24 5 25 6 26 25 27 26 28 27 29 28 30 29 31 30 32
REMARK SMILES IDX 31 33 95 34 32 35 94 36 33 37 34 38 35 39 88 40 36 41 93 42
REMARK SMILES IDX 87 43 89 44 37 45 92 46 86 47 85 48 38 50 72 51 51 52 71 53
REMARK SMILES IDX 52 54 55 55 70 56 90 57 53 58 54 59 69 61 91 62 56 63 39 64
REMARK SMILES IDX 40 65 49 66 41 67 42 68 48 69 50 70 43 71 44 72 45 73 46 74
REMARK SMILES IDX 47 75 73 76 74 77 83 78 75 79 76 80 82 81 84 82 77 83 78 84
REMARK SMILES IDX 79 85 80 86 81 87 57 88 58 89 67 90 59 91 60 92 66 93 68 94
REMARK SMILES IDX 61 95 62 96 63 97 64 98 65 99
REMARK H PARENT 89 49 55 60
REMARK Flexibility Score: inf
ROOT
ATOM      1  O   UNL A   1      38.996  20.878  25.464  1.00  0.00    -0.374 OA
ENDROOT
BRANCH   1   2
ATOM      2  C   UNL A   1      37.589  21.131  25.436  1.00  0.00     0.202 C 
BRANCH   2   3
ATOM      3  C   UNL A   1      37.060  21.909  24.227  1.00  0.00     0.261 C 
BRANCH   3   4
ATOM      4  O   UNL A   1      35.795  22.525  24.510  1.00  0.00    -0.460 OA
BRANCH   4   5
ATOM      5  C   UNL A   1      35.799  23.456  25.491  1.00  0.00     0.341 C 
ATOM      6  O   UNL A   1      36.677  24.277  25.725  1.00  0.00    -0.246 OA
BRANCH   5   7
ATOM      7  C   UNL A   1      34.465  23.547  26.108  1.00  0.00     0.097 A 
ATOM      8  C   UNL A   1      32.327  24.670  26.149  1.00  0.00     0.089 A 
ATOM      9  C   UNL A   1      31.832  23.676  27.011  1.00  0.00     0.025 A 
ATOM     10  C   UNL A   1      33.654  24.634  25.731  1.00  0.00     0.041 A 
ATOM     11  C   UNL A   1      32.661  22.635  27.433  1.00  0.00     0.041 A 
ATOM     12  C   UNL A   1      33.969  22.563  26.964  1.00  0.00     0.137 A 
ATOM     13  F   UNL A   1      34.730  21.532  27.356  1.00  0.00    -0.206 F 
BRANCH   8  14
ATOM     14  S   UNL A   1      31.163  25.900  25.589  1.00  0.00     0.264 S 
ATOM     15  O   UNL A   1      30.579  26.440  26.799  1.00  0.00    -0.201 OA
ATOM     16  O   UNL A   1      30.339  25.227  24.602  1.00  0.00    -0.201 OA
BRANCH  14  17
ATOM     17  N   UNL A   1      31.992  27.165  24.760  1.00  0.00    -0.269 N 
ATOM     18  C   UNL A   1      31.445  27.547  23.429  1.00  0.00     0.164 C 
BRANCH  17  19
ATOM     19  C   UNL A   1      32.426  28.313  25.594  1.00  0.00     0.052 A 
ATOM     20  C   UNL A   1      35.328  29.451  27.824  1.00  0.00     0.044 C 
ATOM     21  C   UNL A   1      34.027  29.454  27.074  1.00  0.00    -0.049 A 
ATOM     22  C   UNL A   1      33.212  30.585  27.100  1.00  0.00     0.007 A 
ATOM     23  C   UNL A   1      33.623  28.332  26.329  1.00  0.00     0.030 A 
ATOM     24  C   UNL A   1      32.020  30.612  26.373  1.00  0.00    -0.049 A 
ATOM     25  C   UNL A   1      31.162  31.842  26.412  1.00  0.00     0.044 C 
ATOM     26  C   UNL A   1      31.657  29.492  25.601  1.00  0.00     0.030 A 
ENDBRANCH  17  19
ENDBRANCH  14  17
ENDBRANCH   8  14
ENDBRANCH   5   7
ENDBRANCH   4   5
ENDBRANCH   3   4
ENDBRANCH   2   3
ENDBRANCH   1   2
BRANCH   1  27
ATOM     27  C   UNL A   1      39.748  21.496  26.510  1.00  0.00     0.202 C 
BRANCH  27  28
ATOM     28  C   UNL A   1      39.640  23.021  26.647  1.00  0.00     0.261 C 
BRANCH  28  29
ATOM     29  O   UNL A   1      40.716  23.579  27.420  1.00  0.00    -0.460 OA
BRANCH  29  30
ATOM     30  C   UNL A   1      41.204  24.755  26.955  1.00  0.00     0.338 C 
ATOM     31  O   UNL A   1      41.667  24.971  25.843  1.00  0.00    -0.246 OA
BRANCH  30  32
ATOM     32  C   UNL A   1      40.929  25.831  27.924  1.00  0.00     0.060 A 
ATOM     33  C   UNL A   1      41.915  26.811  28.104  1.00  0.00     0.016 A 
ATOM     34  C   UNL A   1      39.761  25.852  28.688  1.00  0.00     0.016 A 
ATOM     35  C   UNL A   1      41.751  27.794  29.077  1.00  0.00     0.010 A 
ATOM     36  C   UNL A   1      39.604  26.835  29.672  1.00  0.00     0.010 A 
ATOM     37  C   UNL A   1      40.610  27.794  29.889  1.00  0.00    -0.014 A 
BRANCH  37  38
ATOM     38  C   UNL A   1      40.528  28.722  31.042  1.00  0.00     0.031 A 
ATOM     39  C   UNL A   1      39.517  29.836  31.018  1.00  0.00     0.074 A 
ATOM     40  C   UNL A   1      41.323  28.554  32.115  1.00  0.00     0.049 A 
ATOM     41  N   UNL A   1      39.298  30.775  31.901  1.00  0.00    -0.248 NA
ATOM     42  C   UNL A   1      38.634  29.898  29.842  1.00  0.00     0.031 C 
ATOM     43  C   UNL A   1      42.308  27.485  32.273  1.00  0.00     0.029 A 
ATOM     44  N   UNL A   1      41.426  29.281  33.275  1.00  0.00    -0.354 N 
ATOM     45  C   UNL A   1      38.255  31.538  31.390  1.00  0.00     0.074 A 
ATOM     46  C   UNL A   1      37.906  30.975  30.105  1.00  0.00     0.031 C 
ATOM     47  C   UNL A   1      42.918  27.627  33.462  1.00  0.00     0.029 A 
ATOM     48  C   UNL A   1      42.393  28.815  34.133  1.00  0.00     0.049 A 
ATOM     49  H   UNL A   1      40.862  30.064  33.472  1.00  0.00     0.167 HD
ATOM     50  C   UNL A   1      37.638  32.605  31.950  1.00  0.00     0.037 A 
ATOM     51  C   UNL A   1      42.818  29.301  35.317  1.00  0.00     0.037 A 
ATOM     52  C   UNL A   1      37.989  33.161  33.231  1.00  0.00     0.049 A 
ATOM     53  C   UNL A   1      42.171  30.538  35.883  1.00  0.00     0.074 A 
ATOM     54  C   UNL A   1      37.415  34.237  33.887  1.00  0.00     0.029 A 
ATOM     55  N   UNL A   1      39.007  32.691  34.049  1.00  0.00    -0.354 N 
ATOM     56  N   UNL A   1      41.182  31.247  35.393  1.00  0.00    -0.248 NA
ATOM     57  C   UNL A   1      42.697  31.043  37.159  1.00  0.00     0.031 C 
ATOM     58  C   UNL A   1      38.117  34.447  35.078  1.00  0.00     0.029 A 
ATOM     59  C   UNL A   1      39.094  33.471  35.190  1.00  0.00     0.049 A 
ATOM     60  H   UNL A   1      39.581  31.918  33.847  1.00  0.00     0.167 HD
ATOM     61  C   UNL A   1      40.954  32.269  36.310  1.00  0.00     0.074 A 
ATOM     62  C   UNL A   1      41.900  32.080  37.389  1.00  0.00     0.031 C 
ATOM     63  C   UNL A   1      40.040  33.270  36.261  1.00  0.00     0.037 A 
BRANCH  50  64
ATOM     64  C   UNL A   1      36.524  33.256  31.179  1.00  0.00     0.058 A 
ATOM     65  C   UNL A   1      36.801  34.021  30.035  1.00  0.00     0.135 A 
ATOM     66  C   UNL A   1      35.188  33.175  31.604  1.00  0.00     0.135 A 
ATOM     67  F   UNL A   1      38.059  34.126  29.580  1.00  0.00    -0.206 F 
ATOM     68  C   UNL A   1      35.796  34.696  29.349  1.00  0.00     0.059 A 
ATOM     69  C   UNL A   1      34.163  33.821  30.919  1.00  0.00     0.059 A 
ATOM     70  F   UNL A   1      34.865  32.437  32.678  1.00  0.00    -0.206 F 
ATOM     71  C   UNL A   1      34.480  34.592  29.800  1.00  0.00     0.060 A 
BRANCH  71  72
ATOM     72  S   UNL A   1      33.184  35.450  28.881  1.00  0.00     0.124 S 
ATOM     73  O   UNL A   1      32.609  34.367  28.090  1.00  0.00    -0.237 OA
ATOM     74  O   UNL A   1      32.343  35.972  29.954  1.00  0.00    -0.237 OA
ATOM     75  O   UNL A   1      33.919  36.460  28.125  1.00  0.00    -0.744 OA
ENDBRANCH  71  72
ENDBRANCH  50  64
BRANCH  51  76
ATOM     76  C   UNL A   1      43.916  28.610  36.044  1.00  0.00     0.058 A 
ATOM     77  C   UNL A   1      43.650  27.551  36.927  1.00  0.00     0.135 A 
ATOM     78  C   UNL A   1      45.250  29.016  35.894  1.00  0.00     0.135 A 
ATOM     79  F   UNL A   1      42.390  27.125  37.108  1.00  0.00    -0.206 F 
ATOM     80  C   UNL A   1      44.662  26.943  37.660  1.00  0.00     0.059 A 
ATOM     81  C   UNL A   1      46.284  28.406  36.598  1.00  0.00     0.059 A 
ATOM     82  F   UNL A   1      45.555  30.011  35.047  1.00  0.00    -0.206 F 
ATOM     83  C   UNL A   1      45.976  27.382  37.495  1.00  0.00     0.060 A 
BRANCH  83  84
ATOM     84  S   UNL A   1      47.271  26.597  38.478  1.00  0.00     0.124 S 
ATOM     85  O   UNL A   1      46.483  25.802  39.414  1.00  0.00    -0.237 OA
ATOM     86  O   UNL A   1      48.008  25.845  37.467  1.00  0.00    -0.237 OA
ATOM     87  O   UNL A   1      47.986  27.729  39.060  1.00  0.00    -0.744 OA
ENDBRANCH  83  84
ENDBRANCH  51  76
BRANCH  63  88
ATOM     88  C   UNL A   1      39.997  34.239  37.411  1.00  0.00     0.058 A 
ATOM     89  C   UNL A   1      39.109  34.035  38.481  1.00  0.00     0.135 A 
ATOM     90  C   UNL A   1      40.761  35.417  37.411  1.00  0.00     0.135 A 
ATOM     91  F   UNL A   1      38.350  32.927  38.528  1.00  0.00    -0.206 F 
ATOM     92  C   UNL A   1      38.964  34.972  39.497  1.00  0.00     0.059 A 
ATOM     93  C   UNL A   1      40.652  36.357  38.431  1.00  0.00     0.059 A 
ATOM     94  F   UNL A   1      41.632  35.655  36.418  1.00  0.00    -0.206 F 
ATOM     95  C   UNL A   1      39.736  36.134  39.461  1.00  0.00     0.060 A 
BRANCH  95  96
ATOM     96  S   UNL A   1      39.533  37.342  40.787  1.00  0.00     0.124 S 
ATOM     97  O   UNL A   1      40.863  37.937  40.858  1.00  0.00    -0.237 OA
ATOM     98  O   UNL A   1      38.479  38.204  40.260  1.00  0.00    -0.237 OA
ATOM     99  O   UNL A   1      39.149  36.524  41.935  1.00  0.00    -0.744 OA
ENDBRANCH  95  96
ENDBRANCH  63  88
ENDBRANCH  37  38
ENDBRANCH  30  32
ENDBRANCH  29  30
ENDBRANCH  28  29
ENDBRANCH  27  28
ENDBRANCH   1  27
TORSDOF 20
ENDMDL
MODEL 2
REMARK VINA RESULT:     -11.3      1.113      8.195
REMARK SMILES Cc1cc(C)cc(N(C)S(=O)(=O)c2ccc(F)c(C(=O)OCCOCCOC(=O)c3ccc(-c4c5nc(c(-c6c(F)cc(S(=O)(=O)[O-])cc6F)c6ccc([nH]6)c(-c6c(F)cc(S(=O)(=O)[O-])cc6F)c6nc(c(-c7c(F)cc(S(=O)(=O)[O-])cc7F)c7ccc4[nH]7)C=C6)C=C5)cc3)c2)c1
REMARK SMILES IDX 24 1 23 2 22 3 21 4 19 5 20 6 18 7 13 8 14 9 96 10 15 11
REMARK SMILES IDX 16 12 17 13 10 14 11 15 12 16 8 17 9 18 7 19 1 20 2 21 3 22
REMARK SMILES IDX 97 23 4 24 5 25 6 26 25 27 26 28 27 29 28 30 29 31 30 32
REMARK SMILES IDX 31 33 95 34 32 35 94 36 33 37 34 38 35 39 88 40 36 41 93 42
REMARK SMILES IDX 87 43 89 44 37 45 92 46 86 47 85 48 38 50 72 51 51 52 71 53
REMARK SMILES IDX 52 54 55 55 70 56 90 57 53 58 54 59 69 61 91 62 56 63 39 64
REMARK SMILES IDX 40 65 49 66 41 67 42 68 48 69 50 70 43 71 44 72 45 73 46 74
REMARK SMILES IDX 47 75 73 76 74 77 83 78 75 79 76 80 82 81 84 82 77 83 78 84
REMARK SMILES IDX 79 85 80 86 81 87 57 88 58 89 67 90 59 91 60 92 66 93 68 94
REMARK SMILES IDX 61 95 62 96 63 97 64 98 65 99
REMARK H PARENT 89 49 55 60
REMARK Flexibility Score: inf
ROOT
ATOM      1  O   UNL A   1      40.486  21.668  26.127  1.00  0.00    -0.374 OA
ENDROOT
BRANCH   1   2
ATOM      2  C   UNL A   1      39.231  22.352  26.142  1.00  0.00     0.202 C 
BRANCH   2   3
ATOM      3  C   UNL A   1      38.019  21.565  25.631  1.00  0.00     0.261 C 
BRANCH   3   4
ATOM      4  O   UNL A   1      36.812  22.337  25.725  1.00  0.00    -0.460 OA
BRANCH   4   5
ATOM      5  C   UNL A   1      36.166  22.565  24.559  1.00  0.00     0.341 C 
ATOM      6  O   UNL A   1      36.639  22.508  23.431  1.00  0.00    -0.246 OA
BRANCH   5   7
ATOM      7  C   UNL A   1      34.713  22.638  24.790  1.00  0.00     0.097 A 
ATOM      8  C   UNL A   1      32.784  24.055  25.108  1.00  0.00     0.089 A 
ATOM      9  C   UNL A   1      31.950  22.931  24.982  1.00  0.00     0.025 A 
ATOM     10  C   UNL A   1      34.167  23.907  25.058  1.00  0.00     0.041 A 
ATOM     11  C   UNL A   1      32.501  21.664  24.780  1.00  0.00     0.041 A 
ATOM     12  C   UNL A   1      33.881  21.525  24.665  1.00  0.00     0.137 A 
ATOM     13  F   UNL A   1      34.380  20.304  24.434  1.00  0.00    -0.206 F 
BRANCH   8  14
ATOM     14  S   UNL A   1      31.980  25.639  25.264  1.00  0.00     0.264 S 
ATOM     15  O   UNL A   1      31.771  25.814  26.686  1.00  0.00    -0.201 OA
ATOM     16  O   UNL A   1      30.856  25.590  24.348  1.00  0.00    -0.201 OA
BRANCH  14  17
ATOM     17  N   UNL A   1      33.024  26.891  24.698  1.00  0.00    -0.269 N 
ATOM     18  C   UNL A   1      32.945  27.204  23.245  1.00  0.00     0.164 C 
BRANCH  17  19
ATOM     19  C   UNL A   1      33.144  28.082  25.574  1.00  0.00     0.052 A 
ATOM     20  C   UNL A   1      35.498  29.660  28.155  1.00  0.00     0.044 C 
ATOM     21  C   UNL A   1      34.323  29.453  27.242  1.00  0.00    -0.049 A 
ATOM     22  C   UNL A   1      33.331  30.430  27.155  1.00  0.00     0.007 A 
ATOM     23  C   UNL A   1      34.215  28.292  26.459  1.00  0.00     0.030 A 
ATOM     24  C   UNL A   1      32.255  30.266  26.279  1.00  0.00    -0.049 A 
ATOM     25  C   UNL A   1      31.203  31.332  26.199  1.00  0.00     0.044 C 
ATOM     26  C   UNL A   1      32.192  29.114  25.474  1.00  0.00     0.030 A 
ENDBRANCH  17  19
ENDBRANCH  14  17
ENDBRANCH   8  14
ENDBRANCH   5   7
ENDBRANCH   4   5
ENDBRANCH   3   4
ENDBRANCH   2   3
ENDBRANCH   1   2
BRANCH   1  27
ATOM     27  C   UNL A   1      41.609  22.356  26.681  1.00  0.00     0.202 C 
BRANCH  27  28
ATOM     28  C   UNL A   1      42.546  23.076  25.702  1.00  0.00     0.261 C 
BRANCH  28  29
ATOM     29  O   UNL A   1      43.045  24.316  26.233  1.00  0.00    -0.460 OA
BRANCH  29  30
ATOM     30  C   UNL A   1      42.230  25.383  26.056  1.00  0.00     0.338 C 
ATOM     31  O   UNL A   1      41.527  25.618  25.082  1.00  0.00    -0.246 OA
BRANCH  30  32
ATOM     32  C   UNL A   1      42.144  26.164  27.303  1.00  0.00     0.060 A 
ATOM     33  C   UNL A   1      41.116  25.846  28.199  1.00  0.00     0.016 A 
ATOM     34  C   UNL A   1      43.011  27.226  27.566  1.00  0.00     0.016 A 
ATOM     35  C   UNL A   1      40.927  26.614  29.346  1.00  0.00     0.010 A 
ATOM     36  C   UNL A   1      42.813  28.003  28.714  1.00  0.00     0.010 A 
ATOM     37  C   UNL A   1      41.753  27.718  29.594  1.00  0.00    -0.014 A 
BRANCH  37  38
ATOM     38  C   UNL A   1      41.432  28.641  30.710  1.00  0.00     0.031 A 
ATOM     39  C   UNL A   1      42.262  28.591  31.964  1.00  0.00     0.074 A 
ATOM     40  C   UNL A   1      40.436  29.537  30.592  1.00  0.00     0.049 A 
ATOM     41  N   UNL A   1      42.135  29.282  33.067  1.00  0.00    -0.248 NA
ATOM     42  C   UNL A   1      43.383  27.637  31.976  1.00  0.00     0.031 C 
ATOM     43  C   UNL A   1      39.594  29.709  29.409  1.00  0.00     0.029 A 
ATOM     44  N   UNL A   1      39.962  30.469  31.481  1.00  0.00    -0.354 N 
ATOM     45  C   UNL A   1      43.158  28.850  33.904  1.00  0.00     0.074 A 
ATOM     46  C   UNL A   1      43.875  27.813  33.195  1.00  0.00     0.031 C 
ATOM     47  C   UNL A   1      38.705  30.689  29.645  1.00  0.00     0.029 A 
ATOM     48  C   UNL A   1      38.891  31.188  31.007  1.00  0.00     0.049 A 
ATOM     49  H   UNL A   1      40.353  30.609  32.374  1.00  0.00     0.167 HD
ATOM     50  C   UNL A   1      43.474  29.288  35.144  1.00  0.00     0.037 A 
ATOM     51  C   UNL A   1      38.135  32.128  31.609  1.00  0.00     0.037 A 
ATOM     52  C   UNL A   1      42.757  30.321  35.844  1.00  0.00     0.049 A 
ATOM     53  C   UNL A   1      38.456  32.542  33.021  1.00  0.00     0.074 A 
ATOM     54  C   UNL A   1      43.007  30.840  37.103  1.00  0.00     0.029 A 
ATOM     55  N   UNL A   1      41.646  30.991  35.350  1.00  0.00    -0.354 N 
ATOM     56  N   UNL A   1      39.428  32.129  33.799  1.00  0.00    -0.248 NA
ATOM     57  C   UNL A   1      37.578  33.546  33.639  1.00  0.00     0.031 C 
ATOM     58  C   UNL A   1      42.020  31.787  37.389  1.00  0.00     0.029 A 
ATOM     59  C   UNL A   1      41.186  31.899  36.289  1.00  0.00     0.049 A 
ATOM     60  H   UNL A   1      41.246  30.842  34.463  1.00  0.00     0.167 HD
ATOM     61  C   UNL A   1      39.292  32.837  34.989  1.00  0.00     0.074 A 
ATOM     62  C   UNL A   1      38.150  33.712  34.825  1.00  0.00     0.031 C 
ATOM     63  C   UNL A   1      40.047  32.768  36.113  1.00  0.00     0.037 A 
BRANCH  50  64
ATOM     64  C   UNL A   1      44.641  28.644  35.839  1.00  0.00     0.058 A 
ATOM     65  C   UNL A   1      44.452  27.519  36.657  1.00  0.00     0.135 A 
ATOM     66  C   UNL A   1      45.939  29.173  35.745  1.00  0.00     0.135 A 
ATOM     67  F   UNL A   1      43.235  26.966  36.777  1.00  0.00    -0.206 F 
ATOM     68  C   UNL A   1      45.504  26.951  37.371  1.00  0.00     0.059 A 
ATOM     69  C   UNL A   1      47.010  28.609  36.430  1.00  0.00     0.059 A 
ATOM     70  F   UNL A   1      46.178  30.235  34.958  1.00  0.00    -0.206 F 
ATOM     71  C   UNL A   1      46.779  27.505  37.252  1.00  0.00     0.060 A 
BRANCH  71  72
ATOM     72  S   UNL A   1      48.138  26.739  38.162  1.00  0.00     0.124 S 
ATOM     73  O   UNL A   1      49.290  27.483  37.665  1.00  0.00    -0.237 OA
ATOM     74  O   UNL A   1      47.761  26.998  39.549  1.00  0.00    -0.237 OA
ATOM     75  O   UNL A   1      48.069  25.338  37.755  1.00  0.00    -0.744 OA
ENDBRANCH  71  72
ENDBRANCH  50  64
BRANCH  51  76
ATOM     76  C   UNL A   1      36.999  32.741  30.870  1.00  0.00     0.058 A 
ATOM     77  C   UNL A   1      37.198  33.822  29.997  1.00  0.00     0.135 A 
ATOM     78  C   UNL A   1      35.687  32.279  31.049  1.00  0.00     0.135 A 
ATOM     79  F   UNL A   1      38.433  34.305  29.792  1.00  0.00    -0.206 F 
ATOM     80  C   UNL A   1      36.134  34.444  29.353  1.00  0.00     0.059 A 
ATOM     81  C   UNL A   1      34.607  32.868  30.396  1.00  0.00     0.059 A 
ATOM     82  F   UNL A   1      35.449  31.236  31.859  1.00  0.00    -0.206 F 
ATOM     83  C   UNL A   1      34.841  33.964  29.565  1.00  0.00     0.060 A 
BRANCH  83  84
ATOM     84  S   UNL A   1      33.471  34.804  28.741  1.00  0.00     0.124 S 
ATOM     85  O   UNL A   1      32.541  34.999  29.849  1.00  0.00    -0.237 OA
ATOM     86  O   UNL A   1      34.115  36.010  28.231  1.00  0.00    -0.237 OA
ATOM     87  O   UNL A   1      33.047  33.844  27.727  1.00  0.00    -0.744 OA
ENDBRANCH  83  84
ENDBRANCH  51  76
BRANCH  63  88
ATOM     88  C   UNL A   1      39.685  33.672  37.261  1.00  0.00     0.058 A 
ATOM     89  C   UNL A   1      40.299  34.928  37.398  1.00  0.00     0.135 A 
ATOM     90  C   UNL A   1      38.806  33.259  38.273  1.00  0.00     0.135 A 
ATOM     91  F   UNL A   1      41.153  35.370  36.461  1.00  0.00    -0.206 F 
ATOM     92  C   UNL A   1      40.071  35.732  38.509  1.00  0.00     0.059 A 
ATOM     93  C   UNL A   1      38.542  34.058  39.381  1.00  0.00     0.059 A 
ATOM     94  F   UNL A   1      38.185  32.071  38.185  1.00  0.00    -0.206 F 
ATOM     95  C   UNL A   1      39.194  35.286  39.499  1.00  0.00     0.060 A 
BRANCH  95  96
ATOM     96  S   UNL A   1      38.912  36.343  40.936  1.00  0.00     0.124 S 
ATOM     97  O   UNL A   1      37.846  35.629  41.629  1.00  0.00    -0.237 OA
ATOM     98  O   UNL A   1      40.217  36.328  41.590  1.00  0.00    -0.237 OA
ATOM     99  O   UNL A   1      38.530  37.623  40.345  1.00  0.00    -0.744 OA
ENDBRANCH  95  96
ENDBRANCH  63  88
ENDBRANCH  37  38
ENDBRANCH  30  32
ENDBRANCH  29  30
ENDBRANCH  28  29
ENDBRANCH  27  28
ENDBRANCH   1  27
TORSDOF 20
ENDMDL
MODEL 3
REMARK VINA RESULT:     -11.1      6.548     12.267
REMARK SMILES Cc1cc(C)cc(N(C)S(=O)(=O)c2ccc(F)c(C(=O)OCCOCCOC(=O)c3ccc(-c4c5nc(c(-c6c(F)cc(S(=O)(=O)[O-])cc6F)c6ccc([nH]6)c(-c6c(F)cc(S(=O)(=O)[O-])cc6F)c6nc(c(-c7c(F)cc(S(=O)(=O)[O-])cc7F)c7ccc4[nH]7)C=C6)C=C5)cc3)c2)c1
REMARK SMILES IDX 24 1 23 2 22 3 21 4 19 5 20 6 18 7 13 8 14 9 96 10 15 11
REMARK SMILES IDX 16 12 17 13 10 14 11 15 12 16 8 17 9 18 7 19 1 20 2 21 3 22
REMARK SMILES IDX 97 23 4 24 5 25 6 26 25 27 26 28 27 29 28 30 29 31 30 32
REMARK SMILES IDX 31 33 95 34 32 35 94 36 33 37 34 38 35 39 88 40 36 41 93 42
REMARK SMILES IDX 87 43 89 44 37 45 92 46 86 47 85 48 38 50 72 51 51 52 71 53
REMARK SMILES IDX 52 54 55 55 70 56 90 57 53 58 54 59 69 61 91 62 56 63 39 64
REMARK SMILES IDX 40 65 49 66 41 67 42 68 48 69 50 70 43 71 44 72 45 73 46 74
REMARK SMILES IDX 47 75 73 76 74 77 83 78 75 79 76 80 82 81 84 82 77 83 78 84
REMARK SMILES IDX 79 85 80 86 81 87 57 88 58 89 67 90 59 91 60 92 66 93 68 94
REMARK SMILES IDX 61 95 62 96 63 97 64 98 65 99
REMARK H PARENT 89 49 55 60
REMARK Flexibility Score: inf
ROOT
ATOM      1  O   UNL A   1      33.506  31.880  27.974  1.00  0.00    -0.374 OA
ENDROOT
BRANCH   1   2
ATOM      2  C   UNL A   1      33.397  30.624  27.300  1.00  0.00     0.202 C 
BRANCH   2   3
ATOM      3  C   UNL A   1      32.002  30.240  26.795  1.00  0.00     0.261 C 
BRANCH   3   4
ATOM      4  O   UNL A   1      31.987  30.067  25.370  1.00  0.00    -0.460 OA
BRANCH   4   5
ATOM      5  C   UNL A   1      31.380  28.946  24.918  1.00  0.00     0.341 C 
ATOM      6  O   UNL A   1      30.450  28.880  24.124  1.00  0.00    -0.246 OA
BRANCH   5   7
ATOM      7  C   UNL A   1      32.160  27.757  25.302  1.00  0.00     0.097 A 
ATOM      8  C   UNL A   1      32.114  25.445  25.998  1.00  0.00     0.089 A 
ATOM      9  C   UNL A   1      33.505  25.371  25.809  1.00  0.00     0.025 A 
ATOM     10  C   UNL A   1      31.444  26.647  25.789  1.00  0.00     0.041 A 
ATOM     11  C   UNL A   1      34.218  26.494  25.387  1.00  0.00     0.041 A 
ATOM     12  C   UNL A   1      33.540  27.678  25.116  1.00  0.00     0.137 A 
ATOM     13  F   UNL A   1      34.246  28.729  24.677  1.00  0.00    -0.206 F 
BRANCH   8  14
ATOM     14  S   UNL A   1      31.281  23.931  26.441  1.00  0.00     0.264 S 
ATOM     15  O   UNL A   1      29.929  24.333  26.774  1.00  0.00    -0.201 OA
ATOM     16  O   UNL A   1      32.133  23.300  27.431  1.00  0.00    -0.201 OA
BRANCH  14  17
ATOM     17  N   UNL A   1      31.224  22.867  25.085  1.00  0.00    -0.269 N 
ATOM     18  C   UNL A   1      30.800  23.472  23.792  1.00  0.00     0.164 C 
BRANCH  17  19
ATOM     19  C   UNL A   1      32.345  21.903  24.969  1.00  0.00     0.052 A 
ATOM     20  C   UNL A   1      36.150  21.792  24.516  1.00  0.00     0.044 C 
ATOM     21  C   UNL A   1      34.728  21.347  24.704  1.00  0.00    -0.049 A 
ATOM     22  C   UNL A   1      34.436  19.990  24.836  1.00  0.00     0.007 A 
ATOM     23  C   UNL A   1      33.682  22.284  24.765  1.00  0.00     0.030 A 
ATOM     24  C   UNL A   1      33.122  19.569  25.052  1.00  0.00    -0.049 A 
ATOM     25  C   UNL A   1      32.834  18.104  25.196  1.00  0.00     0.044 C 
ATOM     26  C   UNL A   1      32.098  20.529  25.152  1.00  0.00     0.030 A 
ENDBRANCH  17  19
ENDBRANCH  14  17
ENDBRANCH   8  14
ENDBRANCH   5   7
ENDBRANCH   4   5
ENDBRANCH   3   4
ENDBRANCH   2   3
ENDBRANCH   1   2
BRANCH   1  27
ATOM     27  C   UNL A   1      34.816  32.433  28.113  1.00  0.00     0.202 C 
BRANCH  27  28
ATOM     28  C   UNL A   1      35.479  32.331  29.494  1.00  0.00     0.261 C 
BRANCH  28  29
ATOM     29  O   UNL A   1      35.900  30.991  29.802  1.00  0.00    -0.460 OA
BRANCH  29  30
ATOM     30  C   UNL A   1      36.834  30.896  30.779  1.00  0.00     0.338 C 
ATOM     31  O   UNL A   1      36.673  31.100  31.974  1.00  0.00    -0.246 OA
BRANCH  30  32
ATOM     32  C   UNL A   1      38.074  30.314  30.233  1.00  0.00     0.060 A 
ATOM     33  C   UNL A   1      39.083  29.967  31.140  1.00  0.00     0.016 A 
ATOM     34  C   UNL A   1      38.274  30.166  28.859  1.00  0.00     0.016 A 
ATOM     35  C   UNL A   1      40.312  29.505  30.674  1.00  0.00     0.010 A 
ATOM     36  C   UNL A   1      39.513  29.712  28.393  1.00  0.00     0.010 A 
ATOM     37  C   UNL A   1      40.547  29.406  29.296  1.00  0.00    -0.014 A 
BRANCH  37  38
ATOM     38  C   UNL A   1      41.911  29.097  28.803  1.00  0.00     0.031 A 
ATOM     39  C   UNL A   1      42.227  27.698  28.349  1.00  0.00     0.074 A 
ATOM     40  C   UNL A   1      42.846  30.061  28.727  1.00  0.00     0.049 A 
ATOM     41  N   UNL A   1      43.357  27.206  27.914  1.00  0.00    -0.248 NA
ATOM     42  C   UNL A   1      41.123  26.726  28.389  1.00  0.00     0.031 C 
ATOM     43  C   UNL A   1      42.643  31.462  29.095  1.00  0.00     0.029 A 
ATOM     44  N   UNL A   1      44.155  30.007  28.317  1.00  0.00    -0.354 N 
ATOM     45  C   UNL A   1      43.103  25.869  27.628  1.00  0.00     0.074 A 
ATOM     46  C   UNL A   1      41.720  25.619  27.971  1.00  0.00     0.031 C 
ATOM     47  C   UNL A   1      43.788  32.136  28.894  1.00  0.00     0.029 A 
ATOM     48  C   UNL A   1      44.814  31.209  28.419  1.00  0.00     0.049 A 
ATOM     49  H   UNL A   1      44.581  29.185  27.983  1.00  0.00     0.167 HD
ATOM     50  C   UNL A   1      43.944  24.941  27.116  1.00  0.00     0.037 A 
ATOM     51  C   UNL A   1      46.103  31.522  28.173  1.00  0.00     0.037 A 
ATOM     52  C   UNL A   1      45.319  25.197  26.776  1.00  0.00     0.049 A 
ATOM     53  C   UNL A   1      47.042  30.452  27.680  1.00  0.00     0.074 A 
ATOM     54  C   UNL A   1      46.250  24.322  26.242  1.00  0.00     0.029 A 
ATOM     55  N   UNL A   1      45.965  26.414  26.940  1.00  0.00    -0.354 N 
ATOM     56  N   UNL A   1      46.787  29.194  27.410  1.00  0.00    -0.248 NA
ATOM     57  C   UNL A   1      48.442  30.841  27.462  1.00  0.00     0.031 C 
ATOM     58  C   UNL A   1      47.469  24.996  26.129  1.00  0.00     0.029 A 
ATOM     59  C   UNL A   1      47.287  26.306  26.542  1.00  0.00     0.049 A 
ATOM     60  H   UNL A   1      45.544  27.234  27.287  1.00  0.00     0.167 HD
ATOM     61  C   UNL A   1      47.988  28.647  26.969  1.00  0.00     0.074 A 
ATOM     62  C   UNL A   1      48.968  29.713  27.000  1.00  0.00     0.031 C 
ATOM     63  C   UNL A   1      48.253  27.377  26.574  1.00  0.00     0.037 A 
BRANCH  50  64
ATOM     64  C   UNL A   1      43.410  23.552  26.901  1.00  0.00     0.058 A 
ATOM     65  C   UNL A   1      43.236  22.679  27.986  1.00  0.00     0.135 A 
ATOM     66  C   UNL A   1      43.126  23.063  25.615  1.00  0.00     0.135 A 
ATOM     67  F   UNL A   1      43.483  23.097  29.237  1.00  0.00    -0.206 F 
ATOM     68  C   UNL A   1      42.816  21.365  27.804  1.00  0.00     0.059 A 
ATOM     69  C   UNL A   1      42.682  21.760  25.411  1.00  0.00     0.059 A 
ATOM     70  F   UNL A   1      43.254  23.864  24.545  1.00  0.00    -0.206 F 
ATOM     71  C   UNL A   1      42.543  20.914  26.512  1.00  0.00     0.060 A 
BRANCH  71  72
ATOM     72  S   UNL A   1      41.970  19.216  26.296  1.00  0.00     0.124 S 
ATOM     73  O   UNL A   1      40.569  19.413  25.944  1.00  0.00    -0.237 OA
ATOM     74  O   UNL A   1      42.836  18.735  25.224  1.00  0.00    -0.237 OA
ATOM     75  O   UNL A   1      42.212  18.609  27.603  1.00  0.00    -0.744 OA
ENDBRANCH  71  72
ENDBRANCH  50  64
BRANCH  51  76
ATOM     76  C   UNL A   1      46.575  32.914  28.392  1.00  0.00     0.058 A 
ATOM     77  C   UNL A   1      46.454  33.889  27.388  1.00  0.00     0.135 A 
ATOM     78  C   UNL A   1      47.186  33.290  29.597  1.00  0.00     0.135 A 
ATOM     79  F   UNL A   1      45.879  33.582  26.216  1.00  0.00    -0.206 F 
ATOM     80  C   UNL A   1      46.952  35.176  27.559  1.00  0.00     0.059 A 
ATOM     81  C   UNL A   1      47.671  34.579  29.802  1.00  0.00     0.059 A 
ATOM     82  F   UNL A   1      47.307  32.398  30.592  1.00  0.00    -0.206 F 
ATOM     83  C   UNL A   1      47.566  35.510  28.768  1.00  0.00     0.060 A 
BRANCH  83  84
ATOM     84  S   UNL A   1      48.231  37.177  28.958  1.00  0.00     0.124 S 
ATOM     85  O   UNL A   1      49.416  36.926  29.771  1.00  0.00    -0.237 OA
ATOM     86  O   UNL A   1      48.479  37.567  27.573  1.00  0.00    -0.237 OA
ATOM     87  O   UNL A   1      47.151  37.898  29.626  1.00  0.00    -0.744 OA
ENDBRANCH  83  84
ENDBRANCH  51  76
BRANCH  63  88
ATOM     88  C   UNL A   1      49.652  27.058  26.122  1.00  0.00     0.058 A 
ATOM     89  C   UNL A   1      50.015  27.203  24.773  1.00  0.00     0.135 A 
ATOM     90  C   UNL A   1      50.605  26.520  27.002  1.00  0.00     0.135 A 
ATOM     91  F   UNL A   1      49.140  27.707  23.888  1.00  0.00    -0.206 F 
ATOM     92  C   UNL A   1      51.263  26.806  24.308  1.00  0.00     0.059 A 
ATOM     93  C   UNL A   1      51.870  26.140  26.563  1.00  0.00     0.059 A 
ATOM     94  F   UNL A   1      50.313  26.371  28.304  1.00  0.00    -0.206 F 
ATOM     95  C   UNL A   1      52.183  26.269  25.210  1.00  0.00     0.060 A 
BRANCH  95  96
ATOM     96  S   UNL A   1      53.798  25.756  24.587  1.00  0.00     0.124 S 
ATOM     97  O   UNL A   1      53.791  24.327  24.876  1.00  0.00    -0.237 OA
ATOM     98  O   UNL A   1      53.714  26.120  23.176  1.00  0.00    -0.237 OA
ATOM     99  O   UNL A   1      54.734  26.552  25.377  1.00  0.00    -0.744 OA
ENDBRANCH  95  96
ENDBRANCH  63  88
ENDBRANCH  37  38
ENDBRANCH  30  32
ENDBRANCH  29  30
ENDBRANCH  28  29
ENDBRANCH  27  28
ENDBRANCH   1  27
TORSDOF 20
ENDMDL
