MODEL 1
REMARK VINA RESULT:      -9.4      0.000      0.000
REMARK SMILES CCCC[C@H](C(=O)OCCOCCOC(=O)c1ccc(-c2c3nc(c(-c4c(F)cc(S(=O)(=O)[O-])cc4F)c4ccc([nH]4)c(-c4c(F)cc(S(=O)(=O)[O-])cc4F)c4nc(c(-c5c(F)cc(S(=O)(=O)[O-])cc5F)c5ccc2[nH]5)C=C4)C=C3)cc1)c1ccnn1C
REMARK SMILES IDX 11 1 10 2 9 3 8 4 6 5 7 6 5 7 4 8 3 9 2 10 1 11 83 12 84 13
REMARK SMILES IDX 87 14 85 15 86 16 88 17 12 18 13 19 14 20 15 21 16 22 17 23
REMARK SMILES IDX 18 24 82 25 19 26 81 27 20 28 21 29 22 30 75 31 23 32 80 33
REMARK SMILES IDX 74 34 76 35 24 36 79 37 73 38 72 39 25 41 59 42 38 43 58 44
REMARK SMILES IDX 39 45 42 46 57 47 77 48 40 49 41 50 56 52 78 53 43 54 26 55
REMARK SMILES IDX 27 56 36 57 28 58 29 59 35 60 37 61 30 62 31 63 32 64 33 65
REMARK SMILES IDX 34 66 60 67 61 68 70 69 62 70 63 71 69 72 71 73 64 74 65 75
REMARK SMILES IDX 66 76 67 77 68 78 44 79 45 80 54 81 46 82 47 83 53 84 55 85
REMARK SMILES IDX 48 86 49 87 50 88 51 89 52 90
REMARK H PARENT 76 40 42 51
REMARK Flexibility Score: inf
ROOT
ATOM      1  O   UNL A   1      37.847  22.338  25.484  1.00  0.00    -0.374 OA
ENDROOT
BRANCH   1   2
ATOM      2  C   UNL A   1      37.021  21.735  24.497  1.00  0.00     0.202 C 
BRANCH   2   3
ATOM      3  C   UNL A   1      35.898  22.570  23.881  1.00  0.00     0.261 C 
BRANCH   3   4
ATOM      4  O   UNL A   1      34.578  22.046  24.089  1.00  0.00    -0.463 OA
BRANCH   4   5
ATOM      5  C   UNL A   1      33.633  22.529  23.224  1.00  0.00     0.315 C 
ATOM      6  O   UNL A   1      33.859  23.322  22.318  1.00  0.00    -0.251 OA
BRANCH   5   7
ATOM      7  C   UNL A   1      32.258  21.955  23.559  1.00  0.00     0.148 C 
BRANCH   7   8
ATOM      8  C   UNL A   1      32.333  20.458  23.931  1.00  0.00     0.022 C 
BRANCH   8   9
ATOM      9  C   UNL A   1      32.412  19.443  22.779  1.00  0.00     0.001 C 
BRANCH   9  10
ATOM     10  C   UNL A   1      32.849  18.009  23.107  1.00  0.00    -0.003 C 
ATOM     11  C   UNL A   1      33.589  17.827  24.425  1.00  0.00     0.004 C 
ENDBRANCH   9  10
ENDBRANCH   8   9
ENDBRANCH   7   8
BRANCH   7  12
ATOM     12  C   UNL A   1      31.694  22.762  24.716  1.00  0.00     0.052 A 
ATOM     13  C   UNL A   1      31.770  22.499  26.075  1.00  0.00     0.046 A 
ATOM     14  N   UNL A   1      31.057  23.978  24.627  1.00  0.00    -0.272 N 
ATOM     15  C   UNL A   1      31.175  23.597  26.707  1.00  0.00     0.135 A 
ATOM     16  N   UNL A   1      30.729  24.495  25.831  1.00  0.00    -0.182 NA
ATOM     17  C   UNL A   1      30.730  24.772  23.467  1.00  0.00     0.174 C 
ENDBRANCH   7  12
ENDBRANCH   5   7
ENDBRANCH   4   5
ENDBRANCH   3   4
ENDBRANCH   2   3
ENDBRANCH   1   2
BRANCH   1  18
ATOM     18  C   UNL A   1      39.006  21.638  25.926  1.00  0.00     0.202 C 
BRANCH  18  19
ATOM     19  C   UNL A   1      40.069  22.417  26.712  1.00  0.00     0.261 C 
BRANCH  19  20
ATOM     20  O   UNL A   1      39.853  23.839  26.714  1.00  0.00    -0.460 OA
BRANCH  20  21
ATOM     21  C   UNL A   1      40.965  24.569  26.974  1.00  0.00     0.338 C 
ATOM     22  O   UNL A   1      42.082  24.402  26.498  1.00  0.00    -0.246 OA
BRANCH  21  23
ATOM     23  C   UNL A   1      40.650  25.736  27.813  1.00  0.00     0.060 A 
ATOM     24  C   UNL A   1      41.608  26.755  27.894  1.00  0.00     0.016 A 
ATOM     25  C   UNL A   1      39.512  25.761  28.622  1.00  0.00     0.016 A 
ATOM     26  C   UNL A   1      41.462  27.775  28.831  1.00  0.00     0.010 A 
ATOM     27  C   UNL A   1      39.373  26.782  29.569  1.00  0.00     0.010 A 
ATOM     28  C   UNL A   1      40.368  27.764  29.706  1.00  0.00    -0.014 A 
BRANCH  28  29
ATOM     29  C   UNL A   1      40.365  28.682  30.871  1.00  0.00     0.031 A 
ATOM     30  C   UNL A   1      39.388  29.827  30.891  1.00  0.00     0.074 A 
ATOM     31  C   UNL A   1      41.191  28.473  31.912  1.00  0.00     0.049 A 
ATOM     32  N   UNL A   1      39.218  30.757  31.794  1.00  0.00    -0.248 NA
ATOM     33  C   UNL A   1      38.480  29.935  29.737  1.00  0.00     0.031 C 
ATOM     34  C   UNL A   1      42.147  27.371  32.021  1.00  0.00     0.029 A 
ATOM     35  N   UNL A   1      41.356  29.180  33.075  1.00  0.00    -0.354 N 
ATOM     36  C   UNL A   1      38.187  31.561  31.320  1.00  0.00     0.074 A 
ATOM     37  C   UNL A   1      37.792  31.027  30.035  1.00  0.00     0.031 C 
ATOM     38  C   UNL A   1      42.807  27.482  33.187  1.00  0.00     0.029 A 
ATOM     39  C   UNL A   1      42.338  28.674  33.892  1.00  0.00     0.049 A 
ATOM     40  H   UNL A   1      40.822  29.974  33.303  1.00  0.00     0.167 HD
ATOM     41  C   UNL A   1      37.617  32.639  31.908  1.00  0.00     0.037 A 
ATOM     42  C   UNL A   1      42.813  29.132  35.067  1.00  0.00     0.037 A 
ATOM     43  C   UNL A   1      38.019  33.166  33.186  1.00  0.00     0.049 A 
ATOM     44  C   UNL A   1      42.209  30.373  35.670  1.00  0.00     0.074 A 
ATOM     45  C   UNL A   1      37.503  34.251  33.873  1.00  0.00     0.029 A 
ATOM     46  N   UNL A   1      39.040  32.646  33.968  1.00  0.00    -0.354 N 
ATOM     47  N   UNL A   1      41.228  31.117  35.217  1.00  0.00    -0.248 NA
ATOM     48  C   UNL A   1      42.775  30.836  36.945  1.00  0.00     0.031 C 
ATOM     49  C   UNL A   1      38.241  34.412  35.052  1.00  0.00     0.029 A 
ATOM     50  C   UNL A   1      39.185  33.400  35.121  1.00  0.00     0.049 A 
ATOM     51  H   UNL A   1      39.582  31.857  33.737  1.00  0.00     0.167 HD
ATOM     52  C   UNL A   1      41.041  32.120  36.162  1.00  0.00     0.074 A 
ATOM     53  C   UNL A   1      42.006  31.883  37.216  1.00  0.00     0.031 C 
ATOM     54  C   UNL A   1      40.150  33.143  36.161  1.00  0.00     0.037 A 
BRANCH  41  55
ATOM     55  C   UNL A   1      36.513  33.333  31.159  1.00  0.00     0.058 A 
ATOM     56  C   UNL A   1      36.772  34.118  30.024  1.00  0.00     0.135 A 
ATOM     57  C   UNL A   1      35.178  33.200  31.573  1.00  0.00     0.135 A 
ATOM     58  F   UNL A   1      38.033  34.292  29.596  1.00  0.00    -0.206 F 
ATOM     59  C   UNL A   1      35.749  34.770  29.342  1.00  0.00     0.059 A 
ATOM     60  C   UNL A   1      34.137  33.825  30.892  1.00  0.00     0.059 A 
ATOM     61  F   UNL A   1      34.875  32.465  32.653  1.00  0.00    -0.206 F 
ATOM     62  C   UNL A   1      34.435  34.621  29.787  1.00  0.00     0.060 A 
BRANCH  62  63
ATOM     63  S   UNL A   1      33.119  35.482  28.900  1.00  0.00     0.124 S 
ATOM     64  O   UNL A   1      32.328  36.019  30.003  1.00  0.00    -0.237 OA
ATOM     65  O   UNL A   1      33.859  36.463  28.115  1.00  0.00    -0.237 OA
ATOM     66  O   UNL A   1      32.479  34.421  28.129  1.00  0.00    -0.744 OA
ENDBRANCH  62  63
ENDBRANCH  41  55
BRANCH  42  67
ATOM     67  C   UNL A   1      43.924  28.417  35.745  1.00  0.00     0.058 A 
ATOM     68  C   UNL A   1      45.262  28.773  35.518  1.00  0.00     0.135 A 
ATOM     69  C   UNL A   1      43.670  27.368  36.644  1.00  0.00     0.135 A 
ATOM     70  F   UNL A   1      45.556  29.762  34.660  1.00  0.00    -0.206 F 
ATOM     71  C   UNL A   1      46.310  28.111  36.151  1.00  0.00     0.059 A 
ATOM     72  C   UNL A   1      44.700  26.707  37.306  1.00  0.00     0.059 A 
ATOM     73  F   UNL A   1      42.408  26.996  36.903  1.00  0.00    -0.206 F 
ATOM     74  C   UNL A   1      46.018  27.080  37.046  1.00  0.00     0.060 A 
BRANCH  74  75
ATOM     75  S   UNL A   1      47.380  26.267  37.909  1.00  0.00     0.124 S 
ATOM     76  O   UNL A   1      47.031  24.860  37.746  1.00  0.00    -0.237 OA
ATOM     77  O   UNL A   1      48.541  26.729  37.155  1.00  0.00    -0.237 OA
ATOM     78  O   UNL A   1      47.276  26.791  39.267  1.00  0.00    -0.744 OA
ENDBRANCH  74  75
ENDBRANCH  42  67
BRANCH  54  79
ATOM     79  C   UNL A   1      40.156  34.066  37.347  1.00  0.00     0.058 A 
ATOM     80  C   UNL A   1      39.358  33.822  38.475  1.00  0.00     0.135 A 
ATOM     81  C   UNL A   1      41.013  35.179  37.376  1.00  0.00     0.135 A 
ATOM     82  F   UNL A   1      38.518  32.776  38.494  1.00  0.00    -0.206 F 
ATOM     83  C   UNL A   1      39.394  34.662  39.584  1.00  0.00     0.059 A 
ATOM     84  C   UNL A   1      41.083  36.017  38.483  1.00  0.00     0.059 A 
ATOM     85  F   UNL A   1      41.805  35.450  36.326  1.00  0.00    -0.206 F 
ATOM     86  C   UNL A   1      40.260  35.757  39.579  1.00  0.00     0.060 A 
BRANCH  86  87
ATOM     87  S   UNL A   1      40.325  36.818  41.038  1.00  0.00     0.124 S 
ATOM     88  O   UNL A   1      40.724  35.870  42.073  1.00  0.00    -0.237 OA
ATOM     89  O   UNL A   1      41.331  37.807  40.663  1.00  0.00    -0.237 OA
ATOM     90  O   UNL A   1      38.962  37.331  41.146  1.00  0.00    -0.744 OA
ENDBRANCH  86  87
ENDBRANCH  54  79
ENDBRANCH  28  29
ENDBRANCH  21  23
ENDBRANCH  20  21
ENDBRANCH  19  20
ENDBRANCH  18  19
ENDBRANCH   1  18
TORSDOF 21
ENDMDL
MODEL 2
REMARK VINA RESULT:      -9.4      6.737     11.727
REMARK SMILES CCCC[C@H](C(=O)OCCOCCOC(=O)c1ccc(-c2c3nc(c(-c4c(F)cc(S(=O)(=O)[O-])cc4F)c4ccc([nH]4)c(-c4c(F)cc(S(=O)(=O)[O-])cc4F)c4nc(c(-c5c(F)cc(S(=O)(=O)[O-])cc5F)c5ccc2[nH]5)C=C4)C=C3)cc1)c1ccnn1C
REMARK SMILES IDX 11 1 10 2 9 3 8 4 6 5 7 6 5 7 4 8 3 9 2 10 1 11 83 12 84 13
REMARK SMILES IDX 87 14 85 15 86 16 88 17 12 18 13 19 14 20 15 21 16 22 17 23
REMARK SMILES IDX 18 24 82 25 19 26 81 27 20 28 21 29 22 30 75 31 23 32 80 33
REMARK SMILES IDX 74 34 76 35 24 36 79 37 73 38 72 39 25 41 59 42 38 43 58 44
REMARK SMILES IDX 39 45 42 46 57 47 77 48 40 49 41 50 56 52 78 53 43 54 26 55
REMARK SMILES IDX 27 56 36 57 28 58 29 59 35 60 37 61 30 62 31 63 32 64 33 65
REMARK SMILES IDX 34 66 60 67 61 68 70 69 62 70 63 71 69 72 71 73 64 74 65 75
REMARK SMILES IDX 66 76 67 77 68 78 44 79 45 80 54 81 46 82 47 83 53 84 55 85
REMARK SMILES IDX 48 86 49 87 50 88 51 89 52 90
REMARK H PARENT 76 40 42 51
REMARK Flexibility Score: inf
ROOT
ATOM      1  O   UNL A   1      33.610  31.406  27.934  1.00  0.00    -0.374 OA
ENDROOT
BRANCH   1   2
ATOM      2  C   UNL A   1      33.786  30.256  27.117  1.00  0.00     0.202 C 
BRANCH   2   3
ATOM      3  C   UNL A   1      32.791  29.104  27.260  1.00  0.00     0.261 C 
BRANCH   3   4
ATOM      4  O   UNL A   1      33.234  27.856  26.707  1.00  0.00    -0.463 OA
BRANCH   4   5
ATOM      5  C   UNL A   1      32.232  26.955  26.465  1.00  0.00     0.315 C 
ATOM      6  O   UNL A   1      31.392  26.610  27.287  1.00  0.00    -0.251 OA
BRANCH   5   7
ATOM      7  C   UNL A   1      32.319  26.431  25.033  1.00  0.00     0.148 C 
BRANCH   7   8
ATOM      8  C   UNL A   1      32.683  24.931  24.989  1.00  0.00     0.022 C 
BRANCH   8   9
ATOM      9  C   UNL A   1      33.575  24.383  26.115  1.00  0.00     0.001 C 
BRANCH   9  10
ATOM     10  C   UNL A   1      35.046  24.089  25.793  1.00  0.00    -0.003 C 
ATOM     11  C   UNL A   1      35.373  23.874  24.322  1.00  0.00     0.004 C 
ENDBRANCH   9  10
ENDBRANCH   8   9
ENDBRANCH   7   8
BRANCH   7  12
ATOM     12  C   UNL A   1      30.970  26.670  24.376  1.00  0.00     0.052 A 
ATOM     13  C   UNL A   1      29.850  25.852  24.371  1.00  0.00     0.046 A 
ATOM     14  N   UNL A   1      30.576  27.810  23.714  1.00  0.00    -0.272 N 
ATOM     15  C   UNL A   1      28.854  26.577  23.709  1.00  0.00     0.135 A 
ATOM     16  N   UNL A   1      29.292  27.765  23.297  1.00  0.00    -0.182 NA
ATOM     17  C   UNL A   1      31.308  29.024  23.442  1.00  0.00     0.174 C 
ENDBRANCH   7  12
ENDBRANCH   5   7
ENDBRANCH   4   5
ENDBRANCH   3   4
ENDBRANCH   2   3
ENDBRANCH   1   2
BRANCH   1  18
ATOM     18  C   UNL A   1      34.679  32.342  28.035  1.00  0.00     0.202 C 
BRANCH  18  19
ATOM     19  C   UNL A   1      35.264  32.628  29.424  1.00  0.00     0.261 C 
BRANCH  19  20
ATOM     20  O   UNL A   1      35.800  31.461  30.072  1.00  0.00    -0.460 OA
BRANCH  20  21
ATOM     21  C   UNL A   1      36.954  31.682  30.748  1.00  0.00     0.338 C 
ATOM     22  O   UNL A   1      37.108  32.412  31.721  1.00  0.00    -0.246 OA
BRANCH  21  23
ATOM     23  C   UNL A   1      38.027  30.798  30.269  1.00  0.00     0.060 A 
ATOM     24  C   UNL A   1      38.913  30.277  31.221  1.00  0.00     0.016 A 
ATOM     25  C   UNL A   1      38.254  30.608  28.904  1.00  0.00     0.016 A 
ATOM     26  C   UNL A   1      40.066  29.613  30.809  1.00  0.00     0.010 A 
ATOM     27  C   UNL A   1      39.419  29.950  28.493  1.00  0.00     0.010 A 
ATOM     28  C   UNL A   1      40.349  29.491  29.442  1.00  0.00    -0.014 A 
BRANCH  28  29
ATOM     29  C   UNL A   1      41.697  29.040  29.020  1.00  0.00     0.031 A 
ATOM     30  C   UNL A   1      42.833  30.026  29.044  1.00  0.00     0.074 A 
ATOM     31  C   UNL A   1      41.912  27.762  28.660  1.00  0.00     0.049 A 
ATOM     32  N   UNL A   1      44.085  29.859  28.707  1.00  0.00    -0.248 NA
ATOM     33  C   UNL A   1      42.514  31.385  29.515  1.00  0.00     0.031 C 
ATOM     34  C   UNL A   1      40.896  26.710  28.641  1.00  0.00     0.029 A 
ATOM     35  N   UNL A   1      43.056  27.134  28.242  1.00  0.00    -0.354 N 
ATOM     36  C   UNL A   1      44.703  31.085  28.922  1.00  0.00     0.074 A 
ATOM     37  C   UNL A   1      43.682  31.997  29.390  1.00  0.00     0.031 C 
ATOM     38  C   UNL A   1      41.463  25.565  28.223  1.00  0.00     0.029 A 
ATOM     39  C   UNL A   1      42.873  25.811  27.921  1.00  0.00     0.049 A 
ATOM     40  H   UNL A   1      43.927  27.588  28.178  1.00  0.00     0.167 HD
ATOM     41  C   UNL A   1      46.005  31.418  28.754  1.00  0.00     0.037 A 
ATOM     42  C   UNL A   1      43.740  24.908  27.425  1.00  0.00     0.037 A 
ATOM     43  C   UNL A   1      47.015  30.505  28.284  1.00  0.00     0.049 A 
ATOM     44  C   UNL A   1      45.170  25.318  27.183  1.00  0.00     0.074 A 
ATOM     45  C   UNL A   1      48.364  30.740  28.083  1.00  0.00     0.029 A 
ATOM     46  N   UNL A   1      46.783  29.182  27.938  1.00  0.00    -0.354 N 
ATOM     47  N   UNL A   1      45.743  26.478  27.400  1.00  0.00    -0.248 NA
ATOM     48  C   UNL A   1      46.070  24.297  26.628  1.00  0.00     0.031 C 
ATOM     49  C   UNL A   1      48.939  29.569  27.576  1.00  0.00     0.029 A 
ATOM     50  C   UNL A   1      47.958  28.593  27.504  1.00  0.00     0.049 A 
ATOM     51  H   UNL A   1      45.910  28.729  27.991  1.00  0.00     0.167 HD
ATOM     52  C   UNL A   1      47.075  26.320  27.035  1.00  0.00     0.074 A 
ATOM     53  C   UNL A   1      47.224  24.949  26.588  1.00  0.00     0.031 C 
ATOM     54  C   UNL A   1      48.086  27.224  27.068  1.00  0.00     0.037 A 
BRANCH  41  55
ATOM     55  C   UNL A   1      46.403  32.836  29.058  1.00  0.00     0.058 A 
ATOM     56  C   UNL A   1      46.427  33.824  28.061  1.00  0.00     0.135 A 
ATOM     57  C   UNL A   1      46.749  33.214  30.364  1.00  0.00     0.135 A 
ATOM     58  F   UNL A   1      46.122  33.512  26.791  1.00  0.00    -0.206 F 
ATOM     59  C   UNL A   1      46.810  35.132  28.344  1.00  0.00     0.059 A 
ATOM     60  C   UNL A   1      47.112  34.522  30.674  1.00  0.00     0.059 A 
ATOM     61  F   UNL A   1      46.745  32.308  31.354  1.00  0.00    -0.206 F 
ATOM     62  C   UNL A   1      47.155  35.471  29.653  1.00  0.00     0.060 A 
BRANCH  62  63
ATOM     63  S   UNL A   1      47.660  37.168  30.004  1.00  0.00     0.124 S 
ATOM     64  O   UNL A   1      48.089  37.062  31.395  1.00  0.00    -0.237 OA
ATOM     65  O   UNL A   1      48.722  37.387  29.028  1.00  0.00    -0.237 OA
ATOM     66  O   UNL A   1      46.440  37.938  29.781  1.00  0.00    -0.744 OA
ENDBRANCH  62  63
ENDBRANCH  41  55
BRANCH  42  67
ATOM     67  C   UNL A   1      43.280  23.528  27.120  1.00  0.00     0.058 A 
ATOM     68  C   UNL A   1      43.016  23.127  25.802  1.00  0.00     0.135 A 
ATOM     69  C   UNL A   1      43.105  22.579  28.140  1.00  0.00     0.135 A 
ATOM     70  F   UNL A   1      43.159  24.001  24.794  1.00  0.00    -0.206 F 
ATOM     71  C   UNL A   1      42.587  21.837  25.505  1.00  0.00     0.059 A 
ATOM     72  C   UNL A   1      42.699  21.278  27.866  1.00  0.00     0.059 A 
ATOM     73  F   UNL A   1      43.353  22.910  29.416  1.00  0.00    -0.206 F 
ATOM     74  C   UNL A   1      42.435  20.918  26.544  1.00  0.00     0.060 A 
BRANCH  74  75
ATOM     75  S   UNL A   1      41.936  19.229  26.145  1.00  0.00     0.124 S 
ATOM     76  O   UNL A   1      42.321  18.515  27.357  1.00  0.00    -0.237 OA
ATOM     77  O   UNL A   1      40.501  19.378  25.918  1.00  0.00    -0.237 OA
ATOM     78  O   UNL A   1      42.721  18.922  24.954  1.00  0.00    -0.744 OA
ENDBRANCH  74  75
ENDBRANCH  42  67
BRANCH  54  79
ATOM     79  C   UNL A   1      49.447  26.755  26.638  1.00  0.00     0.058 A 
ATOM     80  C   UNL A   1      50.348  26.175  27.544  1.00  0.00     0.135 A 
ATOM     81  C   UNL A   1      49.834  26.839  25.290  1.00  0.00     0.135 A 
ATOM     82  F   UNL A   1      50.029  26.078  28.844  1.00  0.00    -0.206 F 
ATOM     83  C   UNL A   1      51.593  25.711  27.133  1.00  0.00     0.059 A 
ATOM     84  C   UNL A   1      51.064  26.360  24.852  1.00  0.00     0.059 A 
ATOM     85  F   UNL A   1      49.004  27.376  24.381  1.00  0.00    -0.206 F 
ATOM     86  C   UNL A   1      51.942  25.807  25.784  1.00  0.00     0.060 A 
BRANCH  86  87
ATOM     87  S   UNL A   1      53.546  25.170  25.256  1.00  0.00     0.124 S 
ATOM     88  O   UNL A   1      53.287  23.734  25.199  1.00  0.00    -0.237 OA
ATOM     89  O   UNL A   1      53.739  25.830  23.968  1.00  0.00    -0.237 OA
ATOM     90  O   UNL A   1      54.451  25.604  26.317  1.00  0.00    -0.744 OA
ENDBRANCH  86  87
ENDBRANCH  54  79
ENDBRANCH  28  29
ENDBRANCH  21  23
ENDBRANCH  20  21
ENDBRANCH  19  20
ENDBRANCH  18  19
ENDBRANCH   1  18
TORSDOF 21
ENDMDL
MODEL 3
REMARK VINA RESULT:      -9.2      5.371      9.952
REMARK SMILES CCCC[C@H](C(=O)OCCOCCOC(=O)c1ccc(-c2c3nc(c(-c4c(F)cc(S(=O)(=O)[O-])cc4F)c4ccc([nH]4)c(-c4c(F)cc(S(=O)(=O)[O-])cc4F)c4nc(c(-c5c(F)cc(S(=O)(=O)[O-])cc5F)c5ccc2[nH]5)C=C4)C=C3)cc1)c1ccnn1C
REMARK SMILES IDX 11 1 10 2 9 3 8 4 6 5 7 6 5 7 4 8 3 9 2 10 1 11 83 12 84 13
REMARK SMILES IDX 87 14 85 15 86 16 88 17 12 18 13 19 14 20 15 21 16 22 17 23
REMARK SMILES IDX 18 24 82 25 19 26 81 27 20 28 21 29 22 30 75 31 23 32 80 33
REMARK SMILES IDX 74 34 76 35 24 36 79 37 73 38 72 39 25 41 59 42 38 43 58 44
REMARK SMILES IDX 39 45 42 46 57 47 77 48 40 49 41 50 56 52 78 53 43 54 26 55
REMARK SMILES IDX 27 56 36 57 28 58 29 59 35 60 37 61 30 62 31 63 32 64 33 65
REMARK SMILES IDX 34 66 60 67 61 68 70 69 62 70 63 71 69 72 71 73 64 74 65 75
REMARK SMILES IDX 66 76 67 77 68 78 44 79 45 80 54 81 46 82 47 83 53 84 55 85
REMARK SMILES IDX 48 86 49 87 50 88 51 89 52 90
REMARK H PARENT 76 40 42 51
REMARK Flexibility Score: inf
ROOT
ATOM      1  O   UNL A   1      35.226  22.305  25.697  1.00  0.00    -0.374 OA
ENDROOT
BRANCH   1   2
ATOM      2  C   UNL A   1      33.830  22.176  25.929  1.00  0.00     0.202 C 
BRANCH   2   3
ATOM      3  C   UNL A   1      32.903  23.278  25.412  1.00  0.00     0.261 C 
BRANCH   3   4
ATOM      4  O   UNL A   1      33.053  24.545  26.070  1.00  0.00    -0.463 OA
BRANCH   4   5
ATOM      5  C   UNL A   1      31.920  25.314  26.081  1.00  0.00     0.315 C 
ATOM      6  O   UNL A   1      30.805  24.908  26.384  1.00  0.00    -0.251 OA
BRANCH   5   7
ATOM      7  C   UNL A   1      32.241  26.743  25.649  1.00  0.00     0.148 C 
BRANCH   7   8
ATOM      8  C   UNL A   1      33.737  27.081  25.836  1.00  0.00     0.022 C 
BRANCH   8   9
ATOM      9  C   UNL A   1      34.085  28.427  26.491  1.00  0.00     0.001 C 
BRANCH   9  10
ATOM     10  C   UNL A   1      32.976  29.170  27.249  1.00  0.00    -0.003 C 
ATOM     11  C   UNL A   1      33.056  30.690  27.217  1.00  0.00     0.004 C 
ENDBRANCH   9  10
ENDBRANCH   8   9
ENDBRANCH   7   8
BRANCH   7  12
ATOM     12  C   UNL A   1      31.844  26.880  24.189  1.00  0.00     0.052 A 
ATOM     13  C   UNL A   1      31.914  25.933  23.179  1.00  0.00     0.046 A 
ATOM     14  N   UNL A   1      31.251  27.975  23.605  1.00  0.00    -0.272 N 
ATOM     15  C   UNL A   1      31.339  26.535  22.055  1.00  0.00     0.135 A 
ATOM     16  N   UNL A   1      30.944  27.782  22.304  1.00  0.00    -0.182 NA
ATOM     17  C   UNL A   1      30.889  29.250  24.177  1.00  0.00     0.174 C 
ENDBRANCH   7  12
ENDBRANCH   5   7
ENDBRANCH   4   5
ENDBRANCH   3   4
ENDBRANCH   2   3
ENDBRANCH   1   2
BRANCH   1  18
ATOM     18  C   UNL A   1      36.016  21.122  25.611  1.00  0.00     0.202 C 
BRANCH  18  19
ATOM     19  C   UNL A   1      37.443  21.242  25.060  1.00  0.00     0.261 C 
BRANCH  19  20
ATOM     20  O   UNL A   1      38.121  22.440  25.479  1.00  0.00    -0.460 OA
BRANCH  20  21
ATOM     21  C   UNL A   1      39.232  22.217  26.224  1.00  0.00     0.338 C 
ATOM     22  O   UNL A   1      39.950  21.224  26.194  1.00  0.00    -0.246 OA
BRANCH  21  23
ATOM     23  C   UNL A   1      39.597  23.411  27.002  1.00  0.00     0.060 A 
ATOM     24  C   UNL A   1      38.879  24.589  26.760  1.00  0.00     0.016 A 
ATOM     25  C   UNL A   1      40.718  23.417  27.836  1.00  0.00     0.016 A 
ATOM     26  C   UNL A   1      39.315  25.795  27.305  1.00  0.00     0.010 A 
ATOM     27  C   UNL A   1      41.159  24.631  28.374  1.00  0.00     0.010 A 
ATOM     28  C   UNL A   1      40.486  25.828  28.073  1.00  0.00    -0.014 A 
BRANCH  28  29
ATOM     29  C   UNL A   1      41.092  27.139  28.410  1.00  0.00     0.031 A 
ATOM     30  C   UNL A   1      42.571  27.329  28.205  1.00  0.00     0.074 A 
ATOM     31  C   UNL A   1      40.330  28.155  28.852  1.00  0.00     0.049 A 
ATOM     32  N   UNL A   1      43.314  28.378  28.443  1.00  0.00    -0.248 NA
ATOM     33  C   UNL A   1      43.311  26.180  27.655  1.00  0.00     0.031 C 
ATOM     34  C   UNL A   1      38.881  28.099  29.046  1.00  0.00     0.029 A 
ATOM     35  N   UNL A   1      40.671  29.432  29.217  1.00  0.00    -0.354 N 
ATOM     36  C   UNL A   1      44.606  28.019  28.075  1.00  0.00     0.074 A 
ATOM     37  C   UNL A   1      44.551  26.645  27.626  1.00  0.00     0.031 C 
ATOM     38  C   UNL A   1      38.458  29.289  29.504  1.00  0.00     0.029 A 
ATOM     39  C   UNL A   1      39.607  30.180  29.659  1.00  0.00     0.049 A 
ATOM     40  H   UNL A   1      41.590  29.779  29.167  1.00  0.00     0.167 HD
ATOM     41  C   UNL A   1      45.733  28.770  28.099  1.00  0.00     0.037 A 
ATOM     42  C   UNL A   1      39.570  31.435  30.148  1.00  0.00     0.037 A 
ATOM     43  C   UNL A   1      45.779  30.136  28.551  1.00  0.00     0.049 A 
ATOM     44  C   UNL A   1      40.847  32.230  30.230  1.00  0.00     0.074 A 
ATOM     45  C   UNL A   1      46.868  30.988  28.612  1.00  0.00     0.029 A 
ATOM     46  N   UNL A   1      44.686  30.849  29.023  1.00  0.00    -0.354 N 
ATOM     47  N   UNL A   1      42.060  31.882  29.869  1.00  0.00    -0.248 NA
ATOM     48  C   UNL A   1      40.751  33.588  30.784  1.00  0.00     0.031 C 
ATOM     49  C   UNL A   1      46.441  32.203  29.160  1.00  0.00     0.029 A 
ATOM     50  C   UNL A   1      45.078  32.123  29.398  1.00  0.00     0.049 A 
ATOM     51  H   UNL A   1      43.768  30.500  29.084  1.00  0.00     0.167 HD
ATOM     52  C   UNL A   1      42.866  32.985  30.126  1.00  0.00     0.074 A 
ATOM     53  C   UNL A   1      42.002  34.014  30.668  1.00  0.00     0.031 C 
ATOM     54  C   UNL A   1      44.200  33.135  29.930  1.00  0.00     0.037 A 
BRANCH  41  55
ATOM     55  C   UNL A   1      47.010  28.118  27.647  1.00  0.00     0.058 A 
ATOM     56  C   UNL A   1      47.851  27.442  28.546  1.00  0.00     0.135 A 
ATOM     57  C   UNL A   1      47.390  28.157  26.297  1.00  0.00     0.135 A 
ATOM     58  F   UNL A   1      47.543  27.390  29.851  1.00  0.00    -0.206 F 
ATOM     59  C   UNL A   1      49.039  26.853  28.125  1.00  0.00     0.059 A 
ATOM     60  C   UNL A   1      48.563  27.554  25.850  1.00  0.00     0.059 A 
ATOM     61  F   UNL A   1      46.624  28.793  25.397  1.00  0.00    -0.206 F 
ATOM     62  C   UNL A   1      49.389  26.918  26.776  1.00  0.00     0.060 A 
BRANCH  62  63
ATOM     63  S   UNL A   1      50.939  26.158  26.246  1.00  0.00     0.124 S 
ATOM     64  O   UNL A   1      51.922  27.047  26.859  1.00  0.00    -0.237 OA
ATOM     65  O   UNL A   1      50.847  24.821  26.822  1.00  0.00    -0.237 OA
ATOM     66  O   UNL A   1      50.864  26.216  24.789  1.00  0.00    -0.744 OA
ENDBRANCH  62  63
ENDBRANCH  41  55
BRANCH  42  67
ATOM     67  C   UNL A   1      38.280  32.014  30.605  1.00  0.00     0.058 A 
ATOM     68  C   UNL A   1      37.884  31.935  31.948  1.00  0.00     0.135 A 
ATOM     69  C   UNL A   1      37.421  32.669  29.707  1.00  0.00     0.135 A 
ATOM     70  F   UNL A   1      38.666  31.309  32.841  1.00  0.00    -0.206 F 
ATOM     71  C   UNL A   1      36.679  32.477  32.386  1.00  0.00     0.059 A 
ATOM     72  C   UNL A   1      36.223  33.238  30.126  1.00  0.00     0.059 A 
ATOM     73  F   UNL A   1      37.758  32.781  28.414  1.00  0.00    -0.206 F 
ATOM     74  C   UNL A   1      35.856  33.130  31.467  1.00  0.00     0.060 A 
BRANCH  74  75
ATOM     75  S   UNL A   1      34.324  33.882  32.054  1.00  0.00     0.124 S 
ATOM     76  O   UNL A   1      33.679  32.755  32.717  1.00  0.00    -0.237 OA
ATOM     77  O   UNL A   1      34.817  34.942  32.929  1.00  0.00    -0.237 OA
ATOM     78  O   UNL A   1      33.686  34.343  30.825  1.00  0.00    -0.744 OA
ENDBRANCH  74  75
ENDBRANCH  42  67
BRANCH  54  79
ATOM     79  C   UNL A   1      44.803  34.468  30.276  1.00  0.00     0.058 A 
ATOM     80  C   UNL A   1      44.851  35.519  29.346  1.00  0.00     0.135 A 
ATOM     81  C   UNL A   1      45.290  34.713  31.570  1.00  0.00     0.135 A 
ATOM     82  F   UNL A   1      44.404  35.333  28.094  1.00  0.00    -0.206 F 
ATOM     83  C   UNL A   1      45.379  36.761  29.683  1.00  0.00     0.059 A 
ATOM     84  C   UNL A   1      45.800  35.954  31.935  1.00  0.00     0.059 A 
ATOM     85  F   UNL A   1      45.257  33.744  32.499  1.00  0.00    -0.206 F 
ATOM     86  C   UNL A   1      45.851  36.970  30.980  1.00  0.00     0.060 A 
BRANCH  86  87
ATOM     87  S   UNL A   1      46.501  38.596  31.416  1.00  0.00     0.124 S 
ATOM     88  O   UNL A   1      47.843  38.260  31.882  1.00  0.00    -0.237 OA
ATOM     89  O   UNL A   1      46.432  39.313  30.146  1.00  0.00    -0.237 OA
ATOM     90  O   UNL A   1      45.577  39.067  32.444  1.00  0.00    -0.744 OA
ENDBRANCH  86  87
ENDBRANCH  54  79
ENDBRANCH  28  29
ENDBRANCH  21  23
ENDBRANCH  20  21
ENDBRANCH  19  20
ENDBRANCH  18  19
ENDBRANCH   1  18
TORSDOF 21
ENDMDL
