MODEL 1
REMARK VINA RESULT:     -10.9      0.000      0.000
REMARK SMILES NS(=O)(=O)c1ccc(/N=C/c2ccc(O)c(C(=O)OCCOCCOC(=O)c3ccc(-c4c5nc(c(-c6c(F)cc(S(=O)(=O)[O-])cc6F)c6ccc([nH]6)c(-c6c(F)cc(S(=O)(=O)[O-])cc6F)c6nc(c(-c7c(F)cc(S(=O)(=O)[O-])cc7F)c7ccc4[nH]7)C=C6)C=C5)cc3)c2)cc1
REMARK SMILES IDX 21 1 20 2 19 3 17 4 18 5 16 6 11 7 12 8 94 9 13 10 14 11
REMARK SMILES IDX 10 12 9 13 8 14 5 15 6 16 96 17 7 18 95 19 2 20 3 21 4 22
REMARK SMILES IDX 1 23 15 26 22 28 23 29 24 30 25 31 26 32 27 33 28 34 29 35
REMARK SMILES IDX 93 36 30 37 92 38 31 39 32 40 33 41 86 42 34 43 91 44 85 45
REMARK SMILES IDX 87 46 35 47 90 48 84 49 83 50 36 52 70 53 49 54 69 55 50 56
REMARK SMILES IDX 53 57 68 58 88 59 51 60 52 61 67 63 89 64 54 65 37 66 38 67
REMARK SMILES IDX 47 68 39 69 40 70 46 71 48 72 41 73 42 74 43 75 44 76 45 77
REMARK SMILES IDX 71 78 72 79 81 80 73 81 74 82 80 83 82 84 75 85 76 86 77 87
REMARK SMILES IDX 78 88 79 89 55 90 56 91 65 92 57 93 58 94 64 95 66 96 59 97
REMARK SMILES IDX 60 98 61 99 62 100 63 101
REMARK H PARENT 1 24 1 25 15 27 87 51 53 62
REMARK Flexibility Score: inf
ROOT
ATOM      1  C   UNL A   1      44.865  20.660  24.786  1.00  0.00     0.202 C 
ENDROOT
BRANCH   1   2
ATOM      2  C   UNL A   1      44.214  19.291  25.016  1.00  0.00     0.261 C 
BRANCH   2   3
ATOM      3  O   UNL A   1      42.780  19.402  25.071  1.00  0.00    -0.460 OA
BRANCH   3   4
ATOM      4  C   UNL A   1      42.240  19.252  26.301  1.00  0.00     0.342 C 
ATOM      5  O   UNL A   1      42.532  18.408  27.138  1.00  0.00    -0.246 OA
BRANCH   4   6
ATOM      6  C   UNL A   1      41.393  20.414  26.653  1.00  0.00     0.102 A 
ATOM      7  C   UNL A   1      39.450  21.824  26.371  1.00  0.00    -0.006 A 
ATOM      8  C   UNL A   1      39.929  22.694  27.359  1.00  0.00     0.013 A 
ATOM      9  C   UNL A   1      40.187  20.691  25.998  1.00  0.00     0.029 A 
ATOM     10  C   UNL A   1      41.140  22.425  27.994  1.00  0.00     0.048 A 
ATOM     11  C   UNL A   1      41.859  21.285  27.653  1.00  0.00     0.130 A 
BRANCH   7  12
ATOM     12  C   UNL A   1      38.134  22.128  25.770  1.00  0.00     0.119 C 
ATOM     13  N   UNL A   1      37.796  23.327  25.426  1.00  0.00    -0.256 NA
BRANCH  13  14
ATOM     14  C   UNL A   1      36.547  23.555  24.820  1.00  0.00     0.063 A 
ATOM     15  C   UNL A   1      34.134  23.968  23.435  1.00  0.00     0.082 A 
ATOM     16  C   UNL A   1      35.114  23.143  22.886  1.00  0.00     0.024 A 
ATOM     17  C   UNL A   1      34.349  24.598  24.663  1.00  0.00     0.024 A 
ATOM     18  C   UNL A   1      36.312  22.943  23.582  1.00  0.00     0.030 A 
ATOM     19  C   UNL A   1      35.554  24.396  25.345  1.00  0.00     0.030 A 
BRANCH  15  20
ATOM     20  S   UNL A   1      32.627  24.295  22.568  1.00  0.00     0.238 S 
ATOM     21  O   UNL A   1      32.957  24.773  21.241  1.00  0.00    -0.207 OA
ATOM     22  O   UNL A   1      31.744  25.014  23.451  1.00  0.00    -0.207 OA
BRANCH  20  23
ATOM     23  N   UNL A   1      31.941  22.782  22.338  1.00  0.00    -0.225 NA
ATOM     24  H   UNL A   1      30.950  22.819  22.576  1.00  0.00     0.137 HD
ATOM     25  H   UNL A   1      32.409  22.102  22.936  1.00  0.00     0.137 HD
ENDBRANCH  20  23
ENDBRANCH  15  20
ENDBRANCH  13  14
ENDBRANCH   7  12
BRANCH  11  26
ATOM     26  O   UNL A   1      43.037  21.096  28.328  1.00  0.00    -0.507 OA
ATOM     27  H   UNL A   1      43.060  21.171  29.261  1.00  0.00     0.293 HD
ENDBRANCH  11  26
ENDBRANCH   4   6
ENDBRANCH   3   4
ENDBRANCH   2   3
ENDBRANCH   1   2
BRANCH   1  28
ATOM     28  O   UNL A   1      43.957  21.743  24.570  1.00  0.00    -0.374 OA
BRANCH  28  29
ATOM     29  C   UNL A   1      44.359  23.025  25.060  1.00  0.00     0.202 C 
BRANCH  29  30
ATOM     30  C   UNL A   1      43.380  24.181  24.828  1.00  0.00     0.261 C 
BRANCH  30  31
ATOM     31  O   UNL A   1      42.683  24.532  26.036  1.00  0.00    -0.460 OA
BRANCH  31  32
ATOM     32  C   UNL A   1      42.110  25.759  26.010  1.00  0.00     0.338 C 
ATOM     33  O   UNL A   1      41.528  26.274  25.070  1.00  0.00    -0.246 OA
BRANCH  32  34
ATOM     34  C   UNL A   1      42.119  26.364  27.358  1.00  0.00     0.060 A 
ATOM     35  C   UNL A   1      41.068  26.014  28.213  1.00  0.00     0.016 A 
ATOM     36  C   UNL A   1      43.068  27.313  27.751  1.00  0.00     0.016 A 
ATOM     37  C   UNL A   1      40.904  26.678  29.425  1.00  0.00     0.010 A 
ATOM     38  C   UNL A   1      42.901  27.981  28.971  1.00  0.00     0.010 A 
ATOM     39  C   UNL A   1      41.785  27.706  29.783  1.00  0.00    -0.014 A 
BRANCH  39  40
ATOM     40  C   UNL A   1      41.400  28.612  30.894  1.00  0.00     0.031 A 
ATOM     41  C   UNL A   1      42.199  28.568  32.172  1.00  0.00     0.074 A 
ATOM     42  C   UNL A   1      40.421  29.521  30.738  1.00  0.00     0.049 A 
ATOM     43  N   UNL A   1      42.089  29.306  33.246  1.00  0.00    -0.248 NA
ATOM     44  C   UNL A   1      43.267  27.556  32.244  1.00  0.00     0.031 C 
ATOM     45  C   UNL A   1      39.605  29.686  29.537  1.00  0.00     0.029 A 
ATOM     46  N   UNL A   1      39.957  30.486  31.596  1.00  0.00    -0.354 N 
ATOM     47  C   UNL A   1      43.071  28.850  34.120  1.00  0.00     0.074 A 
ATOM     48  C   UNL A   1      43.739  27.745  33.467  1.00  0.00     0.031 C 
ATOM     49  C   UNL A   1      38.741  30.698  29.733  1.00  0.00     0.029 A 
ATOM     50  C   UNL A   1      38.932  31.240  31.078  1.00  0.00     0.049 A 
ATOM     51  H   UNL A   1      40.325  30.626  32.499  1.00  0.00     0.167 HD
ATOM     52  C   UNL A   1      43.400  29.319  35.346  1.00  0.00     0.037 A 
ATOM     53  C   UNL A   1      38.229  32.249  31.627  1.00  0.00     0.037 A 
ATOM     54  C   UNL A   1      42.736  30.421  35.992  1.00  0.00     0.049 A 
ATOM     55  C   UNL A   1      38.582  32.726  33.013  1.00  0.00     0.074 A 
ATOM     56  C   UNL A   1      42.991  30.972  37.236  1.00  0.00     0.029 A 
ATOM     57  N   UNL A   1      41.684  31.140  35.444  1.00  0.00    -0.354 N 
ATOM     58  N   UNL A   1      39.521  32.293  33.821  1.00  0.00    -0.248 NA
ATOM     59  C   UNL A   1      37.789  33.837  33.555  1.00  0.00     0.031 C 
ATOM     60  C   UNL A   1      42.067  32.001  37.455  1.00  0.00     0.029 A 
ATOM     61  C   UNL A   1      41.271  32.123  36.329  1.00  0.00     0.049 A 
ATOM     62  H   UNL A   1      41.289  30.976  34.557  1.00  0.00     0.167 HD
ATOM     63  C   UNL A   1      39.455  33.104  34.951  1.00  0.00     0.074 A 
ATOM     64  C   UNL A   1      38.388  34.056  34.718  1.00  0.00     0.031 C 
ATOM     65  C   UNL A   1      40.215  33.070  36.075  1.00  0.00     0.037 A 
BRANCH  52  66
ATOM     66  C   UNL A   1      44.517  28.624  36.077  1.00  0.00     0.058 A 
ATOM     67  C   UNL A   1      44.284  27.496  36.881  1.00  0.00     0.135 A 
ATOM     68  C   UNL A   1      45.839  29.082  35.960  1.00  0.00     0.135 A 
ATOM     69  F   UNL A   1      43.037  27.027  37.042  1.00  0.00    -0.206 F 
ATOM     70  C   UNL A   1      45.317  26.868  37.568  1.00  0.00     0.059 A 
ATOM     71  C   UNL A   1      46.891  28.453  36.617  1.00  0.00     0.059 A 
ATOM     72  F   UNL A   1      46.117  30.158  35.207  1.00  0.00    -0.206 F 
ATOM     73  C   UNL A   1      46.618  27.356  37.432  1.00  0.00     0.060 A 
BRANCH  73  74
ATOM     74  S   UNL A   1      47.949  26.534  38.335  1.00  0.00     0.124 S 
ATOM     75  O   UNL A   1      48.388  27.596  39.236  1.00  0.00    -0.237 OA
ATOM     76  O   UNL A   1      47.256  25.415  38.965  1.00  0.00    -0.237 OA
ATOM     77  O   UNL A   1      48.897  26.169  37.286  1.00  0.00    -0.744 OA
ENDBRANCH  73  74
ENDBRANCH  52  66
BRANCH  53  78
ATOM     78  C   UNL A   1      37.127  32.891  30.861  1.00  0.00     0.058 A 
ATOM     79  C   UNL A   1      35.792  32.505  31.047  1.00  0.00     0.135 A 
ATOM     80  C   UNL A   1      37.392  33.904  29.927  1.00  0.00     0.135 A 
ATOM     81  F   UNL A   1      35.490  31.534  31.922  1.00  0.00    -0.206 F 
ATOM     82  C   UNL A   1      34.757  33.087  30.321  1.00  0.00     0.059 A 
ATOM     83  C   UNL A   1      36.372  34.519  29.208  1.00  0.00     0.059 A 
ATOM     84  F   UNL A   1      38.652  34.318  29.721  1.00  0.00    -0.206 F 
ATOM     85  C   UNL A   1      35.058  34.096  29.404  1.00  0.00     0.060 A 
BRANCH  85  86
ATOM     86  S   UNL A   1      33.705  34.879  28.500  1.00  0.00     0.124 S 
ATOM     87  O   UNL A   1      34.259  34.961  27.154  1.00  0.00    -0.237 OA
ATOM     88  O   UNL A   1      32.617  33.923  28.687  1.00  0.00    -0.237 OA
ATOM     89  O   UNL A   1      33.534  36.154  29.191  1.00  0.00    -0.744 OA
ENDBRANCH  85  86
ENDBRANCH  53  78
BRANCH  65  90
ATOM     90  C   UNL A   1      39.955  34.125  37.117  1.00  0.00     0.058 A 
ATOM     91  C   UNL A   1      39.124  33.889  38.222  1.00  0.00     0.135 A 
ATOM     92  C   UNL A   1      40.577  35.380  37.020  1.00  0.00     0.135 A 
ATOM     93  F   UNL A   1      38.502  32.707  38.361  1.00  0.00    -0.206 F 
ATOM     94  C   UNL A   1      38.889  34.874  39.177  1.00  0.00     0.059 A 
ATOM     95  C   UNL A   1      40.380  36.370  37.979  1.00  0.00     0.059 A 
ATOM     96  F   UNL A   1      41.395  35.653  35.992  1.00  0.00    -0.206 F 
ATOM     97  C   UNL A   1      39.519  36.112  39.044  1.00  0.00     0.060 A 
BRANCH  97  98
ATOM     98  S   UNL A   1      39.215  37.380  40.294  1.00  0.00     0.124 S 
ATOM     99  O   UNL A   1      40.574  37.807  40.612  1.00  0.00    -0.237 OA
ATOM    100  O   UNL A   1      38.400  38.349  39.568  1.00  0.00    -0.237 OA
ATOM    101  O   UNL A   1      38.520  36.654  41.353  1.00  0.00    -0.744 OA
ENDBRANCH  97  98
ENDBRANCH  65  90
ENDBRANCH  39  40
ENDBRANCH  32  34
ENDBRANCH  31  32
ENDBRANCH  30  31
ENDBRANCH  29  30
ENDBRANCH  28  29
ENDBRANCH   1  28
TORSDOF 22
ENDMDL
MODEL 2
REMARK VINA RESULT:     -10.7      6.141     13.459
REMARK SMILES NS(=O)(=O)c1ccc(/N=C/c2ccc(O)c(C(=O)OCCOCCOC(=O)c3ccc(-c4c5nc(c(-c6c(F)cc(S(=O)(=O)[O-])cc6F)c6ccc([nH]6)c(-c6c(F)cc(S(=O)(=O)[O-])cc6F)c6nc(c(-c7c(F)cc(S(=O)(=O)[O-])cc7F)c7ccc4[nH]7)C=C6)C=C5)cc3)c2)cc1
REMARK SMILES IDX 21 1 20 2 19 3 17 4 18 5 16 6 11 7 12 8 94 9 13 10 14 11
REMARK SMILES IDX 10 12 9 13 8 14 5 15 6 16 96 17 7 18 95 19 2 20 3 21 4 22
REMARK SMILES IDX 1 23 15 26 22 28 23 29 24 30 25 31 26 32 27 33 28 34 29 35
REMARK SMILES IDX 93 36 30 37 92 38 31 39 32 40 33 41 86 42 34 43 91 44 85 45
REMARK SMILES IDX 87 46 35 47 90 48 84 49 83 50 36 52 70 53 49 54 69 55 50 56
REMARK SMILES IDX 53 57 68 58 88 59 51 60 52 61 67 63 89 64 54 65 37 66 38 67
REMARK SMILES IDX 47 68 39 69 40 70 46 71 48 72 41 73 42 74 43 75 44 76 45 77
REMARK SMILES IDX 71 78 72 79 81 80 73 81 74 82 80 83 82 84 75 85 76 86 77 87
REMARK SMILES IDX 78 88 79 89 55 90 56 91 65 92 57 93 58 94 64 95 66 96 59 97
REMARK SMILES IDX 60 98 61 99 62 100 63 101
REMARK H PARENT 1 24 1 25 15 27 87 51 53 62
REMARK Flexibility Score: inf
ROOT
ATOM      1  C   UNL A   1      35.657  35.167  32.994  1.00  0.00     0.202 C 
ENDROOT
BRANCH   1   2
ATOM      2  C   UNL A   1      34.406  35.666  33.724  1.00  0.00     0.261 C 
BRANCH   2   3
ATOM      3  O   UNL A   1      33.569  36.443  32.846  1.00  0.00    -0.460 OA
BRANCH   3   4
ATOM      4  C   UNL A   1      32.661  35.732  32.141  1.00  0.00     0.342 C 
ATOM      5  O   UNL A   1      31.575  35.327  32.533  1.00  0.00    -0.246 OA
BRANCH   4   6
ATOM      6  C   UNL A   1      33.014  35.700  30.704  1.00  0.00     0.102 A 
ATOM      7  C   UNL A   1      33.488  34.551  28.630  1.00  0.00    -0.006 A 
ATOM      8  C   UNL A   1      33.771  35.774  28.009  1.00  0.00     0.013 A 
ATOM      9  C   UNL A   1      33.128  34.504  29.985  1.00  0.00     0.029 A 
ATOM     10  C   UNL A   1      33.675  36.961  28.734  1.00  0.00     0.048 A 
ATOM     11  C   UNL A   1      33.285  36.924  30.068  1.00  0.00     0.130 A 
BRANCH   7  12
ATOM     12  C   UNL A   1      33.551  33.330  27.800  1.00  0.00     0.119 C 
ATOM     13  N   UNL A   1      33.444  32.147  28.308  1.00  0.00    -0.256 NA
BRANCH  13  14
ATOM     14  C   UNL A   1      33.471  31.019  27.467  1.00  0.00     0.063 A 
ATOM     15  C   UNL A   1      33.324  28.761  25.797  1.00  0.00     0.082 A 
ATOM     16  C   UNL A   1      32.236  29.627  25.886  1.00  0.00     0.024 A 
ATOM     17  C   UNL A   1      34.481  29.003  26.540  1.00  0.00     0.024 A 
ATOM     18  C   UNL A   1      32.317  30.748  26.720  1.00  0.00     0.030 A 
ATOM     19  C   UNL A   1      34.546  30.124  27.377  1.00  0.00     0.030 A 
BRANCH  15  20
ATOM     20  S   UNL A   1      33.249  27.302  24.798  1.00  0.00     0.238 S 
ATOM     21  O   UNL A   1      34.091  27.500  23.636  1.00  0.00    -0.207 OA
ATOM     22  O   UNL A   1      31.871  26.897  24.694  1.00  0.00    -0.207 OA
BRANCH  20  23
ATOM     23  N   UNL A   1      34.023  26.130  25.713  1.00  0.00    -0.225 NA
ATOM     24  H   UNL A   1      33.328  25.504  26.121  1.00  0.00     0.137 HD
ATOM     25  H   UNL A   1      34.557  26.576  26.458  1.00  0.00     0.137 HD
ENDBRANCH  20  23
ENDBRANCH  15  20
ENDBRANCH  13  14
ENDBRANCH   7  12
BRANCH  11  26
ATOM     26  O   UNL A   1      33.215  38.135  30.706  1.00  0.00    -0.507 OA
ATOM     27  H   UNL A   1      33.959  38.705  30.713  1.00  0.00     0.293 HD
ENDBRANCH  11  26
ENDBRANCH   4   6
ENDBRANCH   3   4
ENDBRANCH   2   3
ENDBRANCH   1   2
BRANCH   1  28
ATOM     28  O   UNL A   1      35.940  33.773  33.141  1.00  0.00    -0.374 OA
BRANCH  28  29
ATOM     29  C   UNL A   1      34.948  32.862  32.659  1.00  0.00     0.202 C 
BRANCH  29  30
ATOM     30  C   UNL A   1      35.366  31.950  31.501  1.00  0.00     0.261 C 
BRANCH  30  31
ATOM     31  O   UNL A   1      36.503  31.141  31.850  1.00  0.00    -0.460 OA
BRANCH  31  32
ATOM     32  C   UNL A   1      36.743  30.120  30.994  1.00  0.00     0.338 C 
ATOM     33  O   UNL A   1      35.923  29.337  30.542  1.00  0.00    -0.246 OA
BRANCH  32  34
ATOM     34  C   UNL A   1      38.139  30.163  30.513  1.00  0.00     0.060 A 
ATOM     35  C   UNL A   1      38.329  30.148  29.126  1.00  0.00     0.016 A 
ATOM     36  C   UNL A   1      39.236  30.129  31.379  1.00  0.00     0.016 A 
ATOM     37  C   UNL A   1      39.608  30.002  28.599  1.00  0.00     0.010 A 
ATOM     38  C   UNL A   1      40.523  29.981  30.847  1.00  0.00     0.010 A 
ATOM     39  C   UNL A   1      40.705  29.857  29.456  1.00  0.00    -0.014 A 
BRANCH  39  40
ATOM     40  C   UNL A   1      41.987  29.370  28.889  1.00  0.00     0.031 A 
ATOM     41  C   UNL A   1      43.155  30.321  28.823  1.00  0.00     0.074 A 
ATOM     42  C   UNL A   1      42.140  28.083  28.527  1.00  0.00     0.049 A 
ATOM     43  N   UNL A   1      44.383  30.102  28.429  1.00  0.00    -0.248 NA
ATOM     44  C   UNL A   1      42.903  31.704  29.262  1.00  0.00     0.031 C 
ATOM     45  C   UNL A   1      41.096  27.061  28.582  1.00  0.00     0.029 A 
ATOM     46  N   UNL A   1      43.241  27.416  28.052  1.00  0.00    -0.354 N 
ATOM     47  C   UNL A   1      45.048  31.315  28.574  1.00  0.00     0.074 A 
ATOM     48  C   UNL A   1      44.078  32.276  29.051  1.00  0.00     0.031 C 
ATOM     49  C   UNL A   1      41.610  25.892  28.161  1.00  0.00     0.029 A 
ATOM     50  C   UNL A   1      43.011  26.087  27.791  1.00  0.00     0.049 A 
ATOM     51  H   UNL A   1      44.113  27.850  27.911  1.00  0.00     0.167 HD
ATOM     52  C   UNL A   1      46.352  31.600  28.348  1.00  0.00     0.037 A 
ATOM     53  C   UNL A   1      43.837  25.139  27.307  1.00  0.00     0.037 A 
ATOM     54  C   UNL A   1      47.317  30.642  27.877  1.00  0.00     0.049 A 
ATOM     55  C   UNL A   1      45.274  25.490  27.019  1.00  0.00     0.074 A 
ATOM     56  C   UNL A   1      48.662  30.830  27.613  1.00  0.00     0.029 A 
ATOM     57  N   UNL A   1      47.038  29.312  27.598  1.00  0.00    -0.354 N 
ATOM     58  N   UNL A   1      45.891  26.638  27.172  1.00  0.00    -0.248 NA
ATOM     59  C   UNL A   1      46.131  24.413  26.505  1.00  0.00     0.031 C 
ATOM     60  C   UNL A   1      49.187  29.623  27.138  1.00  0.00     0.029 A 
ATOM     61  C   UNL A   1      48.182  28.670  27.154  1.00  0.00     0.049 A 
ATOM     62  H   UNL A   1      46.156  28.887  27.700  1.00  0.00     0.167 HD
ATOM     63  C   UNL A   1      47.216  26.411  26.810  1.00  0.00     0.074 A 
ATOM     64  C   UNL A   1      47.311  25.014  26.435  1.00  0.00     0.031 C 
ATOM     65  C   UNL A   1      48.262  27.276  26.797  1.00  0.00     0.037 A 
BRANCH  52  66
ATOM     66  C   UNL A   1      46.803  33.016  28.589  1.00  0.00     0.058 A 
ATOM     67  C   UNL A   1      47.306  33.428  29.834  1.00  0.00     0.135 A 
ATOM     68  C   UNL A   1      46.744  33.968  27.560  1.00  0.00     0.135 A 
ATOM     69  F   UNL A   1      47.367  32.564  30.859  1.00  0.00    -0.206 F 
ATOM     70  C   UNL A   1      47.705  34.742  30.058  1.00  0.00     0.059 A 
ATOM     71  C   UNL A   1      47.162  35.280  27.753  1.00  0.00     0.059 A 
ATOM     72  F   UNL A   1      46.269  33.628  26.351  1.00  0.00    -0.206 F 
ATOM     73  C   UNL A   1      47.626  35.663  29.011  1.00  0.00     0.060 A 
BRANCH  73  74
ATOM     74  S   UNL A   1      48.141  37.366  29.317  1.00  0.00     0.124 S 
ATOM     75  O   UNL A   1      48.445  37.325  30.745  1.00  0.00    -0.237 OA
ATOM     76  O   UNL A   1      49.289  37.511  28.429  1.00  0.00    -0.237 OA
ATOM     77  O   UNL A   1      46.964  38.148  28.948  1.00  0.00    -0.744 OA
ENDBRANCH  73  74
ENDBRANCH  52  66
BRANCH  53  78
ATOM     78  C   UNL A   1      43.332  23.759  27.077  1.00  0.00     0.058 A 
ATOM     79  C   UNL A   1      43.017  23.305  25.789  1.00  0.00     0.135 A 
ATOM     80  C   UNL A   1      43.154  22.868  28.147  1.00  0.00     0.135 A 
ATOM     81  F   UNL A   1      43.161  24.124  24.735  1.00  0.00    -0.206 F 
ATOM     82  C   UNL A   1      42.526  22.022  25.567  1.00  0.00     0.059 A 
ATOM     83  C   UNL A   1      42.689  21.572  27.948  1.00  0.00     0.059 A 
ATOM     84  F   UNL A   1      43.452  23.249  29.399  1.00  0.00    -0.206 F 
ATOM     85  C   UNL A   1      42.367  21.162  26.655  1.00  0.00     0.060 A 
BRANCH  85  86
ATOM     86  S   UNL A   1      41.774  19.483  26.355  1.00  0.00     0.124 S 
ATOM     87  O   UNL A   1      40.345  19.704  26.170  1.00  0.00    -0.237 OA
ATOM     88  O   UNL A   1      42.523  19.102  25.160  1.00  0.00    -0.237 OA
ATOM     89  O   UNL A   1      42.151  18.771  27.573  1.00  0.00    -0.744 OA
ENDBRANCH  85  86
ENDBRANCH  53  78
BRANCH  65  90
ATOM     90  C   UNL A   1      49.609  26.727  26.414  1.00  0.00     0.058 A 
ATOM     91  C   UNL A   1      50.086  26.778  25.097  1.00  0.00     0.135 A 
ATOM     92  C   UNL A   1      50.448  26.170  27.394  1.00  0.00     0.135 A 
ATOM     93  F   UNL A   1      49.323  27.297  24.121  1.00  0.00    -0.206 F 
ATOM     94  C   UNL A   1      51.334  26.264  24.755  1.00  0.00     0.059 A 
ATOM     95  C   UNL A   1      51.711  25.676  27.081  1.00  0.00     0.059 A 
ATOM     96  F   UNL A   1      50.047  26.110  28.674  1.00  0.00    -0.206 F 
ATOM     97  C   UNL A   1      52.136  25.711  25.754  1.00  0.00     0.060 A 
BRANCH  97  98
ATOM     98  S   UNL A   1      53.757  25.054  25.303  1.00  0.00     0.124 S 
ATOM     99  O   UNL A   1      53.475  23.626  25.201  1.00  0.00    -0.237 OA
ATOM    100  O   UNL A   1      54.034  25.737  24.043  1.00  0.00    -0.237 OA
ATOM    101  O   UNL A   1      54.608  25.449  26.422  1.00  0.00    -0.744 OA
ENDBRANCH  97  98
ENDBRANCH  65  90
ENDBRANCH  39  40
ENDBRANCH  32  34
ENDBRANCH  31  32
ENDBRANCH  30  31
ENDBRANCH  29  30
ENDBRANCH  28  29
ENDBRANCH   1  28
TORSDOF 22
ENDMDL
MODEL 3
REMARK VINA RESULT:     -10.6      5.940     12.767
REMARK SMILES NS(=O)(=O)c1ccc(/N=C/c2ccc(O)c(C(=O)OCCOCCOC(=O)c3ccc(-c4c5nc(c(-c6c(F)cc(S(=O)(=O)[O-])cc6F)c6ccc([nH]6)c(-c6c(F)cc(S(=O)(=O)[O-])cc6F)c6nc(c(-c7c(F)cc(S(=O)(=O)[O-])cc7F)c7ccc4[nH]7)C=C6)C=C5)cc3)c2)cc1
REMARK SMILES IDX 21 1 20 2 19 3 17 4 18 5 16 6 11 7 12 8 94 9 13 10 14 11
REMARK SMILES IDX 10 12 9 13 8 14 5 15 6 16 96 17 7 18 95 19 2 20 3 21 4 22
REMARK SMILES IDX 1 23 15 26 22 28 23 29 24 30 25 31 26 32 27 33 28 34 29 35
REMARK SMILES IDX 93 36 30 37 92 38 31 39 32 40 33 41 86 42 34 43 91 44 85 45
REMARK SMILES IDX 87 46 35 47 90 48 84 49 83 50 36 52 70 53 49 54 69 55 50 56
REMARK SMILES IDX 53 57 68 58 88 59 51 60 52 61 67 63 89 64 54 65 37 66 38 67
REMARK SMILES IDX 47 68 39 69 40 70 46 71 48 72 41 73 42 74 43 75 44 76 45 77
REMARK SMILES IDX 71 78 72 79 81 80 73 81 74 82 80 83 82 84 75 85 76 86 77 87
REMARK SMILES IDX 78 88 79 89 55 90 56 91 65 92 57 93 58 94 64 95 66 96 59 97
REMARK SMILES IDX 60 98 61 99 62 100 63 101
REMARK H PARENT 1 24 1 25 15 27 87 51 53 62
REMARK Flexibility Score: inf
ROOT
ATOM      1  C   UNL A   1      34.056  34.836  31.342  1.00  0.00     0.202 C 
ENDROOT
BRANCH   1   2
ATOM      2  C   UNL A   1      34.277  34.612  29.842  1.00  0.00     0.261 C 
BRANCH   2   3
ATOM      3  O   UNL A   1      34.198  33.213  29.510  1.00  0.00    -0.460 OA
BRANCH   3   4
ATOM      4  C   UNL A   1      34.616  32.895  28.264  1.00  0.00     0.342 C 
ATOM      5  O   UNL A   1      35.690  33.178  27.750  1.00  0.00    -0.246 OA
BRANCH   4   6
ATOM      6  C   UNL A   1      33.704  31.912  27.635  1.00  0.00     0.102 A 
ATOM      7  C   UNL A   1      33.148  29.700  26.834  1.00  0.00    -0.006 A 
ATOM      8  C   UNL A   1      31.922  30.175  26.353  1.00  0.00     0.013 A 
ATOM      9  C   UNL A   1      34.055  30.568  27.460  1.00  0.00     0.029 A 
ATOM     10  C   UNL A   1      31.586  31.518  26.512  1.00  0.00     0.048 A 
ATOM     11  C   UNL A   1      32.465  32.377  27.161  1.00  0.00     0.130 A 
BRANCH   7  12
ATOM     12  C   UNL A   1      33.428  28.256  26.689  1.00  0.00     0.119 C 
ATOM     13  N   UNL A   1      32.535  27.422  26.269  1.00  0.00    -0.256 NA
BRANCH  13  14
ATOM     14  C   UNL A   1      32.867  26.064  26.110  1.00  0.00     0.063 A 
ATOM     15  C   UNL A   1      33.644  23.402  25.639  1.00  0.00     0.082 A 
ATOM     16  C   UNL A   1      34.469  24.447  25.225  1.00  0.00     0.024 A 
ATOM     17  C   UNL A   1      32.431  23.670  26.275  1.00  0.00     0.024 A 
ATOM     18  C   UNL A   1      34.074  25.769  25.463  1.00  0.00     0.030 A 
ATOM     19  C   UNL A   1      32.044  24.997  26.501  1.00  0.00     0.030 A 
BRANCH  15  20
ATOM     20  S   UNL A   1      34.075  21.717  25.312  1.00  0.00     0.238 S 
ATOM     21  O   UNL A   1      34.153  21.012  26.575  1.00  0.00    -0.207 OA
ATOM     22  O   UNL A   1      35.148  21.703  24.351  1.00  0.00    -0.207 OA
BRANCH  20  23
ATOM     23  N   UNL A   1      32.731  21.086  24.533  1.00  0.00    -0.225 NA
ATOM     24  H   UNL A   1      31.985  20.935  25.213  1.00  0.00     0.137 HD
ATOM     25  H   UNL A   1      32.977  20.199  24.096  1.00  0.00     0.137 HD
ENDBRANCH  20  23
ENDBRANCH  15  20
ENDBRANCH  13  14
ENDBRANCH   7  12
BRANCH  11  26
ATOM     26  O   UNL A   1      32.056  33.680  27.276  1.00  0.00    -0.507 OA
ATOM     27  H   UNL A   1      32.062  34.241  26.526  1.00  0.00     0.293 HD
ENDBRANCH  11  26
ENDBRANCH   4   6
ENDBRANCH   3   4
ENDBRANCH   2   3
ENDBRANCH   1   2
BRANCH   1  28
ATOM     28  O   UNL A   1      34.928  34.104  32.207  1.00  0.00    -0.374 OA
BRANCH  28  29
ATOM     29  C   UNL A   1      36.286  34.547  32.276  1.00  0.00     0.202 C 
BRANCH  29  30
ATOM     30  C   UNL A   1      37.363  33.464  32.160  1.00  0.00     0.261 C 
BRANCH  30  31
ATOM     31  O   UNL A   1      37.313  32.804  30.883  1.00  0.00    -0.460 OA
BRANCH  31  32
ATOM     32  C   UNL A   1      36.955  31.499  30.946  1.00  0.00     0.338 C 
ATOM     33  O   UNL A   1      35.888  31.051  31.332  1.00  0.00    -0.246 OA
BRANCH  32  34
ATOM     34  C   UNL A   1      37.982  30.649  30.308  1.00  0.00     0.060 A 
ATOM     35  C   UNL A   1      38.909  30.036  31.159  1.00  0.00     0.016 A 
ATOM     36  C   UNL A   1      38.100  30.523  28.921  1.00  0.00     0.016 A 
ATOM     37  C   UNL A   1      40.011  29.374  30.627  1.00  0.00     0.010 A 
ATOM     38  C   UNL A   1      39.211  29.857  28.388  1.00  0.00     0.010 A 
ATOM     39  C   UNL A   1      40.200  29.332  29.240  1.00  0.00    -0.014 A 
BRANCH  39  40
ATOM     40  C   UNL A   1      41.529  28.927  28.719  1.00  0.00     0.031 A 
ATOM     41  C   UNL A   1      42.642  29.944  28.711  1.00  0.00     0.074 A 
ATOM     42  C   UNL A   1      41.771  27.656  28.349  1.00  0.00     0.049 A 
ATOM     43  N   UNL A   1      43.895  29.802  28.365  1.00  0.00    -0.248 NA
ATOM     44  C   UNL A   1      42.292  31.304  29.155  1.00  0.00     0.031 C 
ATOM     45  C   UNL A   1      40.787  26.575  28.350  1.00  0.00     0.029 A 
ATOM     46  N   UNL A   1      42.926  27.060  27.911  1.00  0.00    -0.354 N 
ATOM     47  C   UNL A   1      44.483  31.049  28.550  1.00  0.00     0.074 A 
ATOM     48  C   UNL A   1      43.441  31.946  28.998  1.00  0.00     0.031 C 
ATOM     49  C   UNL A   1      41.383  25.443  27.937  1.00  0.00     0.029 A 
ATOM     50  C   UNL A   1      42.784  25.724  27.626  1.00  0.00     0.049 A 
ATOM     51  H   UNL A   1      43.777  27.545  27.810  1.00  0.00     0.167 HD
ATOM     52  C   UNL A   1      45.776  31.412  28.379  1.00  0.00     0.037 A 
ATOM     53  C   UNL A   1      43.682  24.832  27.165  1.00  0.00     0.037 A 
ATOM     54  C   UNL A   1      46.812  30.517  27.936  1.00  0.00     0.049 A 
ATOM     55  C   UNL A   1      45.107  25.269  26.938  1.00  0.00     0.074 A 
ATOM     56  C   UNL A   1      48.154  30.786  27.729  1.00  0.00     0.029 A 
ATOM     57  N   UNL A   1      46.622  29.177  27.632  1.00  0.00    -0.354 N 
ATOM     58  N   UNL A   1      45.650  26.448  27.130  1.00  0.00    -0.248 NA
ATOM     59  C   UNL A   1      46.044  24.250  26.447  1.00  0.00     0.031 C 
ATOM     60  C   UNL A   1      48.766  29.618  27.262  1.00  0.00     0.029 A 
ATOM     61  C   UNL A   1      47.818  28.609  27.227  1.00  0.00     0.049 A 
ATOM     62  H   UNL A   1      45.762  28.700  27.693  1.00  0.00     0.167 HD
ATOM     63  C   UNL A   1      46.999  26.302  26.818  1.00  0.00     0.074 A 
ATOM     64  C   UNL A   1      47.189  24.919  26.431  1.00  0.00     0.031 C 
ATOM     65  C   UNL A   1      47.992  27.226  26.857  1.00  0.00     0.037 A 
BRANCH  52  66
ATOM     66  C   UNL A   1      46.134  32.847  28.655  1.00  0.00     0.058 A 
ATOM     67  C   UNL A   1      46.577  33.268  29.920  1.00  0.00     0.135 A 
ATOM     68  C   UNL A   1      46.046  33.812  27.638  1.00  0.00     0.135 A 
ATOM     69  F   UNL A   1      46.662  32.392  30.932  1.00  0.00    -0.206 F 
ATOM     70  C   UNL A   1      46.890  34.600  30.174  1.00  0.00     0.059 A 
ATOM     71  C   UNL A   1      46.379  35.143  27.864  1.00  0.00     0.059 A 
ATOM     72  F   UNL A   1      45.625  33.464  26.412  1.00  0.00    -0.206 F 
ATOM     73  C   UNL A   1      46.784  35.531  29.140  1.00  0.00     0.060 A 
BRANCH  73  74
ATOM     74  S   UNL A   1      47.187  37.257  29.486  1.00  0.00     0.124 S 
ATOM     75  O   UNL A   1      48.464  37.402  28.794  1.00  0.00    -0.237 OA
ATOM     76  O   UNL A   1      46.060  37.968  28.892  1.00  0.00    -0.237 OA
ATOM     77  O   UNL A   1      47.255  37.304  30.945  1.00  0.00    -0.744 OA
ENDBRANCH  73  74
ENDBRANCH  52  66
BRANCH  53  78
ATOM     78  C   UNL A   1      43.268  23.428  26.899  1.00  0.00     0.058 A 
ATOM     79  C   UNL A   1      42.983  22.543  27.948  1.00  0.00     0.135 A 
ATOM     80  C   UNL A   1      43.150  22.946  25.586  1.00  0.00     0.135 A 
ATOM     81  F   UNL A   1      43.090  22.955  29.221  1.00  0.00    -0.206 F 
ATOM     82  C   UNL A   1      42.612  21.223  27.708  1.00  0.00     0.059 A 
ATOM     83  C   UNL A   1      42.757  21.638  25.321  1.00  0.00     0.059 A 
ATOM     84  F   UNL A   1      43.400  23.757  24.546  1.00  0.00    -0.206 F 
ATOM     85  C   UNL A   1      42.501  20.781  26.390  1.00  0.00     0.060 A 
BRANCH  85  86
ATOM     86  S   UNL A   1      41.975  19.080  26.085  1.00  0.00     0.124 S 
ATOM     87  O   UNL A   1      42.797  18.719  24.938  1.00  0.00    -0.237 OA
ATOM     88  O   UNL A   1      42.312  18.425  27.346  1.00  0.00    -0.237 OA
ATOM     89  O   UNL A   1      40.545  19.214  25.822  1.00  0.00    -0.744 OA
ENDBRANCH  85  86
ENDBRANCH  53  78
BRANCH  65  90
ATOM     90  C   UNL A   1      49.384  26.761  26.523  1.00  0.00     0.058 A 
ATOM     91  C   UNL A   1      50.272  26.307  27.508  1.00  0.00     0.135 A 
ATOM     92  C   UNL A   1      49.818  26.740  25.187  1.00  0.00     0.135 A 
ATOM     93  F   UNL A   1      49.908  26.308  28.801  1.00  0.00    -0.206 F 
ATOM     94  C   UNL A   1      51.558  25.881  27.186  1.00  0.00     0.059 A 
ATOM     95  C   UNL A   1      51.090  26.292  24.839  1.00  0.00     0.059 A 
ATOM     96  F   UNL A   1      49.003  27.150  24.203  1.00  0.00    -0.206 F 
ATOM     97  C   UNL A   1      51.959  25.882  25.849  1.00  0.00     0.060 A 
BRANCH  97  98
ATOM     98  S   UNL A   1      53.625  25.320  25.441  1.00  0.00     0.124 S 
ATOM     99  O   UNL A   1      54.401  25.887  26.539  1.00  0.00    -0.237 OA
ATOM    100  O   UNL A   1      53.479  23.868  25.451  1.00  0.00    -0.237 OA
ATOM    101  O   UNL A   1      53.871  25.910  24.128  1.00  0.00    -0.744 OA
ENDBRANCH  97  98
ENDBRANCH  65  90
ENDBRANCH  39  40
ENDBRANCH  32  34
ENDBRANCH  31  32
ENDBRANCH  30  31
ENDBRANCH  29  30
ENDBRANCH  28  29
ENDBRANCH   1  28
TORSDOF 22
ENDMDL
