MODEL 1
REMARK VINA RESULT:     -11.7      0.000      0.000
REMARK SMILES C[C@H](NC(=O)[C@]1(C)Sc2ccccc2NC1=O)C(=O)OCCOCCOC(=O)c1ccc(-c2c3nc(c(-c4c(F)cc(S(=O)(=O)[O-])cc4F)c4ccc([nH]4)c(-c4c(F)cc(S(=O)(=O)[O-])cc4F)c4nc(c(-c5c(F)cc(S(=O)(=O)[O-])cc5F)c5ccc2[nH]5)C=C4)C=C3)cc1
REMARK SMILES IDX 24 1 23 2 22 3 21 4 20 5 18 6 19 7 2 8 1 9 3 10 4 11 5 13
REMARK SMILES IDX 6 14 8 15 16 16 7 17 9 18 15 19 17 20 10 21 14 22 11 24
REMARK SMILES IDX 13 25 12 26 25 27 26 28 27 29 28 30 29 31 30 32 94 33 31 34
REMARK SMILES IDX 93 35 32 36 33 37 34 38 87 39 35 40 92 41 86 42 88 43 36 44
REMARK SMILES IDX 91 45 85 46 84 47 37 49 71 50 50 51 70 52 51 53 54 54 69 55
REMARK SMILES IDX 89 56 52 57 53 58 68 60 90 61 55 62 38 63 39 64 48 65 40 66
REMARK SMILES IDX 41 67 47 68 49 69 42 70 43 71 44 72 45 73 46 74 72 75 73 76
REMARK SMILES IDX 82 77 74 78 75 79 81 80 83 81 76 82 77 83 78 84 79 85 80 86
REMARK SMILES IDX 56 87 57 88 66 89 58 90 59 91 65 92 67 93 60 94 61 95 62 96
REMARK SMILES IDX 63 97 64 98
REMARK H PARENT 3 12 15 23 88 48 54 59
REMARK Flexibility Score: inf
ROOT
ATOM      1  C   UNL A   1      33.706  31.808  27.647  1.00  0.00     0.202 C 
ENDROOT
BRANCH   1   2
ATOM      2  O   UNL A   1      33.339  30.571  27.034  1.00  0.00    -0.374 OA
BRANCH   2   3
ATOM      3  C   UNL A   1      32.039  30.453  26.469  1.00  0.00     0.202 C 
BRANCH   3   4
ATOM      4  C   UNL A   1      31.796  29.317  25.472  1.00  0.00     0.261 C 
BRANCH   4   5
ATOM      5  O   UNL A   1      32.403  28.071  25.856  1.00  0.00    -0.462 OA
BRANCH   5   6
ATOM      6  C   UNL A   1      31.576  27.267  26.577  1.00  0.00     0.328 C 
ATOM      7  O   UNL A   1      31.186  27.502  27.717  1.00  0.00    -0.250 OA
BRANCH   6   8
ATOM      8  C   UNL A   1      31.254  25.936  25.898  1.00  0.00     0.189 C 
ATOM      9  C   UNL A   1      30.141  26.160  24.885  1.00  0.00     0.043 C 
BRANCH   8  10
ATOM     10  N   UNL A   1      30.934  24.766  26.703  1.00  0.00    -0.341 N 
ATOM     11  C   UNL A   1      31.587  23.567  26.791  1.00  0.00     0.246 C 
ATOM     12  H   UNL A   1      30.130  24.849  27.265  1.00  0.00     0.164 HD
ATOM     13  O   UNL A   1      30.985  22.700  27.447  1.00  0.00    -0.273 OA
BRANCH  11  14
ATOM     14  C   UNL A   1      33.007  23.248  26.201  1.00  0.00     0.175 C 
ATOM     15  S   UNL A   1      32.775  22.786  24.428  1.00  0.00    -0.097 SA
ATOM     16  C   UNL A   1      33.603  22.153  27.089  1.00  0.00     0.250 C 
ATOM     17  C   UNL A   1      34.095  24.326  26.094  1.00  0.00     0.045 C 
ATOM     18  C   UNL A   1      32.681  21.022  24.487  1.00  0.00     0.032 A 
ATOM     19  N   UNL A   1      33.476  20.833  26.793  1.00  0.00    -0.323 N 
ATOM     20  O   UNL A   1      34.145  22.433  28.167  1.00  0.00    -0.273 OA
ATOM     21  C   UNL A   1      32.318  20.363  23.305  1.00  0.00     0.017 A 
ATOM     22  C   UNL A   1      32.996  20.265  25.614  1.00  0.00     0.054 A 
ATOM     23  H   UNL A   1      33.757  20.203  27.496  1.00  0.00     0.170 HD
ATOM     24  C   UNL A   1      32.229  18.971  23.260  1.00  0.00     0.001 A 
ATOM     25  C   UNL A   1      32.893  18.869  25.573  1.00  0.00     0.027 A 
ATOM     26  C   UNL A   1      32.502  18.224  24.401  1.00  0.00     0.002 A 
ENDBRANCH  11  14
ENDBRANCH   8  10
ENDBRANCH   6   8
ENDBRANCH   5   6
ENDBRANCH   4   5
ENDBRANCH   3   4
ENDBRANCH   2   3
ENDBRANCH   1   2
BRANCH   1  27
ATOM     27  C   UNL A   1      35.038  31.874  28.409  1.00  0.00     0.261 C 
BRANCH  27  28
ATOM     28  O   UNL A   1      35.533  30.572  28.777  1.00  0.00    -0.460 OA
BRANCH  28  29
ATOM     29  C   UNL A   1      36.356  30.542  29.855  1.00  0.00     0.338 C 
ATOM     30  O   UNL A   1      36.057  30.752  31.022  1.00  0.00    -0.246 OA
BRANCH  29  31
ATOM     31  C   UNL A   1      37.665  30.009  29.445  1.00  0.00     0.060 A 
ATOM     32  C   UNL A   1      37.945  29.783  28.099  1.00  0.00     0.016 A 
ATOM     33  C   UNL A   1      38.641  29.788  30.426  1.00  0.00     0.016 A 
ATOM     34  C   UNL A   1      39.217  29.338  27.733  1.00  0.00     0.010 A 
ATOM     35  C   UNL A   1      39.909  29.338  30.057  1.00  0.00     0.010 A 
ATOM     36  C   UNL A   1      40.211  29.122  28.707  1.00  0.00    -0.014 A 
BRANCH  36  37
ATOM     37  C   UNL A   1      41.594  28.780  28.295  1.00  0.00     0.031 A 
ATOM     38  C   UNL A   1      42.682  29.814  28.282  1.00  0.00     0.074 A 
ATOM     39  C   UNL A   1      41.860  27.513  27.926  1.00  0.00     0.049 A 
ATOM     40  N   UNL A   1      43.955  29.662  28.018  1.00  0.00    -0.248 NA
ATOM     41  C   UNL A   1      42.291  31.194  28.600  1.00  0.00     0.031 C 
ATOM     42  C   UNL A   1      40.873  26.432  27.873  1.00  0.00     0.029 A 
ATOM     43  N   UNL A   1      43.032  26.913  27.543  1.00  0.00    -0.354 N 
ATOM     44  C   UNL A   1      44.526  30.918  28.169  1.00  0.00     0.074 A 
ATOM     45  C   UNL A   1      43.449  31.833  28.486  1.00  0.00     0.031 C 
ATOM     46  C   UNL A   1      41.489  25.294  27.520  1.00  0.00     0.029 A 
ATOM     47  C   UNL A   1      42.905  25.568  27.291  1.00  0.00     0.049 A 
ATOM     48  H   UNL A   1      43.884  27.399  27.458  1.00  0.00     0.167 HD
ATOM     49  C   UNL A   1      45.833  31.267  28.077  1.00  0.00     0.037 A 
ATOM     50  C   UNL A   1      43.825  24.656  26.925  1.00  0.00     0.037 A 
ATOM     51  C   UNL A   1      46.894  30.352  27.733  1.00  0.00     0.049 A 
ATOM     52  C   UNL A   1      45.257  25.084  26.762  1.00  0.00     0.074 A 
ATOM     53  C   UNL A   1      48.250  30.610  27.625  1.00  0.00     0.029 A 
ATOM     54  N   UNL A   1      46.720  29.008  27.430  1.00  0.00    -0.354 N 
ATOM     55  N   UNL A   1      45.793  26.264  26.962  1.00  0.00    -0.248 NA
ATOM     56  C   UNL A   1      46.212  24.056  26.325  1.00  0.00     0.031 C 
ATOM     57  C   UNL A   1      48.888  29.437  27.207  1.00  0.00     0.029 A 
ATOM     58  C   UNL A   1      47.940  28.431  27.110  1.00  0.00     0.049 A 
ATOM     59  H   UNL A   1      45.858  28.535  27.442  1.00  0.00     0.167 HD
ATOM     60  C   UNL A   1      47.149  26.116  26.699  1.00  0.00     0.074 A 
ATOM     61  C   UNL A   1      47.355  24.727  26.342  1.00  0.00     0.031 C 
ATOM     62  C   UNL A   1      48.135  27.048  26.749  1.00  0.00     0.037 A 
BRANCH  49  63
ATOM     63  C   UNL A   1      46.197  32.700  28.361  1.00  0.00     0.058 A 
ATOM     64  C   UNL A   1      46.148  33.678  27.353  1.00  0.00     0.135 A 
ATOM     65  C   UNL A   1      46.536  33.118  29.658  1.00  0.00     0.135 A 
ATOM     66  F   UNL A   1      45.841  33.335  26.092  1.00  0.00    -0.206 F 
ATOM     67  C   UNL A   1      46.447  35.010  27.616  1.00  0.00     0.059 A 
ATOM     68  C   UNL A   1      46.812  34.452  29.950  1.00  0.00     0.059 A 
ATOM     69  F   UNL A   1      46.596  32.227  30.661  1.00  0.00    -0.206 F 
ATOM     70  C   UNL A   1      46.776  35.388  28.918  1.00  0.00     0.060 A 
BRANCH  70  71
ATOM     71  S   UNL A   1      47.161  37.124  29.234  1.00  0.00     0.124 S 
ATOM     72  O   UNL A   1      45.826  37.693  29.396  1.00  0.00    -0.237 OA
ATOM     73  O   UNL A   1      47.968  37.046  30.448  1.00  0.00    -0.237 OA
ATOM     74  O   UNL A   1      47.877  37.540  28.032  1.00  0.00    -0.744 OA
ENDBRANCH  70  71
ENDBRANCH  49  63
BRANCH  50  75
ATOM     75  C   UNL A   1      43.420  23.237  26.730  1.00  0.00     0.058 A 
ATOM     76  C   UNL A   1      43.365  22.676  25.446  1.00  0.00     0.135 A 
ATOM     77  C   UNL A   1      43.115  22.408  27.821  1.00  0.00     0.135 A 
ATOM     78  F   UNL A   1      43.640  23.432  24.371  1.00  0.00    -0.206 F 
ATOM     79  C   UNL A   1      43.016  21.346  25.248  1.00  0.00     0.059 A 
ATOM     80  C   UNL A   1      42.790  21.067  27.650  1.00  0.00     0.059 A 
ATOM     81  F   UNL A   1      43.168  22.894  29.071  1.00  0.00    -0.206 F 
ATOM     82  C   UNL A   1      42.739  20.546  26.358  1.00  0.00     0.060 A 
BRANCH  82  83
ATOM     83  S   UNL A   1      42.344  18.805  26.087  1.00  0.00     0.124 S 
ATOM     84  O   UNL A   1      43.286  18.449  25.033  1.00  0.00    -0.237 OA
ATOM     85  O   UNL A   1      42.609  18.227  27.402  1.00  0.00    -0.237 OA
ATOM     86  O   UNL A   1      40.939  18.834  25.695  1.00  0.00    -0.744 OA
ENDBRANCH  82  83
ENDBRANCH  50  75
BRANCH  62  87
ATOM     87  C   UNL A   1      49.535  26.598  26.420  1.00  0.00     0.058 A 
ATOM     88  C   UNL A   1      50.333  25.930  27.362  1.00  0.00     0.135 A 
ATOM     89  C   UNL A   1      50.060  26.782  25.131  1.00  0.00     0.135 A 
ATOM     90  F   UNL A   1      49.884  25.732  28.611  1.00  0.00    -0.206 F 
ATOM     91  C   UNL A   1      51.611  25.482  27.044  1.00  0.00     0.059 A 
ATOM     92  C   UNL A   1      51.324  26.314  24.781  1.00  0.00     0.059 A 
ATOM     93  F   UNL A   1      49.337  27.406  24.187  1.00  0.00    -0.206 F 
ATOM     94  C   UNL A   1      52.096  25.673  25.749  1.00  0.00     0.060 A 
BRANCH  94  95
ATOM     95  S   UNL A   1      53.743  25.052  25.345  1.00  0.00     0.124 S 
ATOM     96  O   UNL A   1      53.933  25.576  23.996  1.00  0.00    -0.237 OA
ATOM     97  O   UNL A   1      54.567  25.660  26.385  1.00  0.00    -0.237 OA
ATOM     98  O   UNL A   1      53.594  23.602  25.439  1.00  0.00    -0.744 OA
ENDBRANCH  94  95
ENDBRANCH  62  87
ENDBRANCH  36  37
ENDBRANCH  29  31
ENDBRANCH  28  29
ENDBRANCH  27  28
ENDBRANCH   1  27
TORSDOF 19
ENDMDL
MODEL 2
REMARK VINA RESULT:     -11.5      6.758     12.385
REMARK SMILES C[C@H](NC(=O)[C@]1(C)Sc2ccccc2NC1=O)C(=O)OCCOCCOC(=O)c1ccc(-c2c3nc(c(-c4c(F)cc(S(=O)(=O)[O-])cc4F)c4ccc([nH]4)c(-c4c(F)cc(S(=O)(=O)[O-])cc4F)c4nc(c(-c5c(F)cc(S(=O)(=O)[O-])cc5F)c5ccc2[nH]5)C=C4)C=C3)cc1
REMARK SMILES IDX 24 1 23 2 22 3 21 4 20 5 18 6 19 7 2 8 1 9 3 10 4 11 5 13
REMARK SMILES IDX 6 14 8 15 16 16 7 17 9 18 15 19 17 20 10 21 14 22 11 24
REMARK SMILES IDX 13 25 12 26 25 27 26 28 27 29 28 30 29 31 30 32 94 33 31 34
REMARK SMILES IDX 93 35 32 36 33 37 34 38 87 39 35 40 92 41 86 42 88 43 36 44
REMARK SMILES IDX 91 45 85 46 84 47 37 49 71 50 50 51 70 52 51 53 54 54 69 55
REMARK SMILES IDX 89 56 52 57 53 58 68 60 90 61 55 62 38 63 39 64 48 65 40 66
REMARK SMILES IDX 41 67 47 68 49 69 42 70 43 71 44 72 45 73 46 74 72 75 73 76
REMARK SMILES IDX 82 77 74 78 75 79 81 80 83 81 76 82 77 83 78 84 79 85 80 86
REMARK SMILES IDX 56 87 57 88 66 89 58 90 59 91 65 92 67 93 60 94 61 95 62 96
REMARK SMILES IDX 63 97 64 98
REMARK H PARENT 3 12 15 23 88 48 54 59
REMARK Flexibility Score: inf
ROOT
ATOM      1  C   UNL A   1      39.886  21.617  26.666  1.00  0.00     0.202 C 
ENDROOT
BRANCH   1   2
ATOM      2  O   UNL A   1      38.919  21.342  25.651  1.00  0.00    -0.374 OA
BRANCH   2   3
ATOM      3  C   UNL A   1      37.748  22.145  25.594  1.00  0.00     0.202 C 
BRANCH   3   4
ATOM      4  C   UNL A   1      36.548  21.601  24.815  1.00  0.00     0.261 C 
BRANCH   4   5
ATOM      5  O   UNL A   1      35.407  22.476  24.825  1.00  0.00    -0.462 OA
BRANCH   5   6
ATOM      6  C   UNL A   1      35.206  23.117  23.643  1.00  0.00     0.328 C 
ATOM      7  O   UNL A   1      36.009  23.146  22.714  1.00  0.00    -0.250 OA
BRANCH   6   8
ATOM      8  C   UNL A   1      33.919  23.940  23.591  1.00  0.00     0.189 C 
ATOM      9  C   UNL A   1      32.748  23.039  23.955  1.00  0.00     0.043 C 
BRANCH   8  10
ATOM     10  N   UNL A   1      33.583  24.692  22.391  1.00  0.00    -0.341 N 
ATOM     11  C   UNL A   1      33.050  25.947  22.272  1.00  0.00     0.246 C 
ATOM     12  H   UNL A   1      33.765  24.231  21.540  1.00  0.00     0.164 HD
ATOM     13  O   UNL A   1      32.726  26.261  21.115  1.00  0.00    -0.273 OA
BRANCH  11  14
ATOM     14  C   UNL A   1      32.886  26.990  23.435  1.00  0.00     0.175 C 
ATOM     15  S   UNL A   1      31.203  26.749  24.156  1.00  0.00    -0.097 SA
ATOM     16  C   UNL A   1      33.141  28.365  22.815  1.00  0.00     0.250 C 
ATOM     17  C   UNL A   1      33.765  26.937  24.693  1.00  0.00     0.045 C 
ATOM     18  C   UNL A   1      30.227  27.941  23.290  1.00  0.00     0.032 A 
ATOM     19  N   UNL A   1      32.135  29.140  22.335  1.00  0.00    -0.323 N 
ATOM     20  O   UNL A   1      34.295  28.781  22.643  1.00  0.00    -0.273 OA
ATOM     21  C   UNL A   1      28.839  27.889  23.479  1.00  0.00     0.017 A 
ATOM     22  C   UNL A   1      30.763  28.946  22.485  1.00  0.00     0.054 A 
ATOM     23  H   UNL A   1      32.407  29.934  21.820  1.00  0.00     0.170 HD
ATOM     24  C   UNL A   1      27.995  28.798  22.841  1.00  0.00     0.001 A 
ATOM     25  C   UNL A   1      29.914  29.849  21.833  1.00  0.00     0.027 A 
ATOM     26  C   UNL A   1      28.533  29.770  22.004  1.00  0.00     0.002 A 
ENDBRANCH  11  14
ENDBRANCH   8  10
ENDBRANCH   6   8
ENDBRANCH   5   6
ENDBRANCH   4   5
ENDBRANCH   3   4
ENDBRANCH   2   3
ENDBRANCH   1   2
BRANCH   1  27
ATOM     27  C   UNL A   1      40.973  22.662  26.371  1.00  0.00     0.261 C 
BRANCH  27  28
ATOM     28  O   UNL A   1      40.514  24.013  26.577  1.00  0.00    -0.460 OA
BRANCH  28  29
ATOM     29  C   UNL A   1      41.482  24.963  26.588  1.00  0.00     0.338 C 
ATOM     30  O   UNL A   1      42.387  25.109  25.779  1.00  0.00    -0.246 OA
BRANCH  29  31
ATOM     31  C   UNL A   1      41.169  25.954  27.630  1.00  0.00     0.060 A 
ATOM     32  C   UNL A   1      40.061  25.782  28.459  1.00  0.00     0.016 A 
ATOM     33  C   UNL A   1      42.036  27.040  27.810  1.00  0.00     0.016 A 
ATOM     34  C   UNL A   1      39.825  26.704  29.481  1.00  0.00     0.010 A 
ATOM     35  C   UNL A   1      41.794  27.962  28.830  1.00  0.00     0.010 A 
ATOM     36  C   UNL A   1      40.694  27.794  29.681  1.00  0.00    -0.014 A 
BRANCH  36  37
ATOM     37  C   UNL A   1      40.509  28.687  30.850  1.00  0.00     0.031 A 
ATOM     38  C   UNL A   1      41.362  28.552  32.077  1.00  0.00     0.074 A 
ATOM     39  C   UNL A   1      39.551  29.632  30.792  1.00  0.00     0.049 A 
ATOM     40  N   UNL A   1      41.377  29.297  33.152  1.00  0.00    -0.248 NA
ATOM     41  C   UNL A   1      42.316  27.435  32.104  1.00  0.00     0.031 C 
ATOM     42  C   UNL A   1      38.644  29.835  29.660  1.00  0.00     0.029 A 
ATOM     43  N   UNL A   1      39.189  30.603  31.689  1.00  0.00    -0.354 N 
ATOM     44  C   UNL A   1      42.361  28.762  33.972  1.00  0.00     0.074 A 
ATOM     45  C   UNL A   1      42.878  27.590  33.295  1.00  0.00     0.031 C 
ATOM     46  C   UNL A   1      37.858  30.892  29.914  1.00  0.00     0.029 A 
ATOM     47  C   UNL A   1      38.180  31.421  31.236  1.00  0.00     0.049 A 
ATOM     48  H   UNL A   1      39.610  30.705  32.573  1.00  0.00     0.167 HD
ATOM     49  C   UNL A   1      42.807  29.223  35.166  1.00  0.00     0.037 A 
ATOM     50  C   UNL A   1      37.589  32.482  31.816  1.00  0.00     0.037 A 
ATOM     51  C   UNL A   1      42.265  30.376  35.844  1.00  0.00     0.049 A 
ATOM     52  C   UNL A   1      38.057  32.933  33.173  1.00  0.00     0.074 A 
ATOM     53  C   UNL A   1      42.658  30.927  37.051  1.00  0.00     0.029 A 
ATOM     54  N   UNL A   1      41.208  31.148  35.381  1.00  0.00    -0.354 N 
ATOM     55  N   UNL A   1      39.027  32.450  33.912  1.00  0.00    -0.248 NA
ATOM     56  C   UNL A   1      37.351  34.073  33.774  1.00  0.00     0.031 C 
ATOM     57  C   UNL A   1      41.806  31.998  37.343  1.00  0.00     0.029 A 
ATOM     58  C   UNL A   1      40.919  32.153  36.291  1.00  0.00     0.049 A 
ATOM     59  H   UNL A   1      40.734  31.003  34.531  1.00  0.00     0.167 HD
ATOM     60  C   UNL A   1      39.064  33.242  35.054  1.00  0.00     0.074 A 
ATOM     61  C   UNL A   1      38.030  34.244  34.900  1.00  0.00     0.031 C 
ATOM     62  C   UNL A   1      39.882  33.144  36.133  1.00  0.00     0.037 A 
BRANCH  49  63
ATOM     63  C   UNL A   1      43.948  28.489  35.819  1.00  0.00     0.058 A 
ATOM     64  C   UNL A   1      43.716  27.425  36.707  1.00  0.00     0.135 A 
ATOM     65  C   UNL A   1      45.281  28.803  35.513  1.00  0.00     0.135 A 
ATOM     66  F   UNL A   1      42.462  27.087  37.045  1.00  0.00    -0.206 F 
ATOM     67  C   UNL A   1      44.764  26.717  37.285  1.00  0.00     0.059 A 
ATOM     68  C   UNL A   1      46.347  28.090  36.058  1.00  0.00     0.059 A 
ATOM     69  F   UNL A   1      45.563  29.809  34.668  1.00  0.00    -0.206 F 
ATOM     70  C   UNL A   1      46.076  27.056  36.953  1.00  0.00     0.060 A 
BRANCH  70  71
ATOM     71  S   UNL A   1      47.420  26.124  37.718  1.00  0.00     0.124 S 
ATOM     72  O   UNL A   1      47.006  26.112  39.118  1.00  0.00    -0.237 OA
ATOM     73  O   UNL A   1      47.342  24.842  37.024  1.00  0.00    -0.237 OA
ATOM     74  O   UNL A   1      48.603  26.924  37.422  1.00  0.00    -0.744 OA
ENDBRANCH  70  71
ENDBRANCH  49  63
BRANCH  50  75
ATOM     75  C   UNL A   1      36.517  33.216  31.091  1.00  0.00     0.058 A 
ATOM     76  C   UNL A   1      36.827  34.066  30.021  1.00  0.00     0.135 A 
ATOM     77  C   UNL A   1      35.164  33.055  31.429  1.00  0.00     0.135 A 
ATOM     78  F   UNL A   1      38.107  34.259  29.665  1.00  0.00    -0.206 F 
ATOM     79  C   UNL A   1      35.836  34.737  29.314  1.00  0.00     0.059 A 
ATOM     80  C   UNL A   1      34.153  33.694  30.719  1.00  0.00     0.059 A 
ATOM     81  F   UNL A   1      34.814  32.240  32.436  1.00  0.00    -0.206 F 
ATOM     82  C   UNL A   1      34.500  34.537  29.665  1.00  0.00     0.060 A 
BRANCH  82  83
ATOM     83  S   UNL A   1      33.222  35.371  28.700  1.00  0.00     0.124 S 
ATOM     84  O   UNL A   1      34.019  36.245  27.847  1.00  0.00    -0.237 OA
ATOM     85  O   UNL A   1      32.569  34.249  28.031  1.00  0.00    -0.237 OA
ATOM     86  O   UNL A   1      32.416  36.042  29.715  1.00  0.00    -0.744 OA
ENDBRANCH  82  83
ENDBRANCH  50  75
BRANCH  62  87
ATOM     87  C   UNL A   1      39.703  34.157  37.234  1.00  0.00     0.058 A 
ATOM     88  C   UNL A   1      38.960  33.866  38.389  1.00  0.00     0.135 A 
ATOM     89  C   UNL A   1      40.333  35.411  37.160  1.00  0.00     0.135 A 
ATOM     90  F   UNL A   1      38.332  32.686  38.510  1.00  0.00    -0.206 F 
ATOM     91  C   UNL A   1      38.829  34.790  39.421  1.00  0.00     0.059 A 
ATOM     92  C   UNL A   1      40.241  36.339  38.195  1.00  0.00     0.059 A 
ATOM     93  F   UNL A   1      41.064  35.740  36.083  1.00  0.00    -0.206 F 
ATOM     94  C   UNL A   1      39.477  36.022  39.317  1.00  0.00     0.060 A 
BRANCH  94  95
ATOM     95  S   UNL A   1      39.325  37.193  40.683  1.00  0.00     0.124 S 
ATOM     96  O   UNL A   1      38.402  38.177  40.126  1.00  0.00    -0.237 OA
ATOM     97  O   UNL A   1      38.791  36.355  41.751  1.00  0.00    -0.237 OA
ATOM     98  O   UNL A   1      40.693  37.662  40.885  1.00  0.00    -0.744 OA
ENDBRANCH  94  95
ENDBRANCH  62  87
ENDBRANCH  36  37
ENDBRANCH  29  31
ENDBRANCH  28  29
ENDBRANCH  27  28
ENDBRANCH   1  27
TORSDOF 19
ENDMDL
MODEL 3
REMARK VINA RESULT:     -11.3      1.629      2.287
REMARK SMILES C[C@H](NC(=O)[C@]1(C)Sc2ccccc2NC1=O)C(=O)OCCOCCOC(=O)c1ccc(-c2c3nc(c(-c4c(F)cc(S(=O)(=O)[O-])cc4F)c4ccc([nH]4)c(-c4c(F)cc(S(=O)(=O)[O-])cc4F)c4nc(c(-c5c(F)cc(S(=O)(=O)[O-])cc5F)c5ccc2[nH]5)C=C4)C=C3)cc1
REMARK SMILES IDX 24 1 23 2 22 3 21 4 20 5 18 6 19 7 2 8 1 9 3 10 4 11 5 13
REMARK SMILES IDX 6 14 8 15 16 16 7 17 9 18 15 19 17 20 10 21 14 22 11 24
REMARK SMILES IDX 13 25 12 26 25 27 26 28 27 29 28 30 29 31 30 32 94 33 31 34
REMARK SMILES IDX 93 35 32 36 33 37 34 38 87 39 35 40 92 41 86 42 88 43 36 44
REMARK SMILES IDX 91 45 85 46 84 47 37 49 71 50 50 51 70 52 51 53 54 54 69 55
REMARK SMILES IDX 89 56 52 57 53 58 68 60 90 61 55 62 38 63 39 64 48 65 40 66
REMARK SMILES IDX 41 67 47 68 49 69 42 70 43 71 44 72 45 73 46 74 72 75 73 76
REMARK SMILES IDX 82 77 74 78 75 79 81 80 83 81 76 82 77 83 78 84 79 85 80 86
REMARK SMILES IDX 56 87 57 88 66 89 58 90 59 91 65 92 67 93 60 94 61 95 62 96
REMARK SMILES IDX 63 97 64 98
REMARK H PARENT 3 12 15 23 88 48 54 59
REMARK Flexibility Score: inf
ROOT
ATOM      1  C   UNL A   1      33.967  31.264  27.404  1.00  0.00     0.202 C 
ENDROOT
BRANCH   1   2
ATOM      2  O   UNL A   1      33.459  30.058  26.831  1.00  0.00    -0.374 OA
BRANCH   2   3
ATOM      3  C   UNL A   1      32.372  30.145  25.919  1.00  0.00     0.202 C 
BRANCH   3   4
ATOM      4  C   UNL A   1      31.923  28.859  25.221  1.00  0.00     0.261 C 
BRANCH   4   5
ATOM      5  O   UNL A   1      31.490  29.058  23.865  1.00  0.00    -0.462 OA
BRANCH   5   6
ATOM      6  C   UNL A   1      31.590  27.941  23.096  1.00  0.00     0.328 C 
ATOM      7  O   UNL A   1      30.642  27.354  22.581  1.00  0.00    -0.250 OA
BRANCH   6   8
ATOM      8  C   UNL A   1      33.004  27.366  23.013  1.00  0.00     0.189 C 
ATOM      9  C   UNL A   1      33.943  28.447  22.500  1.00  0.00     0.043 C 
BRANCH   8  10
ATOM     10  N   UNL A   1      33.248  26.135  22.275  1.00  0.00    -0.341 N 
ATOM     11  C   UNL A   1      33.447  24.865  22.743  1.00  0.00     0.246 C 
ATOM     12  H   UNL A   1      33.276  26.231  21.296  1.00  0.00     0.164 HD
ATOM     13  O   UNL A   1      33.789  24.045  21.877  1.00  0.00    -0.273 OA
BRANCH  11  14
ATOM     14  C   UNL A   1      33.220  24.385  24.222  1.00  0.00     0.175 C 
ATOM     15  S   UNL A   1      34.690  24.918  25.204  1.00  0.00    -0.097 SA
ATOM     16  C   UNL A   1      32.995  22.873  24.150  1.00  0.00     0.250 C 
ATOM     17  C   UNL A   1      32.068  24.931  25.078  1.00  0.00     0.045 C 
ATOM     18  C   UNL A   1      35.730  23.490  25.168  1.00  0.00     0.032 A 
ATOM     19  N   UNL A   1      34.010  21.983  24.298  1.00  0.00    -0.323 N 
ATOM     20  O   UNL A   1      31.884  22.409  23.859  1.00  0.00    -0.273 OA
ATOM     21  C   UNL A   1      37.028  23.632  25.678  1.00  0.00     0.017 A 
ATOM     22  C   UNL A   1      35.316  22.239  24.713  1.00  0.00     0.054 A 
ATOM     23  H   UNL A   1      33.798  21.045  24.085  1.00  0.00     0.170 HD
ATOM     24  C   UNL A   1      37.912  22.553  25.696  1.00  0.00     0.001 A 
ATOM     25  C   UNL A   1      36.208  21.160  24.718  1.00  0.00     0.027 A 
ATOM     26  C   UNL A   1      37.506  21.319  25.200  1.00  0.00     0.002 A 
ENDBRANCH  11  14
ENDBRANCH   8  10
ENDBRANCH   6   8
ENDBRANCH   5   6
ENDBRANCH   4   5
ENDBRANCH   3   4
ENDBRANCH   2   3
ENDBRANCH   1   2
BRANCH   1  27
ATOM     27  C   UNL A   1      34.814  31.162  28.682  1.00  0.00     0.261 C 
BRANCH  27  28
ATOM     28  O   UNL A   1      35.629  29.973  28.714  1.00  0.00    -0.460 OA
BRANCH  28  29
ATOM     29  C   UNL A   1      36.367  29.801  29.839  1.00  0.00     0.338 C 
ATOM     30  O   UNL A   1      35.957  29.635  30.978  1.00  0.00    -0.246 OA
BRANCH  29  31
ATOM     31  C   UNL A   1      37.781  29.636  29.463  1.00  0.00     0.060 A 
ATOM     32  C   UNL A   1      38.753  29.435  30.442  1.00  0.00     0.016 A 
ATOM     33  C   UNL A   1      38.121  29.628  28.104  1.00  0.00     0.016 A 
ATOM     34  C   UNL A   1      40.076  29.217  30.053  1.00  0.00     0.010 A 
ATOM     35  C   UNL A   1      39.446  29.415  27.719  1.00  0.00     0.010 A 
ATOM     36  C   UNL A   1      40.431  29.195  28.691  1.00  0.00    -0.014 A 
BRANCH  36  37
ATOM     37  C   UNL A   1      41.811  28.830  28.287  1.00  0.00     0.031 A 
ATOM     38  C   UNL A   1      42.915  29.846  28.279  1.00  0.00     0.074 A 
ATOM     39  C   UNL A   1      42.059  27.558  27.923  1.00  0.00     0.049 A 
ATOM     40  N   UNL A   1      44.187  29.674  28.023  1.00  0.00    -0.248 NA
ATOM     41  C   UNL A   1      42.545  31.234  28.593  1.00  0.00     0.031 C 
ATOM     42  C   UNL A   1      41.055  26.494  27.865  1.00  0.00     0.029 A 
ATOM     43  N   UNL A   1      43.223  26.939  27.547  1.00  0.00    -0.354 N 
ATOM     44  C   UNL A   1      44.778  30.921  28.176  1.00  0.00     0.074 A 
ATOM     45  C   UNL A   1      43.713  31.854  28.485  1.00  0.00     0.031 C 
ATOM     46  C   UNL A   1      41.654  25.345  27.517  1.00  0.00     0.029 A 
ATOM     47  C   UNL A   1      43.076  25.596  27.296  1.00  0.00     0.049 A 
ATOM     48  H   UNL A   1      44.083  27.412  27.466  1.00  0.00     0.167 HD
ATOM     49  C   UNL A   1      46.090  31.249  28.090  1.00  0.00     0.037 A 
ATOM     50  C   UNL A   1      43.983  24.669  26.937  1.00  0.00     0.037 A 
ATOM     51  C   UNL A   1      47.138  30.317  27.754  1.00  0.00     0.049 A 
ATOM     52  C   UNL A   1      45.424  25.073  26.782  1.00  0.00     0.074 A 
ATOM     53  C   UNL A   1      48.499  30.552  27.654  1.00  0.00     0.029 A 
ATOM     54  N   UNL A   1      46.945  28.975  27.453  1.00  0.00    -0.354 N 
ATOM     55  N   UNL A   1      45.976  26.245  26.983  1.00  0.00    -0.248 NA
ATOM     56  C   UNL A   1      46.364  24.029  26.352  1.00  0.00     0.031 C 
ATOM     57  C   UNL A   1      49.120  29.369  27.241  1.00  0.00     0.029 A 
ATOM     58  C   UNL A   1      48.157  28.378  27.141  1.00  0.00     0.049 A 
ATOM     59  H   UNL A   1      46.075  28.515  27.460  1.00  0.00     0.167 HD
ATOM     60  C   UNL A   1      47.332  26.075  26.728  1.00  0.00     0.074 A 
ATOM     61  C   UNL A   1      47.518  24.683  26.375  1.00  0.00     0.031 C 
ATOM     62  C   UNL A   1      48.332  26.992  26.782  1.00  0.00     0.037 A 
BRANCH  49  63
ATOM     63  C   UNL A   1      46.475  32.677  28.374  1.00  0.00     0.058 A 
ATOM     64  C   UNL A   1      46.507  33.640  27.352  1.00  0.00     0.135 A 
ATOM     65  C   UNL A   1      46.755  33.105  29.681  1.00  0.00     0.135 A 
ATOM     66  F   UNL A   1      46.259  33.286  26.081  1.00  0.00    -0.206 F 
ATOM     67  C   UNL A   1      46.825  34.968  27.612  1.00  0.00     0.059 A 
ATOM     68  C   UNL A   1      47.048  34.436  29.970  1.00  0.00     0.059 A 
ATOM     69  F   UNL A   1      46.736  32.229  30.699  1.00  0.00    -0.206 F 
ATOM     70  C   UNL A   1      47.093  35.357  28.925  1.00  0.00     0.060 A 
BRANCH  70  71
ATOM     71  S   UNL A   1      47.505  37.087  29.237  1.00  0.00     0.124 S 
ATOM     72  O   UNL A   1      48.938  37.099  28.958  1.00  0.00    -0.237 OA
ATOM     73  O   UNL A   1      46.665  37.786  28.269  1.00  0.00    -0.237 OA
ATOM     74  O   UNL A   1      47.139  37.278  30.637  1.00  0.00    -0.744 OA
ENDBRANCH  70  71
ENDBRANCH  49  63
BRANCH  50  75
ATOM     75  C   UNL A   1      43.557  23.257  26.743  1.00  0.00     0.058 A 
ATOM     76  C   UNL A   1      43.493  22.697  25.459  1.00  0.00     0.135 A 
ATOM     77  C   UNL A   1      43.240  22.431  27.833  1.00  0.00     0.135 A 
ATOM     78  F   UNL A   1      43.780  23.448  24.384  1.00  0.00    -0.206 F 
ATOM     79  C   UNL A   1      43.124  21.372  25.260  1.00  0.00     0.059 A 
ATOM     80  C   UNL A   1      42.895  21.095  27.662  1.00  0.00     0.059 A 
ATOM     81  F   UNL A   1      43.301  22.916  29.083  1.00  0.00    -0.206 F 
ATOM     82  C   UNL A   1      42.835  20.576  26.370  1.00  0.00     0.060 A 
BRANCH  82  83
ATOM     83  S   UNL A   1      42.414  18.841  26.099  1.00  0.00     0.124 S 
ATOM     84  O   UNL A   1      42.663  18.268  27.416  1.00  0.00    -0.237 OA
ATOM     85  O   UNL A   1      41.014  18.929  25.695  1.00  0.00    -0.237 OA
ATOM     86  O   UNL A   1      43.339  18.430  25.047  1.00  0.00    -0.744 OA
ENDBRANCH  82  83
ENDBRANCH  50  75
BRANCH  62  87
ATOM     87  C   UNL A   1      49.726  26.518  26.463  1.00  0.00     0.058 A 
ATOM     88  C   UNL A   1      50.535  25.904  27.432  1.00  0.00     0.135 A 
ATOM     89  C   UNL A   1      50.236  26.626  25.158  1.00  0.00     0.135 A 
ATOM     90  F   UNL A   1      50.102  25.780  28.696  1.00  0.00    -0.206 F 
ATOM     91  C   UNL A   1      51.808  25.434  27.124  1.00  0.00     0.059 A 
ATOM     92  C   UNL A   1      51.494  26.134  24.821  1.00  0.00     0.059 A 
ATOM     93  F   UNL A   1      49.502  27.197  24.189  1.00  0.00    -0.206 F 
ATOM     94  C   UNL A   1      52.277  25.548  25.814  1.00  0.00     0.060 A 
BRANCH  94  95
ATOM     95  S   UNL A   1      53.917  24.899  25.426  1.00  0.00     0.124 S 
ATOM     96  O   UNL A   1      53.642  23.474  25.274  1.00  0.00    -0.237 OA
ATOM     97  O   UNL A   1      54.250  25.616  24.200  1.00  0.00    -0.237 OA
ATOM     98  O   UNL A   1      54.713  25.263  26.595  1.00  0.00    -0.744 OA
ENDBRANCH  94  95
ENDBRANCH  62  87
ENDBRANCH  36  37
ENDBRANCH  29  31
ENDBRANCH  28  29
ENDBRANCH  27  28
ENDBRANCH   1  27
TORSDOF 19
ENDMDL
