MODEL 1
REMARK VINA RESULT:      -9.8      0.000      0.000
REMARK SMILES O=C(OCCOCCOC(=O)c1cc(Cl)cc(Cl)c1O)c1ccc(-c2c3nc(c(-c4c(F)cc(S(=O)(=O)[O-])cc4F)c4ccc([nH]4)c(-c4c(F)cc(S(=O)(=O)[O-])cc4F)c4nc(c(-c5c(F)cc(S(=O)(=O)[O-])cc5F)c5ccc2[nH]5)C=C4)C=C3)cc1
REMARK SMILES IDX 5 1 4 2 3 3 2 4 1 5 21 6 22 7 86 8 23 9 85 10 24 11 25 12
REMARK SMILES IDX 26 13 79 14 27 15 84 16 78 17 80 18 28 19 83 20 77 21 76 22
REMARK SMILES IDX 29 24 63 25 42 26 62 27 43 28 46 29 61 30 81 31 44 32 45 33
REMARK SMILES IDX 60 35 82 36 47 37 30 38 31 39 40 40 32 41 33 42 39 43 41 44
REMARK SMILES IDX 34 45 35 46 36 47 37 48 38 49 64 50 65 51 74 52 66 53 67 54
REMARK SMILES IDX 73 55 75 56 68 57 69 58 70 59 71 60 72 61 48 62 49 63 58 64
REMARK SMILES IDX 50 65 51 66 57 67 59 68 52 69 53 70 54 71 55 72 56 73 6 74
REMARK SMILES IDX 7 75 8 76 9 77 10 78 11 79 12 80 13 81 19 82 14 83 17 84
REMARK SMILES IDX 15 85 16 86 18 87 20 88
REMARK H PARENT 80 23 46 34 20 89
REMARK Flexibility Score: inf
ROOT
ATOM      1  C   UNL A   1      43.976  23.038  24.434  1.00  0.00     0.202 C 
ENDROOT
BRANCH   1   2
ATOM      2  C   UNL A   1      44.238  24.007  25.593  1.00  0.00     0.261 C 
BRANCH   2   3
ATOM      3  O   UNL A   1      43.000  24.413  26.205  1.00  0.00    -0.460 OA
BRANCH   3   4
ATOM      4  C   UNL A   1      42.398  25.626  26.110  1.00  0.00     0.338 C 
ATOM      5  O   UNL A   1      42.035  26.032  25.009  1.00  0.00    -0.246 OA
BRANCH   4   6
ATOM      6  C   UNL A   1      42.174  26.497  27.299  1.00  0.00     0.060 A 
ATOM      7  C   UNL A   1      41.379  26.124  28.380  1.00  0.00     0.016 A 
ATOM      8  C   UNL A   1      42.868  27.715  27.377  1.00  0.00     0.016 A 
ATOM      9  C   UNL A   1      41.177  26.963  29.457  1.00  0.00     0.010 A 
ATOM     10  C   UNL A   1      42.736  28.537  28.503  1.00  0.00     0.010 A 
ATOM     11  C   UNL A   1      41.874  28.164  29.542  1.00  0.00    -0.014 A 
BRANCH  11  12
ATOM     12  C   UNL A   1      41.606  29.010  30.720  1.00  0.00     0.031 A 
ATOM     13  C   UNL A   1      40.422  29.925  30.694  1.00  0.00     0.074 A 
ATOM     14  C   UNL A   1      42.324  28.807  31.842  1.00  0.00     0.049 A 
ATOM     15  N   UNL A   1      40.005  30.757  31.607  1.00  0.00    -0.248 NA
ATOM     16  C   UNL A   1      39.584  29.887  29.483  1.00  0.00     0.031 C 
ATOM     17  C   UNL A   1      43.420  27.839  31.977  1.00  0.00     0.029 A 
ATOM     18  N   UNL A   1      42.219  29.358  33.089  1.00  0.00    -0.354 N 
ATOM     19  C   UNL A   1      38.870  31.356  31.076  1.00  0.00     0.074 A 
ATOM     20  C   UNL A   1      38.668  30.805  29.756  1.00  0.00     0.031 C 
ATOM     21  C   UNL A   1      43.857  27.839  33.245  1.00  0.00     0.029 A 
ATOM     22  C   UNL A   1      43.136  28.862  33.989  1.00  0.00     0.049 A 
ATOM     23  H   UNL A   1      41.552  30.044  33.322  1.00  0.00     0.167 HD
ATOM     24  C   UNL A   1      38.073  32.284  31.654  1.00  0.00     0.037 A 
ATOM     25  C   UNL A   1      43.385  29.230  35.259  1.00  0.00     0.037 A 
ATOM     26  C   UNL A   1      38.309  32.809  32.972  1.00  0.00     0.049 A 
ATOM     27  C   UNL A   1      42.543  30.332  35.841  1.00  0.00     0.074 A 
ATOM     28  C   UNL A   1      37.644  33.823  33.634  1.00  0.00     0.029 A 
ATOM     29  N   UNL A   1      39.293  32.341  33.834  1.00  0.00    -0.354 N 
ATOM     30  N   UNL A   1      41.533  30.970  35.294  1.00  0.00    -0.248 NA
ATOM     31  C   UNL A   1      42.875  30.779  37.199  1.00  0.00     0.031 C 
ATOM     32  C   UNL A   1      38.248  33.989  34.886  1.00  0.00     0.029 A 
ATOM     33  C   UNL A   1      39.258  33.046  35.023  1.00  0.00     0.049 A 
ATOM     34  H   UNL A   1      39.923  31.613  33.630  1.00  0.00     0.167 HD
ATOM     35  C   UNL A   1      41.104  31.889  36.241  1.00  0.00     0.074 A 
ATOM     36  C   UNL A   1      41.947  31.702  37.408  1.00  0.00     0.031 C 
ATOM     37  C   UNL A   1      40.115  32.814  36.159  1.00  0.00     0.037 A 
BRANCH  24  38
ATOM     38  C   UNL A   1      36.930  32.814  30.834  1.00  0.00     0.058 A 
ATOM     39  C   UNL A   1      37.116  33.795  29.847  1.00  0.00     0.135 A 
ATOM     40  C   UNL A   1      35.622  32.356  31.061  1.00  0.00     0.135 A 
ATOM     41  F   UNL A   1      38.341  34.293  29.612  1.00  0.00    -0.206 F 
ATOM     42  C   UNL A   1      36.044  34.321  29.132  1.00  0.00     0.059 A 
ATOM     43  C   UNL A   1      34.538  32.851  30.343  1.00  0.00     0.059 A 
ATOM     44  F   UNL A   1      35.385  31.431  32.004  1.00  0.00    -0.206 F 
ATOM     45  C   UNL A   1      34.757  33.846  29.391  1.00  0.00     0.060 A 
BRANCH  45  46
ATOM     46  S   UNL A   1      33.374  34.551  28.470  1.00  0.00     0.124 S 
ATOM     47  O   UNL A   1      32.940  33.408  27.672  1.00  0.00    -0.237 OA
ATOM     48  O   UNL A   1      32.467  34.962  29.536  1.00  0.00    -0.237 OA
ATOM     49  O   UNL A   1      33.987  35.643  27.718  1.00  0.00    -0.744 OA
ENDBRANCH  45  46
ENDBRANCH  24  38
BRANCH  25  50
ATOM     50  C   UNL A   1      44.511  28.619  36.022  1.00  0.00     0.058 A 
ATOM     51  C   UNL A   1      45.823  29.104  35.923  1.00  0.00     0.135 A 
ATOM     52  C   UNL A   1      44.294  27.510  36.858  1.00  0.00     0.135 A 
ATOM     53  F   UNL A   1      46.090  30.159  35.136  1.00  0.00    -0.206 F 
ATOM     54  C   UNL A   1      46.881  28.498  36.597  1.00  0.00     0.059 A 
ATOM     55  C   UNL A   1      45.328  26.908  37.569  1.00  0.00     0.059 A 
ATOM     56  F   UNL A   1      43.058  27.008  37.005  1.00  0.00    -0.206 F 
ATOM     57  C   UNL A   1      46.623  27.396  37.415  1.00  0.00     0.060 A 
BRANCH  57  58
ATOM     58  S   UNL A   1      47.995  26.614  38.291  1.00  0.00     0.124 S 
ATOM     59  O   UNL A   1      48.748  27.776  38.751  1.00  0.00    -0.237 OA
ATOM     60  O   UNL A   1      47.306  25.849  39.325  1.00  0.00    -0.237 OA
ATOM     61  O   UNL A   1      48.641  25.812  37.256  1.00  0.00    -0.744 OA
ENDBRANCH  57  58
ENDBRANCH  25  50
BRANCH  37  62
ATOM     62  C   UNL A   1      39.883  33.660  37.377  1.00  0.00     0.058 A 
ATOM     63  C   UNL A   1      40.531  34.891  37.549  1.00  0.00     0.135 A 
ATOM     64  C   UNL A   1      38.968  33.247  38.358  1.00  0.00     0.135 A 
ATOM     65  F   UNL A   1      41.420  35.322  36.640  1.00  0.00    -0.206 F 
ATOM     66  C   UNL A   1      40.300  35.677  38.672  1.00  0.00     0.059 A 
ATOM     67  C   UNL A   1      38.700  34.030  39.474  1.00  0.00     0.059 A 
ATOM     68  F   UNL A   1      38.316  32.081  38.229  1.00  0.00    -0.206 F 
ATOM     69  C   UNL A   1      39.382  35.238  39.627  1.00  0.00     0.060 A 
BRANCH  69  70
ATOM     70  S   UNL A   1      39.067  36.280  41.065  1.00  0.00     0.124 S 
ATOM     71  O   UNL A   1      40.329  36.170  41.789  1.00  0.00    -0.237 OA
ATOM     72  O   UNL A   1      38.795  37.579  40.457  1.00  0.00    -0.237 OA
ATOM     73  O   UNL A   1      37.919  35.641  41.703  1.00  0.00    -0.744 OA
ENDBRANCH  69  70
ENDBRANCH  37  62
ENDBRANCH  11  12
ENDBRANCH   4   6
ENDBRANCH   3   4
ENDBRANCH   2   3
ENDBRANCH   1   2
BRANCH   1  74
ATOM     74  O   UNL A   1      43.453  21.763  24.806  1.00  0.00    -0.374 OA
BRANCH  74  75
ATOM     75  C   UNL A   1      44.385  20.844  25.388  1.00  0.00     0.202 C 
BRANCH  75  76
ATOM     76  C   UNL A   1      43.825  19.422  25.267  1.00  0.00     0.261 C 
BRANCH  76  77
ATOM     77  O   UNL A   1      42.389  19.502  25.195  1.00  0.00    -0.460 OA
BRANCH  77  78
ATOM     78  C   UNL A   1      41.757  19.528  26.393  1.00  0.00     0.342 C 
ATOM     79  O   UNL A   1      42.206  19.250  27.494  1.00  0.00    -0.246 OA
BRANCH  78  80
ATOM     80  C   UNL A   1      40.473  20.232  26.225  1.00  0.00     0.104 A 
ATOM     81  C   UNL A   1      39.372  19.564  25.676  1.00  0.00     0.040 A 
ATOM     82  C   UNL A   1      40.395  21.600  26.529  1.00  0.00     0.148 A 
ATOM     83  C   UNL A   1      38.206  20.272  25.409  1.00  0.00     0.043 A 
ATOM     84  C   UNL A   1      39.225  22.302  26.223  1.00  0.00     0.085 A 
ATOM     85  Cl  UNL A   1      36.852  19.454  24.732  1.00  0.00    -0.084 Cl
ATOM     86  C   UNL A   1      38.129  21.639  25.665  1.00  0.00     0.045 A 
ATOM     87  Cl  UNL A   1      39.097  24.003  26.488  1.00  0.00    -0.080 Cl
BRANCH  82  88
ATOM     88  O   UNL A   1      41.447  22.284  27.082  1.00  0.00    -0.505 OA
ATOM     89  H   UNL A   1      42.273  21.857  27.204  1.00  0.00     0.293 HD
ENDBRANCH  82  88
ENDBRANCH  78  80
ENDBRANCH  77  78
ENDBRANCH  76  77
ENDBRANCH  75  76
ENDBRANCH  74  75
ENDBRANCH   1  74
TORSDOF 18
ENDMDL
MODEL 2
REMARK VINA RESULT:      -9.7      5.306      9.816
REMARK SMILES O=C(OCCOCCOC(=O)c1cc(Cl)cc(Cl)c1O)c1ccc(-c2c3nc(c(-c4c(F)cc(S(=O)(=O)[O-])cc4F)c4ccc([nH]4)c(-c4c(F)cc(S(=O)(=O)[O-])cc4F)c4nc(c(-c5c(F)cc(S(=O)(=O)[O-])cc5F)c5ccc2[nH]5)C=C4)C=C3)cc1
REMARK SMILES IDX 5 1 4 2 3 3 2 4 1 5 21 6 22 7 86 8 23 9 85 10 24 11 25 12
REMARK SMILES IDX 26 13 79 14 27 15 84 16 78 17 80 18 28 19 83 20 77 21 76 22
REMARK SMILES IDX 29 24 63 25 42 26 62 27 43 28 46 29 61 30 81 31 44 32 45 33
REMARK SMILES IDX 60 35 82 36 47 37 30 38 31 39 40 40 32 41 33 42 39 43 41 44
REMARK SMILES IDX 34 45 35 46 36 47 37 48 38 49 64 50 65 51 74 52 66 53 67 54
REMARK SMILES IDX 73 55 75 56 68 57 69 58 70 59 71 60 72 61 48 62 49 63 58 64
REMARK SMILES IDX 50 65 51 66 57 67 59 68 52 69 53 70 54 71 55 72 56 73 6 74
REMARK SMILES IDX 7 75 8 76 9 77 10 78 11 79 12 80 13 81 19 82 14 83 17 84
REMARK SMILES IDX 15 85 16 86 18 87 20 88
REMARK H PARENT 80 23 46 34 20 89
REMARK Flexibility Score: inf
ROOT
ATOM      1  C   UNL A   1      40.931  20.012  26.801  1.00  0.00     0.202 C 
ENDROOT
BRANCH   1   2
ATOM      2  C   UNL A   1      40.451  21.431  27.127  1.00  0.00     0.261 C 
BRANCH   2   3
ATOM      3  O   UNL A   1      39.325  21.789  26.305  1.00  0.00    -0.460 OA
BRANCH   3   4
ATOM      4  C   UNL A   1      38.734  23.007  26.208  1.00  0.00     0.338 C 
ATOM      5  O   UNL A   1      37.665  23.110  25.613  1.00  0.00    -0.246 OA
BRANCH   4   6
ATOM      6  C   UNL A   1      39.349  24.236  26.786  1.00  0.00     0.060 A 
ATOM      7  C   UNL A   1      40.045  25.171  26.025  1.00  0.00     0.016 A 
ATOM      8  C   UNL A   1      39.140  24.512  28.147  1.00  0.00     0.016 A 
ATOM      9  C   UNL A   1      40.619  26.289  26.596  1.00  0.00     0.010 A 
ATOM     10  C   UNL A   1      39.646  25.686  28.719  1.00  0.00     0.010 A 
ATOM     11  C   UNL A   1      40.403  26.571  27.941  1.00  0.00    -0.014 A 
BRANCH  11  12
ATOM     12  C   UNL A   1      41.048  27.782  28.483  1.00  0.00     0.031 A 
ATOM     13  C   UNL A   1      42.532  27.927  28.348  1.00  0.00     0.074 A 
ATOM     14  C   UNL A   1      40.272  28.792  28.920  1.00  0.00     0.049 A 
ATOM     15  N   UNL A   1      43.304  28.895  28.754  1.00  0.00    -0.248 NA
ATOM     16  C   UNL A   1      43.240  26.843  27.645  1.00  0.00     0.031 C 
ATOM     17  C   UNL A   1      38.804  28.766  28.967  1.00  0.00     0.029 A 
ATOM     18  N   UNL A   1      40.591  30.046  29.363  1.00  0.00    -0.354 N 
ATOM     19  C   UNL A   1      44.591  28.532  28.376  1.00  0.00     0.074 A 
ATOM     20  C   UNL A   1      44.500  27.248  27.720  1.00  0.00     0.031 C 
ATOM     21  C   UNL A   1      38.353  29.962  29.375  1.00  0.00     0.029 A 
ATOM     22  C   UNL A   1      39.494  30.807  29.700  1.00  0.00     0.049 A 
ATOM     23  H   UNL A   1      41.516  30.374  29.432  1.00  0.00     0.167 HD
ATOM     24  C   UNL A   1      45.739  29.221  28.566  1.00  0.00     0.037 A 
ATOM     25  C   UNL A   1      39.429  32.033  30.251  1.00  0.00     0.037 A 
ATOM     26  C   UNL A   1      45.786  30.498  29.226  1.00  0.00     0.049 A 
ATOM     27  C   UNL A   1      40.729  32.735  30.538  1.00  0.00     0.074 A 
ATOM     28  C   UNL A   1      46.889  31.253  29.576  1.00  0.00     0.029 A 
ATOM     29  N   UNL A   1      44.663  31.212  29.627  1.00  0.00    -0.354 N 
ATOM     30  N   UNL A   1      41.953  32.337  30.271  1.00  0.00    -0.248 NA
ATOM     31  C   UNL A   1      40.649  34.036  31.209  1.00  0.00     0.031 C 
ATOM     32  C   UNL A   1      46.432  32.411  30.218  1.00  0.00     0.029 A 
ATOM     33  C   UNL A   1      45.044  32.399  30.224  1.00  0.00     0.049 A 
ATOM     34  H   UNL A   1      43.732  30.917  29.503  1.00  0.00     0.167 HD
ATOM     35  C   UNL A   1      42.790  33.342  30.737  1.00  0.00     0.074 A 
ATOM     36  C   UNL A   1      41.928  34.379  31.274  1.00  0.00     0.031 C 
ATOM     37  C   UNL A   1      44.145  33.405  30.736  1.00  0.00     0.037 A 
BRANCH  24  38
ATOM     38  C   UNL A   1      47.013  28.571  28.107  1.00  0.00     0.058 A 
ATOM     39  C   UNL A   1      47.531  28.779  26.818  1.00  0.00     0.135 A 
ATOM     40  C   UNL A   1      47.712  27.700  28.958  1.00  0.00     0.135 A 
ATOM     41  F   UNL A   1      46.885  29.575  25.951  1.00  0.00    -0.206 F 
ATOM     42  C   UNL A   1      48.681  28.128  26.382  1.00  0.00     0.059 A 
ATOM     43  C   UNL A   1      48.876  27.056  28.552  1.00  0.00     0.059 A 
ATOM     44  F   UNL A   1      47.253  27.452  30.195  1.00  0.00    -0.206 F 
ATOM     45  C   UNL A   1      49.344  27.264  27.255  1.00  0.00     0.060 A 
BRANCH  45  46
ATOM     46  S   UNL A   1      50.824  26.411  26.668  1.00  0.00     0.124 S 
ATOM     47  O   UNL A   1      50.482  25.017  26.934  1.00  0.00    -0.237 OA
ATOM     48  O   UNL A   1      50.869  26.796  25.262  1.00  0.00    -0.237 OA
ATOM     49  O   UNL A   1      51.888  26.964  27.501  1.00  0.00    -0.744 OA
ENDBRANCH  45  46
ENDBRANCH  24  38
BRANCH  25  50
ATOM     50  C   UNL A   1      38.118  32.627  30.634  1.00  0.00     0.058 A 
ATOM     51  C   UNL A   1      37.340  33.359  29.724  1.00  0.00     0.135 A 
ATOM     52  C   UNL A   1      37.621  32.490  31.942  1.00  0.00     0.135 A 
ATOM     53  F   UNL A   1      37.766  33.526  28.462  1.00  0.00    -0.206 F 
ATOM     54  C   UNL A   1      36.139  33.956  30.102  1.00  0.00     0.059 A 
ATOM     55  C   UNL A   1      36.409  33.048  32.335  1.00  0.00     0.059 A 
ATOM     56  F   UNL A   1      38.313  31.790  32.856  1.00  0.00    -0.206 F 
ATOM     57  C   UNL A   1      35.684  33.798  31.411  1.00  0.00     0.060 A 
BRANCH  57  58
ATOM     58  S   UNL A   1      34.125  34.570  31.897  1.00  0.00     0.124 S 
ATOM     59  O   UNL A   1      33.561  33.557  32.782  1.00  0.00    -0.237 OA
ATOM     60  O   UNL A   1      34.576  35.801  32.540  1.00  0.00    -0.237 OA
ATOM     61  O   UNL A   1      33.431  34.755  30.626  1.00  0.00    -0.744 OA
ENDBRANCH  57  58
ENDBRANCH  25  50
BRANCH  37  62
ATOM     62  C   UNL A   1      44.760  34.649  31.305  1.00  0.00     0.058 A 
ATOM     63  C   UNL A   1      44.997  35.780  30.509  1.00  0.00     0.135 A 
ATOM     64  C   UNL A   1      45.075  34.720  32.670  1.00  0.00     0.135 A 
ATOM     65  F   UNL A   1      44.718  35.755  29.196  1.00  0.00    -0.206 F 
ATOM     66  C   UNL A   1      45.552  36.935  31.044  1.00  0.00     0.059 A 
ATOM     67  C   UNL A   1      45.604  35.875  33.233  1.00  0.00     0.059 A 
ATOM     68  F   UNL A   1      44.856  33.667  33.472  1.00  0.00    -0.206 F 
ATOM     69  C   UNL A   1      45.851  36.973  32.408  1.00  0.00     0.060 A 
BRANCH  69  70
ATOM     70  S   UNL A   1      46.543  38.488  33.099  1.00  0.00     0.124 S 
ATOM     71  O   UNL A   1      47.812  38.583  32.383  1.00  0.00    -0.237 OA
ATOM     72  O   UNL A   1      45.537  39.483  32.743  1.00  0.00    -0.237 OA
ATOM     73  O   UNL A   1      46.647  38.195  34.526  1.00  0.00    -0.744 OA
ENDBRANCH  69  70
ENDBRANCH  37  62
ENDBRANCH  11  12
ENDBRANCH   4   6
ENDBRANCH   3   4
ENDBRANCH   2   3
ENDBRANCH   1   2
BRANCH   1  74
ATOM     74  O   UNL A   1      42.345  19.821  26.832  1.00  0.00    -0.374 OA
BRANCH  74  75
ATOM     75  C   UNL A   1      42.948  19.379  25.610  1.00  0.00     0.202 C 
BRANCH  75  76
ATOM     76  C   UNL A   1      44.291  20.094  25.429  1.00  0.00     0.261 C 
BRANCH  76  77
ATOM     77  O   UNL A   1      44.134  21.114  24.425  1.00  0.00    -0.460 OA
BRANCH  77  78
ATOM     78  C   UNL A   1      43.674  22.303  24.884  1.00  0.00     0.342 C 
ATOM     79  O   UNL A   1      42.518  22.682  24.982  1.00  0.00    -0.246 OA
BRANCH  78  80
ATOM     80  C   UNL A   1      44.790  23.012  25.536  1.00  0.00     0.104 A 
ATOM     81  C   UNL A   1      44.765  23.243  26.916  1.00  0.00     0.040 A 
ATOM     82  C   UNL A   1      45.826  23.535  24.746  1.00  0.00     0.148 A 
ATOM     83  C   UNL A   1      45.761  24.019  27.498  1.00  0.00     0.043 A 
ATOM     84  C   UNL A   1      46.801  24.339  25.344  1.00  0.00     0.085 A 
ATOM     85  Cl  UNL A   1      45.731  24.307  29.193  1.00  0.00    -0.084 Cl
ATOM     86  C   UNL A   1      46.771  24.580  26.720  1.00  0.00     0.045 A 
ATOM     87  Cl  UNL A   1      48.050  25.086  24.414  1.00  0.00    -0.080 Cl
BRANCH  82  88
ATOM     88  O   UNL A   1      45.893  23.315  23.394  1.00  0.00    -0.505 OA
ATOM     89  H   UNL A   1      46.225  22.502  23.067  1.00  0.00     0.293 HD
ENDBRANCH  82  88
ENDBRANCH  78  80
ENDBRANCH  77  78
ENDBRANCH  76  77
ENDBRANCH  75  76
ENDBRANCH  74  75
ENDBRANCH   1  74
TORSDOF 18
ENDMDL
MODEL 3
REMARK VINA RESULT:      -9.7      5.564     10.639
REMARK SMILES O=C(OCCOCCOC(=O)c1cc(Cl)cc(Cl)c1O)c1ccc(-c2c3nc(c(-c4c(F)cc(S(=O)(=O)[O-])cc4F)c4ccc([nH]4)c(-c4c(F)cc(S(=O)(=O)[O-])cc4F)c4nc(c(-c5c(F)cc(S(=O)(=O)[O-])cc5F)c5ccc2[nH]5)C=C4)C=C3)cc1
REMARK SMILES IDX 5 1 4 2 3 3 2 4 1 5 21 6 22 7 86 8 23 9 85 10 24 11 25 12
REMARK SMILES IDX 26 13 79 14 27 15 84 16 78 17 80 18 28 19 83 20 77 21 76 22
REMARK SMILES IDX 29 24 63 25 42 26 62 27 43 28 46 29 61 30 81 31 44 32 45 33
REMARK SMILES IDX 60 35 82 36 47 37 30 38 31 39 40 40 32 41 33 42 39 43 41 44
REMARK SMILES IDX 34 45 35 46 36 47 37 48 38 49 64 50 65 51 74 52 66 53 67 54
REMARK SMILES IDX 73 55 75 56 68 57 69 58 70 59 71 60 72 61 48 62 49 63 58 64
REMARK SMILES IDX 50 65 51 66 57 67 59 68 52 69 53 70 54 71 55 72 56 73 6 74
REMARK SMILES IDX 7 75 8 76 9 77 10 78 11 79 12 80 13 81 19 82 14 83 17 84
REMARK SMILES IDX 15 85 16 86 18 87 20 88
REMARK H PARENT 80 23 46 34 20 89
REMARK Flexibility Score: inf
ROOT
ATOM      1  C   UNL A   1      33.161  28.252  25.166  1.00  0.00     0.202 C 
ENDROOT
BRANCH   1   2
ATOM      2  C   UNL A   1      33.741  27.936  26.549  1.00  0.00     0.261 C 
BRANCH   2   3
ATOM      3  O   UNL A   1      33.473  29.010  27.470  1.00  0.00    -0.460 OA
BRANCH   3   4
ATOM      4  C   UNL A   1      34.327  29.992  27.854  1.00  0.00     0.338 C 
ATOM      5  O   UNL A   1      33.900  31.133  28.008  1.00  0.00    -0.246 OA
BRANCH   4   6
ATOM      6  C   UNL A   1      35.779  29.739  28.079  1.00  0.00     0.060 A 
ATOM      7  C   UNL A   1      36.754  29.968  27.111  1.00  0.00     0.016 A 
ATOM      8  C   UNL A   1      36.198  29.337  29.357  1.00  0.00     0.016 A 
ATOM      9  C   UNL A   1      38.088  29.705  27.347  1.00  0.00     0.010 A 
ATOM     10  C   UNL A   1      37.558  29.147  29.633  1.00  0.00     0.010 A 
ATOM     11  C   UNL A   1      38.506  29.318  28.616  1.00  0.00    -0.014 A 
BRANCH  11  12
ATOM     12  C   UNL A   1      39.946  29.052  28.793  1.00  0.00     0.031 A 
ATOM     13  C   UNL A   1      40.793  30.094  29.453  1.00  0.00     0.074 A 
ATOM     14  C   UNL A   1      40.417  27.821  28.518  1.00  0.00     0.049 A 
ATOM     15  N   UNL A   1      42.073  30.077  29.703  1.00  0.00    -0.248 NA
ATOM     16  C   UNL A   1      40.105  31.314  29.910  1.00  0.00     0.031 C 
ATOM     17  C   UNL A   1      39.616  26.712  27.984  1.00  0.00     0.029 A 
ATOM     18  N   UNL A   1      41.659  27.273  28.690  1.00  0.00    -0.354 N 
ATOM     19  C   UNL A   1      42.349  31.287  30.326  1.00  0.00     0.074 A 
ATOM     20  C   UNL A   1      41.108  32.023  30.407  1.00  0.00     0.031 C 
ATOM     21  C   UNL A   1      40.379  25.610  27.909  1.00  0.00     0.029 A 
ATOM     22  C   UNL A   1      41.737  25.953  28.306  1.00  0.00     0.049 A 
ATOM     23  H   UNL A   1      42.424  27.775  29.053  1.00  0.00     0.167 HD
ATOM     24  C   UNL A   1      43.540  31.731  30.789  1.00  0.00     0.037 A 
ATOM     25  C   UNL A   1      42.802  25.132  28.247  1.00  0.00     0.037 A 
ATOM     26  C   UNL A   1      44.754  30.967  30.688  1.00  0.00     0.049 A 
ATOM     27  C   UNL A   1      44.132  25.688  28.679  1.00  0.00     0.074 A 
ATOM     28  C   UNL A   1      46.043  31.338  31.019  1.00  0.00     0.029 A 
ATOM     29  N   UNL A   1      44.817  29.659  30.224  1.00  0.00    -0.354 N 
ATOM     30  N   UNL A   1      44.405  26.875  29.172  1.00  0.00    -0.248 NA
ATOM     31  C   UNL A   1      45.299  24.810  28.535  1.00  0.00     0.031 C 
ATOM     32  C   UNL A   1      46.890  30.263  30.725  1.00  0.00     0.029 A 
ATOM     33  C   UNL A   1      46.123  29.206  30.257  1.00  0.00     0.049 A 
ATOM     34  H   UNL A   1      44.045  29.130  29.919  1.00  0.00     0.167 HD
ATOM     35  C   UNL A   1      45.773  26.885  29.404  1.00  0.00     0.074 A 
ATOM     36  C   UNL A   1      46.265  25.574  29.025  1.00  0.00     0.031 C 
ATOM     37  C   UNL A   1      46.560  27.885  29.875  1.00  0.00     0.037 A 
BRANCH  24  38
ATOM     38  C   UNL A   1      43.575  33.114  31.376  1.00  0.00     0.058 A 
ATOM     39  C   UNL A   1      43.831  34.249  30.590  1.00  0.00     0.135 A 
ATOM     40  C   UNL A   1      43.382  33.304  32.754  1.00  0.00     0.135 A 
ATOM     41  F   UNL A   1      44.058  34.121  29.273  1.00  0.00    -0.206 F 
ATOM     42  C   UNL A   1      43.919  35.519  31.153  1.00  0.00     0.059 A 
ATOM     43  C   UNL A   1      43.443  34.567  33.335  1.00  0.00     0.059 A 
ATOM     44  F   UNL A   1      43.150  32.252  33.555  1.00  0.00    -0.206 F 
ATOM     45  C   UNL A   1      43.728  35.668  32.528  1.00  0.00     0.060 A 
BRANCH  45  46
ATOM     46  S   UNL A   1      43.865  37.318  33.246  1.00  0.00     0.124 S 
ATOM     47  O   UNL A   1      43.776  38.162  32.058  1.00  0.00    -0.237 OA
ATOM     48  O   UNL A   1      42.716  37.364  34.144  1.00  0.00    -0.237 OA
ATOM     49  O   UNL A   1      45.169  37.297  33.903  1.00  0.00    -0.744 OA
ENDBRANCH  45  46
ENDBRANCH  24  38
BRANCH  25  50
ATOM     50  C   UNL A   1      42.671  23.755  27.693  1.00  0.00     0.058 A 
ATOM     51  C   UNL A   1      42.711  23.503  26.313  1.00  0.00     0.135 A 
ATOM     52  C   UNL A   1      42.481  22.653  28.545  1.00  0.00     0.135 A 
ATOM     53  F   UNL A   1      42.887  24.518  25.452  1.00  0.00    -0.206 F 
ATOM     54  C   UNL A   1      42.537  22.221  25.798  1.00  0.00     0.059 A 
ATOM     55  C   UNL A   1      42.338  21.358  28.057  1.00  0.00     0.059 A 
ATOM     56  F   UNL A   1      42.447  22.827  29.875  1.00  0.00    -0.206 F 
ATOM     57  C   UNL A   1      42.346  21.154  26.679  1.00  0.00     0.060 A 
BRANCH  57  58
ATOM     58  S   UNL A   1      42.124  19.492  26.009  1.00  0.00     0.124 S 
ATOM     59  O   UNL A   1      42.600  18.666  27.113  1.00  0.00    -0.237 OA
ATOM     60  O   UNL A   1      40.688  19.451  25.752  1.00  0.00    -0.237 OA
ATOM     61  O   UNL A   1      42.966  19.495  24.816  1.00  0.00    -0.744 OA
ENDBRANCH  57  58
ENDBRANCH  25  50
BRANCH  37  62
ATOM     62  C   UNL A   1      48.020  27.575  30.031  1.00  0.00     0.058 A 
ATOM     63  C   UNL A   1      48.957  27.952  29.059  1.00  0.00     0.135 A 
ATOM     64  C   UNL A   1      48.485  26.930  31.188  1.00  0.00     0.135 A 
ATOM     65  F   UNL A   1      48.557  28.563  27.932  1.00  0.00    -0.206 F 
ATOM     66  C   UNL A   1      50.310  27.675  29.215  1.00  0.00     0.059 A 
ATOM     67  C   UNL A   1      49.836  26.670  31.379  1.00  0.00     0.059 A 
ATOM     68  F   UNL A   1      47.625  26.562  32.150  1.00  0.00    -0.206 F 
ATOM     69  C   UNL A   1      50.739  27.035  30.380  1.00  0.00     0.060 A 
BRANCH  69  70
ATOM     70  S   UNL A   1      52.500  26.709  30.588  1.00  0.00     0.124 S 
ATOM     71  O   UNL A   1      52.857  26.181  29.275  1.00  0.00    -0.237 OA
ATOM     72  O   UNL A   1      53.029  28.032  30.905  1.00  0.00    -0.237 OA
ATOM     73  O   UNL A   1      52.541  25.746  31.685  1.00  0.00    -0.744 OA
ENDBRANCH  69  70
ENDBRANCH  37  62
ENDBRANCH  11  12
ENDBRANCH   4   6
ENDBRANCH   3   4
ENDBRANCH   2   3
ENDBRANCH   1   2
BRANCH   1  74
ATOM     74  O   UNL A   1      32.444  27.187  24.543  1.00  0.00    -0.374 OA
BRANCH  74  75
ATOM     75  C   UNL A   1      31.033  27.150  24.784  1.00  0.00     0.202 C 
BRANCH  75  76
ATOM     76  C   UNL A   1      30.676  25.823  25.461  1.00  0.00     0.261 C 
BRANCH  76  77
ATOM     77  O   UNL A   1      31.851  24.990  25.481  1.00  0.00    -0.460 OA
BRANCH  77  78
ATOM     78  C   UNL A   1      31.885  24.074  26.478  1.00  0.00     0.342 C 
ATOM     79  O   UNL A   1      31.032  23.835  27.319  1.00  0.00    -0.246 OA
BRANCH  78  80
ATOM     80  C   UNL A   1      33.027  23.172  26.240  1.00  0.00     0.104 A 
ATOM     81  C   UNL A   1      34.334  23.671  26.265  1.00  0.00     0.040 A 
ATOM     82  C   UNL A   1      32.783  21.833  25.895  1.00  0.00     0.148 A 
ATOM     83  C   UNL A   1      35.391  22.838  25.918  1.00  0.00     0.043 A 
ATOM     84  C   UNL A   1      33.857  21.019  25.518  1.00  0.00     0.085 A 
ATOM     85  Cl  UNL A   1      36.999  23.450  25.944  1.00  0.00    -0.084 Cl
ATOM     86  C   UNL A   1      35.161  21.520  25.531  1.00  0.00     0.045 A 
ATOM     87  Cl  UNL A   1      33.615  19.392  24.995  1.00  0.00    -0.080 Cl
BRANCH  82  88
ATOM     88  O   UNL A   1      31.518  21.304  25.876  1.00  0.00    -0.505 OA
ATOM     89  H   UNL A   1      31.277  20.689  25.211  1.00  0.00     0.293 HD
ENDBRANCH  82  88
ENDBRANCH  78  80
ENDBRANCH  77  78
ENDBRANCH  76  77
ENDBRANCH  75  76
ENDBRANCH  74  75
ENDBRANCH   1  74
TORSDOF 18
ENDMDL
