MODEL 1
REMARK VINA RESULT:     -11.5      0.000      0.000
REMARK SMILES CSc1ccc(/C=C2\C(C)=C(CC(=O)OCCOCCOC(=O)c3ccc(-c4c5nc(c(-c6c(F)cc(S(=O)(=O)[O-])cc6F)c6ccc([nH]6)c(-c6c(F)cc(S(=O)(=O)[O-])cc6F)c6nc(c(-c7c(F)cc(S(=O)(=O)[O-])cc7F)c7ccc4[nH]7)C=C6)C=C5)cc3)c3cc(F)ccc32)cc1
REMARK SMILES IDX 18 1 17 2 16 3 15 4 13 5 14 6 12 7 11 8 7 9 8 10 9 11 96 12
REMARK SMILES IDX 10 13 90 14 95 15 91 16 94 17 92 18 93 19 6 20 3 21 4 22
REMARK SMILES IDX 98 23 5 24 97 25 2 26 1 27 19 28 20 29 21 30 22 31 23 32
REMARK SMILES IDX 24 33 25 34 89 35 26 36 88 37 27 38 28 39 29 40 82 41 30 42
REMARK SMILES IDX 87 43 81 44 83 45 31 46 86 47 80 48 79 49 32 51 66 52 45 53
REMARK SMILES IDX 65 54 46 55 49 56 64 57 84 58 47 59 48 60 63 62 85 63 50 64
REMARK SMILES IDX 33 65 34 66 43 67 35 68 36 69 42 70 44 71 37 72 38 73 39 74
REMARK SMILES IDX 40 75 41 76 67 77 68 78 77 79 69 80 70 81 76 82 78 83 71 84
REMARK SMILES IDX 72 85 73 86 74 87 75 88 51 89 52 90 61 91 53 92 54 93 60 94
REMARK SMILES IDX 62 95 55 96 56 97 57 98 58 99 59 100
REMARK H PARENT 83 50 49 61
REMARK Flexibility Score: inf
ROOT
ATOM      1  O   UNL A   1      40.084  21.259  26.285  1.00  0.00    -0.374 OA
ENDROOT
BRANCH   1   2
ATOM      2  C   UNL A   1      39.358  22.487  26.223  1.00  0.00     0.202 C 
BRANCH   2   3
ATOM      3  C   UNL A   1      37.866  22.368  25.898  1.00  0.00     0.261 C 
BRANCH   3   4
ATOM      4  O   UNL A   1      37.611  22.030  24.524  1.00  0.00    -0.463 OA
BRANCH   4   5
ATOM      5  C   UNL A   1      36.842  22.919  23.848  1.00  0.00     0.310 C 
ATOM      6  O   UNL A   1      36.752  22.981  22.624  1.00  0.00    -0.252 OA
BRANCH   5   7
ATOM      7  C   UNL A   1      36.109  23.908  24.728  1.00  0.00     0.159 C 
BRANCH   7   8
ATOM      8  C   UNL A   1      34.680  23.613  25.216  1.00  0.00    -0.025 C 
ATOM      9  C   UNL A   1      33.221  25.695  22.838  1.00  0.00     0.017 C 
ATOM     10  C   UNL A   1      33.456  24.664  23.662  1.00  0.00    -0.014 C 
ATOM     11  C   UNL A   1      33.774  24.629  25.116  1.00  0.00    -0.039 C 
ATOM     12  C   UNL A   1      33.400  23.242  23.264  1.00  0.00    -0.010 A 
ATOM     13  C   UNL A   1      32.507  24.564  25.974  1.00  0.00     0.045 C 
ATOM     14  C   UNL A   1      34.003  22.586  24.356  1.00  0.00    -0.011 A 
ATOM     15  C   UNL A   1      32.483  22.611  22.434  1.00  0.00     0.012 A 
ATOM     16  C   UNL A   1      33.577  21.320  24.717  1.00  0.00     0.048 A 
ATOM     17  C   UNL A   1      32.095  21.313  22.774  1.00  0.00     0.040 A 
ATOM     18  C   UNL A   1      32.616  20.699  23.921  1.00  0.00     0.123 A 
ATOM     19  F   UNL A   1      32.102  19.528  24.320  1.00  0.00    -0.207 F 
BRANCH   9  20
ATOM     20  C   UNL A   1      32.830  27.087  23.161  1.00  0.00    -0.025 A 
ATOM     21  C   UNL A   1      32.393  28.897  25.214  1.00  0.00     0.007 A 
ATOM     22  C   UNL A   1      33.593  28.933  24.513  1.00  0.00     0.015 A 
ATOM     23  C   UNL A   1      31.318  28.169  24.705  1.00  0.00     0.015 A 
ATOM     24  C   UNL A   1      33.785  28.065  23.444  1.00  0.00     0.009 A 
ATOM     25  C   UNL A   1      31.536  27.263  23.667  1.00  0.00     0.009 A 
BRANCH  21  26
ATOM     26  S   UNL A   1      32.333  29.522  26.882  1.00  0.00    -0.130 SA
ATOM     27  C   UNL A   1      31.568  28.047  27.640  1.00  0.00     0.091 C 
ENDBRANCH  21  26
ENDBRANCH   9  20
ENDBRANCH   7   8
ENDBRANCH   5   7
ENDBRANCH   4   5
ENDBRANCH   3   4
ENDBRANCH   2   3
ENDBRANCH   1   2
BRANCH   1  28
ATOM     28  C   UNL A   1      41.432  21.315  26.764  1.00  0.00     0.202 C 
BRANCH  28  29
ATOM     29  C   UNL A   1      42.358  22.255  25.990  1.00  0.00     0.261 C 
BRANCH  29  30
ATOM     30  O   UNL A   1      42.760  23.343  26.844  1.00  0.00    -0.460 OA
BRANCH  30  31
ATOM     31  C   UNL A   1      42.770  24.548  26.251  1.00  0.00     0.338 C 
ATOM     32  O   UNL A   1      43.056  24.785  25.074  1.00  0.00    -0.246 OA
BRANCH  31  33
ATOM     33  C   UNL A   1      42.234  25.555  27.176  1.00  0.00     0.060 A 
ATOM     34  C   UNL A   1      42.911  26.774  27.302  1.00  0.00     0.016 A 
ATOM     35  C   UNL A   1      41.152  25.260  28.007  1.00  0.00     0.016 A 
ATOM     36  C   UNL A   1      42.535  27.679  28.297  1.00  0.00     0.010 A 
ATOM     37  C   UNL A   1      40.762  26.181  28.989  1.00  0.00     0.010 A 
ATOM     38  C   UNL A   1      41.477  27.379  29.170  1.00  0.00    -0.014 A 
BRANCH  38  39
ATOM     39  C   UNL A   1      41.205  28.272  30.332  1.00  0.00     0.031 A 
ATOM     40  C   UNL A   1      42.055  28.168  31.574  1.00  0.00     0.074 A 
ATOM     41  C   UNL A   1      40.239  29.209  30.267  1.00  0.00     0.049 A 
ATOM     42  N   UNL A   1      42.005  28.881  32.672  1.00  0.00    -0.248 NA
ATOM     43  C   UNL A   1      43.096  27.130  31.581  1.00  0.00     0.031 C 
ATOM     44  C   UNL A   1      39.353  29.428  29.125  1.00  0.00     0.029 A 
ATOM     45  N   UNL A   1      39.845  30.153  31.183  1.00  0.00    -0.354 N 
ATOM     46  C   UNL A   1      43.006  28.379  33.498  1.00  0.00     0.074 A 
ATOM     47  C   UNL A   1      43.623  27.279  32.788  1.00  0.00     0.031 C 
ATOM     48  C   UNL A   1      38.522  30.447  29.407  1.00  0.00     0.029 A 
ATOM     49  C   UNL A   1      38.797  30.935  30.757  1.00  0.00     0.049 A 
ATOM     50  H   UNL A   1      40.273  30.259  32.064  1.00  0.00     0.167 HD
ATOM     51  C   UNL A   1      43.387  28.804  34.728  1.00  0.00     0.037 A 
ATOM     52  C   UNL A   1      38.128  31.924  31.383  1.00  0.00     0.037 A 
ATOM     53  C   UNL A   1      42.784  29.904  35.437  1.00  0.00     0.049 A 
ATOM     54  C   UNL A   1      38.538  32.345  32.771  1.00  0.00     0.074 A 
ATOM     55  C   UNL A   1      43.133  30.423  36.673  1.00  0.00     0.029 A 
ATOM     56  N   UNL A   1      41.705  30.647  34.985  1.00  0.00    -0.354 N 
ATOM     57  N   UNL A   1      39.515  31.888  33.517  1.00  0.00    -0.248 NA
ATOM     58  C   UNL A   1      37.758  33.422  33.399  1.00  0.00     0.031 C 
ATOM     59  C   UNL A   1      42.234  31.449  36.988  1.00  0.00     0.029 A 
ATOM     60  C   UNL A   1      41.358  31.602  35.927  1.00  0.00     0.049 A 
ATOM     61  H   UNL A   1      41.253  30.516  34.120  1.00  0.00     0.167 HD
ATOM     62  C   UNL A   1      39.481  32.637  34.690  1.00  0.00     0.074 A 
ATOM     63  C   UNL A   1      38.396  33.585  34.550  1.00  0.00     0.031 C 
ATOM     64  C   UNL A   1      40.278  32.545  35.784  1.00  0.00     0.037 A 
BRANCH  51  65
ATOM     65  C   UNL A   1      44.514  28.068  35.402  1.00  0.00     0.058 A 
ATOM     66  C   UNL A   1      44.282  26.941  36.206  1.00  0.00     0.135 A 
ATOM     67  C   UNL A   1      45.846  28.460  35.193  1.00  0.00     0.135 A 
ATOM     68  F   UNL A   1      43.026  26.530  36.448  1.00  0.00    -0.206 F 
ATOM     69  C   UNL A   1      45.329  26.242  36.798  1.00  0.00     0.059 A 
ATOM     70  C   UNL A   1      46.910  27.761  35.754  1.00  0.00     0.059 A 
ATOM     71  F   UNL A   1      46.124  29.529  34.430  1.00  0.00    -0.206 F 
ATOM     72  C   UNL A   1      46.640  26.660  36.566  1.00  0.00     0.060 A 
BRANCH  72  73
ATOM     73  S   UNL A   1      47.990  25.736  37.331  1.00  0.00     0.124 S 
ATOM     74  O   UNL A   1      48.085  26.387  38.635  1.00  0.00    -0.237 OA
ATOM     75  O   UNL A   1      47.470  24.373  37.341  1.00  0.00    -0.237 OA
ATOM     76  O   UNL A   1      49.115  25.968  36.432  1.00  0.00    -0.744 OA
ENDBRANCH  72  73
ENDBRANCH  51  65
BRANCH  52  77
ATOM     77  C   UNL A   1      36.984  32.589  30.704  1.00  0.00     0.058 A 
ATOM     78  C   UNL A   1      35.660  32.206  30.963  1.00  0.00     0.135 A 
ATOM     79  C   UNL A   1      37.197  33.619  29.774  1.00  0.00     0.135 A 
ATOM     80  F   UNL A   1      35.407  31.216  31.834  1.00  0.00    -0.206 F 
ATOM     81  C   UNL A   1      34.588  32.809  30.316  1.00  0.00     0.059 A 
ATOM     82  C   UNL A   1      36.139  34.256  29.134  1.00  0.00     0.059 A 
ATOM     83  F   UNL A   1      38.445  34.029  29.499  1.00  0.00    -0.206 F 
ATOM     84  C   UNL A   1      34.837  33.836  29.404  1.00  0.00     0.060 A 
BRANCH  84  85
ATOM     85  S   UNL A   1      33.436  34.648  28.605  1.00  0.00     0.124 S 
ATOM     86  O   UNL A   1      34.079  35.801  27.988  1.00  0.00    -0.237 OA
ATOM     87  O   UNL A   1      32.963  33.614  27.690  1.00  0.00    -0.237 OA
ATOM     88  O   UNL A   1      32.541  34.944  29.720  1.00  0.00    -0.744 OA
ENDBRANCH  84  85
ENDBRANCH  52  77
BRANCH  64  89
ATOM     89  C   UNL A   1      40.028  33.512  36.911  1.00  0.00     0.058 A 
ATOM     90  C   UNL A   1      39.094  33.239  37.923  1.00  0.00     0.135 A 
ATOM     91  C   UNL A   1      40.763  34.704  37.004  1.00  0.00     0.135 A 
ATOM     92  F   UNL A   1      38.360  32.116  37.880  1.00  0.00    -0.206 F 
ATOM     93  C   UNL A   1      38.878  34.128  38.973  1.00  0.00     0.059 A 
ATOM     94  C   UNL A   1      40.583  35.595  38.060  1.00  0.00     0.059 A 
ATOM     95  F   UNL A   1      41.679  35.009  36.071  1.00  0.00    -0.206 F 
ATOM     96  C   UNL A   1      39.627  35.304  39.033  1.00  0.00     0.060 A 
BRANCH  96  97
ATOM     97  S   UNL A   1      39.357  36.438  40.412  1.00  0.00     0.124 S 
ATOM     98  O   UNL A   1      38.741  37.577  39.740  1.00  0.00    -0.237 OA
ATOM     99  O   UNL A   1      38.477  35.666  41.285  1.00  0.00    -0.237 OA
ATOM    100  O   UNL A   1      40.701  36.667  40.932  1.00  0.00    -0.744 OA
ENDBRANCH  96  97
ENDBRANCH  64  89
ENDBRANCH  38  39
ENDBRANCH  31  33
ENDBRANCH  30  31
ENDBRANCH  29  30
ENDBRANCH  28  29
ENDBRANCH   1  28
TORSDOF 20
ENDMDL
MODEL 2
REMARK VINA RESULT:     -11.5      0.514      1.703
REMARK SMILES CSc1ccc(/C=C2\C(C)=C(CC(=O)OCCOCCOC(=O)c3ccc(-c4c5nc(c(-c6c(F)cc(S(=O)(=O)[O-])cc6F)c6ccc([nH]6)c(-c6c(F)cc(S(=O)(=O)[O-])cc6F)c6nc(c(-c7c(F)cc(S(=O)(=O)[O-])cc7F)c7ccc4[nH]7)C=C6)C=C5)cc3)c3cc(F)ccc32)cc1
REMARK SMILES IDX 18 1 17 2 16 3 15 4 13 5 14 6 12 7 11 8 7 9 8 10 9 11 96 12
REMARK SMILES IDX 10 13 90 14 95 15 91 16 94 17 92 18 93 19 6 20 3 21 4 22
REMARK SMILES IDX 98 23 5 24 97 25 2 26 1 27 19 28 20 29 21 30 22 31 23 32
REMARK SMILES IDX 24 33 25 34 89 35 26 36 88 37 27 38 28 39 29 40 82 41 30 42
REMARK SMILES IDX 87 43 81 44 83 45 31 46 86 47 80 48 79 49 32 51 66 52 45 53
REMARK SMILES IDX 65 54 46 55 49 56 64 57 84 58 47 59 48 60 63 62 85 63 50 64
REMARK SMILES IDX 33 65 34 66 43 67 35 68 36 69 42 70 44 71 37 72 38 73 39 74
REMARK SMILES IDX 40 75 41 76 67 77 68 78 77 79 69 80 70 81 76 82 78 83 71 84
REMARK SMILES IDX 72 85 73 86 74 87 75 88 51 89 52 90 61 91 53 92 54 93 60 94
REMARK SMILES IDX 62 95 55 96 56 97 57 98 58 99 59 100
REMARK H PARENT 83 50 49 61
REMARK Flexibility Score: inf
ROOT
ATOM      1  O   UNL A   1      40.875  21.639  26.807  1.00  0.00    -0.374 OA
ENDROOT
BRANCH   1   2
ATOM      2  C   UNL A   1      39.721  21.164  26.114  1.00  0.00     0.202 C 
BRANCH   2   3
ATOM      3  C   UNL A   1      38.604  22.189  25.891  1.00  0.00     0.261 C 
BRANCH   3   4
ATOM      4  O   UNL A   1      37.614  21.750  24.945  1.00  0.00    -0.463 OA
BRANCH   4   5
ATOM      5  C   UNL A   1      36.997  22.744  24.259  1.00  0.00     0.310 C 
ATOM      6  O   UNL A   1      37.031  22.881  23.038  1.00  0.00    -0.252 OA
BRANCH   5   7
ATOM      7  C   UNL A   1      36.275  23.750  25.129  1.00  0.00     0.159 C 
BRANCH   7   8
ATOM      8  C   UNL A   1      34.854  23.463  25.645  1.00  0.00    -0.025 C 
ATOM      9  C   UNL A   1      33.344  25.320  23.117  1.00  0.00     0.017 C 
ATOM     10  C   UNL A   1      33.604  24.362  24.018  1.00  0.00    -0.014 C 
ATOM     11  C   UNL A   1      33.925  24.448  25.468  1.00  0.00    -0.039 C 
ATOM     12  C   UNL A   1      33.579  22.912  23.733  1.00  0.00    -0.010 A 
ATOM     13  C   UNL A   1      32.662  24.423  26.334  1.00  0.00     0.045 C 
ATOM     14  C   UNL A   1      34.198  22.357  24.870  1.00  0.00    -0.011 A 
ATOM     15  C   UNL A   1      32.674  22.198  22.958  1.00  0.00     0.012 A 
ATOM     16  C   UNL A   1      33.800  21.115  25.331  1.00  0.00     0.048 A 
ATOM     17  C   UNL A   1      32.315  20.924  23.400  1.00  0.00     0.040 A 
ATOM     18  C   UNL A   1      32.852  20.412  24.589  1.00  0.00     0.123 A 
ATOM     19  F   UNL A   1      32.364  19.265  25.080  1.00  0.00    -0.207 F 
BRANCH   9  20
ATOM     20  C   UNL A   1      32.923  26.725  23.331  1.00  0.00    -0.025 A 
ATOM     21  C   UNL A   1      32.398  28.664  25.242  1.00  0.00     0.007 A 
ATOM     22  C   UNL A   1      33.618  28.671  24.575  1.00  0.00     0.015 A 
ATOM     23  C   UNL A   1      31.350  27.885  24.753  1.00  0.00     0.015 A 
ATOM     24  C   UNL A   1      33.854  27.735  23.574  1.00  0.00     0.009 A 
ATOM     25  C   UNL A   1      31.613  26.913  23.787  1.00  0.00     0.009 A 
BRANCH  21  26
ATOM     26  S   UNL A   1      32.280  29.400  26.860  1.00  0.00    -0.130 SA
ATOM     27  C   UNL A   1      33.985  29.023  27.396  1.00  0.00     0.091 C 
ENDBRANCH  21  26
ENDBRANCH   9  20
ENDBRANCH   7   8
ENDBRANCH   5   7
ENDBRANCH   4   5
ENDBRANCH   3   4
ENDBRANCH   2   3
ENDBRANCH   1   2
BRANCH   1  28
ATOM     28  C   UNL A   1      42.147  21.439  26.181  1.00  0.00     0.202 C 
BRANCH  28  29
ATOM     29  C   UNL A   1      42.769  22.692  25.560  1.00  0.00     0.261 C 
BRANCH  29  30
ATOM     30  O   UNL A   1      41.991  23.847  25.928  1.00  0.00    -0.460 OA
BRANCH  30  31
ATOM     31  C   UNL A   1      42.646  25.016  25.839  1.00  0.00     0.338 C 
ATOM     32  O   UNL A   1      43.487  25.324  24.990  1.00  0.00    -0.246 OA
BRANCH  31  33
ATOM     33  C   UNL A   1      42.103  25.959  26.825  1.00  0.00     0.060 A 
ATOM     34  C   UNL A   1      42.716  27.211  26.961  1.00  0.00     0.016 A 
ATOM     35  C   UNL A   1      41.083  25.575  27.697  1.00  0.00     0.016 A 
ATOM     36  C   UNL A   1      42.341  28.059  28.006  1.00  0.00     0.010 A 
ATOM     37  C   UNL A   1      40.693  26.440  28.730  1.00  0.00     0.010 A 
ATOM     38  C   UNL A   1      41.348  27.670  28.918  1.00  0.00    -0.014 A 
BRANCH  38  39
ATOM     39  C   UNL A   1      41.087  28.507  30.123  1.00  0.00     0.031 A 
ATOM     40  C   UNL A   1      41.942  28.339  31.355  1.00  0.00     0.074 A 
ATOM     41  C   UNL A   1      40.126  29.451  30.109  1.00  0.00     0.049 A 
ATOM     42  N   UNL A   1      41.901  28.997  32.487  1.00  0.00    -0.248 NA
ATOM     43  C   UNL A   1      42.977  27.295  31.306  1.00  0.00     0.031 C 
ATOM     44  C   UNL A   1      39.236  29.731  28.983  1.00  0.00     0.029 A 
ATOM     45  N   UNL A   1      39.742  30.352  31.072  1.00  0.00    -0.354 N 
ATOM     46  C   UNL A   1      42.903  28.451  33.282  1.00  0.00     0.074 A 
ATOM     47  C   UNL A   1      43.511  27.383  32.517  1.00  0.00     0.031 C 
ATOM     48  C   UNL A   1      38.412  30.739  29.319  1.00  0.00     0.029 A 
ATOM     49  C   UNL A   1      38.696  31.159  30.689  1.00  0.00     0.049 A 
ATOM     50  H   UNL A   1      40.174  30.413  31.955  1.00  0.00     0.167 HD
ATOM     51  C   UNL A   1      43.293  28.813  34.529  1.00  0.00     0.037 A 
ATOM     52  C   UNL A   1      38.035  32.120  31.367  1.00  0.00     0.037 A 
ATOM     53  C   UNL A   1      42.700  29.880  35.294  1.00  0.00     0.049 A 
ATOM     54  C   UNL A   1      38.455  32.471  32.771  1.00  0.00     0.074 A 
ATOM     55  C   UNL A   1      43.057  30.337  36.552  1.00  0.00     0.029 A 
ATOM     56  N   UNL A   1      41.623  30.651  34.884  1.00  0.00    -0.354 N 
ATOM     57  N   UNL A   1      39.433  31.973  33.489  1.00  0.00    -0.248 NA
ATOM     58  C   UNL A   1      37.684  33.521  33.454  1.00  0.00     0.031 C 
ATOM     59  C   UNL A   1      42.166  31.351  36.921  1.00  0.00     0.029 A 
ATOM     60  C   UNL A   1      41.285  31.561  35.873  1.00  0.00     0.049 A 
ATOM     61  H   UNL A   1      41.166  30.564  34.016  1.00  0.00     0.167 HD
ATOM     62  C   UNL A   1      39.408  32.665  34.697  1.00  0.00     0.074 A 
ATOM     63  C   UNL A   1      38.328  33.624  34.609  1.00  0.00     0.031 C 
ATOM     64  C   UNL A   1      40.209  32.515  35.782  1.00  0.00     0.037 A 
BRANCH  51  65
ATOM     65  C   UNL A   1      44.419  28.039  35.161  1.00  0.00     0.058 A 
ATOM     66  C   UNL A   1      45.754  28.457  35.049  1.00  0.00     0.135 A 
ATOM     67  C   UNL A   1      44.153  26.900  35.936  1.00  0.00     0.135 A 
ATOM     68  F   UNL A   1      46.067  29.535  34.309  1.00  0.00    -0.206 F 
ATOM     69  C   UNL A   1      46.789  27.760  35.665  1.00  0.00     0.059 A 
ATOM     70  C   UNL A   1      45.168  26.200  36.581  1.00  0.00     0.059 A 
ATOM     71  F   UNL A   1      42.893  26.458  36.077  1.00  0.00    -0.206 F 
ATOM     72  C   UNL A   1      46.485  26.632  36.429  1.00  0.00     0.060 A 
BRANCH  72  73
ATOM     73  S   UNL A   1      47.837  25.743  37.232  1.00  0.00     0.124 S 
ATOM     74  O   UNL A   1      47.241  24.424  37.425  1.00  0.00    -0.237 OA
ATOM     75  O   UNL A   1      48.897  25.818  36.234  1.00  0.00    -0.237 OA
ATOM     76  O   UNL A   1      48.071  26.508  38.451  1.00  0.00    -0.744 OA
ENDBRANCH  72  73
ENDBRANCH  51  65
BRANCH  52  77
ATOM     77  C   UNL A   1      36.892  32.824  30.726  1.00  0.00     0.058 A 
ATOM     78  C   UNL A   1      37.097  33.914  29.867  1.00  0.00     0.135 A 
ATOM     79  C   UNL A   1      35.569  32.421  30.967  1.00  0.00     0.135 A 
ATOM     80  F   UNL A   1      38.343  34.344  29.616  1.00  0.00    -0.206 F 
ATOM     81  C   UNL A   1      36.032  34.589  29.281  1.00  0.00     0.059 A 
ATOM     82  C   UNL A   1      34.489  33.064  30.373  1.00  0.00     0.059 A 
ATOM     83  F   UNL A   1      35.321  31.377  31.774  1.00  0.00    -0.206 F 
ATOM     84  C   UNL A   1      34.730  34.155  29.538  1.00  0.00     0.060 A 
BRANCH  84  85
ATOM     85  S   UNL A   1      33.356  35.005  28.734  1.00  0.00     0.124 S 
ATOM     86  O   UNL A   1      32.591  35.477  29.881  1.00  0.00    -0.237 OA
ATOM     87  O   UNL A   1      34.043  36.033  27.958  1.00  0.00    -0.237 OA
ATOM     88  O   UNL A   1      32.727  33.951  27.943  1.00  0.00    -0.744 OA
ENDBRANCH  84  85
ENDBRANCH  52  77
BRANCH  64  89
ATOM     89  C   UNL A   1      39.971  33.427  36.955  1.00  0.00     0.058 A 
ATOM     90  C   UNL A   1      40.679  34.629  37.112  1.00  0.00     0.135 A 
ATOM     91  C   UNL A   1      38.991  33.117  37.912  1.00  0.00     0.135 A 
ATOM     92  F   UNL A   1      41.631  34.972  36.229  1.00  0.00    -0.206 F 
ATOM     93  C   UNL A   1      40.444  35.478  38.190  1.00  0.00     0.059 A 
ATOM     94  C   UNL A   1      38.720  33.964  38.984  1.00  0.00     0.059 A 
ATOM     95  F   UNL A   1      38.275  31.987  37.805  1.00  0.00    -0.206 F 
ATOM     96  C   UNL A   1      39.462  35.137  39.122  1.00  0.00     0.060 A 
BRANCH  96  97
ATOM     97  S   UNL A   1      39.147  36.258  40.503  1.00  0.00     0.124 S 
ATOM     98  O   UNL A   1      40.472  36.361  41.105  1.00  0.00    -0.237 OA
ATOM     99  O   UNL A   1      38.662  37.458  39.828  1.00  0.00    -0.237 OA
ATOM    100  O   UNL A   1      38.150  35.547  41.297  1.00  0.00    -0.744 OA
ENDBRANCH  96  97
ENDBRANCH  64  89
ENDBRANCH  38  39
ENDBRANCH  31  33
ENDBRANCH  30  31
ENDBRANCH  29  30
ENDBRANCH  28  29
ENDBRANCH   1  28
TORSDOF 20
ENDMDL
MODEL 3
REMARK VINA RESULT:     -11.3      1.960      3.484
REMARK SMILES CSc1ccc(/C=C2\C(C)=C(CC(=O)OCCOCCOC(=O)c3ccc(-c4c5nc(c(-c6c(F)cc(S(=O)(=O)[O-])cc6F)c6ccc([nH]6)c(-c6c(F)cc(S(=O)(=O)[O-])cc6F)c6nc(c(-c7c(F)cc(S(=O)(=O)[O-])cc7F)c7ccc4[nH]7)C=C6)C=C5)cc3)c3cc(F)ccc32)cc1
REMARK SMILES IDX 18 1 17 2 16 3 15 4 13 5 14 6 12 7 11 8 7 9 8 10 9 11 96 12
REMARK SMILES IDX 10 13 90 14 95 15 91 16 94 17 92 18 93 19 6 20 3 21 4 22
REMARK SMILES IDX 98 23 5 24 97 25 2 26 1 27 19 28 20 29 21 30 22 31 23 32
REMARK SMILES IDX 24 33 25 34 89 35 26 36 88 37 27 38 28 39 29 40 82 41 30 42
REMARK SMILES IDX 87 43 81 44 83 45 31 46 86 47 80 48 79 49 32 51 66 52 45 53
REMARK SMILES IDX 65 54 46 55 49 56 64 57 84 58 47 59 48 60 63 62 85 63 50 64
REMARK SMILES IDX 33 65 34 66 43 67 35 68 36 69 42 70 44 71 37 72 38 73 39 74
REMARK SMILES IDX 40 75 41 76 67 77 68 78 77 79 69 80 70 81 76 82 78 83 71 84
REMARK SMILES IDX 72 85 73 86 74 87 75 88 51 89 52 90 61 91 53 92 54 93 60 94
REMARK SMILES IDX 62 95 55 96 56 97 57 98 58 99 59 100
REMARK H PARENT 83 50 49 61
REMARK Flexibility Score: inf
ROOT
ATOM      1  O   UNL A   1      40.224  21.465  27.156  1.00  0.00    -0.374 OA
ENDROOT
BRANCH   1   2
ATOM      2  C   UNL A   1      39.284  21.765  26.124  1.00  0.00     0.202 C 
BRANCH   2   3
ATOM      3  C   UNL A   1      38.604  23.135  26.213  1.00  0.00     0.261 C 
BRANCH   3   4
ATOM      4  O   UNL A   1      37.170  23.061  26.143  1.00  0.00    -0.463 OA
BRANCH   4   5
ATOM      5  C   UNL A   1      36.620  23.634  25.044  1.00  0.00     0.310 C 
ATOM      6  O   UNL A   1      37.018  23.470  23.892  1.00  0.00    -0.252 OA
BRANCH   5   7
ATOM      7  C   UNL A   1      35.468  24.571  25.337  1.00  0.00     0.159 C 
BRANCH   7   8
ATOM      8  C   UNL A   1      34.270  24.664  24.376  1.00  0.00    -0.025 C 
ATOM      9  C   UNL A   1      33.081  21.506  25.228  1.00  0.00     0.017 C 
ATOM     10  C   UNL A   1      33.137  22.803  24.899  1.00  0.00    -0.014 C 
ATOM     11  C   UNL A   1      33.854  23.500  23.796  1.00  0.00    -0.039 C 
ATOM     12  C   UNL A   1      32.406  23.880  25.599  1.00  0.00    -0.010 A 
ATOM     13  C   UNL A   1      33.003  23.581  22.525  1.00  0.00     0.045 C 
ATOM     14  C   UNL A   1      33.011  25.049  25.097  1.00  0.00    -0.011 A 
ATOM     15  C   UNL A   1      31.104  23.868  26.084  1.00  0.00     0.012 A 
ATOM     16  C   UNL A   1      32.259  26.200  24.942  1.00  0.00     0.048 A 
ATOM     17  C   UNL A   1      30.366  25.048  25.971  1.00  0.00     0.040 A 
ATOM     18  C   UNL A   1      30.935  26.182  25.376  1.00  0.00     0.123 A 
ATOM     19  F   UNL A   1      30.155  27.243  25.125  1.00  0.00    -0.207 F 
BRANCH   9  20
ATOM     20  C   UNL A   1      33.391  20.312  24.408  1.00  0.00    -0.025 A 
ATOM     21  C   UNL A   1      33.640  17.551  24.432  1.00  0.00     0.007 A 
ATOM     22  C   UNL A   1      32.477  18.129  23.937  1.00  0.00     0.015 A 
ATOM     23  C   UNL A   1      34.771  18.341  24.634  1.00  0.00     0.015 A 
ATOM     24  C   UNL A   1      32.380  19.515  23.869  1.00  0.00     0.009 A 
ATOM     25  C   UNL A   1      34.648  19.730  24.616  1.00  0.00     0.009 A 
BRANCH  21  26
ATOM     26  S   UNL A   1      33.586  15.892  25.081  1.00  0.00    -0.130 SA
ATOM     27  C   UNL A   1      35.380  15.714  25.375  1.00  0.00     0.091 C 
ENDBRANCH  21  26
ENDBRANCH   9  20
ENDBRANCH   7   8
ENDBRANCH   5   7
ENDBRANCH   4   5
ENDBRANCH   3   4
ENDBRANCH   2   3
ENDBRANCH   1   2
BRANCH   1  28
ATOM     28  C   UNL A   1      41.536  21.059  26.753  1.00  0.00     0.202 C 
BRANCH  28  29
ATOM     29  C   UNL A   1      42.533  22.200  26.540  1.00  0.00     0.261 C 
BRANCH  29  30
ATOM     30  O   UNL A   1      42.123  23.346  27.311  1.00  0.00    -0.460 OA
BRANCH  30  31
ATOM     31  C   UNL A   1      42.280  24.526  26.689  1.00  0.00     0.338 C 
ATOM     32  O   UNL A   1      42.648  24.699  25.524  1.00  0.00    -0.246 OA
BRANCH  31  33
ATOM     33  C   UNL A   1      41.796  25.607  27.558  1.00  0.00     0.060 A 
ATOM     34  C   UNL A   1      42.576  26.762  27.684  1.00  0.00     0.016 A 
ATOM     35  C   UNL A   1      40.653  25.439  28.341  1.00  0.00     0.016 A 
ATOM     36  C   UNL A   1      42.238  27.729  28.634  1.00  0.00     0.010 A 
ATOM     37  C   UNL A   1      40.303  26.423  29.276  1.00  0.00     0.010 A 
ATOM     38  C   UNL A   1      41.117  27.555  29.460  1.00  0.00    -0.014 A 
BRANCH  38  39
ATOM     39  C   UNL A   1      40.874  28.506  30.582  1.00  0.00     0.031 A 
ATOM     40  C   UNL A   1      41.724  28.433  31.826  1.00  0.00     0.074 A 
ATOM     41  C   UNL A   1      39.936  29.467  30.477  1.00  0.00     0.049 A 
ATOM     42  N   UNL A   1      41.697  29.194  32.892  1.00  0.00    -0.248 NA
ATOM     43  C   UNL A   1      42.735  27.366  31.877  1.00  0.00     0.031 C 
ATOM     44  C   UNL A   1      39.053  29.661  29.327  1.00  0.00     0.029 A 
ATOM     45  N   UNL A   1      39.571  30.461  31.351  1.00  0.00    -0.354 N 
ATOM     46  C   UNL A   1      42.685  28.701  33.738  1.00  0.00     0.074 A 
ATOM     47  C   UNL A   1      43.268  27.553  33.076  1.00  0.00     0.031 C 
ATOM     48  C   UNL A   1      38.252  30.715  29.565  1.00  0.00     0.029 A 
ATOM     49  C   UNL A   1      38.545  31.253  30.892  1.00  0.00     0.049 A 
ATOM     50  H   UNL A   1      40.004  30.594  32.226  1.00  0.00     0.167 HD
ATOM     51  C   UNL A   1      43.082  29.168  34.947  1.00  0.00     0.037 A 
ATOM     52  C   UNL A   1      37.906  32.289  31.475  1.00  0.00     0.037 A 
ATOM     53  C   UNL A   1      42.513  30.315  35.608  1.00  0.00     0.049 A 
ATOM     54  C   UNL A   1      38.332  32.758  32.842  1.00  0.00     0.074 A 
ATOM     55  C   UNL A   1      42.880  30.878  36.819  1.00  0.00     0.029 A 
ATOM     56  N   UNL A   1      41.455  31.069  35.125  1.00  0.00    -0.354 N 
ATOM     57  N   UNL A   1      39.298  32.307  33.606  1.00  0.00    -0.248 NA
ATOM     58  C   UNL A   1      37.585  33.884  33.423  1.00  0.00     0.031 C 
ATOM     59  C   UNL A   1      42.012  31.942  37.090  1.00  0.00     0.029 A 
ATOM     60  C   UNL A   1      41.137  32.074  36.025  1.00  0.00     0.049 A 
ATOM     61  H   UNL A   1      40.997  30.913  34.267  1.00  0.00     0.167 HD
ATOM     62  C   UNL A   1      39.288  33.107  34.745  1.00  0.00     0.074 A 
ATOM     63  C   UNL A   1      38.231  34.079  34.565  1.00  0.00     0.031 C 
ATOM     64  C   UNL A   1      40.085  33.041  35.841  1.00  0.00     0.037 A 
BRANCH  51  65
ATOM     65  C   UNL A   1      44.189  28.430  35.651  1.00  0.00     0.058 A 
ATOM     66  C   UNL A   1      43.923  27.386  36.550  1.00  0.00     0.135 A 
ATOM     67  C   UNL A   1      45.533  28.733  35.379  1.00  0.00     0.135 A 
ATOM     68  F   UNL A   1      42.656  27.062  36.856  1.00  0.00    -0.206 F 
ATOM     69  C   UNL A   1      44.950  26.682  37.171  1.00  0.00     0.059 A 
ATOM     70  C   UNL A   1      46.576  28.027  35.969  1.00  0.00     0.059 A 
ATOM     71  F   UNL A   1      45.843  29.722  34.525  1.00  0.00    -0.206 F 
ATOM     72  C   UNL A   1      46.274  27.010  36.875  1.00  0.00     0.060 A 
BRANCH  72  73
ATOM     73  S   UNL A   1      47.596  26.081  37.680  1.00  0.00     0.124 S 
ATOM     74  O   UNL A   1      48.772  26.577  36.971  1.00  0.00    -0.237 OA
ATOM     75  O   UNL A   1      47.472  26.500  39.071  1.00  0.00    -0.237 OA
ATOM     76  O   UNL A   1      47.246  24.690  37.413  1.00  0.00    -0.744 OA
ENDBRANCH  72  73
ENDBRANCH  51  65
BRANCH  52  77
ATOM     77  C   UNL A   1      36.780  32.956  30.768  1.00  0.00     0.058 A 
ATOM     78  C   UNL A   1      35.447  32.704  31.123  1.00  0.00     0.135 A 
ATOM     79  C   UNL A   1      37.019  33.856  29.718  1.00  0.00     0.135 A 
ATOM     80  F   UNL A   1      35.168  31.841  32.112  1.00  0.00    -0.206 F 
ATOM     81  C   UNL A   1      34.389  33.308  30.453  1.00  0.00     0.059 A 
ATOM     82  C   UNL A   1      35.979  34.492  29.050  1.00  0.00     0.059 A 
ATOM     83  F   UNL A   1      38.278  34.137  29.347  1.00  0.00    -0.206 F 
ATOM     84  C   UNL A   1      34.665  34.204  29.418  1.00  0.00     0.060 A 
BRANCH  84  85
ATOM     85  S   UNL A   1      33.288  35.023  28.586  1.00  0.00     0.124 S 
ATOM     86  O   UNL A   1      33.984  35.998  27.756  1.00  0.00    -0.237 OA
ATOM     87  O   UNL A   1      32.656  33.915  27.876  1.00  0.00    -0.237 OA
ATOM     88  O   UNL A   1      32.510  35.573  29.692  1.00  0.00    -0.744 OA
ENDBRANCH  84  85
ENDBRANCH  52  77
BRANCH  64  89
ATOM     89  C   UNL A   1      39.866  34.063  36.925  1.00  0.00     0.058 A 
ATOM     90  C   UNL A   1      39.136  33.762  38.086  1.00  0.00     0.135 A 
ATOM     91  C   UNL A   1      40.430  35.345  36.821  1.00  0.00     0.135 A 
ATOM     92  F   UNL A   1      38.570  32.554  38.234  1.00  0.00    -0.206 F 
ATOM     93  C   UNL A   1      38.950  34.705  39.093  1.00  0.00     0.059 A 
ATOM     94  C   UNL A   1      40.280  36.294  37.829  1.00  0.00     0.059 A 
ATOM     95  F   UNL A   1      41.148  35.682  35.738  1.00  0.00    -0.206 F 
ATOM     96  C   UNL A   1      39.526  35.969  38.956  1.00  0.00     0.060 A 
BRANCH  96  97
ATOM     97  S   UNL A   1      39.300  37.176  40.280  1.00  0.00     0.124 S 
ATOM     98  O   UNL A   1      38.632  38.265  39.574  1.00  0.00    -0.237 OA
ATOM     99  O   UNL A   1      38.476  36.442  41.236  1.00  0.00    -0.237 OA
ATOM    100  O   UNL A   1      40.662  37.456  40.721  1.00  0.00    -0.744 OA
ENDBRANCH  96  97
ENDBRANCH  64  89
ENDBRANCH  38  39
ENDBRANCH  31  33
ENDBRANCH  30  31
ENDBRANCH  29  30
ENDBRANCH  28  29
ENDBRANCH   1  28
TORSDOF 20
ENDMDL
