MODEL 1
REMARK VINA RESULT:      -9.6      0.000      0.000
REMARK SMILES O=C(N[C@@H]1C=C[C@@H](C(=O)OCCOCCOC(=O)c2ccc(-c3c4nc(c(-c5c(F)cc(S(=O)(=O)[O-])cc5F)c5ccc([nH]5)c(-c5c(F)cc(S(=O)(=O)[O-])cc5F)c5nc(c(-c6c(F)cc(S(=O)(=O)[O-])cc6F)c6ccc3[nH]6)C=C5)C=C4)cc2)C1)Oc1ccccc1
REMARK SMILES IDX 13 1 12 2 11 3 10 4 8 5 9 6 7 7 4 8 5 9 85 10 6 11 3 12 1 13
REMARK SMILES IDX 2 14 86 16 87 17 88 18 92 19 89 20 91 21 90 22 14 23 15 24
REMARK SMILES IDX 16 25 17 26 18 27 19 28 20 29 84 30 21 31 83 32 22 33 23 34
REMARK SMILES IDX 24 35 77 36 25 37 82 38 76 39 78 40 26 41 81 42 75 43 74 44
REMARK SMILES IDX 27 46 61 47 40 48 60 49 41 50 44 51 59 52 79 53 42 54 43 55
REMARK SMILES IDX 58 57 80 58 45 59 28 60 29 61 38 62 30 63 31 64 37 65 39 66
REMARK SMILES IDX 32 67 33 68 34 69 35 70 36 71 62 72 63 73 72 74 64 75 65 76
REMARK SMILES IDX 71 77 73 78 66 79 67 80 68 81 69 82 70 83 46 84 47 85 56 86
REMARK SMILES IDX 48 87 49 88 55 89 57 90 50 91 51 92 52 93 53 94 54 95
REMARK H PARENT 3 15 78 45 44 56
REMARK Flexibility Score: inf
ROOT
ATOM      1  O   UNL A   1      32.832  34.456  29.077  1.00  0.00    -0.374 OA
ENDROOT
BRANCH   1   2
ATOM      2  C   UNL A   1      32.951  35.191  30.291  1.00  0.00     0.202 C 
BRANCH   2   3
ATOM      3  C   UNL A   1      34.209  34.957  31.138  1.00  0.00     0.261 C 
BRANCH   3   4
ATOM      4  O   UNL A   1      33.931  34.363  32.418  1.00  0.00    -0.463 OA
BRANCH   4   5
ATOM      5  C   UNL A   1      34.747  34.776  33.420  1.00  0.00     0.312 C 
ATOM      6  O   UNL A   1      34.628  35.842  34.020  1.00  0.00    -0.252 OA
BRANCH   5   7
ATOM      7  C   UNL A   1      35.790  33.754  33.828  1.00  0.00     0.124 C 
ATOM      8  C   UNL A   1      37.409  32.000  33.428  1.00  0.00     0.109 C 
ATOM      9  C   UNL A   1      38.074  33.328  33.487  1.00  0.00    -0.006 C 
ATOM     10  C   UNL A   1      35.937  32.391  33.157  1.00  0.00     0.049 C 
ATOM     11  C   UNL A   1      37.177  34.308  33.669  1.00  0.00    -0.014 C 
BRANCH   8  12
ATOM     12  N   UNL A   1      37.582  31.183  34.628  1.00  0.00    -0.315 N 
ATOM     13  O   UNL A   1      38.469  30.225  36.463  1.00  0.00    -0.224 OA
ATOM     14  C   UNL A   1      38.654  30.791  35.388  1.00  0.00     0.413 C 
ATOM     15  H   UNL A   1      36.729  30.832  34.972  1.00  0.00     0.167 HD
BRANCH  14  16
ATOM     16  O   UNL A   1      39.916  30.958  34.845  1.00  0.00    -0.410 OA
BRANCH  16  17
ATOM     17  C   UNL A   1      40.612  29.815  34.396  1.00  0.00     0.132 A 
ATOM     18  C   UNL A   1      40.021  29.162  33.311  1.00  0.00     0.047 A 
ATOM     19  C   UNL A   1      41.883  29.451  34.841  1.00  0.00     0.047 A 
ATOM     20  C   UNL A   1      40.757  28.228  32.584  1.00  0.00     0.004 A 
ATOM     21  C   UNL A   1      42.617  28.517  34.104  1.00  0.00     0.004 A 
ATOM     22  C   UNL A   1      42.065  27.931  32.962  1.00  0.00     0.000 A 
ENDBRANCH  16  17
ENDBRANCH  14  16
ENDBRANCH   8  12
ENDBRANCH   5   7
ENDBRANCH   4   5
ENDBRANCH   3   4
ENDBRANCH   2   3
ENDBRANCH   1   2
BRANCH   1  23
ATOM     23  C   UNL A   1      33.932  34.475  28.166  1.00  0.00     0.202 C 
BRANCH  23  24
ATOM     24  C   UNL A   1      34.875  33.262  28.143  1.00  0.00     0.261 C 
BRANCH  24  25
ATOM     25  O   UNL A   1      34.376  32.158  28.926  1.00  0.00    -0.460 OA
BRANCH  25  26
ATOM     26  C   UNL A   1      34.343  30.966  28.286  1.00  0.00     0.338 C 
ATOM     27  O   UNL A   1      33.442  30.543  27.566  1.00  0.00    -0.246 OA
BRANCH  26  28
ATOM     28  C   UNL A   1      35.640  30.282  28.399  1.00  0.00     0.060 A 
ATOM     29  C   UNL A   1      36.048  29.846  29.667  1.00  0.00     0.016 A 
ATOM     30  C   UNL A   1      36.498  30.178  27.302  1.00  0.00     0.016 A 
ATOM     31  C   UNL A   1      37.332  29.337  29.850  1.00  0.00     0.010 A 
ATOM     32  C   UNL A   1      37.793  29.681  27.494  1.00  0.00     0.010 A 
ATOM     33  C   UNL A   1      38.227  29.291  28.773  1.00  0.00    -0.014 A 
BRANCH  33  34
ATOM     34  C   UNL A   1      39.657  28.983  29.023  1.00  0.00     0.031 A 
ATOM     35  C   UNL A   1      40.527  30.029  29.665  1.00  0.00     0.074 A 
ATOM     36  C   UNL A   1      40.166  27.779  28.714  1.00  0.00     0.049 A 
ATOM     37  N   UNL A   1      41.798  29.981  29.968  1.00  0.00    -0.248 NA
ATOM     38  C   UNL A   1      39.872  31.300  30.014  1.00  0.00     0.031 C 
ATOM     39  C   UNL A   1      39.413  26.668  28.136  1.00  0.00     0.029 A 
ATOM     40  N   UNL A   1      41.442  27.292  28.845  1.00  0.00    -0.354 N 
ATOM     41  C   UNL A   1      42.099  31.212  30.539  1.00  0.00     0.074 A 
ATOM     42  C   UNL A   1      40.882  31.996  30.513  1.00  0.00     0.031 C 
ATOM     43  C   UNL A   1      40.243  25.624  27.963  1.00  0.00     0.029 A 
ATOM     44  C   UNL A   1      41.590  26.004  28.389  1.00  0.00     0.049 A 
ATOM     45  H   UNL A   1      42.182  27.814  29.231  1.00  0.00     0.167 HD
ATOM     46  C   UNL A   1      43.278  31.648  31.046  1.00  0.00     0.037 A 
ATOM     47  C   UNL A   1      42.688  25.227  28.310  1.00  0.00     0.037 A 
ATOM     48  C   UNL A   1      44.489  30.869  31.058  1.00  0.00     0.049 A 
ATOM     49  C   UNL A   1      44.009  25.762  28.797  1.00  0.00     0.074 A 
ATOM     50  C   UNL A   1      45.731  31.214  31.560  1.00  0.00     0.029 A 
ATOM     51  N   UNL A   1      44.612  29.591  30.530  1.00  0.00    -0.354 N 
ATOM     52  N   UNL A   1      44.276  26.921  29.350  1.00  0.00    -0.248 NA
ATOM     53  C   UNL A   1      45.177  24.884  28.646  1.00  0.00     0.031 C 
ATOM     54  C   UNL A   1      46.618  30.164  31.291  1.00  0.00     0.029 A 
ATOM     55  C   UNL A   1      45.916  29.145  30.665  1.00  0.00     0.049 A 
ATOM     56  H   UNL A   1      43.880  29.077  30.119  1.00  0.00     0.167 HD
ATOM     57  C   UNL A   1      45.637  26.901  29.638  1.00  0.00     0.074 A 
ATOM     58  C   UNL A   1      46.137  25.614  29.199  1.00  0.00     0.031 C 
ATOM     59  C   UNL A   1      46.402  27.860  30.219  1.00  0.00     0.037 A 
BRANCH  46  60
ATOM     60  C   UNL A   1      43.311  33.051  31.586  1.00  0.00     0.058 A 
ATOM     61  C   UNL A   1      43.615  34.152  30.768  1.00  0.00     0.135 A 
ATOM     62  C   UNL A   1      43.064  33.295  32.946  1.00  0.00     0.135 A 
ATOM     63  F   UNL A   1      43.874  33.974  29.462  1.00  0.00    -0.206 F 
ATOM     64  C   UNL A   1      43.726  35.437  31.290  1.00  0.00     0.059 A 
ATOM     65  C   UNL A   1      43.143  34.576  33.485  1.00  0.00     0.059 A 
ATOM     66  F   UNL A   1      42.767  32.279  33.772  1.00  0.00    -0.206 F 
ATOM     67  C   UNL A   1      43.501  35.637  32.654  1.00  0.00     0.060 A 
BRANCH  67  68
ATOM     68  S   UNL A   1      43.702  37.298  33.332  1.00  0.00     0.124 S 
ATOM     69  O   UNL A   1      44.920  37.140  34.121  1.00  0.00    -0.237 OA
ATOM     70  O   UNL A   1      43.827  38.116  32.131  1.00  0.00    -0.237 OA
ATOM     71  O   UNL A   1      42.479  37.500  34.101  1.00  0.00    -0.744 OA
ENDBRANCH  67  68
ENDBRANCH  46  60
BRANCH  47  72
ATOM     72  C   UNL A   1      42.575  23.853  27.759  1.00  0.00     0.058 A 
ATOM     73  C   UNL A   1      42.474  22.743  28.609  1.00  0.00     0.135 A 
ATOM     74  C   UNL A   1      42.524  23.625  26.375  1.00  0.00     0.135 A 
ATOM     75  F   UNL A   1      42.533  22.910  29.939  1.00  0.00    -0.206 F 
ATOM     76  C   UNL A   1      42.317  21.455  28.110  1.00  0.00     0.059 A 
ATOM     77  C   UNL A   1      42.346  22.348  25.851  1.00  0.00     0.059 A 
ATOM     78  F   UNL A   1      42.611  24.655  25.521  1.00  0.00    -0.206 F 
ATOM     79  C   UNL A   1      42.244  21.268  26.727  1.00  0.00     0.060 A 
BRANCH  79  80
ATOM     80  S   UNL A   1      41.946  19.603  26.093  1.00  0.00     0.124 S 
ATOM     81  O   UNL A   1      42.787  19.588  24.902  1.00  0.00    -0.237 OA
ATOM     82  O   UNL A   1      42.395  18.769  27.204  1.00  0.00    -0.237 OA
ATOM     83  O   UNL A   1      40.506  19.589  25.852  1.00  0.00    -0.744 OA
ENDBRANCH  79  80
ENDBRANCH  47  72
BRANCH  59  84
ATOM     84  C   UNL A   1      47.857  27.548  30.440  1.00  0.00     0.058 A 
ATOM     85  C   UNL A   1      48.306  26.907  31.604  1.00  0.00     0.135 A 
ATOM     86  C   UNL A   1      48.806  27.848  29.449  1.00  0.00     0.135 A 
ATOM     87  F   UNL A   1      47.441  26.605  32.585  1.00  0.00    -0.206 F 
ATOM     88  C   UNL A   1      49.649  26.591  31.787  1.00  0.00     0.059 A 
ATOM     89  C   UNL A   1      50.150  27.520  29.600  1.00  0.00     0.059 A 
ATOM     90  F   UNL A   1      48.428  28.452  28.311  1.00  0.00    -0.206 F 
ATOM     91  C   UNL A   1      50.564  26.900  30.778  1.00  0.00     0.060 A 
BRANCH  91  92
ATOM     92  S   UNL A   1      52.298  26.453  31.011  1.00  0.00     0.124 S 
ATOM     93  O   UNL A   1      52.788  27.578  31.801  1.00  0.00    -0.237 OA
ATOM     94  O   UNL A   1      52.201  25.178  31.716  1.00  0.00    -0.237 OA
ATOM     95  O   UNL A   1      52.813  26.370  29.648  1.00  0.00    -0.744 OA
ENDBRANCH  91  92
ENDBRANCH  59  84
ENDBRANCH  33  34
ENDBRANCH  26  28
ENDBRANCH  25  26
ENDBRANCH  24  25
ENDBRANCH  23  24
ENDBRANCH   1  23
TORSDOF 20
ENDMDL
MODEL 2
REMARK VINA RESULT:      -9.2      1.165      2.122
REMARK SMILES O=C(N[C@@H]1C=C[C@@H](C(=O)OCCOCCOC(=O)c2ccc(-c3c4nc(c(-c5c(F)cc(S(=O)(=O)[O-])cc5F)c5ccc([nH]5)c(-c5c(F)cc(S(=O)(=O)[O-])cc5F)c5nc(c(-c6c(F)cc(S(=O)(=O)[O-])cc6F)c6ccc3[nH]6)C=C5)C=C4)cc2)C1)Oc1ccccc1
REMARK SMILES IDX 13 1 12 2 11 3 10 4 8 5 9 6 7 7 4 8 5 9 85 10 6 11 3 12 1 13
REMARK SMILES IDX 2 14 86 16 87 17 88 18 92 19 89 20 91 21 90 22 14 23 15 24
REMARK SMILES IDX 16 25 17 26 18 27 19 28 20 29 84 30 21 31 83 32 22 33 23 34
REMARK SMILES IDX 24 35 77 36 25 37 82 38 76 39 78 40 26 41 81 42 75 43 74 44
REMARK SMILES IDX 27 46 61 47 40 48 60 49 41 50 44 51 59 52 79 53 42 54 43 55
REMARK SMILES IDX 58 57 80 58 45 59 28 60 29 61 38 62 30 63 31 64 37 65 39 66
REMARK SMILES IDX 32 67 33 68 34 69 35 70 36 71 62 72 63 73 72 74 64 75 65 76
REMARK SMILES IDX 71 77 73 78 66 79 67 80 68 81 69 82 70 83 46 84 47 85 56 86
REMARK SMILES IDX 48 87 49 88 55 89 57 90 50 91 51 92 52 93 53 94 54 95
REMARK H PARENT 3 15 78 45 44 56
REMARK Flexibility Score: inf
ROOT
ATOM      1  O   UNL A   1      33.087  34.436  29.796  1.00  0.00    -0.374 OA
ENDROOT
BRANCH   1   2
ATOM      2  C   UNL A   1      33.864  35.084  30.799  1.00  0.00     0.202 C 
BRANCH   2   3
ATOM      3  C   UNL A   1      34.547  34.195  31.846  1.00  0.00     0.261 C 
BRANCH   3   4
ATOM      4  O   UNL A   1      35.879  34.625  32.175  1.00  0.00    -0.463 OA
BRANCH   4   5
ATOM      5  C   UNL A   1      36.859  33.769  31.790  1.00  0.00     0.312 C 
ATOM      6  O   UNL A   1      37.400  33.782  30.687  1.00  0.00    -0.252 OA
BRANCH   5   7
ATOM      7  C   UNL A   1      37.324  32.829  32.885  1.00  0.00     0.124 C 
ATOM      8  C   UNL A   1      38.345  30.811  33.749  1.00  0.00     0.109 C 
ATOM      9  C   UNL A   1      39.331  31.922  33.698  1.00  0.00    -0.006 C 
ATOM     10  C   UNL A   1      37.253  31.309  32.771  1.00  0.00     0.049 C 
ATOM     11  C   UNL A   1      38.782  33.031  33.183  1.00  0.00    -0.014 C 
BRANCH   8  12
ATOM     12  N   UNL A   1      37.834  30.516  35.087  1.00  0.00    -0.315 N 
ATOM     13  O   UNL A   1      37.527  30.528  37.318  1.00  0.00    -0.224 OA
ATOM     14  C   UNL A   1      38.269  30.757  36.365  1.00  0.00     0.413 C 
ATOM     15  H   UNL A   1      36.978  30.030  35.066  1.00  0.00     0.167 HD
BRANCH  14  16
ATOM     16  O   UNL A   1      39.585  31.150  36.527  1.00  0.00    -0.410 OA
BRANCH  16  17
ATOM     17  C   UNL A   1      39.851  32.496  36.859  1.00  0.00     0.132 A 
ATOM     18  C   UNL A   1      41.204  32.845  36.838  1.00  0.00     0.047 A 
ATOM     19  C   UNL A   1      38.865  33.472  37.010  1.00  0.00     0.047 A 
ATOM     20  C   UNL A   1      41.569  34.190  36.835  1.00  0.00     0.004 A 
ATOM     21  C   UNL A   1      39.238  34.819  37.001  1.00  0.00     0.004 A 
ATOM     22  C   UNL A   1      40.584  35.175  36.884  1.00  0.00     0.000 A 
ENDBRANCH  16  17
ENDBRANCH  14  16
ENDBRANCH   8  12
ENDBRANCH   5   7
ENDBRANCH   4   5
ENDBRANCH   3   4
ENDBRANCH   2   3
ENDBRANCH   1   2
BRANCH   1  23
ATOM     23  C   UNL A   1      33.668  34.257  28.503  1.00  0.00     0.202 C 
BRANCH  23  24
ATOM     24  C   UNL A   1      34.751  33.180  28.340  1.00  0.00     0.261 C 
BRANCH  24  25
ATOM     25  O   UNL A   1      34.398  31.937  28.980  1.00  0.00    -0.460 OA
BRANCH  25  26
ATOM     26  C   UNL A   1      34.453  30.843  28.185  1.00  0.00     0.338 C 
ATOM     27  O   UNL A   1      33.625  30.503  27.342  1.00  0.00    -0.246 OA
BRANCH  26  28
ATOM     28  C   UNL A   1      35.758  30.176  28.310  1.00  0.00     0.060 A 
ATOM     29  C   UNL A   1      36.135  29.697  29.572  1.00  0.00     0.016 A 
ATOM     30  C   UNL A   1      36.651  30.131  27.238  1.00  0.00     0.016 A 
ATOM     31  C   UNL A   1      37.422  29.203  29.776  1.00  0.00     0.010 A 
ATOM     32  C   UNL A   1      37.948  29.648  27.450  1.00  0.00     0.010 A 
ATOM     33  C   UNL A   1      38.350  29.215  28.725  1.00  0.00    -0.014 A 
BRANCH  33  34
ATOM     34  C   UNL A   1      39.777  28.921  29.007  1.00  0.00     0.031 A 
ATOM     35  C   UNL A   1      40.620  29.972  29.678  1.00  0.00     0.074 A 
ATOM     36  C   UNL A   1      40.307  27.725  28.702  1.00  0.00     0.049 A 
ATOM     37  N   UNL A   1      41.884  29.936  30.011  1.00  0.00    -0.248 NA
ATOM     38  C   UNL A   1      39.942  31.232  30.020  1.00  0.00     0.031 C 
ATOM     39  C   UNL A   1      39.581  26.610  28.098  1.00  0.00     0.029 A 
ATOM     40  N   UNL A   1      41.585  27.252  28.859  1.00  0.00    -0.354 N 
ATOM     41  C   UNL A   1      42.157  31.166  30.598  1.00  0.00     0.074 A 
ATOM     42  C   UNL A   1      40.932  31.936  30.548  1.00  0.00     0.031 C 
ATOM     43  C   UNL A   1      40.427  25.577  27.938  1.00  0.00     0.029 A 
ATOM     44  C   UNL A   1      41.758  25.969  28.398  1.00  0.00     0.049 A 
ATOM     45  H   UNL A   1      42.309  27.779  29.267  1.00  0.00     0.167 HD
ATOM     46  C   UNL A   1      43.318  31.611  31.136  1.00  0.00     0.037 A 
ATOM     47  C   UNL A   1      42.867  25.205  28.340  1.00  0.00     0.037 A 
ATOM     48  C   UNL A   1      44.537  30.846  31.171  1.00  0.00     0.049 A 
ATOM     49  C   UNL A   1      44.170  25.751  28.862  1.00  0.00     0.074 A 
ATOM     50  C   UNL A   1      45.763  31.201  31.705  1.00  0.00     0.029 A 
ATOM     51  N   UNL A   1      44.688  29.574  30.637  1.00  0.00    -0.354 N 
ATOM     52  N   UNL A   1      44.411  26.909  29.430  1.00  0.00    -0.248 NA
ATOM     53  C   UNL A   1      45.351  24.887  28.733  1.00  0.00     0.031 C 
ATOM     54  C   UNL A   1      46.668  30.163  31.450  1.00  0.00     0.029 A 
ATOM     55  C   UNL A   1      45.993  29.141  30.800  1.00  0.00     0.049 A 
ATOM     56  H   UNL A   1      43.971  29.055  30.205  1.00  0.00     0.167 HD
ATOM     57  C   UNL A   1      45.765  26.902  29.750  1.00  0.00     0.074 A 
ATOM     58  C   UNL A   1      46.290  25.624  29.314  1.00  0.00     0.031 C 
ATOM     59  C   UNL A   1      46.504  27.865  30.357  1.00  0.00     0.037 A 
BRANCH  46  60
ATOM     60  C   UNL A   1      43.323  33.011  31.687  1.00  0.00     0.058 A 
ATOM     61  C   UNL A   1      43.690  34.115  30.900  1.00  0.00     0.135 A 
ATOM     62  C   UNL A   1      42.983  33.247  33.028  1.00  0.00     0.135 A 
ATOM     63  F   UNL A   1      44.038  33.943  29.614  1.00  0.00    -0.206 F 
ATOM     64  C   UNL A   1      43.771  35.395  31.438  1.00  0.00     0.059 A 
ATOM     65  C   UNL A   1      43.031  34.524  33.580  1.00  0.00     0.059 A 
ATOM     66  F   UNL A   1      42.622  32.228  33.824  1.00  0.00    -0.206 F 
ATOM     67  C   UNL A   1      43.453  35.588  32.784  1.00  0.00     0.060 A 
BRANCH  67  68
ATOM     68  S   UNL A   1      43.617  37.243  33.486  1.00  0.00     0.124 S 
ATOM     69  O   UNL A   1      42.512  37.261  34.439  1.00  0.00    -0.237 OA
ATOM     70  O   UNL A   1      44.954  37.208  34.067  1.00  0.00    -0.237 OA
ATOM     71  O   UNL A   1      43.462  38.119  32.329  1.00  0.00    -0.744 OA
ENDBRANCH  67  68
ENDBRANCH  46  60
BRANCH  47  72
ATOM     72  C   UNL A   1      42.783  23.834  27.776  1.00  0.00     0.058 A 
ATOM     73  C   UNL A   1      42.572  22.726  28.608  1.00  0.00     0.135 A 
ATOM     74  C   UNL A   1      42.870  23.608  26.393  1.00  0.00     0.135 A 
ATOM     75  F   UNL A   1      42.496  22.891  29.938  1.00  0.00    -0.206 F 
ATOM     76  C   UNL A   1      42.440  21.442  28.091  1.00  0.00     0.059 A 
ATOM     77  C   UNL A   1      42.721  22.336  25.850  1.00  0.00     0.059 A 
ATOM     78  F   UNL A   1      43.066  24.637  25.556  1.00  0.00    -0.206 F 
ATOM     79  C   UNL A   1      42.506  21.258  26.708  1.00  0.00     0.060 A 
BRANCH  79  80
ATOM     80  S   UNL A   1      42.241  19.600  26.042  1.00  0.00     0.124 S 
ATOM     81  O   UNL A   1      43.147  19.594  24.900  1.00  0.00    -0.237 OA
ATOM     82  O   UNL A   1      42.627  18.754  27.168  1.00  0.00    -0.237 OA
ATOM     83  O   UNL A   1      40.817  19.592  25.722  1.00  0.00    -0.744 OA
ENDBRANCH  79  80
ENDBRANCH  47  72
BRANCH  59  84
ATOM     84  C   UNL A   1      47.957  27.568  30.610  1.00  0.00     0.058 A 
ATOM     85  C   UNL A   1      48.957  27.948  29.702  1.00  0.00     0.135 A 
ATOM     86  C   UNL A   1      48.356  26.942  31.802  1.00  0.00     0.135 A 
ATOM     87  F   UNL A   1      48.628  28.543  28.545  1.00  0.00    -0.206 F 
ATOM     88  C   UNL A   1      50.302  27.700  29.959  1.00  0.00     0.059 A 
ATOM     89  C   UNL A   1      49.698  26.705  32.089  1.00  0.00     0.059 A 
ATOM     90  F   UNL A   1      47.440  26.567  32.709  1.00  0.00    -0.206 F 
ATOM     91  C   UNL A   1      50.663  27.079  31.156  1.00  0.00     0.060 A 
BRANCH  91  92
ATOM     92  S   UNL A   1      52.415  26.795  31.494  1.00  0.00     0.124 S 
ATOM     93  O   UNL A   1      52.403  26.574  32.936  1.00  0.00    -0.237 OA
ATOM     94  O   UNL A   1      52.706  25.622  30.675  1.00  0.00    -0.237 OA
ATOM     95  O   UNL A   1      53.050  28.032  31.053  1.00  0.00    -0.744 OA
ENDBRANCH  91  92
ENDBRANCH  59  84
ENDBRANCH  33  34
ENDBRANCH  26  28
ENDBRANCH  25  26
ENDBRANCH  24  25
ENDBRANCH  23  24
ENDBRANCH   1  23
TORSDOF 20
ENDMDL
MODEL 3
REMARK VINA RESULT:      -9.2      3.151      9.417
REMARK SMILES O=C(N[C@@H]1C=C[C@@H](C(=O)OCCOCCOC(=O)c2ccc(-c3c4nc(c(-c5c(F)cc(S(=O)(=O)[O-])cc5F)c5ccc([nH]5)c(-c5c(F)cc(S(=O)(=O)[O-])cc5F)c5nc(c(-c6c(F)cc(S(=O)(=O)[O-])cc6F)c6ccc3[nH]6)C=C5)C=C4)cc2)C1)Oc1ccccc1
REMARK SMILES IDX 13 1 12 2 11 3 10 4 8 5 9 6 7 7 4 8 5 9 85 10 6 11 3 12 1 13
REMARK SMILES IDX 2 14 86 16 87 17 88 18 92 19 89 20 91 21 90 22 14 23 15 24
REMARK SMILES IDX 16 25 17 26 18 27 19 28 20 29 84 30 21 31 83 32 22 33 23 34
REMARK SMILES IDX 24 35 77 36 25 37 82 38 76 39 78 40 26 41 81 42 75 43 74 44
REMARK SMILES IDX 27 46 61 47 40 48 60 49 41 50 44 51 59 52 79 53 42 54 43 55
REMARK SMILES IDX 58 57 80 58 45 59 28 60 29 61 38 62 30 63 31 64 37 65 39 66
REMARK SMILES IDX 32 67 33 68 34 69 35 70 36 71 62 72 63 73 72 74 64 75 65 76
REMARK SMILES IDX 71 77 73 78 66 79 67 80 68 81 69 82 70 83 46 84 47 85 56 86
REMARK SMILES IDX 48 87 49 88 55 89 57 90 50 91 51 92 52 93 53 94 54 95
REMARK H PARENT 3 15 78 45 44 56
REMARK Flexibility Score: inf
ROOT
ATOM      1  O   UNL A   1      36.513  34.812  33.061  1.00  0.00    -0.374 OA
ENDROOT
BRANCH   1   2
ATOM      2  C   UNL A   1      35.422  34.558  33.940  1.00  0.00     0.202 C 
BRANCH   2   3
ATOM      3  C   UNL A   1      34.396  35.682  34.138  1.00  0.00     0.261 C 
BRANCH   3   4
ATOM      4  O   UNL A   1      34.532  36.750  33.184  1.00  0.00    -0.463 OA
BRANCH   4   5
ATOM      5  C   UNL A   1      33.515  36.840  32.291  1.00  0.00     0.312 C 
ATOM      6  O   UNL A   1      32.487  37.489  32.470  1.00  0.00    -0.252 OA
BRANCH   5   7
ATOM      7  C   UNL A   1      33.787  36.142  30.972  1.00  0.00     0.124 C 
ATOM      8  C   UNL A   1      33.256  34.670  29.125  1.00  0.00     0.109 C 
ATOM      9  C   UNL A   1      32.911  36.078  28.795  1.00  0.00    -0.006 C 
ATOM     10  C   UNL A   1      33.337  34.715  30.670  1.00  0.00     0.049 C 
ATOM     11  C   UNL A   1      33.167  36.892  29.829  1.00  0.00    -0.014 C 
BRANCH   8  12
ATOM     12  N   UNL A   1      34.482  34.183  28.494  1.00  0.00    -0.315 N 
ATOM     13  O   UNL A   1      35.972  32.877  27.425  1.00  0.00    -0.224 OA
ATOM     14  C   UNL A   1      34.943  32.956  28.092  1.00  0.00     0.413 C 
ATOM     15  H   UNL A   1      35.127  34.905  28.315  1.00  0.00     0.167 HD
BRANCH  14  16
ATOM     16  O   UNL A   1      34.274  31.839  28.559  1.00  0.00    -0.410 OA
BRANCH  16  17
ATOM     17  C   UNL A   1      33.814  30.888  27.622  1.00  0.00     0.132 A 
ATOM     18  C   UNL A   1      34.558  29.705  27.580  1.00  0.00     0.047 A 
ATOM     19  C   UNL A   1      32.613  31.001  26.921  1.00  0.00     0.047 A 
ATOM     20  C   UNL A   1      34.033  28.583  26.941  1.00  0.00     0.004 A 
ATOM     21  C   UNL A   1      32.091  29.870  26.287  1.00  0.00     0.004 A 
ATOM     22  C   UNL A   1      32.786  28.658  26.324  1.00  0.00     0.000 A 
ENDBRANCH  16  17
ENDBRANCH  14  16
ENDBRANCH   8  12
ENDBRANCH   5   7
ENDBRANCH   4   5
ENDBRANCH   3   4
ENDBRANCH   2   3
ENDBRANCH   1   2
BRANCH   1  23
ATOM     23  C   UNL A   1      36.698  33.940  31.944  1.00  0.00     0.202 C 
BRANCH  23  24
ATOM     24  C   UNL A   1      36.664  32.425  32.196  1.00  0.00     0.261 C 
BRANCH  24  25
ATOM     25  O   UNL A   1      36.343  31.673  31.008  1.00  0.00    -0.460 OA
BRANCH  25  26
ATOM     26  C   UNL A   1      36.811  30.404  30.985  1.00  0.00     0.338 C 
ATOM     27  O   UNL A   1      36.155  29.375  31.133  1.00  0.00    -0.246 OA
BRANCH  26  28
ATOM     28  C   UNL A   1      38.218  30.378  30.558  1.00  0.00     0.060 A 
ATOM     29  C   UNL A   1      38.492  30.420  29.184  1.00  0.00     0.016 A 
ATOM     30  C   UNL A   1      39.248  30.191  31.482  1.00  0.00     0.016 A 
ATOM     31  C   UNL A   1      39.796  30.238  28.726  1.00  0.00     0.010 A 
ATOM     32  C   UNL A   1      40.554  29.992  31.017  1.00  0.00     0.010 A 
ATOM     33  C   UNL A   1      40.827  29.980  29.638  1.00  0.00    -0.014 A 
BRANCH  33  34
ATOM     34  C   UNL A   1      42.155  29.546  29.136  1.00  0.00     0.031 A 
ATOM     35  C   UNL A   1      42.328  28.128  28.663  1.00  0.00     0.074 A 
ATOM     36  C   UNL A   1      43.182  30.409  29.071  1.00  0.00     0.049 A 
ATOM     37  N   UNL A   1      43.394  27.532  28.195  1.00  0.00    -0.248 NA
ATOM     38  C   UNL A   1      41.136  27.268  28.726  1.00  0.00     0.031 C 
ATOM     39  C   UNL A   1      43.125  31.819  29.450  1.00  0.00     0.029 A 
ATOM     40  N   UNL A   1      44.478  30.221  28.659  1.00  0.00    -0.354 N 
ATOM     41  C   UNL A   1      43.006  26.229  27.910  1.00  0.00     0.074 A 
ATOM     42  C   UNL A   1      41.613  26.113  28.287  1.00  0.00     0.031 C 
ATOM     43  C   UNL A   1      44.335  32.372  29.251  1.00  0.00     0.029 A 
ATOM     44  C   UNL A   1      45.257  31.348  28.761  1.00  0.00     0.049 A 
ATOM     45  H   UNL A   1      44.817  29.361  28.321  1.00  0.00     0.167 HD
ATOM     46  C   UNL A   1      43.739  25.221  27.378  1.00  0.00     0.037 A 
ATOM     47  C   UNL A   1      46.567  31.529  28.503  1.00  0.00     0.037 A 
ATOM     48  C   UNL A   1      45.128  25.337  27.017  1.00  0.00     0.049 A 
ATOM     49  C   UNL A   1      47.388  30.373  27.995  1.00  0.00     0.074 A 
ATOM     50  C   UNL A   1      45.957  24.380  26.458  1.00  0.00     0.029 A 
ATOM     51  N   UNL A   1      45.898  26.478  27.194  1.00  0.00    -0.354 N 
ATOM     52  N   UNL A   1      47.005  29.150  27.714  1.00  0.00    -0.248 NA
ATOM     53  C   UNL A   1      48.818  30.621  27.772  1.00  0.00     0.031 C 
ATOM     54  C   UNL A   1      47.241  24.927  26.343  1.00  0.00     0.029 A 
ATOM     55  C   UNL A   1      47.200  26.241  26.785  1.00  0.00     0.049 A 
ATOM     56  H   UNL A   1      45.568  27.331  27.557  1.00  0.00     0.167 HD
ATOM     57  C   UNL A   1      48.141  28.490  27.256  1.00  0.00     0.074 A 
ATOM     58  C   UNL A   1      49.225  29.451  27.296  1.00  0.00     0.031 C 
ATOM     59  C   UNL A   1      48.272  27.207  26.834  1.00  0.00     0.037 A 
BRANCH  46  60
ATOM     60  C   UNL A   1      43.050  23.896  27.200  1.00  0.00     0.058 A 
ATOM     61  C   UNL A   1      42.911  22.986  28.261  1.00  0.00     0.135 A 
ATOM     62  C   UNL A   1      42.549  23.519  25.944  1.00  0.00     0.135 A 
ATOM     63  F   UNL A   1      43.385  23.290  29.480  1.00  0.00    -0.206 F 
ATOM     64  C   UNL A   1      42.346  21.729  28.070  1.00  0.00     0.059 A 
ATOM     65  C   UNL A   1      41.957  22.276  25.737  1.00  0.00     0.059 A 
ATOM     66  F   UNL A   1      42.654  24.351  24.896  1.00  0.00    -0.206 F 
ATOM     67  C   UNL A   1      41.884  21.378  26.800  1.00  0.00     0.060 A 
BRANCH  67  68
ATOM     68  S   UNL A   1      41.206  19.723  26.550  1.00  0.00     0.124 S 
ATOM     69  O   UNL A   1      41.076  19.255  27.926  1.00  0.00    -0.237 OA
ATOM     70  O   UNL A   1      39.955  19.997  25.852  1.00  0.00    -0.237 OA
ATOM     71  O   UNL A   1      42.231  19.054  25.755  1.00  0.00    -0.744 OA
ENDBRANCH  67  68
ENDBRANCH  46  60
BRANCH  47  72
ATOM     72  C   UNL A   1      47.177  32.868  28.709  1.00  0.00     0.058 A 
ATOM     73  C   UNL A   1      47.765  33.209  29.934  1.00  0.00     0.135 A 
ATOM     74  C   UNL A   1      47.221  33.815  27.674  1.00  0.00     0.135 A 
ATOM     75  F   UNL A   1      47.735  32.341  30.957  1.00  0.00    -0.206 F 
ATOM     76  C   UNL A   1      48.386  34.439  30.126  1.00  0.00     0.059 A 
ATOM     77  C   UNL A   1      47.853  35.044  27.834  1.00  0.00     0.059 A 
ATOM     78  F   UNL A   1      46.676  33.533  26.481  1.00  0.00    -0.206 F 
ATOM     79  C   UNL A   1      48.433  35.347  29.066  1.00  0.00     0.060 A 
BRANCH  79  80
ATOM     80  S   UNL A   1      49.322  36.902  29.299  1.00  0.00     0.124 S 
ATOM     81  O   UNL A   1      48.585  37.498  30.408  1.00  0.00    -0.237 OA
ATOM     82  O   UNL A   1      50.672  36.440  29.604  1.00  0.00    -0.237 OA
ATOM     83  O   UNL A   1      49.173  37.569  28.008  1.00  0.00    -0.744 OA
ENDBRANCH  79  80
ENDBRANCH  47  72
BRANCH  59  84
ATOM     84  C   UNL A   1      49.630  26.770  26.356  1.00  0.00     0.058 A 
ATOM     85  C   UNL A   1      50.536  26.117  27.205  1.00  0.00     0.135 A 
ATOM     86  C   UNL A   1      50.006  26.960  25.016  1.00  0.00     0.135 A 
ATOM     87  F   UNL A   1      50.228  25.917  28.496  1.00  0.00    -0.206 F 
ATOM     88  C   UNL A   1      51.777  25.684  26.747  1.00  0.00     0.059 A 
ATOM     89  C   UNL A   1      51.233  26.514  24.532  1.00  0.00     0.059 A 
ATOM     90  F   UNL A   1      49.172  27.570  24.159  1.00  0.00    -0.206 F 
ATOM     91  C   UNL A   1      52.116  25.886  25.408  1.00  0.00     0.060 A 
BRANCH  91  92
ATOM     92  S   UNL A   1      53.715  25.289  24.817  1.00  0.00     0.124 S 
ATOM     93  O   UNL A   1      53.791  25.911  23.499  1.00  0.00    -0.237 OA
ATOM     94  O   UNL A   1      54.636  25.813  25.820  1.00  0.00    -0.237 OA
ATOM     95  O   UNL A   1      53.556  23.838  24.819  1.00  0.00    -0.744 OA
ENDBRANCH  91  92
ENDBRANCH  59  84
ENDBRANCH  33  34
ENDBRANCH  26  28
ENDBRANCH  25  26
ENDBRANCH  24  25
ENDBRANCH  23  24
ENDBRANCH   1  23
TORSDOF 20
ENDMDL
