MODEL 1
REMARK VINA RESULT:     -10.6      0.000      0.000
REMARK SMILES O=C(OCCOCCOC(=O)[C@@H]1C[C@@H]1C(=O)N1CC2(CCCC2)c2c(F)cccc21)c1ccc(-c2c3nc(c(-c4c(F)cc(S(=O)(=O)[O-])cc4F)c4ccc([nH]4)c(-c4c(F)cc(S(=O)(=O)[O-])cc4F)c4nc(c(-c5c(F)cc(S(=O)(=O)[O-])cc5F)c5ccc2[nH]5)C=C4)C=C3)cc1
REMARK SMILES IDX 5 1 4 2 3 3 2 4 1 5 31 6 32 7 96 8 33 9 95 10 34 11 35 12
REMARK SMILES IDX 36 13 89 14 37 15 94 16 88 17 90 18 38 19 93 20 87 21 86 22
REMARK SMILES IDX 39 24 73 25 52 26 72 27 53 28 56 29 71 30 91 31 54 32 55 33
REMARK SMILES IDX 70 35 92 36 57 37 40 38 41 39 50 40 42 41 43 42 49 43 51 44
REMARK SMILES IDX 44 45 45 46 46 47 47 48 48 49 74 50 75 51 84 52 76 53 77 54
REMARK SMILES IDX 83 55 85 56 78 57 79 58 80 59 81 60 82 61 58 62 59 63 68 64
REMARK SMILES IDX 60 65 61 66 67 67 69 68 62 69 63 70 64 71 65 72 66 73 6 74
REMARK SMILES IDX 7 75 8 76 9 77 10 78 11 79 12 80 13 81 14 82 15 83 16 84
REMARK SMILES IDX 17 85 18 86 30 87 19 88 24 89 29 90 20 91 23 92 25 93 28 94
REMARK SMILES IDX 21 95 22 96 26 97 27 98
REMARK H PARENT 90 23 56 34
REMARK Flexibility Score: inf
ROOT
ATOM      1  C   UNL A   1      35.738  32.142  27.896  1.00  0.00     0.202 C 
ENDROOT
BRANCH   1   2
ATOM      2  C   UNL A   1      35.013  31.093  28.776  1.00  0.00     0.261 C 
BRANCH   2   3
ATOM      3  O   UNL A   1      35.843  29.951  29.066  1.00  0.00    -0.460 OA
BRANCH   3   4
ATOM      4  C   UNL A   1      36.682  29.798  30.118  1.00  0.00     0.338 C 
ATOM      5  O   UNL A   1      36.213  29.773  31.254  1.00  0.00    -0.246 OA
BRANCH   4   6
ATOM      6  C   UNL A   1      38.165  29.762  29.944  1.00  0.00     0.060 A 
ATOM      7  C   UNL A   1      38.791  29.860  28.708  1.00  0.00     0.016 A 
ATOM      8  C   UNL A   1      38.985  29.671  31.078  1.00  0.00     0.016 A 
ATOM      9  C   UNL A   1      40.147  29.888  28.553  1.00  0.00     0.010 A 
ATOM     10  C   UNL A   1      40.380  29.616  30.941  1.00  0.00     0.010 A 
ATOM     11  C   UNL A   1      40.942  29.697  29.664  1.00  0.00    -0.014 A 
BRANCH  11  12
ATOM     12  C   UNL A   1      42.300  29.310  29.296  1.00  0.00     0.031 A 
ATOM     13  C   UNL A   1      42.467  27.925  28.743  1.00  0.00     0.074 A 
ATOM     14  C   UNL A   1      43.199  30.287  29.093  1.00  0.00     0.049 A 
ATOM     15  N   UNL A   1      43.509  27.384  28.184  1.00  0.00    -0.248 NA
ATOM     16  C   UNL A   1      41.272  27.052  28.754  1.00  0.00     0.031 C 
ATOM     17  C   UNL A   1      42.968  31.713  29.356  1.00  0.00     0.029 A 
ATOM     18  N   UNL A   1      44.452  30.242  28.559  1.00  0.00    -0.354 N 
ATOM     19  C   UNL A   1      43.106  26.113  27.797  1.00  0.00     0.074 A 
ATOM     20  C   UNL A   1      41.717  25.962  28.149  1.00  0.00     0.031 C 
ATOM     21  C   UNL A   1      44.065  32.403  29.004  1.00  0.00     0.029 A 
ATOM     22  C   UNL A   1      45.082  31.462  28.549  1.00  0.00     0.049 A 
ATOM     23  H   UNL A   1      44.865  29.417  28.215  1.00  0.00     0.167 HD
ATOM     24  C   UNL A   1      43.857  25.157  27.214  1.00  0.00     0.037 A 
ATOM     25  C   UNL A   1      46.362  31.752  28.259  1.00  0.00     0.037 A 
ATOM     26  C   UNL A   1      45.240  25.358  26.892  1.00  0.00     0.049 A 
ATOM     27  C   UNL A   1      47.235  30.616  27.798  1.00  0.00     0.074 A 
ATOM     28  C   UNL A   1      46.147  24.451  26.386  1.00  0.00     0.029 A 
ATOM     29  N   UNL A   1      45.915  26.560  27.063  1.00  0.00    -0.354 N 
ATOM     30  N   UNL A   1      46.890  29.379  27.519  1.00  0.00    -0.248 NA
ATOM     31  C   UNL A   1      48.664  30.896  27.634  1.00  0.00     0.031 C 
ATOM     32  C   UNL A   1      47.389  25.085  26.317  1.00  0.00     0.029 A 
ATOM     33  C   UNL A   1      47.242  26.406  26.721  1.00  0.00     0.049 A 
ATOM     34  H   UNL A   1      45.506  27.398  27.381  1.00  0.00     0.167 HD
ATOM     35  C   UNL A   1      48.059  28.729  27.149  1.00  0.00     0.074 A 
ATOM     36  C   UNL A   1      49.115  29.723  27.209  1.00  0.00     0.031 C 
ATOM     37  C   UNL A   1      48.252  27.433  26.802  1.00  0.00     0.037 A 
BRANCH  24  38
ATOM     38  C   UNL A   1      43.245  23.806  27.003  1.00  0.00     0.058 A 
ATOM     39  C   UNL A   1      42.854  23.345  25.738  1.00  0.00     0.135 A 
ATOM     40  C   UNL A   1      43.096  22.937  28.096  1.00  0.00     0.135 A 
ATOM     41  F   UNL A   1      42.930  24.153  24.669  1.00  0.00    -0.206 F 
ATOM     42  C   UNL A   1      42.358  22.056  25.560  1.00  0.00     0.059 A 
ATOM     43  C   UNL A   1      42.623  21.640  27.939  1.00  0.00     0.059 A 
ATOM     44  F   UNL A   1      43.424  23.346  29.332  1.00  0.00    -0.206 F 
ATOM     45  C   UNL A   1      42.262  21.206  26.666  1.00  0.00     0.060 A 
BRANCH  45  46
ATOM     46  S   UNL A   1      41.684  19.515  26.408  1.00  0.00     0.124 S 
ATOM     47  O   UNL A   1      42.136  18.858  27.630  1.00  0.00    -0.237 OA
ATOM     48  O   UNL A   1      40.241  19.701  26.284  1.00  0.00    -0.237 OA
ATOM     49  O   UNL A   1      42.368  19.103  25.186  1.00  0.00    -0.744 OA
ENDBRANCH  45  46
ENDBRANCH  24  38
BRANCH  25  50
ATOM     50  C   UNL A   1      46.893  33.116  28.516  1.00  0.00     0.058 A 
ATOM     51  C   UNL A   1      47.370  33.504  29.774  1.00  0.00     0.135 A 
ATOM     52  C   UNL A   1      46.928  34.074  27.485  1.00  0.00     0.135 A 
ATOM     53  F   UNL A   1      47.354  32.635  30.796  1.00  0.00    -0.206 F 
ATOM     54  C   UNL A   1      47.851  34.791  30.006  1.00  0.00     0.059 A 
ATOM     55  C   UNL A   1      47.430  35.354  27.683  1.00  0.00     0.059 A 
ATOM     56  F   UNL A   1      46.485  33.759  26.256  1.00  0.00    -0.206 F 
ATOM     57  C   UNL A   1      47.879  35.708  28.951  1.00  0.00     0.060 A 
BRANCH  57  58
ATOM     58  S   UNL A   1      48.517  37.369  29.257  1.00  0.00     0.124 S 
ATOM     59  O   UNL A   1      49.334  37.156  30.446  1.00  0.00    -0.237 OA
ATOM     60  O   UNL A   1      49.245  37.646  28.022  1.00  0.00    -0.237 OA
ATOM     61  O   UNL A   1      47.309  38.165  29.457  1.00  0.00    -0.744 OA
ENDBRANCH  57  58
ENDBRANCH  25  50
BRANCH  37  62
ATOM     62  C   UNL A   1      49.653  27.012  26.479  1.00  0.00     0.058 A 
ATOM     63  C   UNL A   1      50.488  26.467  27.465  1.00  0.00     0.135 A 
ATOM     64  C   UNL A   1      50.116  27.040  25.154  1.00  0.00     0.135 A 
ATOM     65  F   UNL A   1      50.087  26.426  28.745  1.00  0.00    -0.206 F 
ATOM     66  C   UNL A   1      51.740  25.963  27.147  1.00  0.00     0.059 A 
ATOM     67  C   UNL A   1      51.352  26.511  24.809  1.00  0.00     0.059 A 
ATOM     68  F   UNL A   1      49.341  27.538  24.176  1.00  0.00    -0.206 F 
ATOM     69  C   UNL A   1      52.158  25.977  25.814  1.00  0.00     0.060 A 
BRANCH  69  70
ATOM     70  S   UNL A   1      53.759  25.251  25.412  1.00  0.00     0.124 S 
ATOM     71  O   UNL A   1      54.583  25.728  26.517  1.00  0.00    -0.237 OA
ATOM     72  O   UNL A   1      53.458  23.823  25.414  1.00  0.00    -0.237 OA
ATOM     73  O   UNL A   1      54.072  25.820  24.106  1.00  0.00    -0.744 OA
ENDBRANCH  69  70
ENDBRANCH  37  62
ENDBRANCH  11  12
ENDBRANCH   4   6
ENDBRANCH   3   4
ENDBRANCH   2   3
ENDBRANCH   1   2
BRANCH   1  74
ATOM     74  O   UNL A   1      35.041  33.338  27.523  1.00  0.00    -0.374 OA
BRANCH  74  75
ATOM     75  C   UNL A   1      34.862  34.328  28.536  1.00  0.00     0.202 C 
BRANCH  75  76
ATOM     76  C   UNL A   1      33.399  34.686  28.763  1.00  0.00     0.261 C 
BRANCH  76  77
ATOM     77  O   UNL A   1      33.074  34.602  30.164  1.00  0.00    -0.463 OA
BRANCH  77  78
ATOM     78  C   UNL A   1      33.250  35.761  30.858  1.00  0.00     0.309 C 
ATOM     79  O   UNL A   1      33.295  36.880  30.382  1.00  0.00    -0.252 OA
BRANCH  78  80
ATOM     80  C   UNL A   1      33.472  35.565  32.311  1.00  0.00     0.112 C 
ATOM     81  C   UNL A   1      34.822  35.787  32.942  1.00  0.00     0.030 C 
ATOM     82  C   UNL A   1      34.179  34.430  33.032  1.00  0.00     0.094 C 
BRANCH  82  83
ATOM     83  C   UNL A   1      34.795  33.220  32.425  1.00  0.00     0.231 C 
ATOM     84  O   UNL A   1      34.112  32.531  31.677  1.00  0.00    -0.274 OA
BRANCH  83  85
ATOM     85  N   UNL A   1      36.030  32.832  32.906  1.00  0.00    -0.311 N 
ATOM     86  C   UNL A   1      36.447  32.960  34.319  1.00  0.00     0.137 C 
ATOM     87  C   UNL A   1      37.191  33.018  32.133  1.00  0.00     0.050 A 
ATOM     88  C   UNL A   1      37.986  32.705  34.378  1.00  0.00     0.018 C 
ATOM     89  C   UNL A   1      38.335  32.919  32.926  1.00  0.00     0.020 A 
ATOM     90  C   UNL A   1      37.261  33.359  30.790  1.00  0.00     0.027 A 
ATOM     91  C   UNL A   1      38.697  33.674  35.350  1.00  0.00     0.014 C 
ATOM     92  C   UNL A   1      38.352  31.286  34.870  1.00  0.00     0.014 C 
ATOM     93  C   UNL A   1      39.579  33.062  32.336  1.00  0.00     0.129 A 
ATOM     94  C   UNL A   1      38.516  33.548  30.214  1.00  0.00     0.005 A 
ATOM     95  C   UNL A   1      39.026  32.833  36.575  1.00  0.00     0.001 C 
ATOM     96  C   UNL A   1      39.386  31.487  35.977  1.00  0.00     0.001 C 
ATOM     97  F   UNL A   1      40.698  32.913  33.056  1.00  0.00    -0.207 F 
ATOM     98  C   UNL A   1      39.675  33.377  30.982  1.00  0.00     0.040 A 
ENDBRANCH  83  85
ENDBRANCH  82  83
ENDBRANCH  78  80
ENDBRANCH  77  78
ENDBRANCH  76  77
ENDBRANCH  75  76
ENDBRANCH  74  75
ENDBRANCH   1  74
TORSDOF 19
ENDMDL
MODEL 2
REMARK VINA RESULT:     -10.5      5.307     11.288
REMARK SMILES O=C(OCCOCCOC(=O)[C@@H]1C[C@@H]1C(=O)N1CC2(CCCC2)c2c(F)cccc21)c1ccc(-c2c3nc(c(-c4c(F)cc(S(=O)(=O)[O-])cc4F)c4ccc([nH]4)c(-c4c(F)cc(S(=O)(=O)[O-])cc4F)c4nc(c(-c5c(F)cc(S(=O)(=O)[O-])cc5F)c5ccc2[nH]5)C=C4)C=C3)cc1
REMARK SMILES IDX 5 1 4 2 3 3 2 4 1 5 31 6 32 7 96 8 33 9 95 10 34 11 35 12
REMARK SMILES IDX 36 13 89 14 37 15 94 16 88 17 90 18 38 19 93 20 87 21 86 22
REMARK SMILES IDX 39 24 73 25 52 26 72 27 53 28 56 29 71 30 91 31 54 32 55 33
REMARK SMILES IDX 70 35 92 36 57 37 40 38 41 39 50 40 42 41 43 42 49 43 51 44
REMARK SMILES IDX 44 45 45 46 46 47 47 48 48 49 74 50 75 51 84 52 76 53 77 54
REMARK SMILES IDX 83 55 85 56 78 57 79 58 80 59 81 60 82 61 58 62 59 63 68 64
REMARK SMILES IDX 60 65 61 66 67 67 69 68 62 69 63 70 64 71 65 72 66 73 6 74
REMARK SMILES IDX 7 75 8 76 9 77 10 78 11 79 12 80 13 81 14 82 15 83 16 84
REMARK SMILES IDX 17 85 18 86 30 87 19 88 24 89 29 90 20 91 23 92 25 93 28 94
REMARK SMILES IDX 21 95 22 96 26 97 27 98
REMARK H PARENT 90 23 56 34
REMARK Flexibility Score: inf
ROOT
ATOM      1  C   UNL A   1      36.125  21.083  25.335  1.00  0.00     0.202 C 
ENDROOT
BRANCH   1   2
ATOM      2  C   UNL A   1      37.569  21.417  24.885  1.00  0.00     0.261 C 
BRANCH   2   3
ATOM      3  O   UNL A   1      38.027  22.682  25.402  1.00  0.00    -0.460 OA
BRANCH   3   4
ATOM      4  C   UNL A   1      39.149  22.911  26.125  1.00  0.00     0.338 C 
ATOM      5  O   UNL A   1      39.935  21.985  26.312  1.00  0.00    -0.246 OA
BRANCH   4   6
ATOM      6  C   UNL A   1      39.407  24.226  26.785  1.00  0.00     0.060 A 
ATOM      7  C   UNL A   1      40.161  25.237  26.204  1.00  0.00     0.016 A 
ATOM      8  C   UNL A   1      38.828  24.490  28.035  1.00  0.00     0.016 A 
ATOM      9  C   UNL A   1      40.347  26.461  26.779  1.00  0.00     0.010 A 
ATOM     10  C   UNL A   1      39.070  25.708  28.685  1.00  0.00     0.010 A 
ATOM     11  C   UNL A   1      39.858  26.673  28.052  1.00  0.00    -0.014 A 
BRANCH  11  12
ATOM     12  C   UNL A   1      40.498  27.817  28.693  1.00  0.00     0.031 A 
ATOM     13  C   UNL A   1      39.611  28.990  28.992  1.00  0.00     0.074 A 
ATOM     14  C   UNL A   1      41.669  27.613  29.318  1.00  0.00     0.049 A 
ATOM     15  N   UNL A   1      39.865  30.052  29.698  1.00  0.00    -0.248 NA
ATOM     16  C   UNL A   1      38.221  28.923  28.487  1.00  0.00     0.031 C 
ATOM     17  C   UNL A   1      42.437  26.362  29.284  1.00  0.00     0.029 A 
ATOM     18  N   UNL A   1      42.381  28.422  30.154  1.00  0.00    -0.354 N 
ATOM     19  C   UNL A   1      38.684  30.783  29.707  1.00  0.00     0.074 A 
ATOM     20  C   UNL A   1      37.696  30.039  28.968  1.00  0.00     0.031 C 
ATOM     21  C   UNL A   1      43.532  26.503  30.047  1.00  0.00     0.029 A 
ATOM     22  C   UNL A   1      43.564  27.864  30.570  1.00  0.00     0.049 A 
ATOM     23  H   UNL A   1      42.077  29.316  30.431  1.00  0.00     0.167 HD
ATOM     24  C   UNL A   1      38.470  31.987  30.275  1.00  0.00     0.037 A 
ATOM     25  C   UNL A   1      44.576  28.433  31.248  1.00  0.00     0.037 A 
ATOM     26  C   UNL A   1      39.494  32.689  30.994  1.00  0.00     0.049 A 
ATOM     27  C   UNL A   1      44.384  29.856  31.700  1.00  0.00     0.074 A 
ATOM     28  C   UNL A   1      39.447  33.953  31.543  1.00  0.00     0.029 A 
ATOM     29  N   UNL A   1      40.760  32.177  31.249  1.00  0.00    -0.354 N 
ATOM     30  N   UNL A   1      43.302  30.598  31.630  1.00  0.00    -0.248 NA
ATOM     31  C   UNL A   1      45.541  30.528  32.297  1.00  0.00     0.031 C 
ATOM     32  C   UNL A   1      40.710  34.234  32.068  1.00  0.00     0.029 A 
ATOM     33  C   UNL A   1      41.524  33.121  31.903  1.00  0.00     0.049 A 
ATOM     34  H   UNL A   1      41.066  31.274  31.000  1.00  0.00     0.167 HD
ATOM     35  C   UNL A   1      43.647  31.829  32.171  1.00  0.00     0.074 A 
ATOM     36  C   UNL A   1      45.031  31.717  32.594  1.00  0.00     0.031 C 
ATOM     37  C   UNL A   1      42.901  32.953  32.299  1.00  0.00     0.037 A 
BRANCH  24  38
ATOM     38  C   UNL A   1      37.148  32.653  30.047  1.00  0.00     0.058 A 
ATOM     39  C   UNL A   1      36.055  32.473  30.905  1.00  0.00     0.135 A 
ATOM     40  C   UNL A   1      36.997  33.533  28.963  1.00  0.00     0.135 A 
ATOM     41  F   UNL A   1      36.130  31.605  31.927  1.00  0.00    -0.206 F 
ATOM     42  C   UNL A   1      34.861  33.164  30.710  1.00  0.00     0.059 A 
ATOM     43  C   UNL A   1      35.823  34.250  28.761  1.00  0.00     0.059 A 
ATOM     44  F   UNL A   1      38.004  33.712  28.094  1.00  0.00    -0.206 F 
ATOM     45  C   UNL A   1      34.762  34.062  29.644  1.00  0.00     0.060 A 
BRANCH  45  46
ATOM     46  S   UNL A   1      33.234  35.003  29.447  1.00  0.00     0.124 S 
ATOM     47  O   UNL A   1      32.533  34.220  28.435  1.00  0.00    -0.237 OA
ATOM     48  O   UNL A   1      32.668  34.953  30.792  1.00  0.00    -0.237 OA
ATOM     49  O   UNL A   1      33.695  36.317  29.012  1.00  0.00    -0.744 OA
ENDBRANCH  45  46
ENDBRANCH  24  38
BRANCH  25  50
ATOM     50  C   UNL A   1      45.862  27.707  31.414  1.00  0.00     0.058 A 
ATOM     51  C   UNL A   1      46.124  26.901  32.529  1.00  0.00     0.135 A 
ATOM     52  C   UNL A   1      46.873  27.815  30.440  1.00  0.00     0.135 A 
ATOM     53  F   UNL A   1      45.200  26.768  33.493  1.00  0.00    -0.206 F 
ATOM     54  C   UNL A   1      47.340  26.238  32.680  1.00  0.00     0.059 A 
ATOM     55  C   UNL A   1      48.082  27.140  30.553  1.00  0.00     0.059 A 
ATOM     56  F   UNL A   1      46.680  28.572  29.348  1.00  0.00    -0.206 F 
ATOM     57  C   UNL A   1      48.312  26.363  31.684  1.00  0.00     0.060 A 
BRANCH  57  58
ATOM     58  S   UNL A   1      49.880  25.489  31.881  1.00  0.00     0.124 S 
ATOM     59  O   UNL A   1      49.552  24.530  32.930  1.00  0.00    -0.237 OA
ATOM     60  O   UNL A   1      50.086  24.932  30.548  1.00  0.00    -0.237 OA
ATOM     61  O   UNL A   1      50.811  26.546  32.263  1.00  0.00    -0.744 OA
ENDBRANCH  57  58
ENDBRANCH  25  50
BRANCH  37  62
ATOM     62  C   UNL A   1      43.568  34.152  32.904  1.00  0.00     0.058 A 
ATOM     63  C   UNL A   1      43.583  34.345  34.292  1.00  0.00     0.135 A 
ATOM     64  C   UNL A   1      44.299  35.040  32.099  1.00  0.00     0.135 A 
ATOM     65  F   UNL A   1      42.893  33.522  35.097  1.00  0.00    -0.206 F 
ATOM     66  C   UNL A   1      44.301  35.384  34.865  1.00  0.00     0.059 A 
ATOM     67  C   UNL A   1      45.051  36.066  32.654  1.00  0.00     0.059 A 
ATOM     68  F   UNL A   1      44.325  34.880  30.765  1.00  0.00    -0.206 F 
ATOM     69  C   UNL A   1      45.043  36.231  34.038  1.00  0.00     0.060 A 
BRANCH  69  70
ATOM     70  S   UNL A   1      46.028  37.530  34.809  1.00  0.00     0.124 S 
ATOM     71  O   UNL A   1      47.377  36.985  34.691  1.00  0.00    -0.237 OA
ATOM     72  O   UNL A   1      45.733  38.682  33.963  1.00  0.00    -0.237 OA
ATOM     73  O   UNL A   1      45.498  37.601  36.166  1.00  0.00    -0.744 OA
ENDBRANCH  69  70
ENDBRANCH  37  62
ENDBRANCH  11  12
ENDBRANCH   4   6
ENDBRANCH   3   4
ENDBRANCH   2   3
ENDBRANCH   1   2
BRANCH   1  74
ATOM     74  O   UNL A   1      35.583  19.791  25.032  1.00  0.00    -0.374 OA
BRANCH  74  75
ATOM     75  C   UNL A   1      34.202  19.733  24.674  1.00  0.00     0.202 C 
BRANCH  75  76
ATOM     76  C   UNL A   1      33.291  20.350  25.728  1.00  0.00     0.261 C 
BRANCH  76  77
ATOM     77  O   UNL A   1      31.965  20.535  25.197  1.00  0.00    -0.463 OA
BRANCH  77  78
ATOM     78  C   UNL A   1      31.707  21.793  24.740  1.00  0.00     0.309 C 
ATOM     79  O   UNL A   1      31.938  22.209  23.620  1.00  0.00    -0.252 OA
BRANCH  78  80
ATOM     80  C   UNL A   1      31.160  22.707  25.772  1.00  0.00     0.112 C 
ATOM     81  C   UNL A   1      30.769  24.125  25.445  1.00  0.00     0.030 C 
ATOM     82  C   UNL A   1      31.831  23.871  26.479  1.00  0.00     0.094 C 
BRANCH  82  83
ATOM     83  C   UNL A   1      33.231  24.345  26.310  1.00  0.00     0.231 C 
ATOM     84  O   UNL A   1      34.144  23.579  26.591  1.00  0.00    -0.274 OA
BRANCH  83  85
ATOM     85  N   UNL A   1      33.415  25.689  26.046  1.00  0.00    -0.311 N 
ATOM     86  C   UNL A   1      32.782  26.779  26.818  1.00  0.00     0.137 C 
ATOM     87  C   UNL A   1      33.517  26.151  24.720  1.00  0.00     0.050 A 
ATOM     88  C   UNL A   1      32.994  28.103  26.018  1.00  0.00     0.018 C 
ATOM     89  C   UNL A   1      33.319  27.530  24.660  1.00  0.00     0.020 A 
ATOM     90  C   UNL A   1      33.685  25.387  23.575  1.00  0.00     0.027 A 
ATOM     91  C   UNL A   1      31.737  29.002  26.042  1.00  0.00     0.014 C 
ATOM     92  C   UNL A   1      34.137  28.979  26.578  1.00  0.00     0.014 C 
ATOM     93  C   UNL A   1      33.395  28.171  23.436  1.00  0.00     0.129 A 
ATOM     94  C   UNL A   1      33.713  26.033  22.340  1.00  0.00     0.005 A 
ATOM     95  C   UNL A   1      32.076  30.129  27.007  1.00  0.00     0.001 C 
ATOM     96  C   UNL A   1      33.547  30.380  26.733  1.00  0.00     0.001 C 
ATOM     97  F   UNL A   1      33.270  29.501  23.351  1.00  0.00    -0.207 F 
ATOM     98  C   UNL A   1      33.591  27.428  22.273  1.00  0.00     0.040 A 
ENDBRANCH  83  85
ENDBRANCH  82  83
ENDBRANCH  78  80
ENDBRANCH  77  78
ENDBRANCH  76  77
ENDBRANCH  75  76
ENDBRANCH  74  75
ENDBRANCH   1  74
TORSDOF 19
ENDMDL
MODEL 3
REMARK VINA RESULT:     -10.4      6.609     12.871
REMARK SMILES O=C(OCCOCCOC(=O)[C@@H]1C[C@@H]1C(=O)N1CC2(CCCC2)c2c(F)cccc21)c1ccc(-c2c3nc(c(-c4c(F)cc(S(=O)(=O)[O-])cc4F)c4ccc([nH]4)c(-c4c(F)cc(S(=O)(=O)[O-])cc4F)c4nc(c(-c5c(F)cc(S(=O)(=O)[O-])cc5F)c5ccc2[nH]5)C=C4)C=C3)cc1
REMARK SMILES IDX 5 1 4 2 3 3 2 4 1 5 31 6 32 7 96 8 33 9 95 10 34 11 35 12
REMARK SMILES IDX 36 13 89 14 37 15 94 16 88 17 90 18 38 19 93 20 87 21 86 22
REMARK SMILES IDX 39 24 73 25 52 26 72 27 53 28 56 29 71 30 91 31 54 32 55 33
REMARK SMILES IDX 70 35 92 36 57 37 40 38 41 39 50 40 42 41 43 42 49 43 51 44
REMARK SMILES IDX 44 45 45 46 46 47 47 48 48 49 74 50 75 51 84 52 76 53 77 54
REMARK SMILES IDX 83 55 85 56 78 57 79 58 80 59 81 60 82 61 58 62 59 63 68 64
REMARK SMILES IDX 60 65 61 66 67 67 69 68 62 69 63 70 64 71 65 72 66 73 6 74
REMARK SMILES IDX 7 75 8 76 9 77 10 78 11 79 12 80 13 81 14 82 15 83 16 84
REMARK SMILES IDX 17 85 18 86 30 87 19 88 24 89 29 90 20 91 23 92 25 93 28 94
REMARK SMILES IDX 21 95 22 96 26 97 27 98
REMARK H PARENT 90 23 56 34
REMARK Flexibility Score: inf
ROOT
ATOM      1  C   UNL A   1      38.056  24.064  26.170  1.00  0.00     0.202 C 
ENDROOT
BRANCH   1   2
ATOM      2  C   UNL A   1      39.309  23.242  26.565  1.00  0.00     0.261 C 
BRANCH   2   3
ATOM      3  O   UNL A   1      40.523  24.015  26.477  1.00  0.00    -0.460 OA
BRANCH   3   4
ATOM      4  C   UNL A   1      40.635  25.365  26.500  1.00  0.00     0.338 C 
ATOM      5  O   UNL A   1      40.783  25.967  25.439  1.00  0.00    -0.246 OA
BRANCH   4   6
ATOM      6  C   UNL A   1      40.688  26.129  27.782  1.00  0.00     0.060 A 
ATOM      7  C   UNL A   1      39.711  26.040  28.764  1.00  0.00     0.016 A 
ATOM      8  C   UNL A   1      41.796  26.948  28.046  1.00  0.00     0.016 A 
ATOM      9  C   UNL A   1      39.787  26.691  29.962  1.00  0.00     0.010 A 
ATOM     10  C   UNL A   1      41.861  27.690  29.234  1.00  0.00     0.010 A 
ATOM     11  C   UNL A   1      40.830  27.570  30.169  1.00  0.00    -0.014 A 
BRANCH  11  12
ATOM     12  C   UNL A   1      40.546  28.497  31.260  1.00  0.00     0.031 A 
ATOM     13  C   UNL A   1      41.510  28.479  32.410  1.00  0.00     0.074 A 
ATOM     14  C   UNL A   1      39.735  29.537  31.008  1.00  0.00     0.049 A 
ATOM     15  N   UNL A   1      41.603  29.298  33.416  1.00  0.00    -0.248 NA
ATOM     16  C   UNL A   1      42.563  27.439  32.385  1.00  0.00     0.031 C 
ATOM     17  C   UNL A   1      38.987  29.739  29.760  1.00  0.00     0.029 A 
ATOM     18  N   UNL A   1      39.458  30.646  31.749  1.00  0.00    -0.354 N 
ATOM     19  C   UNL A   1      42.701  28.866  34.148  1.00  0.00     0.074 A 
ATOM     20  C   UNL A   1      43.272  27.733  33.463  1.00  0.00     0.031 C 
ATOM     21  C   UNL A   1      38.312  30.897  29.841  1.00  0.00     0.029 A 
ATOM     22  C   UNL A   1      38.539  31.478  31.159  1.00  0.00     0.049 A 
ATOM     23  H   UNL A   1      39.875  30.832  32.622  1.00  0.00     0.167 HD
ATOM     24  C   UNL A   1      43.166  29.374  35.307  1.00  0.00     0.037 A 
ATOM     25  C   UNL A   1      37.917  32.553  31.673  1.00  0.00     0.037 A 
ATOM     26  C   UNL A   1      42.553  30.500  35.950  1.00  0.00     0.049 A 
ATOM     27  C   UNL A   1      38.319  32.981  33.059  1.00  0.00     0.074 A 
ATOM     28  C   UNL A   1      42.859  31.065  37.171  1.00  0.00     0.029 A 
ATOM     29  N   UNL A   1      41.493  31.223  35.418  1.00  0.00    -0.354 N 
ATOM     30  N   UNL A   1      39.295  32.518  33.808  1.00  0.00    -0.248 NA
ATOM     31  C   UNL A   1      37.534  34.050  33.682  1.00  0.00     0.031 C 
ATOM     32  C   UNL A   1      41.936  32.086  37.408  1.00  0.00     0.029 A 
ATOM     33  C   UNL A   1      41.096  32.199  36.308  1.00  0.00     0.049 A 
ATOM     34  H   UNL A   1      41.086  31.063  34.535  1.00  0.00     0.167 HD
ATOM     35  C   UNL A   1      39.241  33.237  34.994  1.00  0.00     0.074 A 
ATOM     36  C   UNL A   1      38.155  34.188  34.846  1.00  0.00     0.031 C 
ATOM     37  C   UNL A   1      40.004  33.120  36.108  1.00  0.00     0.037 A 
BRANCH  24  38
ATOM     38  C   UNL A   1      44.292  28.663  35.992  1.00  0.00     0.058 A 
ATOM     39  C   UNL A   1      44.087  27.567  36.840  1.00  0.00     0.135 A 
ATOM     40  C   UNL A   1      45.614  29.068  35.747  1.00  0.00     0.135 A 
ATOM     41  F   UNL A   1      42.841  27.170  37.147  1.00  0.00    -0.206 F 
ATOM     42  C   UNL A   1      45.158  26.878  37.405  1.00  0.00     0.059 A 
ATOM     43  C   UNL A   1      46.699  28.383  36.281  1.00  0.00     0.059 A 
ATOM     44  F   UNL A   1      45.860  30.134  34.968  1.00  0.00    -0.206 F 
ATOM     45  C   UNL A   1      46.461  27.285  37.105  1.00  0.00     0.060 A 
BRANCH  45  46
ATOM     46  S   UNL A   1      47.839  26.339  37.786  1.00  0.00     0.124 S 
ATOM     47  O   UNL A   1      48.862  27.370  37.932  1.00  0.00    -0.237 OA
ATOM     48  O   UNL A   1      47.273  25.828  39.031  1.00  0.00    -0.237 OA
ATOM     49  O   UNL A   1      48.105  25.335  36.761  1.00  0.00    -0.744 OA
ENDBRANCH  45  46
ENDBRANCH  24  38
BRANCH  25  50
ATOM     50  C   UNL A   1      36.795  33.189  30.933  1.00  0.00     0.058 A 
ATOM     51  C   UNL A   1      37.012  34.095  29.887  1.00  0.00     0.135 A 
ATOM     52  C   UNL A   1      35.461  32.896  31.272  1.00  0.00     0.135 A 
ATOM     53  F   UNL A   1      38.263  34.417  29.527  1.00  0.00    -0.206 F 
ATOM     54  C   UNL A   1      35.952  34.696  29.212  1.00  0.00     0.059 A 
ATOM     55  C   UNL A   1      34.386  33.459  30.594  1.00  0.00     0.059 A 
ATOM     56  F   UNL A   1      35.190  32.034  32.265  1.00  0.00    -0.206 F 
ATOM     57  C   UNL A   1      34.642  34.369  29.573  1.00  0.00     0.060 A 
BRANCH  57  58
ATOM     58  S   UNL A   1      33.274  35.141  28.682  1.00  0.00     0.124 S 
ATOM     59  O   UNL A   1      33.976  36.111  27.849  1.00  0.00    -0.237 OA
ATOM     60  O   UNL A   1      32.687  34.003  27.982  1.00  0.00    -0.237 OA
ATOM     61  O   UNL A   1      32.452  35.706  29.749  1.00  0.00    -0.744 OA
ENDBRANCH  57  58
ENDBRANCH  25  50
BRANCH  37  62
ATOM     62  C   UNL A   1      39.683  34.027  37.256  1.00  0.00     0.058 A 
ATOM     63  C   UNL A   1      38.792  33.630  38.262  1.00  0.00     0.135 A 
ATOM     64  C   UNL A   1      40.365  35.244  37.413  1.00  0.00     0.135 A 
ATOM     65  F   UNL A   1      38.115  32.476  38.150  1.00  0.00    -0.206 F 
ATOM     66  C   UNL A   1      38.584  34.412  39.388  1.00  0.00     0.059 A 
ATOM     67  C   UNL A   1      40.197  36.026  38.547  1.00  0.00     0.059 A 
ATOM     68  F   UNL A   1      41.241  35.655  36.481  1.00  0.00    -0.206 F 
ATOM     69  C   UNL A   1      39.302  35.602  39.528  1.00  0.00     0.060 A 
BRANCH  69  70
ATOM     70  S   UNL A   1      39.072  36.568  41.033  1.00  0.00     0.124 S 
ATOM     71  O   UNL A   1      40.413  36.541  41.607  1.00  0.00    -0.237 OA
ATOM     72  O   UNL A   1      38.632  37.856  40.508  1.00  0.00    -0.237 OA
ATOM     73  O   UNL A   1      38.060  35.817  41.769  1.00  0.00    -0.744 OA
ENDBRANCH  69  70
ENDBRANCH  37  62
ENDBRANCH  11  12
ENDBRANCH   4   6
ENDBRANCH   3   4
ENDBRANCH   2   3
ENDBRANCH   1   2
BRANCH   1  74
ATOM     74  O   UNL A   1      37.199  23.569  25.133  1.00  0.00    -0.374 OA
BRANCH  74  75
ATOM     75  C   UNL A   1      37.019  22.155  25.060  1.00  0.00     0.202 C 
BRANCH  75  76
ATOM     76  C   UNL A   1      35.838  21.664  25.889  1.00  0.00     0.261 C 
BRANCH  76  77
ATOM     77  O   UNL A   1      34.605  22.195  25.368  1.00  0.00    -0.463 OA
BRANCH  77  78
ATOM     78  C   UNL A   1      33.497  21.870  26.091  1.00  0.00     0.309 C 
ATOM     79  O   UNL A   1      33.475  21.575  27.272  1.00  0.00    -0.252 OA
BRANCH  78  80
ATOM     80  C   UNL A   1      32.249  21.822  25.291  1.00  0.00     0.112 C 
ATOM     81  C   UNL A   1      31.981  22.809  24.185  1.00  0.00     0.030 C 
ATOM     82  C   UNL A   1      31.033  22.729  25.351  1.00  0.00     0.094 C 
BRANCH  82  83
ATOM     83  C   UNL A   1      30.807  23.878  26.268  1.00  0.00     0.231 C 
ATOM     84  O   UNL A   1      29.995  23.749  27.176  1.00  0.00    -0.274 OA
BRANCH  83  85
ATOM     85  N   UNL A   1      31.370  25.089  25.913  1.00  0.00    -0.311 N 
ATOM     86  C   UNL A   1      32.196  25.916  26.820  1.00  0.00     0.137 C 
ATOM     87  C   UNL A   1      30.673  25.988  25.084  1.00  0.00     0.050 A 
ATOM     88  C   UNL A   1      32.367  27.316  26.150  1.00  0.00     0.018 C 
ATOM     89  C   UNL A   1      31.230  27.265  25.159  1.00  0.00     0.020 A 
ATOM     90  C   UNL A   1      29.525  25.734  24.348  1.00  0.00     0.027 A 
ATOM     91  C   UNL A   1      32.260  28.466  27.177  1.00  0.00     0.014 C 
ATOM     92  C   UNL A   1      33.739  27.502  25.464  1.00  0.00     0.014 C 
ATOM     93  C   UNL A   1      30.685  28.285  24.399  1.00  0.00     0.129 A 
ATOM     94  C   UNL A   1      28.954  26.778  23.622  1.00  0.00     0.005 A 
ATOM     95  C   UNL A   1      33.690  28.952  27.374  1.00  0.00     0.001 C 
ATOM     96  C   UNL A   1      34.285  28.831  25.985  1.00  0.00     0.001 C 
ATOM     97  F   UNL A   1      31.231  29.506  24.402  1.00  0.00    -0.207 F 
ATOM     98  C   UNL A   1      29.547  28.047  23.630  1.00  0.00     0.040 A 
ENDBRANCH  83  85
ENDBRANCH  82  83
ENDBRANCH  78  80
ENDBRANCH  77  78
ENDBRANCH  76  77
ENDBRANCH  75  76
ENDBRANCH  74  75
ENDBRANCH   1  74
TORSDOF 19
ENDMDL
