MODEL 1
REMARK VINA RESULT:     -10.9      0.000      0.000
REMARK SMILES COC(=O)c1c(NC(=O)[C@@H]2[C@H]3CC[C@H](CC3)[C@H]2C(=O)OCCOCCOC(=O)c2ccc(-c3c4nc(c(-c5c(F)cc(S(=O)(=O)[O-])cc5F)c5ccc([nH]5)c(-c5c(F)cc(S(=O)(=O)[O-])cc5F)c5nc(c(-c6c(F)cc(S(=O)(=O)[O-])cc6F)c6ccc3[nH]6)C=C5)C=C4)cc2)sc(C)c1-c1ccc(C)cc1
REMARK SMILES IDX 22 1 21 2 20 3 18 4 19 5 17 6 10 7 11 8 12 9 16 10 14 11
REMARK SMILES IDX 13 12 15 13 8 14 7 15 9 17 6 18 5 19 98 20 95 21 96 22 97 23
REMARK SMILES IDX 3 24 4 25 2 26 1 27 99 28 100 29 105 30 101 31 104 32 102 33
REMARK SMILES IDX 103 34 23 35 24 36 25 37 26 38 27 39 28 40 29 41 30 42 94 43
REMARK SMILES IDX 31 44 93 45 32 46 33 47 34 48 87 49 35 50 92 51 86 52 88 53
REMARK SMILES IDX 36 54 91 55 85 56 84 57 37 59 71 60 50 61 70 62 51 63 54 64
REMARK SMILES IDX 69 65 89 66 52 67 53 68 68 70 90 71 55 72 38 73 39 74 48 75
REMARK SMILES IDX 40 76 41 77 47 78 49 79 42 80 43 81 44 82 45 83 46 84 72 85
REMARK SMILES IDX 73 86 82 87 74 88 75 89 81 90 83 91 76 92 77 93 78 94 79 95
REMARK SMILES IDX 80 96 56 97 57 98 66 99 58 100 59 101 65 102 67 103 60 104
REMARK SMILES IDX 61 105 62 106 63 107 64 108
REMARK H PARENT 7 16 88 58 54 69
REMARK Flexibility Score: inf
ROOT
ATOM      1  C   UNL A   1      35.018  30.004  27.322  1.00  0.00     0.202 C 
ENDROOT
BRANCH   1   2
ATOM      2  C   UNL A   1      33.580  29.494  27.504  1.00  0.00     0.261 C 
BRANCH   2   3
ATOM      3  O   UNL A   1      33.354  28.199  26.915  1.00  0.00    -0.463 OA
BRANCH   3   4
ATOM      4  C   UNL A   1      32.048  27.860  26.748  1.00  0.00     0.310 C 
ATOM      5  O   UNL A   1      31.186  28.019  27.606  1.00  0.00    -0.252 OA
BRANCH   4   6
ATOM      6  C   UNL A   1      31.714  27.293  25.356  1.00  0.00     0.115 C 
ATOM      7  C   UNL A   1      30.220  27.234  24.965  1.00  0.00     0.096 C 
ATOM      8  C   UNL A   1      30.075  28.127  23.672  1.00  0.00     0.002 C 
ATOM      9  C   UNL A   1      30.647  29.538  23.948  1.00  0.00     0.005 C 
ATOM     10  C   UNL A   1      30.896  27.521  22.511  1.00  0.00     0.005 C 
ATOM     11  C   UNL A   1      32.583  28.004  24.299  1.00  0.00     0.004 C 
ATOM     12  C   UNL A   1      32.158  29.467  24.187  1.00  0.00     0.005 C 
ATOM     13  C   UNL A   1      32.339  27.286  22.961  1.00  0.00     0.005 C 
BRANCH   7  14
ATOM     14  C   UNL A   1      29.533  25.840  24.729  1.00  0.00     0.229 C 
ATOM     15  N   UNL A   1      30.099  24.606  24.562  1.00  0.00    -0.317 N 
ATOM     16  H   UNL A   1      29.430  23.887  24.631  1.00  0.00     0.170 HD
ATOM     17  O   UNL A   1      28.298  25.771  24.882  1.00  0.00    -0.274 OA
BRANCH  15  18
ATOM     18  C   UNL A   1      31.363  24.103  24.323  1.00  0.00     0.111 A 
ATOM     19  C   UNL A   1      32.365  23.738  25.223  1.00  0.00     0.102 A 
ATOM     20  C   UNL A   1      33.616  23.520  24.498  1.00  0.00     0.012 A 
ATOM     21  S   UNL A   1      31.801  23.555  22.801  1.00  0.00    -0.122 S 
ATOM     22  C   UNL A   1      33.445  23.625  23.131  1.00  0.00     0.012 A 
ATOM     23  C   UNL A   1      34.408  23.652  21.994  1.00  0.00     0.057 C 
BRANCH  19  24
ATOM     24  C   UNL A   1      32.155  23.627  26.666  1.00  0.00     0.341 C 
ATOM     25  O   UNL A   1      31.670  24.534  27.339  1.00  0.00    -0.246 OA
BRANCH  24  26
ATOM     26  O   UNL A   1      32.469  22.398  27.151  1.00  0.00    -0.465 OA
ATOM     27  C   UNL A   1      33.521  22.345  28.112  1.00  0.00     0.282 C 
ENDBRANCH  24  26
ENDBRANCH  19  24
BRANCH  20  28
ATOM     28  C   UNL A   1      34.904  23.080  24.997  1.00  0.00    -0.016 A 
ATOM     29  C   UNL A   1      35.256  21.740  24.810  1.00  0.00     0.009 A 
ATOM     30  C   UNL A   1      35.827  23.986  25.524  1.00  0.00     0.009 A 
ATOM     31  C   UNL A   1      36.533  21.304  25.136  1.00  0.00     0.004 A 
ATOM     32  C   UNL A   1      37.112  23.547  25.843  1.00  0.00     0.004 A 
ATOM     33  C   UNL A   1      37.476  22.208  25.640  1.00  0.00    -0.051 A 
ATOM     34  C   UNL A   1      38.861  21.724  25.945  1.00  0.00     0.044 C 
ENDBRANCH  20  28
ENDBRANCH  15  18
ENDBRANCH   7  14
ENDBRANCH   4   6
ENDBRANCH   3   4
ENDBRANCH   2   3
ENDBRANCH   1   2
BRANCH   1  35
ATOM     35  O   UNL A   1      35.312  31.351  27.687  1.00  0.00    -0.374 OA
BRANCH  35  36
ATOM     36  C   UNL A   1      34.567  31.918  28.761  1.00  0.00     0.202 C 
BRANCH  36  37
ATOM     37  C   UNL A   1      35.262  32.163  30.106  1.00  0.00     0.261 C 
BRANCH  37  38
ATOM     38  O   UNL A   1      36.650  31.805  30.098  1.00  0.00    -0.460 OA
BRANCH  38  39
ATOM     39  C   UNL A   1      36.931  30.682  30.805  1.00  0.00     0.338 C 
ATOM     40  O   UNL A   1      36.244  30.160  31.666  1.00  0.00    -0.246 OA
BRANCH  39  41
ATOM     41  C   UNL A   1      38.121  30.025  30.240  1.00  0.00     0.060 A 
ATOM     42  C   UNL A   1      39.060  29.518  31.147  1.00  0.00     0.016 A 
ATOM     43  C   UNL A   1      38.352  29.974  28.864  1.00  0.00     0.016 A 
ATOM     44  C   UNL A   1      40.265  29.007  30.685  1.00  0.00     0.010 A 
ATOM     45  C   UNL A   1      39.573  29.474  28.400  1.00  0.00     0.010 A 
ATOM     46  C   UNL A   1      40.548  29.032  29.313  1.00  0.00    -0.014 A 
BRANCH  46  47
ATOM     47  C   UNL A   1      41.941  28.783  28.878  1.00  0.00     0.031 A 
ATOM     48  C   UNL A   1      42.306  27.398  28.411  1.00  0.00     0.074 A 
ATOM     49  C   UNL A   1      42.831  29.789  28.814  1.00  0.00     0.049 A 
ATOM     50  N   UNL A   1      43.447  26.950  27.959  1.00  0.00    -0.248 NA
ATOM     51  C   UNL A   1      41.236  26.387  28.452  1.00  0.00     0.031 C 
ATOM     52  C   UNL A   1      42.563  31.178  29.189  1.00  0.00     0.029 A 
ATOM     53  N   UNL A   1      44.138  29.797  28.402  1.00  0.00    -0.354 N 
ATOM     54  C   UNL A   1      43.231  25.612  27.652  1.00  0.00     0.074 A 
ATOM     55  C   UNL A   1      41.864  25.307  28.011  1.00  0.00     0.031 C 
ATOM     56  C   UNL A   1      43.678  31.903  28.992  1.00  0.00     0.029 A 
ATOM     57  C   UNL A   1      44.740  31.028  28.504  1.00  0.00     0.049 A 
ATOM     58  H   UNL A   1      44.602  28.997  28.064  1.00  0.00     0.167 HD
ATOM     59  C   UNL A   1      44.091  24.722  27.102  1.00  0.00     0.037 A 
ATOM     60  C   UNL A   1      46.011  31.395  28.246  1.00  0.00     0.037 A 
ATOM     61  C   UNL A   1      45.452  25.034  26.757  1.00  0.00     0.049 A 
ATOM     62  C   UNL A   1      46.976  30.362  27.721  1.00  0.00     0.074 A 
ATOM     63  C   UNL A   1      46.417  24.203  26.218  1.00  0.00     0.029 A 
ATOM     64  N   UNL A   1      46.041  26.280  26.920  1.00  0.00    -0.354 N 
ATOM     65  N   UNL A   1      46.758  29.099  27.434  1.00  0.00    -0.248 NA
ATOM     66  C   UNL A   1      48.357  30.801  27.482  1.00  0.00     0.031 C 
ATOM     67  C   UNL A   1      47.602  24.935  26.094  1.00  0.00     0.029 A 
ATOM     68  C   UNL A   1      47.361  26.236  26.507  1.00  0.00     0.049 A 
ATOM     69  H   UNL A   1      45.587  27.077  27.277  1.00  0.00     0.167 HD
ATOM     70  C   UNL A   1      47.965  28.604  26.949  1.00  0.00     0.074 A 
ATOM     71  C   UNL A   1      48.905  29.708  26.971  1.00  0.00     0.031 C 
ATOM     72  C   UNL A   1      48.272  27.353  26.523  1.00  0.00     0.037 A 
BRANCH  59  73
ATOM     73  C   UNL A   1      43.586  23.328  26.855  1.00  0.00     0.058 A 
ATOM     74  C   UNL A   1      43.317  22.863  25.556  1.00  0.00     0.135 A 
ATOM     75  C   UNL A   1      43.398  22.433  27.921  1.00  0.00     0.135 A 
ATOM     76  F   UNL A   1      43.458  23.682  24.502  1.00  0.00    -0.206 F 
ATOM     77  C   UNL A   1      42.862  21.568  25.326  1.00  0.00     0.059 A 
ATOM     78  C   UNL A   1      42.968  21.126  27.711  1.00  0.00     0.059 A 
ATOM     79  F   UNL A   1      43.632  22.827  29.182  1.00  0.00    -0.206 F 
ATOM     80  C   UNL A   1      42.692  20.707  26.410  1.00  0.00     0.060 A 
BRANCH  80  81
ATOM     81  S   UNL A   1      42.114  19.026  26.092  1.00  0.00     0.124 S 
ATOM     82  O   UNL A   1      40.684  19.242  25.895  1.00  0.00    -0.237 OA
ATOM     83  O   UNL A   1      42.870  18.657  24.899  1.00  0.00    -0.237 OA
ATOM     84  O   UNL A   1      42.477  18.305  27.308  1.00  0.00    -0.744 OA
ENDBRANCH  80  81
ENDBRANCH  59  73
BRANCH  60  85
ATOM     85  C   UNL A   1      46.456  32.794  28.494  1.00  0.00     0.058 A 
ATOM     86  C   UNL A   1      46.886  33.208  29.764  1.00  0.00     0.135 A 
ATOM     87  C   UNL A   1      46.427  33.753  27.470  1.00  0.00     0.135 A 
ATOM     88  F   UNL A   1      46.925  32.331  30.778  1.00  0.00    -0.206 F 
ATOM     89  C   UNL A   1      47.242  34.530  30.018  1.00  0.00     0.059 A 
ATOM     90  C   UNL A   1      46.805  35.074  27.692  1.00  0.00     0.059 A 
ATOM     91  F   UNL A   1      46.036  33.408  26.234  1.00  0.00    -0.206 F 
ATOM     92  C   UNL A   1      47.194  35.456  28.975  1.00  0.00     0.060 A 
BRANCH  92  93
ATOM     93  S   UNL A   1      47.667  37.167  29.310  1.00  0.00     0.124 S 
ATOM     94  O   UNL A   1      48.962  36.992  29.958  1.00  0.00    -0.237 OA
ATOM     95  O   UNL A   1      47.696  37.745  27.970  1.00  0.00    -0.237 OA
ATOM     96  O   UNL A   1      46.591  37.650  30.169  1.00  0.00    -0.744 OA
ENDBRANCH  92  93
ENDBRANCH  60  85
BRANCH  72  97
ATOM     97  C   UNL A   1      49.666  27.121  26.006  1.00  0.00     0.058 A 
ATOM     98  C   UNL A   1      50.714  26.733  26.855  1.00  0.00     0.135 A 
ATOM     99  C   UNL A   1      49.940  27.236  24.634  1.00  0.00     0.135 A 
ATOM    100  F   UNL A   1      50.505  26.614  28.176  1.00  0.00    -0.206 F 
ATOM    101  C   UNL A   1      51.993  26.492  26.365  1.00  0.00     0.059 A 
ATOM    102  C   UNL A   1      51.204  26.971  24.117  1.00  0.00     0.059 A 
ATOM    103  F   UNL A   1      48.969  27.591  23.777  1.00  0.00    -0.206 F 
ATOM    104  C   UNL A   1      52.227  26.612  24.993  1.00  0.00     0.060 A 
BRANCH 104 105
ATOM    105  S   UNL A   1      53.883  26.263  24.366  1.00  0.00     0.124 S 
ATOM    106  O   UNL A   1      54.676  27.284  25.045  1.00  0.00    -0.237 OA
ATOM    107  O   UNL A   1      54.103  24.890  24.810  1.00  0.00    -0.237 OA
ATOM    108  O   UNL A   1      53.743  26.433  22.923  1.00  0.00    -0.744 OA
ENDBRANCH 104 105
ENDBRANCH  72  97
ENDBRANCH  46  47
ENDBRANCH  39  41
ENDBRANCH  38  39
ENDBRANCH  37  38
ENDBRANCH  36  37
ENDBRANCH  35  36
ENDBRANCH   1  35
TORSDOF 22
ENDMDL
MODEL 2
REMARK VINA RESULT:     -10.8      0.981      2.071
REMARK SMILES COC(=O)c1c(NC(=O)[C@@H]2[C@H]3CC[C@H](CC3)[C@H]2C(=O)OCCOCCOC(=O)c2ccc(-c3c4nc(c(-c5c(F)cc(S(=O)(=O)[O-])cc5F)c5ccc([nH]5)c(-c5c(F)cc(S(=O)(=O)[O-])cc5F)c5nc(c(-c6c(F)cc(S(=O)(=O)[O-])cc6F)c6ccc3[nH]6)C=C5)C=C4)cc2)sc(C)c1-c1ccc(C)cc1
REMARK SMILES IDX 22 1 21 2 20 3 18 4 19 5 17 6 10 7 11 8 12 9 16 10 14 11
REMARK SMILES IDX 13 12 15 13 8 14 7 15 9 17 6 18 5 19 98 20 95 21 96 22 97 23
REMARK SMILES IDX 3 24 4 25 2 26 1 27 99 28 100 29 105 30 101 31 104 32 102 33
REMARK SMILES IDX 103 34 23 35 24 36 25 37 26 38 27 39 28 40 29 41 30 42 94 43
REMARK SMILES IDX 31 44 93 45 32 46 33 47 34 48 87 49 35 50 92 51 86 52 88 53
REMARK SMILES IDX 36 54 91 55 85 56 84 57 37 59 71 60 50 61 70 62 51 63 54 64
REMARK SMILES IDX 69 65 89 66 52 67 53 68 68 70 90 71 55 72 38 73 39 74 48 75
REMARK SMILES IDX 40 76 41 77 47 78 49 79 42 80 43 81 44 82 45 83 46 84 72 85
REMARK SMILES IDX 73 86 82 87 74 88 75 89 81 90 83 91 76 92 77 93 78 94 79 95
REMARK SMILES IDX 80 96 56 97 57 98 66 99 58 100 59 101 65 102 67 103 60 104
REMARK SMILES IDX 61 105 62 106 63 107 64 108
REMARK H PARENT 7 16 88 58 54 69
REMARK Flexibility Score: inf
ROOT
ATOM      1  C   UNL A   1      35.168  29.740  27.154  1.00  0.00     0.202 C 
ENDROOT
BRANCH   1   2
ATOM      2  C   UNL A   1      33.928  29.023  27.711  1.00  0.00     0.261 C 
BRANCH   2   3
ATOM      3  O   UNL A   1      33.592  27.821  26.993  1.00  0.00    -0.463 OA
BRANCH   3   4
ATOM      4  C   UNL A   1      32.268  27.652  26.735  1.00  0.00     0.310 C 
ATOM      5  O   UNL A   1      31.397  27.662  27.599  1.00  0.00    -0.252 OA
BRANCH   4   6
ATOM      6  C   UNL A   1      31.929  27.489  25.242  1.00  0.00     0.115 C 
ATOM      7  C   UNL A   1      30.431  27.451  24.865  1.00  0.00     0.096 C 
ATOM      8  C   UNL A   1      30.199  28.668  23.887  1.00  0.00     0.002 C 
ATOM      9  C   UNL A   1      30.696  29.974  24.554  1.00  0.00     0.005 C 
ATOM     10  C   UNL A   1      31.021  28.476  22.593  1.00  0.00     0.005 C 
ATOM     11  C   UNL A   1      32.726  28.529  24.428  1.00  0.00     0.004 C 
ATOM     12  C   UNL A   1      32.215  29.932  24.748  1.00  0.00     0.005 C 
ATOM     13  C   UNL A   1      32.488  28.213  22.941  1.00  0.00     0.005 C 
BRANCH   7  14
ATOM     14  C   UNL A   1      29.819  26.144  24.243  1.00  0.00     0.229 C 
ATOM     15  N   UNL A   1      30.203  24.841  24.401  1.00  0.00    -0.317 N 
ATOM     16  H   UNL A   1      29.524  24.218  24.054  1.00  0.00     0.170 HD
ATOM     17  O   UNL A   1      28.724  26.241  23.656  1.00  0.00    -0.274 OA
BRANCH  15  18
ATOM     18  C   UNL A   1      31.293  24.168  24.920  1.00  0.00     0.111 A 
ATOM     19  C   UNL A   1      32.365  23.563  24.263  1.00  0.00     0.102 A 
ATOM     20  C   UNL A   1      33.120  22.747  25.213  1.00  0.00     0.012 A 
ATOM     21  S   UNL A   1      31.648  24.231  26.557  1.00  0.00    -0.122 S 
ATOM     22  C   UNL A   1      32.642  22.879  26.502  1.00  0.00     0.012 A 
ATOM     23  C   UNL A   1      32.947  22.158  27.770  1.00  0.00     0.057 C 
BRANCH  19  24
ATOM     24  C   UNL A   1      32.638  23.730  22.836  1.00  0.00     0.341 C 
ATOM     25  O   UNL A   1      32.733  22.781  22.062  1.00  0.00    -0.246 OA
BRANCH  24  26
ATOM     26  O   UNL A   1      32.686  25.034  22.458  1.00  0.00    -0.465 OA
ATOM     27  C   UNL A   1      32.344  25.314  21.103  1.00  0.00     0.282 C 
ENDBRANCH  24  26
ENDBRANCH  19  24
BRANCH  20  28
ATOM     28  C   UNL A   1      34.334  21.981  25.007  1.00  0.00    -0.016 A 
ATOM     29  C   UNL A   1      35.551  22.670  25.011  1.00  0.00     0.009 A 
ATOM     30  C   UNL A   1      34.312  20.586  24.942  1.00  0.00     0.009 A 
ATOM     31  C   UNL A   1      36.748  21.967  24.966  1.00  0.00     0.004 A 
ATOM     32  C   UNL A   1      35.516  19.883  24.905  1.00  0.00     0.004 A 
ATOM     33  C   UNL A   1      36.739  20.568  24.928  1.00  0.00    -0.051 A 
ATOM     34  C   UNL A   1      38.044  19.830  24.922  1.00  0.00     0.044 C 
ENDBRANCH  20  28
ENDBRANCH  15  18
ENDBRANCH   7  14
ENDBRANCH   4   6
ENDBRANCH   3   4
ENDBRANCH   2   3
ENDBRANCH   1   2
BRANCH   1  35
ATOM     35  O   UNL A   1      35.436  31.070  27.590  1.00  0.00    -0.374 OA
BRANCH  35  36
ATOM     36  C   UNL A   1      34.643  31.585  28.656  1.00  0.00     0.202 C 
BRANCH  36  37
ATOM     37  C   UNL A   1      35.332  32.060  29.941  1.00  0.00     0.261 C 
BRANCH  37  38
ATOM     38  O   UNL A   1      36.719  31.699  30.004  1.00  0.00    -0.460 OA
BRANCH  38  39
ATOM     39  C   UNL A   1      36.953  30.532  30.654  1.00  0.00     0.338 C 
ATOM     40  O   UNL A   1      36.221  29.970  31.451  1.00  0.00    -0.246 OA
BRANCH  39  41
ATOM     41  C   UNL A   1      38.159  29.891  30.103  1.00  0.00     0.060 A 
ATOM     42  C   UNL A   1      39.107  29.423  31.021  1.00  0.00     0.016 A 
ATOM     43  C   UNL A   1      38.393  29.818  28.729  1.00  0.00     0.016 A 
ATOM     44  C   UNL A   1      40.324  28.931  30.570  1.00  0.00     0.010 A 
ATOM     45  C   UNL A   1      39.625  29.337  28.276  1.00  0.00     0.010 A 
ATOM     46  C   UNL A   1      40.609  28.935  29.198  1.00  0.00    -0.014 A 
BRANCH  46  47
ATOM     47  C   UNL A   1      42.008  28.709  28.770  1.00  0.00     0.031 A 
ATOM     48  C   UNL A   1      42.405  27.324  28.333  1.00  0.00     0.074 A 
ATOM     49  C   UNL A   1      42.874  29.734  28.685  1.00  0.00     0.049 A 
ATOM     50  N   UNL A   1      43.557  26.893  27.891  1.00  0.00    -0.248 NA
ATOM     51  C   UNL A   1      41.359  26.289  28.395  1.00  0.00     0.031 C 
ATOM     52  C   UNL A   1      42.574  31.124  29.030  1.00  0.00     0.029 A 
ATOM     53  N   UNL A   1      44.181  29.764  28.274  1.00  0.00    -0.354 N 
ATOM     54  C   UNL A   1      43.372  25.543  27.613  1.00  0.00     0.074 A 
ATOM     55  C   UNL A   1      42.013  25.215  27.977  1.00  0.00     0.031 C 
ATOM     56  C   UNL A   1      43.672  31.871  28.818  1.00  0.00     0.029 A 
ATOM     57  C   UNL A   1      44.755  31.010  28.350  1.00  0.00     0.049 A 
ATOM     58  H   UNL A   1      44.664  28.967  27.953  1.00  0.00     0.167 HD
ATOM     59  C   UNL A   1      44.253  24.663  27.083  1.00  0.00     0.037 A 
ATOM     60  C   UNL A   1      46.017  31.401  28.086  1.00  0.00     0.037 A 
ATOM     61  C   UNL A   1      45.607  24.998  26.732  1.00  0.00     0.049 A 
ATOM     62  C   UNL A   1      47.006  30.379  27.583  1.00  0.00     0.074 A 
ATOM     63  C   UNL A   1      46.592  24.179  26.211  1.00  0.00     0.029 A 
ATOM     64  N   UNL A   1      46.167  26.261  26.869  1.00  0.00    -0.354 N 
ATOM     65  N   UNL A   1      46.818  29.106  27.322  1.00  0.00    -0.248 NA
ATOM     66  C   UNL A   1      48.377  30.845  27.335  1.00  0.00     0.031 C 
ATOM     67  C   UNL A   1      47.760  24.935  26.072  1.00  0.00     0.029 A 
ATOM     68  C   UNL A   1      47.488  26.239  26.457  1.00  0.00     0.049 A 
ATOM     69  H   UNL A   1      45.694  27.055  27.208  1.00  0.00     0.167 HD
ATOM     70  C   UNL A   1      48.037  28.629  26.849  1.00  0.00     0.074 A 
ATOM     71  C   UNL A   1      48.950  29.754  26.848  1.00  0.00     0.031 C 
ATOM     72  C   UNL A   1      48.373  27.377  26.451  1.00  0.00     0.037 A 
BRANCH  59  73
ATOM     73  C   UNL A   1      43.781  23.252  26.864  1.00  0.00     0.058 A 
ATOM     74  C   UNL A   1      43.541  22.382  27.941  1.00  0.00     0.135 A 
ATOM     75  C   UNL A   1      43.533  22.771  25.569  1.00  0.00     0.135 A 
ATOM     76  F   UNL A   1      43.782  22.781  29.200  1.00  0.00    -0.206 F 
ATOM     77  C   UNL A   1      43.092  21.080  27.740  1.00  0.00     0.059 A 
ATOM     78  C   UNL A   1      43.059  21.482  25.345  1.00  0.00     0.059 A 
ATOM     79  F   UNL A   1      43.752  23.558  24.504  1.00  0.00    -0.206 F 
ATOM     80  C   UNL A   1      42.853  20.640  26.437  1.00  0.00     0.060 A 
BRANCH  80  81
ATOM     81  S   UNL A   1      42.257  18.953  26.195  1.00  0.00     0.124 S 
ATOM     82  O   UNL A   1      43.180  18.461  25.176  1.00  0.00    -0.237 OA
ATOM     83  O   UNL A   1      42.413  18.373  27.525  1.00  0.00    -0.237 OA
ATOM     84  O   UNL A   1      40.879  19.138  25.753  1.00  0.00    -0.744 OA
ENDBRANCH  80  81
ENDBRANCH  59  73
BRANCH  60  85
ATOM     85  C   UNL A   1      46.429  32.814  28.304  1.00  0.00     0.058 A 
ATOM     86  C   UNL A   1      46.363  33.761  27.271  1.00  0.00     0.135 A 
ATOM     87  C   UNL A   1      46.929  33.238  29.545  1.00  0.00     0.135 A 
ATOM     88  F   UNL A   1      45.898  33.405  26.063  1.00  0.00    -0.206 F 
ATOM     89  C   UNL A   1      46.806  35.068  27.449  1.00  0.00     0.059 A 
ATOM     90  C   UNL A   1      47.353  34.546  29.757  1.00  0.00     0.059 A 
ATOM     91  F   UNL A   1      47.003  32.376  30.572  1.00  0.00    -0.206 F 
ATOM     92  C   UNL A   1      47.303  35.450  28.697  1.00  0.00     0.060 A 
BRANCH  92  93
ATOM     93  S   UNL A   1      47.867  37.150  28.925  1.00  0.00     0.124 S 
ATOM     94  O   UNL A   1      47.773  37.675  27.567  1.00  0.00    -0.237 OA
ATOM     95  O   UNL A   1      46.894  37.671  29.880  1.00  0.00    -0.237 OA
ATOM     96  O   UNL A   1      49.221  36.987  29.447  1.00  0.00    -0.744 OA
ENDBRANCH  92  93
ENDBRANCH  60  85
BRANCH  72  97
ATOM     97  C   UNL A   1      49.772  27.166  25.940  1.00  0.00     0.058 A 
ATOM     98  C   UNL A   1      50.823  26.798  26.794  1.00  0.00     0.135 A 
ATOM     99  C   UNL A   1      50.049  27.280  24.568  1.00  0.00     0.135 A 
ATOM    100  F   UNL A   1      50.611  26.680  28.115  1.00  0.00    -0.206 F 
ATOM    101  C   UNL A   1      52.108  26.577  26.309  1.00  0.00     0.059 A 
ATOM    102  C   UNL A   1      51.320  27.035  24.057  1.00  0.00     0.059 A 
ATOM    103  F   UNL A   1      49.076  27.617  23.706  1.00  0.00    -0.206 F 
ATOM    104  C   UNL A   1      52.346  26.696  24.938  1.00  0.00     0.060 A 
BRANCH 104 105
ATOM    105  S   UNL A   1      54.010  26.372  24.318  1.00  0.00     0.124 S 
ATOM    106  O   UNL A   1      54.251  25.022  24.815  1.00  0.00    -0.237 OA
ATOM    107  O   UNL A   1      53.835  26.495  22.874  1.00  0.00    -0.237 OA
ATOM    108  O   UNL A   1      54.813  27.422  24.938  1.00  0.00    -0.744 OA
ENDBRANCH 104 105
ENDBRANCH  72  97
ENDBRANCH  46  47
ENDBRANCH  39  41
ENDBRANCH  38  39
ENDBRANCH  37  38
ENDBRANCH  36  37
ENDBRANCH  35  36
ENDBRANCH   1  35
TORSDOF 22
ENDMDL
MODEL 3
REMARK VINA RESULT:     -10.7      1.179      7.893
REMARK SMILES COC(=O)c1c(NC(=O)[C@@H]2[C@H]3CC[C@H](CC3)[C@H]2C(=O)OCCOCCOC(=O)c2ccc(-c3c4nc(c(-c5c(F)cc(S(=O)(=O)[O-])cc5F)c5ccc([nH]5)c(-c5c(F)cc(S(=O)(=O)[O-])cc5F)c5nc(c(-c6c(F)cc(S(=O)(=O)[O-])cc6F)c6ccc3[nH]6)C=C5)C=C4)cc2)sc(C)c1-c1ccc(C)cc1
REMARK SMILES IDX 22 1 21 2 20 3 18 4 19 5 17 6 10 7 11 8 12 9 16 10 14 11
REMARK SMILES IDX 13 12 15 13 8 14 7 15 9 17 6 18 5 19 98 20 95 21 96 22 97 23
REMARK SMILES IDX 3 24 4 25 2 26 1 27 99 28 100 29 105 30 101 31 104 32 102 33
REMARK SMILES IDX 103 34 23 35 24 36 25 37 26 38 27 39 28 40 29 41 30 42 94 43
REMARK SMILES IDX 31 44 93 45 32 46 33 47 34 48 87 49 35 50 92 51 86 52 88 53
REMARK SMILES IDX 36 54 91 55 85 56 84 57 37 59 71 60 50 61 70 62 51 63 54 64
REMARK SMILES IDX 69 65 89 66 52 67 53 68 68 70 90 71 55 72 38 73 39 74 48 75
REMARK SMILES IDX 40 76 41 77 47 78 49 79 42 80 43 81 44 82 45 83 46 84 72 85
REMARK SMILES IDX 73 86 82 87 74 88 75 89 81 90 83 91 76 92 77 93 78 94 79 95
REMARK SMILES IDX 80 96 56 97 57 98 66 99 58 100 59 101 65 102 67 103 60 104
REMARK SMILES IDX 61 105 62 106 63 107 64 108
REMARK H PARENT 7 16 88 58 54 69
REMARK Flexibility Score: inf
ROOT
ATOM      1  C   UNL A   1      33.190  30.435  26.622  1.00  0.00     0.202 C 
ENDROOT
BRANCH   1   2
ATOM      2  C   UNL A   1      31.815  29.752  26.573  1.00  0.00     0.261 C 
BRANCH   2   3
ATOM      3  O   UNL A   1      31.888  28.315  26.637  1.00  0.00    -0.463 OA
BRANCH   3   4
ATOM      4  C   UNL A   1      32.873  27.751  25.889  1.00  0.00     0.310 C 
ATOM      5  O   UNL A   1      34.057  27.746  26.212  1.00  0.00    -0.252 OA
BRANCH   4   6
ATOM      6  C   UNL A   1      32.378  27.067  24.601  1.00  0.00     0.115 C 
ATOM      7  C   UNL A   1      30.864  27.149  24.305  1.00  0.00     0.096 C 
ATOM      8  C   UNL A   1      30.734  27.891  22.918  1.00  0.00     0.002 C 
ATOM      9  C   UNL A   1      31.487  29.243  22.978  1.00  0.00     0.005 C 
ATOM     10  C   UNL A   1      31.395  27.052  21.800  1.00  0.00     0.005 C 
ATOM     11  C   UNL A   1      33.248  27.532  23.416  1.00  0.00     0.004 C 
ATOM     12  C   UNL A   1      32.992  29.012  23.142  1.00  0.00     0.005 C 
ATOM     13  C   UNL A   1      32.829  26.694  22.196  1.00  0.00     0.005 C 
BRANCH   7  14
ATOM     14  C   UNL A   1      30.003  25.834  24.287  1.00  0.00     0.229 C 
ATOM     15  N   UNL A   1      30.306  24.588  24.760  1.00  0.00    -0.317 N 
ATOM     16  H   UNL A   1      29.510  24.008  24.794  1.00  0.00     0.170 HD
ATOM     17  O   UNL A   1      28.804  25.933  23.965  1.00  0.00    -0.274 OA
BRANCH  15  18
ATOM     18  C   UNL A   1      31.435  23.926  25.205  1.00  0.00     0.111 A 
ATOM     19  C   UNL A   1      32.377  23.187  24.490  1.00  0.00     0.102 A 
ATOM     20  C   UNL A   1      33.234  22.455  25.423  1.00  0.00     0.012 A 
ATOM     21  S   UNL A   1      32.027  24.172  26.754  1.00  0.00    -0.122 S 
ATOM     22  C   UNL A   1      32.953  22.773  26.738  1.00  0.00     0.012 A 
ATOM     23  C   UNL A   1      33.414  22.199  28.034  1.00  0.00     0.057 C 
BRANCH  19  24
ATOM     24  C   UNL A   1      32.445  23.160  23.029  1.00  0.00     0.341 C 
ATOM     25  O   UNL A   1      33.347  23.704  22.396  1.00  0.00    -0.246 OA
BRANCH  24  26
ATOM     26  O   UNL A   1      31.466  22.403  22.470  1.00  0.00    -0.465 OA
ATOM     27  C   UNL A   1      31.842  21.095  22.043  1.00  0.00     0.282 C 
ENDBRANCH  24  26
ENDBRANCH  19  24
BRANCH  20  28
ATOM     28  C   UNL A   1      34.376  21.605  25.151  1.00  0.00    -0.016 A 
ATOM     29  C   UNL A   1      35.648  22.182  25.202  1.00  0.00     0.009 A 
ATOM     30  C   UNL A   1      34.231  20.226  24.978  1.00  0.00     0.009 A 
ATOM     31  C   UNL A   1      36.779  21.383  25.095  1.00  0.00     0.004 A 
ATOM     32  C   UNL A   1      35.369  19.426  24.879  1.00  0.00     0.004 A 
ATOM     33  C   UNL A   1      36.648  19.997  24.949  1.00  0.00    -0.051 A 
ATOM     34  C   UNL A   1      37.883  19.151  24.877  1.00  0.00     0.044 C 
ENDBRANCH  20  28
ENDBRANCH  15  18
ENDBRANCH   7  14
ENDBRANCH   4   6
ENDBRANCH   3   4
ENDBRANCH   2   3
ENDBRANCH   1   2
BRANCH   1  35
ATOM     35  O   UNL A   1      33.850  30.544  27.881  1.00  0.00    -0.374 OA
BRANCH  35  36
ATOM     36  C   UNL A   1      34.595  31.732  28.132  1.00  0.00     0.202 C 
BRANCH  36  37
ATOM     37  C   UNL A   1      34.934  32.113  29.578  1.00  0.00     0.261 C 
BRANCH  37  38
ATOM     38  O   UNL A   1      35.820  31.182  30.214  1.00  0.00    -0.460 OA
BRANCH  38  39
ATOM     39  C   UNL A   1      37.015  31.716  30.568  1.00  0.00     0.338 C 
ATOM     40  O   UNL A   1      37.211  32.649  31.329  1.00  0.00    -0.246 OA
BRANCH  39  41
ATOM     41  C   UNL A   1      38.107  30.866  30.065  1.00  0.00     0.060 A 
ATOM     42  C   UNL A   1      39.107  30.507  30.976  1.00  0.00     0.016 A 
ATOM     43  C   UNL A   1      38.193  30.496  28.721  1.00  0.00     0.016 A 
ATOM     44  C   UNL A   1      40.231  29.822  30.537  1.00  0.00     0.010 A 
ATOM     45  C   UNL A   1      39.334  29.820  28.277  1.00  0.00     0.010 A 
ATOM     46  C   UNL A   1      40.373  29.522  29.176  1.00  0.00    -0.014 A 
BRANCH  46  47
ATOM     47  C   UNL A   1      41.700  29.083  28.687  1.00  0.00     0.031 A 
ATOM     48  C   UNL A   1      42.815  30.096  28.644  1.00  0.00     0.074 A 
ATOM     49  C   UNL A   1      41.928  27.795  28.378  1.00  0.00     0.049 A 
ATOM     50  N   UNL A   1      44.061  29.941  28.284  1.00  0.00    -0.248 NA
ATOM     51  C   UNL A   1      42.477  31.464  29.074  1.00  0.00     0.031 C 
ATOM     52  C   UNL A   1      40.932  26.724  28.440  1.00  0.00     0.029 A 
ATOM     53  N   UNL A   1      43.072  27.167  27.960  1.00  0.00    -0.354 N 
ATOM     54  C   UNL A   1      44.659  31.185  28.454  1.00  0.00     0.074 A 
ATOM     55  C   UNL A   1      43.630  32.095  28.905  1.00  0.00     0.031 C 
ATOM     56  C   UNL A   1      41.513  25.569  28.067  1.00  0.00     0.029 A 
ATOM     57  C   UNL A   1      42.907  25.825  27.717  1.00  0.00     0.049 A 
ATOM     58  H   UNL A   1      43.931  27.635  27.845  1.00  0.00     0.167 HD
ATOM     59  C   UNL A   1      45.954  31.531  28.268  1.00  0.00     0.037 A 
ATOM     60  C   UNL A   1      43.785  24.915  27.249  1.00  0.00     0.037 A 
ATOM     61  C   UNL A   1      46.968  30.620  27.810  1.00  0.00     0.049 A 
ATOM     62  C   UNL A   1      45.200  25.348  26.961  1.00  0.00     0.074 A 
ATOM     63  C   UNL A   1      48.306  30.870  27.563  1.00  0.00     0.029 A 
ATOM     64  N   UNL A   1      46.753  29.278  27.528  1.00  0.00    -0.354 N 
ATOM     65  N   UNL A   1      45.753  26.527  27.127  1.00  0.00    -0.248 NA
ATOM     66  C   UNL A   1      46.113  24.328  26.426  1.00  0.00     0.031 C 
ATOM     67  C   UNL A   1      48.891  29.690  27.093  1.00  0.00     0.029 A 
ATOM     68  C   UNL A   1      47.929  28.691  27.095  1.00  0.00     0.049 A 
ATOM     69  H   UNL A   1      45.891  28.812  27.622  1.00  0.00     0.167 HD
ATOM     70  C   UNL A   1      47.084  26.382  26.749  1.00  0.00     0.074 A 
ATOM     71  C   UNL A   1      47.255  24.996  26.358  1.00  0.00     0.031 C 
ATOM     72  C   UNL A   1      48.077  27.305  26.726  1.00  0.00     0.037 A 
BRANCH  59  73
ATOM     73  C   UNL A   1      46.341  32.958  28.547  1.00  0.00     0.058 A 
ATOM     74  C   UNL A   1      46.273  33.946  27.551  1.00  0.00     0.135 A 
ATOM     75  C   UNL A   1      46.752  33.350  29.831  1.00  0.00     0.135 A 
ATOM     76  F   UNL A   1      45.908  33.622  26.300  1.00  0.00    -0.206 F 
ATOM     77  C   UNL A   1      46.619  35.268  27.813  1.00  0.00     0.059 A 
ATOM     78  C   UNL A   1      47.078  34.672  30.122  1.00  0.00     0.059 A 
ATOM     79  F   UNL A   1      46.841  32.445  30.817  1.00  0.00    -0.206 F 
ATOM     80  C   UNL A   1      47.018  35.621  29.102  1.00  0.00     0.060 A 
BRANCH  80  81
ATOM     81  S   UNL A   1      47.450  37.344  29.429  1.00  0.00     0.124 S 
ATOM     82  O   UNL A   1      48.893  37.330  29.209  1.00  0.00    -0.237 OA
ATOM     83  O   UNL A   1      46.663  38.058  28.427  1.00  0.00    -0.237 OA
ATOM     84  O   UNL A   1      47.029  37.546  30.811  1.00  0.00    -0.744 OA
ENDBRANCH  80  81
ENDBRANCH  59  73
BRANCH  60  85
ATOM     85  C   UNL A   1      43.354  23.511  27.005  1.00  0.00     0.058 A 
ATOM     86  C   UNL A   1      43.212  22.598  28.060  1.00  0.00     0.135 A 
ATOM     87  C   UNL A   1      43.109  23.047  25.703  1.00  0.00     0.135 A 
ATOM     88  F   UNL A   1      43.442  22.990  29.323  1.00  0.00    -0.206 F 
ATOM     89  C   UNL A   1      42.873  21.267  27.833  1.00  0.00     0.059 A 
ATOM     90  C   UNL A   1      42.741  21.728  25.453  1.00  0.00     0.059 A 
ATOM     91  F   UNL A   1      43.218  23.882  24.658  1.00  0.00    -0.206 F 
ATOM     92  C   UNL A   1      42.642  20.842  26.523  1.00  0.00     0.060 A 
BRANCH  92  93
ATOM     93  S   UNL A   1      42.192  19.116  26.237  1.00  0.00     0.124 S 
ATOM     94  O   UNL A   1      42.465  18.522  27.540  1.00  0.00    -0.237 OA
ATOM     95  O   UNL A   1      40.785  19.224  25.865  1.00  0.00    -0.237 OA
ATOM     96  O   UNL A   1      43.088  18.711  25.158  1.00  0.00    -0.744 OA
ENDBRANCH  92  93
ENDBRANCH  60  85
BRANCH  72  97
ATOM     97  C   UNL A   1      49.445  26.841  26.306  1.00  0.00     0.058 A 
ATOM     98  C   UNL A   1      49.918  27.024  24.998  1.00  0.00     0.135 A 
ATOM     99  C   UNL A   1      50.312  26.254  27.242  1.00  0.00     0.135 A 
ATOM    100  F   UNL A   1      49.127  27.576  24.064  1.00  0.00    -0.206 F 
ATOM    101  C   UNL A   1      51.195  26.618  24.625  1.00  0.00     0.059 A 
ATOM    102  C   UNL A   1      51.603  25.867  26.899  1.00  0.00     0.059 A 
ATOM    103  F   UNL A   1      49.913  26.068  28.511  1.00  0.00    -0.206 F 
ATOM    104  C   UNL A   1      52.031  26.042  25.583  1.00  0.00     0.060 A 
BRANCH 104 105
ATOM    105  S   UNL A   1      53.697  25.550  25.094  1.00  0.00     0.124 S 
ATOM    106  O   UNL A   1      53.611  25.626  23.639  1.00  0.00    -0.237 OA
ATOM    107  O   UNL A   1      54.524  26.569  25.734  1.00  0.00    -0.237 OA
ATOM    108  O   UNL A   1      53.831  24.206  25.646  1.00  0.00    -0.744 OA
ENDBRANCH 104 105
ENDBRANCH  72  97
ENDBRANCH  46  47
ENDBRANCH  39  41
ENDBRANCH  38  39
ENDBRANCH  37  38
ENDBRANCH  36  37
ENDBRANCH  35  36
ENDBRANCH   1  35
TORSDOF 22
ENDMDL
