MODEL 1
REMARK VINA RESULT:     -11.5      0.000      0.000
REMARK SMILES CC[NH+]1CCC2(CC1)OC[C@@H](C(=O)OCCOCCOC(=O)c1ccc(-c3c4nc(c(-c5c(F)cc(S(=O)(=O)[O-])cc5F)c5ccc([nH]5)c(-c5c(F)cc(S(=O)(=O)[O-])cc5F)c5nc(c(-c6c(F)cc(S(=O)(=O)[O-])cc6F)c6ccc3[nH]6)C=C5)C=C4)cc1)N2C(=O)c1ccc(Cl)c([N+](=O)[O-])c1
REMARK SMILES IDX 17 1 16 2 15 3 14 4 12 5 13 6 11 7 3 8 4 9 8 10 5 12 7 13
REMARK SMILES IDX 6 14 9 15 89 16 10 17 2 18 1 19 90 20 91 21 92 22 93 23
REMARK SMILES IDX 101 24 94 25 97 26 95 27 96 28 98 29 99 30 100 31 18 32
REMARK SMILES IDX 19 33 20 34 21 35 22 36 23 37 24 38 88 39 25 40 87 41 26 42
REMARK SMILES IDX 27 43 28 44 81 45 29 46 86 47 80 48 82 49 30 50 85 51 79 52
REMARK SMILES IDX 78 53 31 55 65 56 44 57 64 58 45 59 48 60 63 61 83 62 46 63
REMARK SMILES IDX 47 64 62 66 84 67 49 68 32 69 33 70 42 71 34 72 35 73 41 74
REMARK SMILES IDX 43 75 36 76 37 77 38 78 39 79 40 80 66 81 67 82 76 83 68 84
REMARK SMILES IDX 69 85 75 86 77 87 70 88 71 89 72 90 73 91 74 92 50 93 51 94
REMARK SMILES IDX 60 95 52 96 53 97 59 98 61 99 54 100 55 101 56 102 57 103
REMARK SMILES IDX 58 104
REMARK H PARENT 3 11 82 54 48 65
REMARK Flexibility Score: inf
ROOT
ATOM      1  O   UNL A   1      39.058  22.455  26.663  1.00  0.00    -0.374 OA
ENDROOT
BRANCH   1   2
ATOM      2  C   UNL A   1      38.171  22.363  25.553  1.00  0.00     0.202 C 
BRANCH   2   3
ATOM      3  C   UNL A   1      37.100  21.266  25.578  1.00  0.00     0.261 C 
BRANCH   3   4
ATOM      4  O   UNL A   1      35.827  21.643  25.009  1.00  0.00    -0.462 OA
BRANCH   4   5
ATOM      5  C   UNL A   1      35.108  22.491  25.785  1.00  0.00     0.331 C 
ATOM      6  O   UNL A   1      35.014  22.398  27.010  1.00  0.00    -0.250 OA
BRANCH   5   7
ATOM      7  C   UNL A   1      34.331  23.584  25.049  1.00  0.00     0.224 C 
ATOM      8  N   UNL A   1      30.501  26.615  23.478  1.00  0.00    -0.335 N 
ATOM      9  C   UNL A   1      31.448  25.786  22.744  1.00  0.00     0.267 C 
ATOM     10  C   UNL A   1      30.641  26.668  24.932  1.00  0.00     0.267 C 
ATOM     11  H   UNL A   1      29.644  26.073  23.366  1.00  0.00     0.348 HD
ATOM     12  C   UNL A   1      32.852  25.727  23.301  1.00  0.00     0.120 C 
ATOM     13  C   UNL A   1      32.018  26.462  25.544  1.00  0.00     0.120 C 
ATOM     14  C   UNL A   1      32.931  25.484  24.817  1.00  0.00     0.155 C 
ATOM     15  O   UNL A   1      34.270  25.954  25.147  1.00  0.00    -0.352 OA
ATOM     16  N   UNL A   1      32.954  24.057  25.217  1.00  0.00    -0.293 N 
ATOM     17  C   UNL A   1      35.130  24.837  25.353  1.00  0.00     0.200 C 
BRANCH   8  18
ATOM     18  C   UNL A   1      30.242  27.919  22.867  1.00  0.00     0.258 C 
ATOM     19  C   UNL A   1      30.592  29.069  23.810  1.00  0.00     0.071 C 
ENDBRANCH   8  18
BRANCH  16  20
ATOM     20  C   UNL A   1      31.954  23.101  25.106  1.00  0.00     0.257 C 
ATOM     21  O   UNL A   1      30.907  23.172  25.742  1.00  0.00    -0.269 OA
BRANCH  20  22
ATOM     22  C   UNL A   1      32.067  21.902  24.262  1.00  0.00     0.047 A 
ATOM     23  C   UNL A   1      31.881  21.933  22.878  1.00  0.00     0.016 A 
ATOM     24  C   UNL A   1      32.230  20.674  24.910  1.00  0.00     0.101 A 
ATOM     25  C   UNL A   1      31.968  20.736  22.144  1.00  0.00     0.028 A 
ATOM     26  C   UNL A   1      32.439  19.507  24.162  1.00  0.00     0.288 A 
ATOM     27  C   UNL A   1      32.285  19.521  22.775  1.00  0.00     0.118 A 
ATOM     28  Cl  UNL A   1      32.399  18.117  21.778  1.00  0.00    -0.077 Cl
BRANCH  26  29
ATOM     29  N   UNL A   1      32.914  18.335  24.887  1.00  0.00     0.064 N 
ATOM     30  O   UNL A   1      32.092  17.666  25.526  1.00  0.00    -0.258 OA
ATOM     31  O   UNL A   1      34.108  18.030  24.744  1.00  0.00    -0.258 OA
ENDBRANCH  26  29
ENDBRANCH  20  22
ENDBRANCH  16  20
ENDBRANCH   5   7
ENDBRANCH   4   5
ENDBRANCH   3   4
ENDBRANCH   2   3
ENDBRANCH   1   2
BRANCH   1  32
ATOM     32  C   UNL A   1      40.442  22.200  26.417  1.00  0.00     0.202 C 
BRANCH  32  33
ATOM     33  C   UNL A   1      41.361  23.422  26.268  1.00  0.00     0.261 C 
BRANCH  33  34
ATOM     34  O   UNL A   1      40.625  24.650  26.095  1.00  0.00    -0.460 OA
BRANCH  34  35
ATOM     35  C   UNL A   1      41.387  25.767  26.064  1.00  0.00     0.338 C 
ATOM     36  O   UNL A   1      41.853  26.314  25.071  1.00  0.00    -0.246 OA
BRANCH  35  37
ATOM     37  C   UNL A   1      41.438  26.394  27.397  1.00  0.00     0.060 A 
ATOM     38  C   UNL A   1      40.467  25.996  28.322  1.00  0.00     0.016 A 
ATOM     39  C   UNL A   1      42.343  27.411  27.715  1.00  0.00     0.016 A 
ATOM     40  C   UNL A   1      40.342  26.667  29.534  1.00  0.00     0.010 A 
ATOM     41  C   UNL A   1      42.216  28.085  28.940  1.00  0.00     0.010 A 
ATOM     42  C   UNL A   1      41.181  27.752  29.832  1.00  0.00    -0.014 A 
BRANCH  42  43
ATOM     43  C   UNL A   1      40.823  28.605  30.998  1.00  0.00     0.031 A 
ATOM     44  C   UNL A   1      41.671  28.542  32.244  1.00  0.00     0.074 A 
ATOM     45  C   UNL A   1      39.843  29.522  30.905  1.00  0.00     0.049 A 
ATOM     46  N   UNL A   1      41.655  29.320  33.297  1.00  0.00    -0.248 NA
ATOM     47  C   UNL A   1      42.671  27.465  32.311  1.00  0.00     0.031 C 
ATOM     48  C   UNL A   1      38.956  29.696  29.755  1.00  0.00     0.029 A 
ATOM     49  N   UNL A   1      39.448  30.500  31.784  1.00  0.00    -0.354 N 
ATOM     50  C   UNL A   1      42.648  28.837  34.142  1.00  0.00     0.074 A 
ATOM     51  C   UNL A   1      43.213  27.667  33.504  1.00  0.00     0.031 C 
ATOM     52  C   UNL A   1      38.136  30.735  29.988  1.00  0.00     0.029 A 
ATOM     53  C   UNL A   1      38.433  31.295  31.306  1.00  0.00     0.049 A 
ATOM     54  H   UNL A   1      39.853  30.621  32.673  1.00  0.00     0.167 HD
ATOM     55  C   UNL A   1      43.072  29.333  35.330  1.00  0.00     0.037 A 
ATOM     56  C   UNL A   1      37.824  32.364  31.858  1.00  0.00     0.037 A 
ATOM     57  C   UNL A   1      42.519  30.500  35.967  1.00  0.00     0.049 A 
ATOM     58  C   UNL A   1      38.296  32.884  33.190  1.00  0.00     0.074 A 
ATOM     59  C   UNL A   1      42.899  31.091  37.160  1.00  0.00     0.029 A 
ATOM     60  N   UNL A   1      41.468  31.254  35.467  1.00  0.00    -0.354 N 
ATOM     61  N   UNL A   1      39.268  32.444  33.952  1.00  0.00    -0.248 NA
ATOM     62  C   UNL A   1      37.598  34.062  33.728  1.00  0.00     0.031 C 
ATOM     63  C   UNL A   1      42.048  32.175  37.404  1.00  0.00     0.029 A 
ATOM     64  C   UNL A   1      41.171  32.290  36.337  1.00  0.00     0.049 A 
ATOM     65  H   UNL A   1      41.001  31.077  34.619  1.00  0.00     0.167 HD
ATOM     66  C   UNL A   1      39.317  33.305  35.046  1.00  0.00     0.074 A 
ATOM     67  C   UNL A   1      38.287  34.301  34.837  1.00  0.00     0.031 C 
ATOM     68  C   UNL A   1      40.141  33.275  36.122  1.00  0.00     0.037 A 
BRANCH  55  69
ATOM     69  C   UNL A   1      44.188  28.605  36.027  1.00  0.00     0.058 A 
ATOM     70  C   UNL A   1      45.533  28.968  35.847  1.00  0.00     0.135 A 
ATOM     71  C   UNL A   1      43.907  27.550  36.911  1.00  0.00     0.135 A 
ATOM     72  F   UNL A   1      45.858  29.957  34.999  1.00  0.00    -0.206 F 
ATOM     73  C   UNL A   1      46.561  28.296  36.499  1.00  0.00     0.059 A 
ATOM     74  C   UNL A   1      44.920  26.881  37.594  1.00  0.00     0.059 A 
ATOM     75  F   UNL A   1      42.640  27.161  37.118  1.00  0.00    -0.206 F 
ATOM     76  C   UNL A   1      46.245  27.252  37.369  1.00  0.00     0.060 A 
BRANCH  76  77
ATOM     77  S   UNL A   1      47.589  26.390  38.211  1.00  0.00     0.124 S 
ATOM     78  O   UNL A   1      48.207  27.479  38.960  1.00  0.00    -0.237 OA
ATOM     79  O   UNL A   1      46.874  25.397  39.008  1.00  0.00    -0.237 OA
ATOM     80  O   UNL A   1      48.387  25.852  37.114  1.00  0.00    -0.744 OA
ENDBRANCH  76  77
ENDBRANCH  55  69
BRANCH  56  81
ATOM     81  C   UNL A   1      36.707  33.034  31.137  1.00  0.00     0.058 A 
ATOM     82  C   UNL A   1      36.943  33.854  30.024  1.00  0.00     0.135 A 
ATOM     83  C   UNL A   1      35.378  32.865  31.557  1.00  0.00     0.135 A 
ATOM     84  F   UNL A   1      38.197  34.055  29.592  1.00  0.00    -0.206 F 
ATOM     85  C   UNL A   1      35.902  34.497  29.361  1.00  0.00     0.059 A 
ATOM     86  C   UNL A   1      34.320  33.477  30.895  1.00  0.00     0.059 A 
ATOM     87  F   UNL A   1      35.100  32.080  32.610  1.00  0.00    -0.206 F 
ATOM     88  C   UNL A   1      34.592  34.299  29.803  1.00  0.00     0.060 A 
BRANCH  88  89
ATOM     89  S   UNL A   1      33.242  35.093  28.904  1.00  0.00     0.124 S 
ATOM     90  O   UNL A   1      32.832  34.032  27.992  1.00  0.00    -0.237 OA
ATOM     91  O   UNL A   1      32.305  35.413  29.978  1.00  0.00    -0.237 OA
ATOM     92  O   UNL A   1      33.888  36.247  28.285  1.00  0.00    -0.744 OA
ENDBRANCH  88  89
ENDBRANCH  56  81
BRANCH  68  93
ATOM     93  C   UNL A   1      39.982  34.369  37.145  1.00  0.00     0.058 A 
ATOM     94  C   UNL A   1      39.163  34.212  38.275  1.00  0.00     0.135 A 
ATOM     95  C   UNL A   1      40.669  35.585  37.001  1.00  0.00     0.135 A 
ATOM     96  F   UNL A   1      38.483  33.069  38.463  1.00  0.00    -0.206 F 
ATOM     97  C   UNL A   1      38.997  35.236  39.201  1.00  0.00     0.059 A 
ATOM     98  C   UNL A   1      40.540  36.613  37.930  1.00  0.00     0.059 A 
ATOM     99  F   UNL A   1      41.478  35.784  35.948  1.00  0.00    -0.206 F 
ATOM    100  C   UNL A   1      39.684  36.437  39.016  1.00  0.00     0.060 A 
BRANCH 100 101
ATOM    101  S   UNL A   1      39.455  37.764  40.218  1.00  0.00     0.124 S 
ATOM    102  O   UNL A   1      38.994  37.024  41.387  1.00  0.00    -0.237 OA
ATOM    103  O   UNL A   1      40.795  38.335  40.317  1.00  0.00    -0.237 OA
ATOM    104  O   UNL A   1      38.460  38.626  39.586  1.00  0.00    -0.744 OA
ENDBRANCH 100 101
ENDBRANCH  68  93
ENDBRANCH  42  43
ENDBRANCH  35  37
ENDBRANCH  34  35
ENDBRANCH  33  34
ENDBRANCH  32  33
ENDBRANCH   1  32
TORSDOF 21
ENDMDL
MODEL 2
REMARK VINA RESULT:     -11.4      5.458      7.778
REMARK SMILES CC[NH+]1CCC2(CC1)OC[C@@H](C(=O)OCCOCCOC(=O)c1ccc(-c3c4nc(c(-c5c(F)cc(S(=O)(=O)[O-])cc5F)c5ccc([nH]5)c(-c5c(F)cc(S(=O)(=O)[O-])cc5F)c5nc(c(-c6c(F)cc(S(=O)(=O)[O-])cc6F)c6ccc3[nH]6)C=C5)C=C4)cc1)N2C(=O)c1ccc(Cl)c([N+](=O)[O-])c1
REMARK SMILES IDX 17 1 16 2 15 3 14 4 12 5 13 6 11 7 3 8 4 9 8 10 5 12 7 13
REMARK SMILES IDX 6 14 9 15 89 16 10 17 2 18 1 19 90 20 91 21 92 22 93 23
REMARK SMILES IDX 101 24 94 25 97 26 95 27 96 28 98 29 99 30 100 31 18 32
REMARK SMILES IDX 19 33 20 34 21 35 22 36 23 37 24 38 88 39 25 40 87 41 26 42
REMARK SMILES IDX 27 43 28 44 81 45 29 46 86 47 80 48 82 49 30 50 85 51 79 52
REMARK SMILES IDX 78 53 31 55 65 56 44 57 64 58 45 59 48 60 63 61 83 62 46 63
REMARK SMILES IDX 47 64 62 66 84 67 49 68 32 69 33 70 42 71 34 72 35 73 41 74
REMARK SMILES IDX 43 75 36 76 37 77 38 78 39 79 40 80 66 81 67 82 76 83 68 84
REMARK SMILES IDX 69 85 75 86 77 87 70 88 71 89 72 90 73 91 74 92 50 93 51 94
REMARK SMILES IDX 60 95 52 96 53 97 59 98 61 99 54 100 55 101 56 102 57 103
REMARK SMILES IDX 58 104
REMARK H PARENT 3 11 82 54 48 65
REMARK Flexibility Score: inf
ROOT
ATOM      1  O   UNL A   1      37.077  23.274  24.427  1.00  0.00    -0.374 OA
ENDROOT
BRANCH   1   2
ATOM      2  C   UNL A   1      36.145  24.073  25.149  1.00  0.00     0.202 C 
BRANCH   2   3
ATOM      3  C   UNL A   1      35.272  23.382  26.204  1.00  0.00     0.261 C 
BRANCH   3   4
ATOM      4  O   UNL A   1      34.034  24.061  26.509  1.00  0.00    -0.462 OA
BRANCH   4   5
ATOM      5  C   UNL A   1      32.980  23.641  25.766  1.00  0.00     0.331 C 
ATOM      6  O   UNL A   1      32.582  22.476  25.724  1.00  0.00    -0.250 OA
BRANCH   5   7
ATOM      7  C   UNL A   1      32.305  24.702  24.895  1.00  0.00     0.224 C 
ATOM      8  N   UNL A   1      30.717  29.242  23.109  1.00  0.00    -0.335 N 
ATOM      9  C   UNL A   1      29.993  28.025  23.453  1.00  0.00     0.267 C 
ATOM     10  C   UNL A   1      32.174  29.215  23.234  1.00  0.00     0.267 C 
ATOM     11  H   UNL A   1      30.448  29.851  23.881  1.00  0.00     0.348 HD
ATOM     12  C   UNL A   1      30.686  26.723  23.126  1.00  0.00     0.120 C 
ATOM     13  C   UNL A   1      32.900  27.889  23.061  1.00  0.00     0.120 C 
ATOM     14  C   UNL A   1      32.160  26.655  23.557  1.00  0.00     0.155 C 
ATOM     15  O   UNL A   1      32.688  25.581  22.725  1.00  0.00    -0.352 OA
ATOM     16  N   UNL A   1      32.381  26.165  24.938  1.00  0.00    -0.293 N 
ATOM     17  C   UNL A   1      32.845  24.403  23.510  1.00  0.00     0.200 C 
BRANCH   8  18
ATOM     18  C   UNL A   1      30.248  29.897  21.887  1.00  0.00     0.258 C 
ATOM     19  C   UNL A   1      28.727  30.040  21.866  1.00  0.00     0.071 C 
ENDBRANCH   8  18
BRANCH  16  20
ATOM     20  C   UNL A   1      32.046  26.766  26.144  1.00  0.00     0.257 C 
ATOM     21  O   UNL A   1      31.267  26.249  26.939  1.00  0.00    -0.269 OA
BRANCH  20  22
ATOM     22  C   UNL A   1      32.549  28.083  26.562  1.00  0.00     0.047 A 
ATOM     23  C   UNL A   1      31.742  29.222  26.597  1.00  0.00     0.016 A 
ATOM     24  C   UNL A   1      33.923  28.202  26.794  1.00  0.00     0.101 A 
ATOM     25  C   UNL A   1      32.307  30.455  26.972  1.00  0.00     0.028 A 
ATOM     26  C   UNL A   1      34.452  29.403  27.285  1.00  0.00     0.288 A 
ATOM     27  C   UNL A   1      33.657  30.548  27.355  1.00  0.00     0.118 A 
ATOM     28  Cl  UNL A   1      34.241  32.101  27.828  1.00  0.00    -0.077 Cl
BRANCH  26  29
ATOM     29  N   UNL A   1      35.815  29.362  27.802  1.00  0.00     0.064 N 
ATOM     30  O   UNL A   1      36.751  29.402  26.994  1.00  0.00    -0.258 OA
ATOM     31  O   UNL A   1      35.950  29.379  29.035  1.00  0.00    -0.258 OA
ENDBRANCH  26  29
ENDBRANCH  20  22
ENDBRANCH  16  20
ENDBRANCH   5   7
ENDBRANCH   4   5
ENDBRANCH   3   4
ENDBRANCH   2   3
ENDBRANCH   1   2
BRANCH   1  32
ATOM     32  C   UNL A   1      36.962  21.856  24.558  1.00  0.00     0.202 C 
BRANCH  32  33
ATOM     33  C   UNL A   1      38.060  21.138  25.357  1.00  0.00     0.261 C 
BRANCH  33  34
ATOM     34  O   UNL A   1      38.556  21.932  26.453  1.00  0.00    -0.460 OA
BRANCH  34  35
ATOM     35  C   UNL A   1      39.904  22.005  26.535  1.00  0.00     0.338 C 
ATOM     36  O   UNL A   1      40.717  21.296  25.952  1.00  0.00    -0.246 OA
BRANCH  35  37
ATOM     37  C   UNL A   1      40.312  23.207  27.284  1.00  0.00     0.060 A 
ATOM     38  C   UNL A   1      39.612  24.388  27.016  1.00  0.00     0.016 A 
ATOM     39  C   UNL A   1      41.407  23.216  28.154  1.00  0.00     0.016 A 
ATOM     40  C   UNL A   1      40.052  25.596  27.549  1.00  0.00     0.010 A 
ATOM     41  C   UNL A   1      41.847  24.435  28.693  1.00  0.00     0.010 A 
ATOM     42  C   UNL A   1      41.203  25.638  28.349  1.00  0.00    -0.014 A 
BRANCH  42  43
ATOM     43  C   UNL A   1      41.787  26.973  28.654  1.00  0.00     0.031 A 
ATOM     44  C   UNL A   1      43.193  27.282  28.204  1.00  0.00     0.074 A 
ATOM     45  C   UNL A   1      41.034  27.944  29.202  1.00  0.00     0.049 A 
ATOM     46  N   UNL A   1      43.829  28.426  28.200  1.00  0.00    -0.248 NA
ATOM     47  C   UNL A   1      43.987  26.155  27.688  1.00  0.00     0.031 C 
ATOM     48  C   UNL A   1      39.658  27.783  29.671  1.00  0.00     0.029 A 
ATOM     49  N   UNL A   1      41.312  29.270  29.429  1.00  0.00    -0.354 N 
ATOM     50  C   UNL A   1      45.086  28.161  27.668  1.00  0.00     0.074 A 
ATOM     51  C   UNL A   1      45.144  26.738  27.412  1.00  0.00     0.031 C 
ATOM     52  C   UNL A   1      39.204  28.969  30.109  1.00  0.00     0.029 A 
ATOM     53  C   UNL A   1      40.257  29.973  29.959  1.00  0.00     0.049 A 
ATOM     54  H   UNL A   1      42.186  29.678  29.232  1.00  0.00     0.167 HD
ATOM     55  C   UNL A   1      46.095  29.024  27.395  1.00  0.00     0.037 A 
ATOM     56  C   UNL A   1      40.143  31.280  30.271  1.00  0.00     0.037 A 
ATOM     57  C   UNL A   1      46.042  30.441  27.642  1.00  0.00     0.049 A 
ATOM     58  C   UNL A   1      41.286  32.217  29.979  1.00  0.00     0.074 A 
ATOM     59  C   UNL A   1      47.006  31.399  27.377  1.00  0.00     0.029 A 
ATOM     60  N   UNL A   1      44.968  31.107  28.214  1.00  0.00    -0.354 N 
ATOM     61  N   UNL A   1      42.449  31.956  29.433  1.00  0.00    -0.248 NA
ATOM     62  C   UNL A   1      41.091  33.631  30.331  1.00  0.00     0.031 C 
ATOM     63  C   UNL A   1      46.534  32.636  27.829  1.00  0.00     0.029 A 
ATOM     64  C   UNL A   1      45.254  32.458  28.330  1.00  0.00     0.049 A 
ATOM     65  H   UNL A   1      44.126  30.682  28.496  1.00  0.00     0.167 HD
ATOM     66  C   UNL A   1      43.114  33.177  29.350  1.00  0.00     0.074 A 
ATOM     67  C   UNL A   1      42.216  34.178  29.888  1.00  0.00     0.031 C 
ATOM     68  C   UNL A   1      44.354  33.446  28.870  1.00  0.00     0.037 A 
BRANCH  55  69
ATOM     69  C   UNL A   1      47.354  28.453  26.803  1.00  0.00     0.058 A 
ATOM     70  C   UNL A   1      48.465  28.131  27.600  1.00  0.00     0.135 A 
ATOM     71  C   UNL A   1      47.440  28.194  25.425  1.00  0.00     0.135 A 
ATOM     72  F   UNL A   1      48.442  28.374  28.920  1.00  0.00    -0.206 F 
ATOM     73  C   UNL A   1      49.625  27.597  27.049  1.00  0.00     0.059 A 
ATOM     74  C   UNL A   1      48.582  27.636  24.857  1.00  0.00     0.059 A 
ATOM     75  F   UNL A   1      46.409  28.485  24.617  1.00  0.00    -0.206 F 
ATOM     76  C   UNL A   1      49.675  27.355  25.676  1.00  0.00     0.060 A 
BRANCH  76  77
ATOM     77  S   UNL A   1      51.186  26.659  24.974  1.00  0.00     0.124 S 
ATOM     78  O   UNL A   1      50.893  26.711  23.546  1.00  0.00    -0.237 OA
ATOM     79  O   UNL A   1      52.207  27.588  25.447  1.00  0.00    -0.237 OA
ATOM     80  O   UNL A   1      51.244  25.320  25.555  1.00  0.00    -0.744 OA
ENDBRANCH  76  77
ENDBRANCH  55  69
BRANCH  56  81
ATOM     81  C   UNL A   1      38.884  31.790  30.879  1.00  0.00     0.058 A 
ATOM     82  C   UNL A   1      38.672  31.747  32.264  1.00  0.00     0.135 A 
ATOM     83  C   UNL A   1      37.865  32.327  30.076  1.00  0.00     0.135 A 
ATOM     84  F   UNL A   1      39.612  31.233  33.072  1.00  0.00    -0.206 F 
ATOM     85  C   UNL A   1      37.488  32.205  32.834  1.00  0.00     0.059 A 
ATOM     86  C   UNL A   1      36.684  32.813  30.624  1.00  0.00     0.059 A 
ATOM     87  F   UNL A   1      38.025  32.400  28.746  1.00  0.00    -0.206 F 
ATOM     88  C   UNL A   1      36.500  32.739  32.004  1.00  0.00     0.060 A 
BRANCH  88  89
ATOM     89  S   UNL A   1      34.987  33.381  32.755  1.00  0.00     0.124 S 
ATOM     90  O   UNL A   1      35.014  34.774  32.324  1.00  0.00    -0.237 OA
ATOM     91  O   UNL A   1      33.961  32.541  32.144  1.00  0.00    -0.237 OA
ATOM     92  O   UNL A   1      35.202  33.155  34.181  1.00  0.00    -0.744 OA
ENDBRANCH  88  89
ENDBRANCH  56  81
BRANCH  68  93
ATOM     93  C   UNL A   1      44.802  34.884  28.877  1.00  0.00     0.058 A 
ATOM     94  C   UNL A   1      45.496  35.437  29.966  1.00  0.00     0.135 A 
ATOM     95  C   UNL A   1      44.547  35.716  27.775  1.00  0.00     0.135 A 
ATOM     96  F   UNL A   1      45.766  34.686  31.046  1.00  0.00    -0.206 F 
ATOM     97  C   UNL A   1      45.881  36.773  29.980  1.00  0.00     0.059 A 
ATOM     98  C   UNL A   1      44.949  37.048  27.755  1.00  0.00     0.059 A 
ATOM     99  F   UNL A   1      43.902  35.234  26.700  1.00  0.00    -0.206 F 
ATOM    100  C   UNL A   1      45.597  37.574  28.872  1.00  0.00     0.060 A 
BRANCH 100 101
ATOM    101  S   UNL A   1      46.092  39.309  28.903  1.00  0.00     0.124 S 
ATOM    102  O   UNL A   1      45.001  39.912  29.661  1.00  0.00    -0.237 OA
ATOM    103  O   UNL A   1      47.383  39.256  29.583  1.00  0.00    -0.237 OA
ATOM    104  O   UNL A   1      46.152  39.670  27.489  1.00  0.00    -0.744 OA
ENDBRANCH 100 101
ENDBRANCH  68  93
ENDBRANCH  42  43
ENDBRANCH  35  37
ENDBRANCH  34  35
ENDBRANCH  33  34
ENDBRANCH  32  33
ENDBRANCH   1  32
TORSDOF 21
ENDMDL
MODEL 3
REMARK VINA RESULT:     -11.2      5.372      7.633
REMARK SMILES CC[NH+]1CCC2(CC1)OC[C@@H](C(=O)OCCOCCOC(=O)c1ccc(-c3c4nc(c(-c5c(F)cc(S(=O)(=O)[O-])cc5F)c5ccc([nH]5)c(-c5c(F)cc(S(=O)(=O)[O-])cc5F)c5nc(c(-c6c(F)cc(S(=O)(=O)[O-])cc6F)c6ccc3[nH]6)C=C5)C=C4)cc1)N2C(=O)c1ccc(Cl)c([N+](=O)[O-])c1
REMARK SMILES IDX 17 1 16 2 15 3 14 4 12 5 13 6 11 7 3 8 4 9 8 10 5 12 7 13
REMARK SMILES IDX 6 14 9 15 89 16 10 17 2 18 1 19 90 20 91 21 92 22 93 23
REMARK SMILES IDX 101 24 94 25 97 26 95 27 96 28 98 29 99 30 100 31 18 32
REMARK SMILES IDX 19 33 20 34 21 35 22 36 23 37 24 38 88 39 25 40 87 41 26 42
REMARK SMILES IDX 27 43 28 44 81 45 29 46 86 47 80 48 82 49 30 50 85 51 79 52
REMARK SMILES IDX 78 53 31 55 65 56 44 57 64 58 45 59 48 60 63 61 83 62 46 63
REMARK SMILES IDX 47 64 62 66 84 67 49 68 32 69 33 70 42 71 34 72 35 73 41 74
REMARK SMILES IDX 43 75 36 76 37 77 38 78 39 79 40 80 66 81 67 82 76 83 68 84
REMARK SMILES IDX 69 85 75 86 77 87 70 88 71 89 72 90 73 91 74 92 50 93 51 94
REMARK SMILES IDX 60 95 52 96 53 97 59 98 61 99 54 100 55 101 56 102 57 103
REMARK SMILES IDX 58 104
REMARK H PARENT 3 11 82 54 48 65
REMARK Flexibility Score: inf
ROOT
ATOM      1  O   UNL A   1      36.624  23.249  24.063  1.00  0.00    -0.374 OA
ENDROOT
BRANCH   1   2
ATOM      2  C   UNL A   1      35.451  23.905  24.534  1.00  0.00     0.202 C 
BRANCH   2   3
ATOM      3  C   UNL A   1      34.912  23.508  25.915  1.00  0.00     0.261 C 
BRANCH   3   4
ATOM      4  O   UNL A   1      33.653  24.117  26.274  1.00  0.00    -0.462 OA
BRANCH   4   5
ATOM      5  C   UNL A   1      32.607  23.706  25.513  1.00  0.00     0.331 C 
ATOM      6  O   UNL A   1      32.253  22.532  25.399  1.00  0.00    -0.250 OA
BRANCH   5   7
ATOM      7  C   UNL A   1      31.884  24.794  24.717  1.00  0.00     0.224 C 
ATOM      8  N   UNL A   1      30.279  29.396  23.115  1.00  0.00    -0.335 N 
ATOM      9  C   UNL A   1      29.553  28.202  23.525  1.00  0.00     0.267 C 
ATOM     10  C   UNL A   1      31.739  29.320  23.094  1.00  0.00     0.267 C 
ATOM     11  H   UNL A   1      30.109  30.009  23.912  1.00  0.00     0.348 HD
ATOM     12  C   UNL A   1      30.166  26.879  23.126  1.00  0.00     0.120 C 
ATOM     13  C   UNL A   1      32.400  27.973  22.845  1.00  0.00     0.120 C 
ATOM     14  C   UNL A   1      31.673  26.760  23.408  1.00  0.00     0.155 C 
ATOM     15  O   UNL A   1      32.079  25.676  22.524  1.00  0.00    -0.352 OA
ATOM     16  N   UNL A   1      32.014  26.254  24.758  1.00  0.00    -0.293 N 
ATOM     17  C   UNL A   1      32.274  24.487  23.284  1.00  0.00     0.200 C 
BRANCH   8  18
ATOM     18  C   UNL A   1      29.713  30.075  21.949  1.00  0.00     0.258 C 
ATOM     19  C   UNL A   1      28.190  30.164  22.025  1.00  0.00     0.071 C 
ENDBRANCH   8  18
BRANCH  16  20
ATOM     20  C   UNL A   1      31.820  26.857  25.994  1.00  0.00     0.257 C 
ATOM     21  O   UNL A   1      31.059  26.393  26.837  1.00  0.00    -0.269 OA
BRANCH  20  22
ATOM     22  C   UNL A   1      32.466  28.117  26.392  1.00  0.00     0.047 A 
ATOM     23  C   UNL A   1      33.794  28.182  26.820  1.00  0.00     0.016 A 
ATOM     24  C   UNL A   1      31.659  29.256  26.468  1.00  0.00     0.101 A 
ATOM     25  C   UNL A   1      34.329  29.420  27.221  1.00  0.00     0.028 A 
ATOM     26  C   UNL A   1      32.230  30.505  26.749  1.00  0.00     0.288 A 
ATOM     27  C   UNL A   1      33.563  30.597  27.152  1.00  0.00     0.118 A 
ATOM     28  Cl  UNL A   1      34.325  32.066  27.637  1.00  0.00    -0.077 Cl
BRANCH  26  29
ATOM     29  N   UNL A   1      31.403  31.679  26.501  1.00  0.00     0.064 N 
ATOM     30  O   UNL A   1      31.547  32.665  27.235  1.00  0.00    -0.258 OA
ATOM     31  O   UNL A   1      30.664  31.647  25.505  1.00  0.00    -0.258 OA
ENDBRANCH  26  29
ENDBRANCH  20  22
ENDBRANCH  16  20
ENDBRANCH   5   7
ENDBRANCH   4   5
ENDBRANCH   3   4
ENDBRANCH   2   3
ENDBRANCH   1   2
BRANCH   1  32
ATOM     32  C   UNL A   1      36.754  21.855  24.350  1.00  0.00     0.202 C 
BRANCH  32  33
ATOM     33  C   UNL A   1      37.912  21.438  25.269  1.00  0.00     0.261 C 
BRANCH  33  34
ATOM     34  O   UNL A   1      38.312  22.491  26.169  1.00  0.00    -0.460 OA
BRANCH  34  35
ATOM     35  C   UNL A   1      39.623  22.487  26.497  1.00  0.00     0.338 C 
ATOM     36  O   UNL A   1      40.478  21.698  26.109  1.00  0.00    -0.246 OA
BRANCH  35  37
ATOM     37  C   UNL A   1      39.971  23.704  27.254  1.00  0.00     0.060 A 
ATOM     38  C   UNL A   1      39.356  24.895  26.854  1.00  0.00     0.016 A 
ATOM     39  C   UNL A   1      40.938  23.712  28.263  1.00  0.00     0.016 A 
ATOM     40  C   UNL A   1      39.763  26.108  27.401  1.00  0.00     0.010 A 
ATOM     41  C   UNL A   1      41.345  24.936  28.816  1.00  0.00     0.010 A 
ATOM     42  C   UNL A   1      40.798  26.145  28.348  1.00  0.00    -0.014 A 
BRANCH  42  43
ATOM     43  C   UNL A   1      41.383  27.471  28.684  1.00  0.00     0.031 A 
ATOM     44  C   UNL A   1      42.828  27.744  28.351  1.00  0.00     0.074 A 
ATOM     45  C   UNL A   1      40.608  28.466  29.154  1.00  0.00     0.049 A 
ATOM     46  N   UNL A   1      43.487  28.875  28.385  1.00  0.00    -0.248 NA
ATOM     47  C   UNL A   1      43.637  26.594  27.917  1.00  0.00     0.031 C 
ATOM     48  C   UNL A   1      39.195  28.340  29.508  1.00  0.00     0.029 A 
ATOM     49  N   UNL A   1      40.896  29.788  29.388  1.00  0.00    -0.354 N 
ATOM     50  C   UNL A   1      44.778  28.576  27.965  1.00  0.00     0.074 A 
ATOM     51  C   UNL A   1      44.826  27.149  27.732  1.00  0.00     0.031 C 
ATOM     52  C   UNL A   1      38.731  29.542  29.891  1.00  0.00     0.029 A 
ATOM     53  C   UNL A   1      39.815  30.521  29.817  1.00  0.00     0.049 A 
ATOM     54  H   UNL A   1      41.792  30.176  29.260  1.00  0.00     0.167 HD
ATOM     55  C   UNL A   1      45.826  29.413  27.766  1.00  0.00     0.037 A 
ATOM     56  C   UNL A   1      39.704  31.834  30.102  1.00  0.00     0.037 A 
ATOM     57  C   UNL A   1      45.783  30.835  27.991  1.00  0.00     0.049 A 
ATOM     58  C   UNL A   1      40.888  32.743  29.897  1.00  0.00     0.074 A 
ATOM     59  C   UNL A   1      46.787  31.768  27.796  1.00  0.00     0.029 A 
ATOM     60  N   UNL A   1      44.680  31.531  28.461  1.00  0.00    -0.354 N 
ATOM     61  N   UNL A   1      42.087  32.450  29.453  1.00  0.00    -0.248 NA
ATOM     62  C   UNL A   1      40.695  34.166  30.213  1.00  0.00     0.031 C 
ATOM     63  C   UNL A   1      46.305  33.022  28.191  1.00  0.00     0.029 A 
ATOM     64  C   UNL A   1      44.984  32.877  28.585  1.00  0.00     0.049 A 
ATOM     65  H   UNL A   1      43.808  31.128  28.677  1.00  0.00     0.167 HD
ATOM     66  C   UNL A   1      42.783  33.656  29.412  1.00  0.00     0.074 A 
ATOM     67  C   UNL A   1      41.865  34.682  29.859  1.00  0.00     0.031 C 
ATOM     68  C   UNL A   1      44.064  33.892  29.034  1.00  0.00     0.037 A 
BRANCH  55  69
ATOM     69  C   UNL A   1      47.117  28.808  27.290  1.00  0.00     0.058 A 
ATOM     70  C   UNL A   1      47.341  28.520  25.933  1.00  0.00     0.135 A 
ATOM     71  C   UNL A   1      48.156  28.543  28.196  1.00  0.00     0.135 A 
ATOM     72  F   UNL A   1      46.375  28.738  25.028  1.00  0.00    -0.206 F 
ATOM     73  C   UNL A   1      48.539  27.966  25.496  1.00  0.00     0.059 A 
ATOM     74  C   UNL A   1      49.373  28.013  27.776  1.00  0.00     0.059 A 
ATOM     75  F   UNL A   1      47.995  28.797  29.503  1.00  0.00    -0.206 F 
ATOM     76  C   UNL A   1      49.549  27.714  26.425  1.00  0.00     0.060 A 
BRANCH  76  77
ATOM     77  S   UNL A   1      51.101  26.998  25.843  1.00  0.00     0.124 S 
ATOM     78  O   UNL A   1      50.766  25.578  25.798  1.00  0.00    -0.237 OA
ATOM     79  O   UNL A   1      51.281  27.649  24.549  1.00  0.00    -0.237 OA
ATOM     80  O   UNL A   1      52.061  27.383  26.874  1.00  0.00    -0.744 OA
ENDBRANCH  76  77
ENDBRANCH  55  69
BRANCH  56  81
ATOM     81  C   UNL A   1      38.410  32.379  30.596  1.00  0.00     0.058 A 
ATOM     82  C   UNL A   1      37.495  32.991  29.726  1.00  0.00     0.135 A 
ATOM     83  C   UNL A   1      38.068  32.298  31.955  1.00  0.00     0.135 A 
ATOM     84  F   UNL A   1      37.782  33.101  28.420  1.00  0.00    -0.206 F 
ATOM     85  C   UNL A   1      36.293  33.518  30.188  1.00  0.00     0.059 A 
ATOM     86  C   UNL A   1      36.862  32.796  32.435  1.00  0.00     0.059 A 
ATOM     87  F   UNL A   1      38.905  31.711  32.825  1.00  0.00    -0.206 F 
ATOM     88  C   UNL A   1      35.984  33.412  31.546  1.00  0.00     0.060 A 
BRANCH  88  89
ATOM     89  S   UNL A   1      34.399  34.051  32.129  1.00  0.00     0.124 S 
ATOM     90  O   UNL A   1      34.804  35.285  32.790  1.00  0.00    -0.237 OA
ATOM     91  O   UNL A   1      33.653  34.206  30.884  1.00  0.00    -0.237 OA
ATOM     92  O   UNL A   1      33.917  32.989  33.009  1.00  0.00    -0.744 OA
ENDBRANCH  88  89
ENDBRANCH  56  81
BRANCH  68  93
ATOM     93  C   UNL A   1      44.541  35.320  29.061  1.00  0.00     0.058 A 
ATOM     94  C   UNL A   1      44.394  36.170  27.953  1.00  0.00     0.135 A 
ATOM     95  C   UNL A   1      45.140  35.850  30.216  1.00  0.00     0.135 A 
ATOM     96  F   UNL A   1      43.829  35.715  26.823  1.00  0.00    -0.206 F 
ATOM     97  C   UNL A   1      44.863  37.479  27.973  1.00  0.00     0.059 A 
ATOM     98  C   UNL A   1      45.590  37.165  30.268  1.00  0.00     0.059 A 
ATOM     99  F   UNL A   1      45.291  35.086  31.310  1.00  0.00    -0.206 F 
ATOM    100  C   UNL A   1      45.467  37.966  29.134  1.00  0.00     0.060 A 
BRANCH 100 101
ATOM    101  S   UNL A   1      46.081  39.664  29.148  1.00  0.00     0.124 S 
ATOM    102  O   UNL A   1      46.717  39.756  27.838  1.00  0.00    -0.237 OA
ATOM    103  O   UNL A   1      44.857  40.441  29.315  1.00  0.00    -0.237 OA
ATOM    104  O   UNL A   1      46.990  39.686  30.291  1.00  0.00    -0.744 OA
ENDBRANCH 100 101
ENDBRANCH  68  93
ENDBRANCH  42  43
ENDBRANCH  35  37
ENDBRANCH  34  35
ENDBRANCH  33  34
ENDBRANCH  32  33
ENDBRANCH   1  32
TORSDOF 21
ENDMDL
