MODEL 1
REMARK VINA RESULT:     -12.4      0.000      0.000
REMARK SMILES COc1cccc(-c2nn(-c3cc4c(cc3C(N)=O)OCO4)cc2C(=O)OCCOCCOC(=O)c2ccc(-c3c4nc(c(-c5c(F)cc(S(=O)(=O)[O-])cc5F)c5ccc([nH]5)c(-c5c(F)cc(S(=O)(=O)[O-])cc5F)c5nc(c(-c6c(F)cc(S(=O)(=O)[O-])cc6F)c6ccc3[nH]6)C=C5)C=C4)cc2)c1
REMARK SMILES IDX 31 1 30 2 29 3 28 4 27 5 25 6 26 7 24 8 8 9 9 10 10 11 23 12
REMARK SMILES IDX 7 13 3 14 4 15 102 16 5 17 6 18 2 19 1 20 11 21 12 22 16 23
REMARK SMILES IDX 13 24 15 25 14 26 22 27 20 28 21 29 17 30 18 31 19 32 32 35
REMARK SMILES IDX 33 36 34 37 35 38 36 39 37 40 101 41 38 42 100 43 39 44
REMARK SMILES IDX 40 45 41 46 94 47 42 48 99 49 93 50 95 51 43 52 98 53 92 54
REMARK SMILES IDX 91 55 44 57 78 58 57 59 77 60 58 61 61 62 76 63 96 64 59 65
REMARK SMILES IDX 60 66 75 68 97 69 62 70 45 71 46 72 55 73 47 74 48 75 54 76
REMARK SMILES IDX 56 77 49 78 50 79 51 80 52 81 53 82 79 83 80 84 89 85 81 86
REMARK SMILES IDX 82 87 88 88 90 89 83 90 84 91 85 92 86 93 87 94 63 95 64 96
REMARK SMILES IDX 73 97 65 98 66 99 72 100 74 101 67 102 68 103 69 104 70 105
REMARK SMILES IDX 71 106
REMARK H PARENT 18 33 18 34 95 56 61 67
REMARK Flexibility Score: inf
ROOT
ATOM      1  C   UNL A   1      39.605  21.903  26.603  1.00  0.00     0.202 C 
ENDROOT
BRANCH   1   2
ATOM      2  O   UNL A   1      38.607  22.426  25.736  1.00  0.00    -0.374 OA
BRANCH   2   3
ATOM      3  C   UNL A   1      37.633  21.564  25.149  1.00  0.00     0.202 C 
BRANCH   3   4
ATOM      4  C   UNL A   1      36.185  21.655  25.630  1.00  0.00     0.261 C 
BRANCH   4   5
ATOM      5  O   UNL A   1      35.603  22.940  25.371  1.00  0.00    -0.460 OA
BRANCH   5   6
ATOM      6  C   UNL A   1      35.068  23.096  24.122  1.00  0.00     0.342 C 
ATOM      7  O   UNL A   1      35.668  22.893  23.078  1.00  0.00    -0.246 OA
BRANCH   6   8
ATOM      8  C   UNL A   1      33.667  23.446  24.166  1.00  0.00     0.106 A 
ATOM      9  C   UNL A   1      32.531  22.616  23.958  1.00  0.00     0.107 A 
ATOM     10  N   UNL A   1      31.401  23.346  23.914  1.00  0.00    -0.167 NA
ATOM     11  N   UNL A   1      31.859  24.626  23.895  1.00  0.00    -0.239 N 
ATOM     12  C   UNL A   1      33.137  24.695  24.396  1.00  0.00     0.131 A 
BRANCH   9  13
ATOM     13  C   UNL A   1      32.528  21.159  23.870  1.00  0.00     0.007 A 
ATOM     14  C   UNL A   1      32.497  18.982  24.934  1.00  0.00     0.119 A 
ATOM     15  C   UNL A   1      32.259  18.389  23.689  1.00  0.00     0.046 A 
ATOM     16  C   UNL A   1      32.615  20.373  25.025  1.00  0.00     0.056 A 
ATOM     17  C   UNL A   1      32.178  19.165  22.536  1.00  0.00     0.005 A 
ATOM     18  C   UNL A   1      32.341  20.546  22.625  1.00  0.00     0.011 A 
BRANCH  14  19
ATOM     19  O   UNL A   1      32.610  18.088  25.964  1.00  0.00    -0.497 OA
ATOM     20  C   UNL A   1      33.014  16.768  25.633  1.00  0.00     0.278 C 
ENDBRANCH  14  19
ENDBRANCH   9  13
BRANCH  11  21
ATOM     21  C   UNL A   1      31.070  25.711  23.438  1.00  0.00     0.081 A 
ATOM     22  C   UNL A   1      29.788  25.872  23.999  1.00  0.00     0.079 A 
ATOM     23  C   UNL A   1      31.552  26.621  22.446  1.00  0.00     0.069 A 
ATOM     24  C   UNL A   1      29.060  26.978  23.617  1.00  0.00     0.167 A 
ATOM     25  C   UNL A   1      30.824  27.795  22.194  1.00  0.00     0.066 A 
ATOM     26  C   UNL A   1      29.581  27.926  22.770  1.00  0.00     0.166 A 
ATOM     27  O   UNL A   1      27.785  27.275  23.985  1.00  0.00    -0.454 OA
ATOM     28  O   UNL A   1      28.707  28.933  22.507  1.00  0.00    -0.454 OA
ATOM     29  C   UNL A   1      27.518  28.410  23.133  1.00  0.00     0.468 C 
BRANCH  23  30
ATOM     30  C   UNL A   1      32.638  26.238  21.468  1.00  0.00     0.251 C 
ATOM     31  N   UNL A   1      32.305  25.550  20.334  1.00  0.00    -0.366 N 
ATOM     32  O   UNL A   1      33.832  26.414  21.671  1.00  0.00    -0.269 OA
ATOM     33  H   UNL A   1      31.358  25.380  20.123  1.00  0.00     0.159 HD
ATOM     34  H   UNL A   1      33.010  25.224  19.730  1.00  0.00     0.159 HD
ENDBRANCH  23  30
ENDBRANCH  11  21
ENDBRANCH   6   8
ENDBRANCH   5   6
ENDBRANCH   4   5
ENDBRANCH   3   4
ENDBRANCH   2   3
ENDBRANCH   1   2
BRANCH   1  35
ATOM     35  C   UNL A   1      40.416  20.688  26.171  1.00  0.00     0.261 C 
BRANCH  35  36
ATOM     36  O   UNL A   1      41.700  20.647  26.755  1.00  0.00    -0.460 OA
BRANCH  36  37
ATOM     37  C   UNL A   1      42.685  20.840  25.847  1.00  0.00     0.338 C 
ATOM     38  O   UNL A   1      43.153  20.021  25.079  1.00  0.00    -0.246 OA
BRANCH  37  39
ATOM     39  C   UNL A   1      43.238  22.179  26.053  1.00  0.00     0.060 A 
ATOM     40  C   UNL A   1      43.925  22.366  27.253  1.00  0.00     0.016 A 
ATOM     41  C   UNL A   1      42.757  23.246  25.278  1.00  0.00     0.016 A 
ATOM     42  C   UNL A   1      43.897  23.617  27.815  1.00  0.00     0.010 A 
ATOM     43  C   UNL A   1      42.710  24.486  25.851  1.00  0.00     0.010 A 
ATOM     44  C   UNL A   1      43.196  24.625  27.149  1.00  0.00    -0.014 A 
BRANCH  44  45
ATOM     45  C   UNL A   1      43.069  25.905  27.799  1.00  0.00     0.031 A 
ATOM     46  C   UNL A   1      44.208  26.787  27.476  1.00  0.00     0.074 A 
ATOM     47  C   UNL A   1      41.972  26.235  28.504  1.00  0.00     0.049 A 
ATOM     48  N   UNL A   1      45.173  27.131  28.261  1.00  0.00    -0.248 NA
ATOM     49  C   UNL A   1      44.444  27.106  26.057  1.00  0.00     0.031 C 
ATOM     50  C   UNL A   1      40.723  25.485  28.653  1.00  0.00     0.029 A 
ATOM     51  N   UNL A   1      41.711  27.395  29.161  1.00  0.00    -0.354 N 
ATOM     52  C   UNL A   1      45.988  27.945  27.487  1.00  0.00     0.074 A 
ATOM     53  C   UNL A   1      45.649  27.673  26.116  1.00  0.00     0.031 C 
ATOM     54  C   UNL A   1      39.769  26.305  29.151  1.00  0.00     0.029 A 
ATOM     55  C   UNL A   1      40.365  27.591  29.461  1.00  0.00     0.049 A 
ATOM     56  H   UNL A   1      42.413  28.042  29.402  1.00  0.00     0.167 HD
ATOM     57  C   UNL A   1      46.640  29.001  28.041  1.00  0.00     0.037 A 
ATOM     58  C   UNL A   1      39.813  28.777  29.832  1.00  0.00     0.037 A 
ATOM     59  C   UNL A   1      46.705  28.870  29.477  1.00  0.00     0.049 A 
ATOM     60  C   UNL A   1      40.934  29.626  30.339  1.00  0.00     0.074 A 
ATOM     61  C   UNL A   1      47.221  27.914  30.332  1.00  0.00     0.029 A 
ATOM     62  N   UNL A   1      45.814  29.606  30.225  1.00  0.00    -0.354 N 
ATOM     63  N   UNL A   1      41.603  29.351  31.428  1.00  0.00    -0.248 NA
ATOM     64  C   UNL A   1      41.643  30.458  29.373  1.00  0.00     0.031 C 
ATOM     65  C   UNL A   1      46.277  27.820  31.395  1.00  0.00     0.029 A 
ATOM     66  C   UNL A   1      45.283  28.775  31.179  1.00  0.00     0.049 A 
ATOM     67  H   UNL A   1      45.598  30.558  30.097  1.00  0.00     0.167 HD
ATOM     68  C   UNL A   1      42.933  29.597  31.107  1.00  0.00     0.074 A 
ATOM     69  C   UNL A   1      42.889  30.337  29.846  1.00  0.00     0.031 C 
ATOM     70  C   UNL A   1      43.949  28.921  31.722  1.00  0.00     0.037 A 
BRANCH  57  71
ATOM     71  C   UNL A   1      46.841  30.317  27.332  1.00  0.00     0.058 A 
ATOM     72  C   UNL A   1      48.127  30.887  27.311  1.00  0.00     0.135 A 
ATOM     73  C   UNL A   1      45.790  31.168  26.917  1.00  0.00     0.135 A 
ATOM     74  F   UNL A   1      49.199  30.171  27.690  1.00  0.00    -0.206 F 
ATOM     75  C   UNL A   1      48.344  32.224  26.979  1.00  0.00     0.059 A 
ATOM     76  C   UNL A   1      45.990  32.483  26.526  1.00  0.00     0.059 A 
ATOM     77  F   UNL A   1      44.502  30.809  26.961  1.00  0.00    -0.206 F 
ATOM     78  C   UNL A   1      47.263  33.016  26.601  1.00  0.00     0.060 A 
BRANCH  78  79
ATOM     79  S   UNL A   1      47.517  34.766  26.271  1.00  0.00     0.124 S 
ATOM     80  O   UNL A   1      47.292  34.825  24.832  1.00  0.00    -0.237 OA
ATOM     81  O   UNL A   1      46.492  35.379  27.108  1.00  0.00    -0.237 OA
ATOM     82  O   UNL A   1      48.892  34.993  26.706  1.00  0.00    -0.744 OA
ENDBRANCH  78  79
ENDBRANCH  57  71
BRANCH  58  83
ATOM     83  C   UNL A   1      38.491  29.330  29.420  1.00  0.00     0.058 A 
ATOM     84  C   UNL A   1      37.540  29.752  30.367  1.00  0.00     0.135 A 
ATOM     85  C   UNL A   1      38.233  29.706  28.084  1.00  0.00     0.135 A 
ATOM     86  F   UNL A   1      37.709  29.464  31.666  1.00  0.00    -0.206 F 
ATOM     87  C   UNL A   1      36.429  30.535  30.018  1.00  0.00     0.059 A 
ATOM     88  C   UNL A   1      37.131  30.473  27.712  1.00  0.00     0.059 A 
ATOM     89  F   UNL A   1      39.099  29.418  27.102  1.00  0.00    -0.206 F 
ATOM     90  C   UNL A   1      36.244  30.908  28.687  1.00  0.00     0.060 A 
BRANCH  90  91
ATOM     91  S   UNL A   1      34.924  32.065  28.248  1.00  0.00     0.124 S 
ATOM     92  O   UNL A   1      34.386  32.422  29.556  1.00  0.00    -0.237 OA
ATOM     93  O   UNL A   1      35.655  33.116  27.548  1.00  0.00    -0.237 OA
ATOM     94  O   UNL A   1      34.037  31.265  27.406  1.00  0.00    -0.744 OA
ENDBRANCH  90  91
ENDBRANCH  58  83
BRANCH  70  95
ATOM     95  C   UNL A   1      43.622  28.086  32.936  1.00  0.00     0.058 A 
ATOM     96  C   UNL A   1      43.461  26.688  32.922  1.00  0.00     0.135 A 
ATOM     97  C   UNL A   1      43.634  28.712  34.190  1.00  0.00     0.135 A 
ATOM     98  F   UNL A   1      43.551  25.996  31.778  1.00  0.00    -0.206 F 
ATOM     99  C   UNL A   1      43.269  25.955  34.096  1.00  0.00     0.059 A 
ATOM    100  C   UNL A   1      43.480  27.999  35.375  1.00  0.00     0.059 A 
ATOM    101  F   UNL A   1      43.855  30.035  34.278  1.00  0.00    -0.206 F 
ATOM    102  C   UNL A   1      43.278  26.622  35.320  1.00  0.00     0.060 A 
BRANCH 102 103
ATOM    103  S   UNL A   1      43.085  25.674  36.845  1.00  0.00     0.124 S 
ATOM    104  O   UNL A   1      44.374  24.997  36.949  1.00  0.00    -0.237 OA
ATOM    105  O   UNL A   1      42.834  26.715  37.838  1.00  0.00    -0.237 OA
ATOM    106  O   UNL A   1      41.945  24.805  36.564  1.00  0.00    -0.744 OA
ENDBRANCH 102 103
ENDBRANCH  70  95
ENDBRANCH  44  45
ENDBRANCH  37  39
ENDBRANCH  36  37
ENDBRANCH  35  36
ENDBRANCH   1  35
TORSDOF 21
ENDMDL
MODEL 2
REMARK VINA RESULT:     -12.1      1.563      2.112
REMARK SMILES COc1cccc(-c2nn(-c3cc4c(cc3C(N)=O)OCO4)cc2C(=O)OCCOCCOC(=O)c2ccc(-c3c4nc(c(-c5c(F)cc(S(=O)(=O)[O-])cc5F)c5ccc([nH]5)c(-c5c(F)cc(S(=O)(=O)[O-])cc5F)c5nc(c(-c6c(F)cc(S(=O)(=O)[O-])cc6F)c6ccc3[nH]6)C=C5)C=C4)cc2)c1
REMARK SMILES IDX 31 1 30 2 29 3 28 4 27 5 25 6 26 7 24 8 8 9 9 10 10 11 23 12
REMARK SMILES IDX 7 13 3 14 4 15 102 16 5 17 6 18 2 19 1 20 11 21 12 22 16 23
REMARK SMILES IDX 13 24 15 25 14 26 22 27 20 28 21 29 17 30 18 31 19 32 32 35
REMARK SMILES IDX 33 36 34 37 35 38 36 39 37 40 101 41 38 42 100 43 39 44
REMARK SMILES IDX 40 45 41 46 94 47 42 48 99 49 93 50 95 51 43 52 98 53 92 54
REMARK SMILES IDX 91 55 44 57 78 58 57 59 77 60 58 61 61 62 76 63 96 64 59 65
REMARK SMILES IDX 60 66 75 68 97 69 62 70 45 71 46 72 55 73 47 74 48 75 54 76
REMARK SMILES IDX 56 77 49 78 50 79 51 80 52 81 53 82 79 83 80 84 89 85 81 86
REMARK SMILES IDX 82 87 88 88 90 89 83 90 84 91 85 92 86 93 87 94 63 95 64 96
REMARK SMILES IDX 73 97 65 98 66 99 72 100 74 101 67 102 68 103 69 104 70 105
REMARK SMILES IDX 71 106
REMARK H PARENT 18 33 18 34 95 56 61 67
REMARK Flexibility Score: inf
ROOT
ATOM      1  C   UNL A   1      41.307  20.328  27.347  1.00  0.00     0.202 C 
ENDROOT
BRANCH   1   2
ATOM      2  O   UNL A   1      40.137  21.123  27.202  1.00  0.00    -0.374 OA
BRANCH   2   3
ATOM      3  C   UNL A   1      39.651  21.466  25.904  1.00  0.00     0.202 C 
BRANCH   3   4
ATOM      4  C   UNL A   1      38.293  22.157  25.785  1.00  0.00     0.261 C 
BRANCH   4   5
ATOM      5  O   UNL A   1      37.552  21.713  24.639  1.00  0.00    -0.460 OA
BRANCH   5   6
ATOM      6  C   UNL A   1      36.615  20.750  24.890  1.00  0.00     0.342 C 
ATOM      7  O   UNL A   1      36.856  19.560  25.016  1.00  0.00    -0.246 OA
BRANCH   6   8
ATOM      8  C   UNL A   1      35.296  21.307  25.087  1.00  0.00     0.106 A 
ATOM      9  C   UNL A   1      34.035  20.780  24.696  1.00  0.00     0.107 A 
ATOM     10  N   UNL A   1      33.051  21.674  24.905  1.00  0.00    -0.167 NA
ATOM     11  N   UNL A   1      33.727  22.807  25.235  1.00  0.00    -0.239 N 
ATOM     12  C   UNL A   1      34.991  22.509  25.684  1.00  0.00     0.131 A 
BRANCH   9  13
ATOM     13  C   UNL A   1      33.777  19.433  24.197  1.00  0.00     0.007 A 
ATOM     14  C   UNL A   1      34.061  17.031  24.361  1.00  0.00     0.119 A 
ATOM     15  C   UNL A   1      33.068  16.858  23.392  1.00  0.00     0.046 A 
ATOM     16  C   UNL A   1      34.405  18.323  24.775  1.00  0.00     0.056 A 
ATOM     17  C   UNL A   1      32.445  17.958  22.807  1.00  0.00     0.005 A 
ATOM     18  C   UNL A   1      32.821  19.243  23.190  1.00  0.00     0.011 A 
BRANCH  14  19
ATOM     19  O   UNL A   1      34.623  15.863  24.799  1.00  0.00    -0.497 OA
ATOM     20  C   UNL A   1      35.827  15.964  25.545  1.00  0.00     0.278 C 
ENDBRANCH  14  19
ENDBRANCH   9  13
BRANCH  11  21
ATOM     21  C   UNL A   1      33.146  24.096  25.137  1.00  0.00     0.081 A 
ATOM     22  C   UNL A   1      32.735  24.723  26.329  1.00  0.00     0.079 A 
ATOM     23  C   UNL A   1      32.982  24.749  23.876  1.00  0.00     0.069 A 
ATOM     24  C   UNL A   1      32.253  26.011  26.239  1.00  0.00     0.167 A 
ATOM     25  C   UNL A   1      32.609  26.103  23.858  1.00  0.00     0.066 A 
ATOM     26  C   UNL A   1      32.229  26.687  25.044  1.00  0.00     0.166 A 
ATOM     27  O   UNL A   1      31.744  26.758  27.254  1.00  0.00    -0.454 OA
ATOM     28  O   UNL A   1      31.710  27.939  25.160  1.00  0.00    -0.454 OA
ATOM     29  C   UNL A   1      31.240  27.896  26.522  1.00  0.00     0.468 C 
BRANCH  23  30
ATOM     30  C   UNL A   1      32.913  23.979  22.577  1.00  0.00     0.251 C 
ATOM     31  N   UNL A   1      31.968  23.001  22.430  1.00  0.00    -0.366 N 
ATOM     32  O   UNL A   1      33.723  24.100  21.668  1.00  0.00    -0.269 OA
ATOM     33  H   UNL A   1      31.293  22.859  23.133  1.00  0.00     0.159 HD
ATOM     34  H   UNL A   1      31.964  22.437  21.623  1.00  0.00     0.159 HD
ENDBRANCH  23  30
ENDBRANCH  11  21
ENDBRANCH   6   8
ENDBRANCH   5   6
ENDBRANCH   4   5
ENDBRANCH   3   4
ENDBRANCH   2   3
ENDBRANCH   1   2
BRANCH   1  35
ATOM     35  C   UNL A   1      42.129  19.965  26.117  1.00  0.00     0.261 C 
BRANCH  35  36
ATOM     36  O   UNL A   1      43.486  20.333  26.234  1.00  0.00    -0.460 OA
BRANCH  36  37
ATOM     37  C   UNL A   1      43.997  20.792  25.068  1.00  0.00     0.338 C 
ATOM     38  O   UNL A   1      44.305  20.140  24.087  1.00  0.00    -0.246 OA
BRANCH  37  39
ATOM     39  C   UNL A   1      44.295  22.215  25.230  1.00  0.00     0.060 A 
ATOM     40  C   UNL A   1      45.207  22.526  26.239  1.00  0.00     0.016 A 
ATOM     41  C   UNL A   1      43.424  23.165  24.673  1.00  0.00     0.016 A 
ATOM     42  C   UNL A   1      45.062  23.730  26.880  1.00  0.00     0.010 A 
ATOM     43  C   UNL A   1      43.267  24.355  25.328  1.00  0.00     0.010 A 
ATOM     44  C   UNL A   1      44.023  24.573  26.477  1.00  0.00    -0.014 A 
BRANCH  44  45
ATOM     45  C   UNL A   1      43.802  25.782  27.229  1.00  0.00     0.031 A 
ATOM     46  C   UNL A   1      44.865  26.774  26.976  1.00  0.00     0.074 A 
ATOM     47  C   UNL A   1      42.689  25.966  27.962  1.00  0.00     0.049 A 
ATOM     48  N   UNL A   1      45.806  27.130  27.783  1.00  0.00    -0.248 NA
ATOM     49  C   UNL A   1      45.062  27.225  25.586  1.00  0.00     0.031 C 
ATOM     50  C   UNL A   1      41.504  25.110  28.052  1.00  0.00     0.029 A 
ATOM     51  N   UNL A   1      42.343  27.045  28.711  1.00  0.00    -0.354 N 
ATOM     52  C   UNL A   1      46.548  28.066  27.075  1.00  0.00     0.074 A 
ATOM     53  C   UNL A   1      46.219  27.879  25.688  1.00  0.00     0.031 C 
ATOM     54  C   UNL A   1      40.492  25.808  28.618  1.00  0.00     0.029 A 
ATOM     55  C   UNL A   1      40.988  27.108  29.030  1.00  0.00     0.049 A 
ATOM     56  H   UNL A   1      42.993  27.724  29.002  1.00  0.00     0.167 HD
ATOM     57  C   UNL A   1      47.119  29.122  27.712  1.00  0.00     0.037 A 
ATOM     58  C   UNL A   1      40.348  28.213  29.497  1.00  0.00     0.037 A 
ATOM     59  C   UNL A   1      47.207  28.881  29.132  1.00  0.00     0.049 A 
ATOM     60  C   UNL A   1      41.402  29.105  30.068  1.00  0.00     0.074 A 
ATOM     61  C   UNL A   1      47.805  27.904  29.906  1.00  0.00     0.029 A 
ATOM     62  N   UNL A   1      46.268  29.482  29.939  1.00  0.00    -0.354 N 
ATOM     63  N   UNL A   1      42.101  28.797  31.129  1.00  0.00    -0.248 NA
ATOM     64  C   UNL A   1      42.034  30.065  29.171  1.00  0.00     0.031 C 
ATOM     65  C   UNL A   1      46.881  27.650  30.960  1.00  0.00     0.029 A 
ATOM     66  C   UNL A   1      45.813  28.537  30.825  1.00  0.00     0.049 A 
ATOM     67  H   UNL A   1      45.976  30.421  29.890  1.00  0.00     0.167 HD
ATOM     68  C   UNL A   1      43.404  29.173  30.825  1.00  0.00     0.074 A 
ATOM     69  C   UNL A   1      43.290  30.006  29.629  1.00  0.00     0.031 C 
ATOM     70  C   UNL A   1      44.477  28.532  31.381  1.00  0.00     0.037 A 
BRANCH  57  71
ATOM     71  C   UNL A   1      47.209  30.503  27.111  1.00  0.00     0.058 A 
ATOM     72  C   UNL A   1      48.446  31.174  27.135  1.00  0.00     0.135 A 
ATOM     73  C   UNL A   1      46.091  31.298  26.767  1.00  0.00     0.135 A 
ATOM     74  F   UNL A   1      49.574  30.518  27.453  1.00  0.00    -0.206 F 
ATOM     75  C   UNL A   1      48.552  32.547  26.911  1.00  0.00     0.059 A 
ATOM     76  C   UNL A   1      46.182  32.652  26.484  1.00  0.00     0.059 A 
ATOM     77  F   UNL A   1      44.835  30.834  26.784  1.00  0.00    -0.206 F 
ATOM     78  C   UNL A   1      47.409  33.278  26.600  1.00  0.00     0.060 A 
BRANCH  78  79
ATOM     79  S   UNL A   1      47.520  35.062  26.412  1.00  0.00     0.124 S 
ATOM     80  O   UNL A   1      48.886  35.218  25.928  1.00  0.00    -0.237 OA
ATOM     81  O   UNL A   1      46.461  35.327  25.445  1.00  0.00    -0.237 OA
ATOM     82  O   UNL A   1      47.267  35.559  27.762  1.00  0.00    -0.744 OA
ENDBRANCH  78  79
ENDBRANCH  57  71
BRANCH  58  83
ATOM     83  C   UNL A   1      38.983  28.691  29.134  1.00  0.00     0.058 A 
ATOM     84  C   UNL A   1      37.955  28.786  30.092  1.00  0.00     0.135 A 
ATOM     85  C   UNL A   1      38.726  29.318  27.897  1.00  0.00     0.135 A 
ATOM     86  F   UNL A   1      38.115  28.241  31.307  1.00  0.00    -0.206 F 
ATOM     87  C   UNL A   1      36.769  29.496  29.852  1.00  0.00     0.059 A 
ATOM     88  C   UNL A   1      37.551  30.019  27.631  1.00  0.00     0.059 A 
ATOM     89  F   UNL A   1      39.653  29.351  26.928  1.00  0.00    -0.206 F 
ATOM     90  C   UNL A   1      36.585  30.128  28.622  1.00  0.00     0.060 A 
BRANCH  90  91
ATOM     91  S   UNL A   1      35.149  31.198  28.362  1.00  0.00     0.124 S 
ATOM     92  O   UNL A   1      34.896  31.699  29.709  1.00  0.00    -0.237 OA
ATOM     93  O   UNL A   1      35.658  32.171  27.403  1.00  0.00    -0.237 OA
ATOM     94  O   UNL A   1      34.136  30.284  27.838  1.00  0.00    -0.744 OA
ENDBRANCH  90  91
ENDBRANCH  58  83
BRANCH  70  95
ATOM     95  C   UNL A   1      44.228  27.579  32.524  1.00  0.00     0.058 A 
ATOM     96  C   UNL A   1      43.978  27.975  33.852  1.00  0.00     0.135 A 
ATOM     97  C   UNL A   1      44.075  26.218  32.227  1.00  0.00     0.135 A 
ATOM     98  F   UNL A   1      43.989  29.269  34.198  1.00  0.00    -0.206 F 
ATOM     99  C   UNL A   1      43.644  27.052  34.846  1.00  0.00     0.059 A 
ATOM    100  C   UNL A   1      43.709  25.285  33.194  1.00  0.00     0.059 A 
ATOM    101  F   UNL A   1      44.228  25.785  30.965  1.00  0.00    -0.206 F 
ATOM    102  C   UNL A   1      43.513  25.706  34.507  1.00  0.00     0.060 A 
BRANCH 102 103
ATOM    103  S   UNL A   1      43.029  24.517  35.776  1.00  0.00     0.124 S 
ATOM    104  O   UNL A   1      42.791  23.311  34.989  1.00  0.00    -0.237 OA
ATOM    105  O   UNL A   1      44.200  24.485  36.648  1.00  0.00    -0.237 OA
ATOM    106  O   UNL A   1      41.837  25.119  36.370  1.00  0.00    -0.744 OA
ENDBRANCH 102 103
ENDBRANCH  70  95
ENDBRANCH  44  45
ENDBRANCH  37  39
ENDBRANCH  36  37
ENDBRANCH  35  36
ENDBRANCH   1  35
TORSDOF 21
ENDMDL
MODEL 3
REMARK VINA RESULT:     -11.9      2.623      9.551
REMARK SMILES COc1cccc(-c2nn(-c3cc4c(cc3C(N)=O)OCO4)cc2C(=O)OCCOCCOC(=O)c2ccc(-c3c4nc(c(-c5c(F)cc(S(=O)(=O)[O-])cc5F)c5ccc([nH]5)c(-c5c(F)cc(S(=O)(=O)[O-])cc5F)c5nc(c(-c6c(F)cc(S(=O)(=O)[O-])cc6F)c6ccc3[nH]6)C=C5)C=C4)cc2)c1
REMARK SMILES IDX 31 1 30 2 29 3 28 4 27 5 25 6 26 7 24 8 8 9 9 10 10 11 23 12
REMARK SMILES IDX 7 13 3 14 4 15 102 16 5 17 6 18 2 19 1 20 11 21 12 22 16 23
REMARK SMILES IDX 13 24 15 25 14 26 22 27 20 28 21 29 17 30 18 31 19 32 32 35
REMARK SMILES IDX 33 36 34 37 35 38 36 39 37 40 101 41 38 42 100 43 39 44
REMARK SMILES IDX 40 45 41 46 94 47 42 48 99 49 93 50 95 51 43 52 98 53 92 54
REMARK SMILES IDX 91 55 44 57 78 58 57 59 77 60 58 61 61 62 76 63 96 64 59 65
REMARK SMILES IDX 60 66 75 68 97 69 62 70 45 71 46 72 55 73 47 74 48 75 54 76
REMARK SMILES IDX 56 77 49 78 50 79 51 80 52 81 53 82 79 83 80 84 89 85 81 86
REMARK SMILES IDX 82 87 88 88 90 89 83 90 84 91 85 92 86 93 87 94 63 95 64 96
REMARK SMILES IDX 73 97 65 98 66 99 72 100 74 101 67 102 68 103 69 104 70 105
REMARK SMILES IDX 71 106
REMARK H PARENT 18 33 18 34 95 56 61 67
REMARK Flexibility Score: inf
ROOT
ATOM      1  C   UNL A   1      33.442  33.656  27.832  1.00  0.00     0.202 C 
ENDROOT
BRANCH   1   2
ATOM      2  O   UNL A   1      32.129  33.113  27.776  1.00  0.00    -0.374 OA
BRANCH   2   3
ATOM      3  C   UNL A   1      31.824  32.048  26.875  1.00  0.00     0.202 C 
BRANCH   3   4
ATOM      4  C   UNL A   1      32.385  30.656  27.164  1.00  0.00     0.261 C 
BRANCH   4   5
ATOM      5  O   UNL A   1      31.709  29.630  26.423  1.00  0.00    -0.460 OA
BRANCH   5   6
ATOM      6  C   UNL A   1      31.774  28.378  26.969  1.00  0.00     0.342 C 
ATOM      7  O   UNL A   1      31.369  28.083  28.082  1.00  0.00    -0.246 OA
BRANCH   6   8
ATOM      8  C   UNL A   1      32.298  27.402  26.041  1.00  0.00     0.106 A 
ATOM      9  C   UNL A   1      31.711  26.896  24.849  1.00  0.00     0.107 A 
ATOM     10  N   UNL A   1      32.433  25.875  24.351  1.00  0.00    -0.167 NA
ATOM     11  N   UNL A   1      33.340  25.629  25.333  1.00  0.00    -0.239 N 
ATOM     12  C   UNL A   1      33.493  26.728  26.144  1.00  0.00     0.131 A 
BRANCH   9  13
ATOM     13  C   UNL A   1      30.528  27.422  24.175  1.00  0.00     0.007 A 
ATOM     14  C   UNL A   1      29.512  28.887  22.533  1.00  0.00     0.119 A 
ATOM     15  C   UNL A   1      28.291  28.229  22.717  1.00  0.00     0.046 A 
ATOM     16  C   UNL A   1      30.636  28.471  23.254  1.00  0.00     0.056 A 
ATOM     17  C   UNL A   1      28.175  27.190  23.638  1.00  0.00     0.005 A 
ATOM     18  C   UNL A   1      29.287  26.808  24.385  1.00  0.00     0.011 A 
BRANCH  14  19
ATOM     19  O   UNL A   1      29.457  29.923  21.642  1.00  0.00    -0.497 OA
ATOM     20  C   UNL A   1      28.168  30.394  21.275  1.00  0.00     0.278 C 
ENDBRANCH  14  19
ENDBRANCH   9  13
BRANCH  11  21
ATOM     21  C   UNL A   1      34.031  24.395  25.441  1.00  0.00     0.081 A 
ATOM     22  C   UNL A   1      35.215  24.238  24.695  1.00  0.00     0.079 A 
ATOM     23  C   UNL A   1      33.553  23.341  26.281  1.00  0.00     0.069 A 
ATOM     24  C   UNL A   1      35.929  23.073  24.871  1.00  0.00     0.167 A 
ATOM     25  C   UNL A   1      34.385  22.235  26.519  1.00  0.00     0.066 A 
ATOM     26  C   UNL A   1      35.542  22.123  25.783  1.00  0.00     0.166 A 
ATOM     27  O   UNL A   1      37.050  22.701  24.197  1.00  0.00    -0.454 OA
ATOM     28  O   UNL A   1      36.370  21.044  25.802  1.00  0.00    -0.454 OA
ATOM     29  C   UNL A   1      37.206  21.344  24.667  1.00  0.00     0.468 C 
BRANCH  23  30
ATOM     30  C   UNL A   1      32.100  23.233  26.681  1.00  0.00     0.251 C 
ATOM     31  N   UNL A   1      31.342  22.211  26.178  1.00  0.00    -0.366 N 
ATOM     32  O   UNL A   1      31.514  24.069  27.357  1.00  0.00    -0.269 OA
ATOM     33  H   UNL A   1      31.763  21.512  25.628  1.00  0.00     0.159 HD
ATOM     34  H   UNL A   1      30.377  22.176  26.366  1.00  0.00     0.159 HD
ENDBRANCH  23  30
ENDBRANCH  11  21
ENDBRANCH   6   8
ENDBRANCH   5   6
ENDBRANCH   4   5
ENDBRANCH   3   4
ENDBRANCH   2   3
ENDBRANCH   1   2
BRANCH   1  35
ATOM     35  C   UNL A   1      34.280  33.470  29.091  1.00  0.00     0.261 C 
BRANCH  35  36
ATOM     36  O   UNL A   1      34.653  32.127  29.310  1.00  0.00    -0.460 OA
BRANCH  36  37
ATOM     37  C   UNL A   1      35.626  31.717  28.463  1.00  0.00     0.338 C 
ATOM     38  O   UNL A   1      35.602  31.735  27.246  1.00  0.00    -0.246 OA
BRANCH  37  39
ATOM     39  C   UNL A   1      36.675  31.072  29.252  1.00  0.00     0.060 A 
ATOM     40  C   UNL A   1      37.651  31.926  29.765  1.00  0.00     0.016 A 
ATOM     41  C   UNL A   1      36.862  29.685  29.140  1.00  0.00     0.016 A 
ATOM     42  C   UNL A   1      38.919  31.426  29.919  1.00  0.00     0.010 A 
ATOM     43  C   UNL A   1      38.131  29.195  29.272  1.00  0.00     0.010 A 
ATOM     44  C   UNL A   1      39.152  30.095  29.565  1.00  0.00    -0.014 A 
BRANCH  44  45
ATOM     45  C   UNL A   1      40.507  29.608  29.616  1.00  0.00     0.031 A 
ATOM     46  C   UNL A   1      41.006  29.551  31.005  1.00  0.00     0.074 A 
ATOM     47  C   UNL A   1      41.144  29.168  28.516  1.00  0.00     0.049 A 
ATOM     48  N   UNL A   1      41.877  30.330  31.552  1.00  0.00    -0.248 NA
ATOM     49  C   UNL A   1      40.266  28.710  31.963  1.00  0.00     0.031 C 
ATOM     50  C   UNL A   1      40.609  28.985  27.164  1.00  0.00     0.029 A 
ATOM     51  N   UNL A   1      42.407  28.679  28.413  1.00  0.00    -0.354 N 
ATOM     52  C   UNL A   1      41.986  29.880  32.860  1.00  0.00     0.074 A 
ATOM     53  C   UNL A   1      40.811  29.092  33.117  1.00  0.00     0.031 C 
ATOM     54  C   UNL A   1      41.462  28.217  26.449  1.00  0.00     0.029 A 
ATOM     55  C   UNL A   1      42.645  27.954  27.247  1.00  0.00     0.049 A 
ATOM     56  H   UNL A   1      43.094  28.825  29.102  1.00  0.00     0.167 HD
ATOM     57  C   UNL A   1      43.179  29.922  33.510  1.00  0.00     0.037 A 
ATOM     58  C   UNL A   1      43.704  27.124  27.048  1.00  0.00     0.037 A 
ATOM     59  C   UNL A   1      44.089  30.831  32.856  1.00  0.00     0.049 A 
ATOM     60  C   UNL A   1      44.755  27.535  28.028  1.00  0.00     0.074 A 
ATOM     61  C   UNL A   1      44.045  32.177  32.545  1.00  0.00     0.029 A 
ATOM     62  N   UNL A   1      45.062  30.287  32.049  1.00  0.00    -0.354 N 
ATOM     63  N   UNL A   1      45.371  28.687  27.975  1.00  0.00    -0.248 NA
ATOM     64  C   UNL A   1      44.734  26.906  29.344  1.00  0.00     0.031 C 
ATOM     65  C   UNL A   1      44.639  32.279  31.255  1.00  0.00     0.029 A 
ATOM     66  C   UNL A   1      45.089  31.011  30.883  1.00  0.00     0.049 A 
ATOM     67  H   UNL A   1      45.635  29.517  32.268  1.00  0.00     0.167 HD
ATOM     68  C   UNL A   1      45.432  29.125  29.293  1.00  0.00     0.074 A 
ATOM     69  C   UNL A   1      45.080  27.956  30.099  1.00  0.00     0.031 C 
ATOM     70  C   UNL A   1      45.461  30.457  29.599  1.00  0.00     0.037 A 
BRANCH  57  71
ATOM     71  C   UNL A   1      43.641  28.851  34.466  1.00  0.00     0.058 A 
ATOM     72  C   UNL A   1      43.753  27.528  34.000  1.00  0.00     0.135 A 
ATOM     73  C   UNL A   1      43.713  29.010  35.870  1.00  0.00     0.135 A 
ATOM     74  F   UNL A   1      43.692  27.259  32.686  1.00  0.00    -0.206 F 
ATOM     75  C   UNL A   1      43.848  26.439  34.866  1.00  0.00     0.059 A 
ATOM     76  C   UNL A   1      43.867  27.947  36.746  1.00  0.00     0.059 A 
ATOM     77  F   UNL A   1      43.538  30.189  36.478  1.00  0.00    -0.206 F 
ATOM     78  C   UNL A   1      43.890  26.661  36.240  1.00  0.00     0.060 A 
BRANCH  78  79
ATOM     79  S   UNL A   1      43.909  25.260  37.366  1.00  0.00     0.124 S 
ATOM     80  O   UNL A   1      42.659  25.453  38.090  1.00  0.00    -0.237 OA
ATOM     81  O   UNL A   1      43.950  24.133  36.440  1.00  0.00    -0.237 OA
ATOM     82  O   UNL A   1      45.128  25.470  38.142  1.00  0.00    -0.744 OA
ENDBRANCH  78  79
ENDBRANCH  57  71
BRANCH  58  83
ATOM     83  C   UNL A   1      43.703  25.804  26.356  1.00  0.00     0.058 A 
ATOM     84  C   UNL A   1      44.591  25.522  25.301  1.00  0.00     0.135 A 
ATOM     85  C   UNL A   1      43.014  24.694  26.888  1.00  0.00     0.135 A 
ATOM     86  F   UNL A   1      45.310  26.509  24.744  1.00  0.00    -0.206 F 
ATOM     87  C   UNL A   1      44.814  24.217  24.835  1.00  0.00     0.059 A 
ATOM     88  C   UNL A   1      43.210  23.390  26.435  1.00  0.00     0.059 A 
ATOM     89  F   UNL A   1      42.190  24.825  27.939  1.00  0.00    -0.206 F 
ATOM     90  C   UNL A   1      44.131  23.154  25.425  1.00  0.00     0.060 A 
BRANCH  90  91
ATOM     91  S   UNL A   1      44.541  21.452  24.964  1.00  0.00     0.124 S 
ATOM     92  O   UNL A   1      43.418  20.707  25.525  1.00  0.00    -0.237 OA
ATOM     93  O   UNL A   1      44.593  21.530  23.508  1.00  0.00    -0.237 OA
ATOM     94  O   UNL A   1      45.828  21.224  25.617  1.00  0.00    -0.744 OA
ENDBRANCH  90  91
ENDBRANCH  58  83
BRANCH  70  95
ATOM     95  C   UNL A   1      45.683  31.444  28.479  1.00  0.00     0.058 A 
ATOM     96  C   UNL A   1      44.660  31.974  27.669  1.00  0.00     0.135 A 
ATOM     97  C   UNL A   1      46.962  31.996  28.330  1.00  0.00     0.135 A 
ATOM     98  F   UNL A   1      43.388  31.586  27.826  1.00  0.00    -0.206 F 
ATOM     99  C   UNL A   1      44.911  32.969  26.721  1.00  0.00     0.059 A 
ATOM    100  C   UNL A   1      47.229  33.012  27.416  1.00  0.00     0.059 A 
ATOM    101  F   UNL A   1      47.967  31.585  29.121  1.00  0.00    -0.206 F 
ATOM    102  C   UNL A   1      46.202  33.481  26.600  1.00  0.00     0.060 A 
BRANCH 102 103
ATOM    103  S   UNL A   1      46.522  34.805  25.414  1.00  0.00     0.124 S 
ATOM    104  O   UNL A   1      46.204  35.996  26.194  1.00  0.00    -0.237 OA
ATOM    105  O   UNL A   1      47.934  34.613  25.095  1.00  0.00    -0.237 OA
ATOM    106  O   UNL A   1      45.600  34.511  24.319  1.00  0.00    -0.744 OA
ENDBRANCH 102 103
ENDBRANCH  70  95
ENDBRANCH  44  45
ENDBRANCH  37  39
ENDBRANCH  36  37
ENDBRANCH  35  36
ENDBRANCH   1  35
TORSDOF 21
ENDMDL
