MODEL 1
REMARK VINA RESULT:      -9.3      0.000      0.000
REMARK SMILES C[C@@H]1CC[N@@H+]1[C@@H](CO)C(=O)OCCOCCOC(=O)c1ccc(-c2c3nc(c(-c4c(F)cc(S(=O)(=O)[O-])cc4F)c4ccc([nH]4)c(-c4c(F)cc(S(=O)(=O)[O-])cc4F)c4nc(c(-c5c(F)cc(S(=O)(=O)[O-])cc5F)c5ccc2[nH]5)C=C4)C=C3)cc1
REMARK SMILES IDX 15 1 14 2 13 3 12 4 11 5 9 6 10 7 6 8 5 9 1 10 2 11 3 12
REMARK SMILES IDX 4 13 7 15 8 16 16 18 17 19 18 20 19 21 20 22 21 23 85 24
REMARK SMILES IDX 22 25 84 26 23 27 24 28 25 29 78 30 26 31 83 32 77 33 79 34
REMARK SMILES IDX 27 35 82 36 76 37 75 38 28 40 62 41 41 42 61 43 42 44 45 45
REMARK SMILES IDX 60 46 80 47 43 48 44 49 59 51 81 52 46 53 29 54 30 55 39 56
REMARK SMILES IDX 31 57 32 58 38 59 40 60 33 61 34 62 35 63 36 64 37 65 63 66
REMARK SMILES IDX 64 67 73 68 65 69 66 70 72 71 74 72 67 73 68 74 69 75 70 76
REMARK SMILES IDX 71 77 47 78 48 79 57 80 49 81 50 82 56 83 58 84 51 85 52 86
REMARK SMILES IDX 53 87 54 88 55 89
REMARK H PARENT 5 14 8 17 79 39 45 50
REMARK Flexibility Score: inf
ROOT
ATOM      1  C   UNL A   1      35.021  31.831  27.704  1.00  0.00     0.202 C 
ENDROOT
BRANCH   1   2
ATOM      2  O   UNL A   1      34.574  32.817  28.635  1.00  0.00    -0.374 OA
BRANCH   2   3
ATOM      3  C   UNL A   1      33.528  33.686  28.205  1.00  0.00     0.202 C 
BRANCH   3   4
ATOM      4  C   UNL A   1      33.637  35.146  28.654  1.00  0.00     0.261 C 
BRANCH   4   5
ATOM      5  O   UNL A   1      32.549  35.525  29.516  1.00  0.00    -0.459 OA
BRANCH   5   6
ATOM      6  C   UNL A   1      32.876  36.256  30.620  1.00  0.00     0.367 C 
ATOM      7  O   UNL A   1      33.005  37.477  30.634  1.00  0.00    -0.245 OA
BRANCH   6   8
ATOM      8  C   UNL A   1      33.138  35.378  31.852  1.00  0.00     0.321 C 
BRANCH   8   9
ATOM      9  N   UNL A   1      34.547  35.520  32.308  1.00  0.00    -0.319 N 
ATOM     10  C   UNL A   1      34.892  32.980  31.951  1.00  0.00     0.075 C 
ATOM     11  C   UNL A   1      35.287  34.271  32.636  1.00  0.00     0.187 C 
ATOM     12  C   UNL A   1      34.935  34.485  34.121  1.00  0.00     0.126 C 
ATOM     13  C   UNL A   1      34.713  35.954  33.716  1.00  0.00     0.269 C 
ATOM     14  H   UNL A   1      34.853  36.100  31.526  1.00  0.00     0.349 HD
ENDBRANCH   8   9
BRANCH   8  15
ATOM     15  C   UNL A   1      31.898  35.516  32.762  1.00  0.00     0.233 C 
BRANCH  15  16
ATOM     16  O   UNL A   1      31.363  36.828  32.869  1.00  0.00    -0.390 OA
ATOM     17  H   UNL A   1      30.532  36.879  32.370  1.00  0.00     0.210 HD
ENDBRANCH  15  16
ENDBRANCH   8  15
ENDBRANCH   6   8
ENDBRANCH   5   6
ENDBRANCH   4   5
ENDBRANCH   3   4
ENDBRANCH   2   3
ENDBRANCH   1   2
BRANCH   1  18
ATOM     18  C   UNL A   1      34.493  30.407  27.915  1.00  0.00     0.261 C 
BRANCH  18  19
ATOM     19  O   UNL A   1      35.544  29.468  28.208  1.00  0.00    -0.460 OA
BRANCH  19  20
ATOM     20  C   UNL A   1      36.207  29.699  29.365  1.00  0.00     0.338 C 
ATOM     21  O   UNL A   1      35.724  29.798  30.485  1.00  0.00    -0.246 OA
BRANCH  20  22
ATOM     22  C   UNL A   1      37.663  29.649  29.134  1.00  0.00     0.060 A 
ATOM     23  C   UNL A   1      38.104  29.600  27.805  1.00  0.00     0.016 A 
ATOM     24  C   UNL A   1      38.577  29.574  30.188  1.00  0.00     0.016 A 
ATOM     25  C   UNL A   1      39.457  29.420  27.525  1.00  0.00     0.010 A 
ATOM     26  C   UNL A   1      39.935  29.385  29.903  1.00  0.00     0.010 A 
ATOM     27  C   UNL A   1      40.375  29.269  28.572  1.00  0.00    -0.014 A 
BRANCH  27  28
ATOM     28  C   UNL A   1      41.765  28.847  28.269  1.00  0.00     0.031 A 
ATOM     29  C   UNL A   1      42.860  29.879  28.278  1.00  0.00     0.074 A 
ATOM     30  C   UNL A   1      42.054  27.557  28.022  1.00  0.00     0.049 A 
ATOM     31  N   UNL A   1      44.135  29.738  28.024  1.00  0.00    -0.248 NA
ATOM     32  C   UNL A   1      42.462  31.256  28.617  1.00  0.00     0.031 C 
ATOM     33  C   UNL A   1      41.086  26.461  28.016  1.00  0.00     0.029 A 
ATOM     34  N   UNL A   1      43.249  26.952  27.720  1.00  0.00    -0.354 N 
ATOM     35  C   UNL A   1      44.692  31.004  28.164  1.00  0.00     0.074 A 
ATOM     36  C   UNL A   1      43.610  31.906  28.497  1.00  0.00     0.031 C 
ATOM     37  C   UNL A   1      41.724  25.317  27.713  1.00  0.00     0.029 A 
ATOM     38  C   UNL A   1      43.138  25.604  27.477  1.00  0.00     0.049 A 
ATOM     39  H   UNL A   1      44.104  27.438  27.681  1.00  0.00     0.167 HD
ATOM     40  C   UNL A   1      45.987  31.379  28.035  1.00  0.00     0.037 A 
ATOM     41  C   UNL A   1      44.067  24.709  27.087  1.00  0.00     0.037 A 
ATOM     42  C   UNL A   1      47.060  30.477  27.708  1.00  0.00     0.049 A 
ATOM     43  C   UNL A   1      45.493  25.157  26.899  1.00  0.00     0.074 A 
ATOM     44  C   UNL A   1      48.410  30.754  27.582  1.00  0.00     0.029 A 
ATOM     45  N   UNL A   1      46.905  29.123  27.449  1.00  0.00    -0.354 N 
ATOM     46  N   UNL A   1      46.011  26.352  27.063  1.00  0.00    -0.248 NA
ATOM     47  C   UNL A   1      46.463  24.136  26.477  1.00  0.00     0.031 C 
ATOM     48  C   UNL A   1      49.064  29.579  27.199  1.00  0.00     0.029 A 
ATOM     49  C   UNL A   1      48.130  28.556  27.137  1.00  0.00     0.049 A 
ATOM     50  H   UNL A   1      46.050  28.636  27.481  1.00  0.00     0.167 HD
ATOM     51  C   UNL A   1      47.369  26.222  26.790  1.00  0.00     0.074 A 
ATOM     52  C   UNL A   1      47.595  24.829  26.459  1.00  0.00     0.031 C 
ATOM     53  C   UNL A   1      48.340  27.168  26.813  1.00  0.00     0.037 A 
BRANCH  40  54
ATOM     54  C   UNL A   1      46.311  32.836  28.222  1.00  0.00     0.058 A 
ATOM     55  C   UNL A   1      46.258  33.749  27.156  1.00  0.00     0.135 A 
ATOM     56  C   UNL A   1      46.654  33.330  29.491  1.00  0.00     0.135 A 
ATOM     57  F   UNL A   1      45.952  33.327  25.919  1.00  0.00    -0.206 F 
ATOM     58  C   UNL A   1      46.561  35.095  27.337  1.00  0.00     0.059 A 
ATOM     59  C   UNL A   1      46.936  34.677  29.700  1.00  0.00     0.059 A 
ATOM     60  F   UNL A   1      46.722  32.500  30.544  1.00  0.00    -0.206 F 
ATOM     61  C   UNL A   1      46.901  35.549  28.613  1.00  0.00     0.060 A 
BRANCH  61  62
ATOM     62  S   UNL A   1      47.294  37.298  28.832  1.00  0.00     0.124 S 
ATOM     63  O   UNL A   1      46.062  37.932  28.373  1.00  0.00    -0.237 OA
ATOM     64  O   UNL A   1      47.554  37.383  30.265  1.00  0.00    -0.237 OA
ATOM     65  O   UNL A   1      48.458  37.495  27.974  1.00  0.00    -0.744 OA
ENDBRANCH  61  62
ENDBRANCH  40  54
BRANCH  41  66
ATOM     66  C   UNL A   1      43.674  23.297  26.839  1.00  0.00     0.058 A 
ATOM     67  C   UNL A   1      43.435  22.411  27.900  1.00  0.00     0.135 A 
ATOM     68  C   UNL A   1      43.520  22.808  25.532  1.00  0.00     0.135 A 
ATOM     69  F   UNL A   1      43.581  22.828  29.167  1.00  0.00    -0.206 F 
ATOM     70  C   UNL A   1      43.064  21.089  27.676  1.00  0.00     0.059 A 
ATOM     71  C   UNL A   1      43.126  21.498  25.282  1.00  0.00     0.059 A 
ATOM     72  F   UNL A   1      43.728  23.618  24.483  1.00  0.00    -0.206 F 
ATOM     73  C   UNL A   1      42.907  20.643  26.362  1.00  0.00     0.060 A 
BRANCH  73  74
ATOM     74  S   UNL A   1      42.366  18.943  26.082  1.00  0.00     0.124 S 
ATOM     75  O   UNL A   1      40.977  19.139  25.682  1.00  0.00    -0.237 OA
ATOM     76  O   UNL A   1      43.277  18.501  25.029  1.00  0.00    -0.237 OA
ATOM     77  O   UNL A   1      42.568  18.309  27.380  1.00  0.00    -0.744 OA
ENDBRANCH  73  74
ENDBRANCH  41  66
BRANCH  53  78
ATOM     78  C   UNL A   1      49.746  26.727  26.503  1.00  0.00     0.058 A 
ATOM     79  C   UNL A   1      50.581  26.174  27.486  1.00  0.00     0.135 A 
ATOM     80  C   UNL A   1      50.241  26.809  25.191  1.00  0.00     0.135 A 
ATOM     81  F   UNL A   1      50.158  26.077  28.756  1.00  0.00    -0.206 F 
ATOM     82  C   UNL A   1      51.867  25.738  27.183  1.00  0.00     0.059 A 
ATOM     83  C   UNL A   1      51.515  26.354  24.862  1.00  0.00     0.059 A 
ATOM     84  F   UNL A   1      49.479  27.319  24.211  1.00  0.00    -0.206 F 
ATOM     85  C   UNL A   1      52.325  25.831  25.868  1.00  0.00     0.060 A 
BRANCH  85  86
ATOM     86  S   UNL A   1      53.984  25.231  25.482  1.00  0.00     0.124 S 
ATOM     87  O   UNL A   1      53.910  25.076  24.033  1.00  0.00    -0.237 OA
ATOM     88  O   UNL A   1      54.830  26.319  25.961  1.00  0.00    -0.237 OA
ATOM     89  O   UNL A   1      54.081  23.988  26.243  1.00  0.00    -0.744 OA
ENDBRANCH  85  86
ENDBRANCH  53  78
ENDBRANCH  27  28
ENDBRANCH  20  22
ENDBRANCH  19  20
ENDBRANCH  18  19
ENDBRANCH   1  18
TORSDOF 20
ENDMDL
MODEL 2
REMARK VINA RESULT:      -8.9      2.621      4.391
REMARK SMILES C[C@@H]1CC[N@@H+]1[C@@H](CO)C(=O)OCCOCCOC(=O)c1ccc(-c2c3nc(c(-c4c(F)cc(S(=O)(=O)[O-])cc4F)c4ccc([nH]4)c(-c4c(F)cc(S(=O)(=O)[O-])cc4F)c4nc(c(-c5c(F)cc(S(=O)(=O)[O-])cc5F)c5ccc2[nH]5)C=C4)C=C3)cc1
REMARK SMILES IDX 15 1 14 2 13 3 12 4 11 5 9 6 10 7 6 8 5 9 1 10 2 11 3 12
REMARK SMILES IDX 4 13 7 15 8 16 16 18 17 19 18 20 19 21 20 22 21 23 85 24
REMARK SMILES IDX 22 25 84 26 23 27 24 28 25 29 78 30 26 31 83 32 77 33 79 34
REMARK SMILES IDX 27 35 82 36 76 37 75 38 28 40 62 41 41 42 61 43 42 44 45 45
REMARK SMILES IDX 60 46 80 47 43 48 44 49 59 51 81 52 46 53 29 54 30 55 39 56
REMARK SMILES IDX 31 57 32 58 38 59 40 60 33 61 34 62 35 63 36 64 37 65 63 66
REMARK SMILES IDX 64 67 73 68 65 69 66 70 72 71 74 72 67 73 68 74 69 75 70 76
REMARK SMILES IDX 71 77 47 78 48 79 57 80 49 81 50 82 56 83 58 84 51 85 52 86
REMARK SMILES IDX 53 87 54 88 55 89
REMARK H PARENT 5 14 8 17 79 39 45 50
REMARK Flexibility Score: inf
ROOT
ATOM      1  C   UNL A   1      34.014  32.471  28.414  1.00  0.00     0.202 C 
ENDROOT
BRANCH   1   2
ATOM      2  O   UNL A   1      33.977  31.634  27.258  1.00  0.00    -0.374 OA
BRANCH   2   3
ATOM      3  C   UNL A   1      33.163  30.464  27.333  1.00  0.00     0.202 C 
BRANCH   3   4
ATOM      4  C   UNL A   1      31.909  30.459  26.455  1.00  0.00     0.261 C 
BRANCH   4   5
ATOM      5  O   UNL A   1      31.866  29.312  25.587  1.00  0.00    -0.459 OA
BRANCH   5   6
ATOM      6  C   UNL A   1      31.116  29.436  24.454  1.00  0.00     0.367 C 
ATOM      7  O   UNL A   1      30.301  30.332  24.253  1.00  0.00    -0.245 OA
BRANCH   6   8
ATOM      8  C   UNL A   1      31.347  28.284  23.465  1.00  0.00     0.321 C 
BRANCH   8   9
ATOM      9  N   UNL A   1      32.334  27.315  24.011  1.00  0.00    -0.319 N 
ATOM     10  C   UNL A   1      34.216  28.554  22.737  1.00  0.00     0.075 C 
ATOM     11  C   UNL A   1      33.685  27.293  23.387  1.00  0.00     0.187 C 
ATOM     12  C   UNL A   1      33.229  26.114  22.504  1.00  0.00     0.126 C 
ATOM     13  C   UNL A   1      32.143  25.910  23.577  1.00  0.00     0.269 C 
ATOM     14  H   UNL A   1      32.231  27.596  24.986  1.00  0.00     0.349 HD
ENDBRANCH   8   9
BRANCH   8  15
ATOM     15  C   UNL A   1      29.961  27.907  22.897  1.00  0.00     0.233 C 
BRANCH  15  16
ATOM     16  O   UNL A   1      29.264  28.959  22.242  1.00  0.00    -0.390 OA
ATOM     17  H   UNL A   1      28.864  29.543  22.906  1.00  0.00     0.210 HD
ENDBRANCH  15  16
ENDBRANCH   8  15
ENDBRANCH   6   8
ENDBRANCH   5   6
ENDBRANCH   4   5
ENDBRANCH   3   4
ENDBRANCH   2   3
ENDBRANCH   1   2
BRANCH   1  18
ATOM     18  C   UNL A   1      34.808  31.942  29.614  1.00  0.00     0.261 C 
BRANCH  18  19
ATOM     19  O   UNL A   1      35.705  30.874  29.252  1.00  0.00    -0.460 OA
BRANCH  19  20
ATOM     20  C   UNL A   1      36.406  30.347  30.283  1.00  0.00     0.338 C 
ATOM     21  O   UNL A   1      35.954  29.879  31.320  1.00  0.00    -0.246 OA
BRANCH  20  22
ATOM     22  C   UNL A   1      37.833  30.242  29.924  1.00  0.00     0.060 A 
ATOM     23  C   UNL A   1      38.148  30.100  28.567  1.00  0.00     0.016 A 
ATOM     24  C   UNL A   1      38.838  30.205  30.894  1.00  0.00     0.016 A 
ATOM     25  C   UNL A   1      39.465  29.865  28.177  1.00  0.00     0.010 A 
ATOM     26  C   UNL A   1      40.159  29.961  30.499  1.00  0.00     0.010 A 
ATOM     27  C   UNL A   1      40.472  29.752  29.144  1.00  0.00    -0.014 A 
BRANCH  27  28
ATOM     28  C   UNL A   1      41.818  29.273  28.743  1.00  0.00     0.031 A 
ATOM     29  C   UNL A   1      42.960  30.253  28.705  1.00  0.00     0.074 A 
ATOM     30  C   UNL A   1      42.029  27.978  28.449  1.00  0.00     0.049 A 
ATOM     31  N   UNL A   1      44.208  30.059  28.368  1.00  0.00    -0.248 NA
ATOM     32  C   UNL A   1      42.651  31.638  29.099  1.00  0.00     0.031 C 
ATOM     33  C   UNL A   1      41.011  26.929  28.481  1.00  0.00     0.029 A 
ATOM     34  N   UNL A   1      43.172  27.326  28.059  1.00  0.00    -0.354 N 
ATOM     35  C   UNL A   1      44.833  31.294  28.500  1.00  0.00     0.074 A 
ATOM     36  C   UNL A   1      43.819  32.237  28.921  1.00  0.00     0.031 C 
ATOM     37  C   UNL A   1      41.573  25.765  28.112  1.00  0.00     0.029 A 
ATOM     38  C   UNL A   1      42.981  25.992  27.793  1.00  0.00     0.049 A 
ATOM     39  H   UNL A   1      44.045  27.772  27.976  1.00  0.00     0.167 HD
ATOM     40  C   UNL A   1      46.134  31.612  28.296  1.00  0.00     0.037 A 
ATOM     41  C   UNL A   1      43.839  25.064  27.324  1.00  0.00     0.037 A 
ATOM     42  C   UNL A   1      47.139  30.669  27.881  1.00  0.00     0.049 A 
ATOM     43  C   UNL A   1      45.271  25.450  27.055  1.00  0.00     0.074 A 
ATOM     44  C   UNL A   1      48.491  30.886  27.675  1.00  0.00     0.029 A 
ATOM     45  N   UNL A   1      46.904  29.330  27.602  1.00  0.00    -0.354 N 
ATOM     46  N   UNL A   1      45.855  26.615  27.213  1.00  0.00    -0.248 NA
ATOM     47  C   UNL A   1      46.162  24.396  26.550  1.00  0.00     0.031 C 
ATOM     48  C   UNL A   1      49.062  29.692  27.225  1.00  0.00     0.029 A 
ATOM     49  C   UNL A   1      48.078  28.716  27.201  1.00  0.00     0.049 A 
ATOM     50  H   UNL A   1      46.030  28.883  27.678  1.00  0.00     0.167 HD
ATOM     51  C   UNL A   1      47.185  26.428  26.851  1.00  0.00     0.074 A 
ATOM     52  C   UNL A   1      47.322  25.036  26.475  1.00  0.00     0.031 C 
ATOM     53  C   UNL A   1      48.201  27.327  26.833  1.00  0.00     0.037 A 
BRANCH  40  54
ATOM     54  C   UNL A   1      46.539  33.047  28.494  1.00  0.00     0.058 A 
ATOM     55  C   UNL A   1      46.508  33.977  27.443  1.00  0.00     0.135 A 
ATOM     56  C   UNL A   1      46.939  33.503  29.761  1.00  0.00     0.135 A 
ATOM     57  F   UNL A   1      46.150  33.589  26.208  1.00  0.00    -0.206 F 
ATOM     58  C   UNL A   1      46.886  35.302  27.634  1.00  0.00     0.059 A 
ATOM     59  C   UNL A   1      47.296  34.830  29.981  1.00  0.00     0.059 A 
ATOM     60  F   UNL A   1      46.988  32.655  30.800  1.00  0.00    -0.206 F 
ATOM     61  C   UNL A   1      47.281  35.719  28.907  1.00  0.00     0.060 A 
BRANCH  61  62
ATOM     62  S   UNL A   1      47.770  37.441  29.140  1.00  0.00     0.124 S 
ATOM     63  O   UNL A   1      47.884  37.517  30.593  1.00  0.00    -0.237 OA
ATOM     64  O   UNL A   1      49.027  37.512  28.401  1.00  0.00    -0.237 OA
ATOM     65  O   UNL A   1      46.662  38.191  28.557  1.00  0.00    -0.744 OA
ENDBRANCH  61  62
ENDBRANCH  40  54
BRANCH  41  66
ATOM     66  C   UNL A   1      43.365  23.678  27.071  1.00  0.00     0.058 A 
ATOM     67  C   UNL A   1      43.191  22.765  28.121  1.00  0.00     0.135 A 
ATOM     68  C   UNL A   1      43.064  23.244  25.770  1.00  0.00     0.135 A 
ATOM     69  F   UNL A   1      43.477  23.130  29.381  1.00  0.00    -0.206 F 
ATOM     70  C   UNL A   1      42.744  21.468  27.892  1.00  0.00     0.059 A 
ATOM     71  C   UNL A   1      42.591  21.960  25.518  1.00  0.00     0.059 A 
ATOM     72  F   UNL A   1      43.204  24.083  24.732  1.00  0.00    -0.206 F 
ATOM     73  C   UNL A   1      42.442  21.077  26.586  1.00  0.00     0.060 A 
BRANCH  73  74
ATOM     74  S   UNL A   1      41.804  19.410  26.305  1.00  0.00     0.124 S 
ATOM     75  O   UNL A   1      42.103  18.763  27.577  1.00  0.00    -0.237 OA
ATOM     76  O   UNL A   1      40.391  19.665  26.035  1.00  0.00    -0.237 OA
ATOM     77  O   UNL A   1      42.577  18.943  25.159  1.00  0.00    -0.744 OA
ENDBRANCH  73  74
ENDBRANCH  41  66
BRANCH  53  78
ATOM     78  C   UNL A   1      49.561  26.830  26.424  1.00  0.00     0.058 A 
ATOM     79  C   UNL A   1      50.367  26.082  27.295  1.00  0.00     0.135 A 
ATOM     80  C   UNL A   1      50.037  27.058  25.122  1.00  0.00     0.135 A 
ATOM     81  F   UNL A   1      49.961  25.838  28.551  1.00  0.00    -0.206 F 
ATOM     82  C   UNL A   1      51.609  25.596  26.898  1.00  0.00     0.059 A 
ATOM     83  C   UNL A   1      51.265  26.560  24.696  1.00  0.00     0.059 A 
ATOM     84  F   UNL A   1      49.301  27.758  24.245  1.00  0.00    -0.206 F 
ATOM     85  C   UNL A   1      52.049  25.839  25.595  1.00  0.00     0.060 A 
BRANCH  85  86
ATOM     86  S   UNL A   1      53.648  25.176  25.082  1.00  0.00     0.124 S 
ATOM     87  O   UNL A   1      54.569  25.979  25.879  1.00  0.00    -0.237 OA
ATOM     88  O   UNL A   1      53.541  23.770  25.460  1.00  0.00    -0.237 OA
ATOM     89  O   UNL A   1      53.675  25.430  23.644  1.00  0.00    -0.744 OA
ENDBRANCH  85  86
ENDBRANCH  53  78
ENDBRANCH  27  28
ENDBRANCH  20  22
ENDBRANCH  19  20
ENDBRANCH  18  19
ENDBRANCH   1  18
TORSDOF 20
ENDMDL
MODEL 3
REMARK VINA RESULT:      -8.9      6.978     13.424
REMARK SMILES C[C@@H]1CC[N@@H+]1[C@@H](CO)C(=O)OCCOCCOC(=O)c1ccc(-c2c3nc(c(-c4c(F)cc(S(=O)(=O)[O-])cc4F)c4ccc([nH]4)c(-c4c(F)cc(S(=O)(=O)[O-])cc4F)c4nc(c(-c5c(F)cc(S(=O)(=O)[O-])cc5F)c5ccc2[nH]5)C=C4)C=C3)cc1
REMARK SMILES IDX 15 1 14 2 13 3 12 4 11 5 9 6 10 7 6 8 5 9 1 10 2 11 3 12
REMARK SMILES IDX 4 13 7 15 8 16 16 18 17 19 18 20 19 21 20 22 21 23 85 24
REMARK SMILES IDX 22 25 84 26 23 27 24 28 25 29 78 30 26 31 83 32 77 33 79 34
REMARK SMILES IDX 27 35 82 36 76 37 75 38 28 40 62 41 41 42 61 43 42 44 45 45
REMARK SMILES IDX 60 46 80 47 43 48 44 49 59 51 81 52 46 53 29 54 30 55 39 56
REMARK SMILES IDX 31 57 32 58 38 59 40 60 33 61 34 62 35 63 36 64 37 65 63 66
REMARK SMILES IDX 64 67 73 68 65 69 66 70 72 71 74 72 67 73 68 74 69 75 70 76
REMARK SMILES IDX 71 77 47 78 48 79 57 80 49 81 50 82 56 83 58 84 51 85 52 86
REMARK SMILES IDX 53 87 54 88 55 89
REMARK H PARENT 5 14 8 17 79 39 45 50
REMARK Flexibility Score: inf
ROOT
ATOM      1  C   UNL A   1      38.363  22.860  26.164  1.00  0.00     0.202 C 
ENDROOT
BRANCH   1   2
ATOM      2  O   UNL A   1      37.799  22.385  24.941  1.00  0.00    -0.374 OA
BRANCH   2   3
ATOM      3  C   UNL A   1      36.383  22.209  24.907  1.00  0.00     0.202 C 
BRANCH   3   4
ATOM      4  C   UNL A   1      35.673  22.714  23.648  1.00  0.00     0.261 C 
BRANCH   4   5
ATOM      5  O   UNL A   1      34.649  23.677  23.960  1.00  0.00    -0.459 OA
BRANCH   5   6
ATOM      6  C   UNL A   1      33.436  23.175  24.330  1.00  0.00     0.367 C 
ATOM      7  O   UNL A   1      32.909  22.187  23.829  1.00  0.00    -0.245 OA
BRANCH   6   8
ATOM      8  C   UNL A   1      32.752  24.024  25.412  1.00  0.00     0.321 C 
BRANCH   8   9
ATOM      9  N   UNL A   1      31.787  24.976  24.799  1.00  0.00    -0.319 N 
ATOM     10  C   UNL A   1      33.595  26.825  24.887  1.00  0.00     0.075 C 
ATOM     11  C   UNL A   1      32.137  26.422  24.840  1.00  0.00     0.187 C 
ATOM     12  C   UNL A   1      31.263  26.570  26.101  1.00  0.00     0.126 C 
ATOM     13  C   UNL A   1      30.588  25.272  25.619  1.00  0.00     0.269 C 
ATOM     14  H   UNL A   1      31.720  24.495  23.902  1.00  0.00     0.349 HD
ENDBRANCH   8   9
BRANCH   8  15
ATOM     15  C   UNL A   1      32.428  23.068  26.581  1.00  0.00     0.233 C 
BRANCH  15  16
ATOM     16  O   UNL A   1      31.349  22.171  26.354  1.00  0.00    -0.390 OA
ATOM     17  H   UNL A   1      31.267  21.568  27.110  1.00  0.00     0.210 HD
ENDBRANCH  15  16
ENDBRANCH   8  15
ENDBRANCH   6   8
ENDBRANCH   5   6
ENDBRANCH   4   5
ENDBRANCH   3   4
ENDBRANCH   2   3
ENDBRANCH   1   2
BRANCH   1  18
ATOM     18  C   UNL A   1      39.744  22.308  26.536  1.00  0.00     0.261 C 
BRANCH  18  19
ATOM     19  O   UNL A   1      40.381  23.077  27.574  1.00  0.00    -0.460 OA
BRANCH  19  20
ATOM     20  C   UNL A   1      41.127  24.117  27.135  1.00  0.00     0.338 C 
ATOM     21  O   UNL A   1      41.847  24.143  26.146  1.00  0.00    -0.246 OA
BRANCH  20  22
ATOM     22  C   UNL A   1      40.829  25.325  27.927  1.00  0.00     0.060 A 
ATOM     23  C   UNL A   1      41.869  26.244  28.117  1.00  0.00     0.016 A 
ATOM     24  C   UNL A   1      39.587  25.523  28.536  1.00  0.00     0.016 A 
ATOM     25  C   UNL A   1      41.688  27.337  28.962  1.00  0.00     0.010 A 
ATOM     26  C   UNL A   1      39.411  26.618  29.391  1.00  0.00     0.010 A 
ATOM     27  C   UNL A   1      40.472  27.508  29.637  1.00  0.00    -0.014 A 
BRANCH  27  28
ATOM     28  C   UNL A   1      40.368  28.532  30.706  1.00  0.00     0.031 A 
ATOM     29  C   UNL A   1      41.264  28.424  31.910  1.00  0.00     0.074 A 
ATOM     30  C   UNL A   1      39.512  29.562  30.591  1.00  0.00     0.049 A 
ATOM     31  N   UNL A   1      41.330  29.192  32.967  1.00  0.00    -0.248 NA
ATOM     32  C   UNL A   1      42.213  27.297  31.925  1.00  0.00     0.031 C 
ATOM     33  C   UNL A   1      38.616  29.793  29.458  1.00  0.00     0.029 A 
ATOM     34  N   UNL A   1      39.251  30.606  31.444  1.00  0.00    -0.354 N 
ATOM     35  C   UNL A   1      42.317  28.640  33.775  1.00  0.00     0.074 A 
ATOM     36  C   UNL A   1      42.803  27.456  33.100  1.00  0.00     0.031 C 
ATOM     37  C   UNL A   1      37.894  30.903  29.692  1.00  0.00     0.029 A 
ATOM     38  C   UNL A   1      38.257  31.444  31.001  1.00  0.00     0.049 A 
ATOM     39  H   UNL A   1      39.731  30.740  32.293  1.00  0.00     0.167 HD
ATOM     40  C   UNL A   1      42.781  29.084  34.968  1.00  0.00     0.037 A 
ATOM     41  C   UNL A   1      37.690  32.513  31.593  1.00  0.00     0.037 A 
ATOM     42  C   UNL A   1      42.297  30.265  35.634  1.00  0.00     0.049 A 
ATOM     43  C   UNL A   1      38.186  32.961  32.944  1.00  0.00     0.074 A 
ATOM     44  C   UNL A   1      42.722  30.814  36.831  1.00  0.00     0.029 A 
ATOM     45  N   UNL A   1      41.275  31.076  35.164  1.00  0.00    -0.354 N 
ATOM     46  N   UNL A   1      39.141  32.447  33.684  1.00  0.00    -0.248 NA
ATOM     47  C   UNL A   1      37.533  34.136  33.539  1.00  0.00     0.031 C 
ATOM     48  C   UNL A   1      41.925  31.928  37.109  1.00  0.00     0.029 A 
ATOM     49  C   UNL A   1      41.037  32.106  36.059  1.00  0.00     0.049 A 
ATOM     50  H   UNL A   1      40.789  30.940  34.318  1.00  0.00     0.167 HD
ATOM     51  C   UNL A   1      39.219  33.249  34.818  1.00  0.00     0.074 A 
ATOM     52  C   UNL A   1      38.222  34.288  34.662  1.00  0.00     0.031 C 
ATOM     53  C   UNL A   1      40.043  33.137  35.889  1.00  0.00     0.037 A 
BRANCH  40  54
ATOM     54  C   UNL A   1      43.852  28.271  35.643  1.00  0.00     0.058 A 
ATOM     55  C   UNL A   1      45.216  28.483  35.386  1.00  0.00     0.135 A 
ATOM     56  C   UNL A   1      43.508  27.284  36.581  1.00  0.00     0.135 A 
ATOM     57  F   UNL A   1      45.599  29.403  34.486  1.00  0.00    -0.206 F 
ATOM     58  C   UNL A   1      46.199  27.726  36.014  1.00  0.00     0.059 A 
ATOM     59  C   UNL A   1      44.476  26.532  37.240  1.00  0.00     0.059 A 
ATOM     60  F   UNL A   1      42.218  27.039  36.863  1.00  0.00    -0.206 F 
ATOM     61  C   UNL A   1      45.819  26.751  36.939  1.00  0.00     0.060 A 
BRANCH  61  62
ATOM     62  S   UNL A   1      47.107  25.775  37.744  1.00  0.00     0.124 S 
ATOM     63  O   UNL A   1      46.665  25.802  39.136  1.00  0.00    -0.237 OA
ATOM     64  O   UNL A   1      46.993  24.487  37.068  1.00  0.00    -0.237 OA
ATOM     65  O   UNL A   1      48.328  26.522  37.459  1.00  0.00    -0.744 OA
ENDBRANCH  61  62
ENDBRANCH  40  54
BRANCH  41  66
ATOM     66  C   UNL A   1      36.579  33.232  30.914  1.00  0.00     0.058 A 
ATOM     67  C   UNL A   1      36.819  34.073  29.818  1.00  0.00     0.135 A 
ATOM     68  C   UNL A   1      35.251  33.081  31.345  1.00  0.00     0.135 A 
ATOM     69  F   UNL A   1      38.073  34.259  29.377  1.00  0.00    -0.206 F 
ATOM     70  C   UNL A   1      35.784  34.746  29.176  1.00  0.00     0.059 A 
ATOM     71  C   UNL A   1      34.197  33.723  30.704  1.00  0.00     0.059 A 
ATOM     72  F   UNL A   1      34.968  32.280  32.383  1.00  0.00    -0.206 F 
ATOM     73  C   UNL A   1      34.475  34.560  29.624  1.00  0.00     0.060 A 
BRANCH  73  74
ATOM     74  S   UNL A   1      33.132  35.389  28.746  1.00  0.00     0.124 S 
ATOM     75  O   UNL A   1      32.383  35.984  29.846  1.00  0.00    -0.237 OA
ATOM     76  O   UNL A   1      33.857  36.323  27.888  1.00  0.00    -0.237 OA
ATOM     77  O   UNL A   1      32.465  34.296  28.044  1.00  0.00    -0.744 OA
ENDBRANCH  73  74
ENDBRANCH  41  66
BRANCH  53  78
ATOM     78  C   UNL A   1      39.927  34.180  36.967  1.00  0.00     0.058 A 
ATOM     79  C   UNL A   1      40.612  35.403  36.889  1.00  0.00     0.135 A 
ATOM     80  C   UNL A   1      39.074  33.976  38.064  1.00  0.00     0.135 A 
ATOM     81  F   UNL A   1      41.444  35.647  35.864  1.00  0.00    -0.206 F 
ATOM     82  C   UNL A   1      40.473  36.377  37.872  1.00  0.00     0.059 A 
ATOM     83  C   UNL A   1      38.900  34.947  39.046  1.00  0.00     0.059 A 
ATOM     84  F   UNL A   1      38.386  32.829  38.181  1.00  0.00    -0.206 F 
ATOM     85  C   UNL A   1      39.614  36.140  38.946  1.00  0.00     0.060 A 
BRANCH  85  86
ATOM     86  S   UNL A   1      39.417  37.426  40.200  1.00  0.00     0.124 S 
ATOM     87  O   UNL A   1      38.830  36.673  41.303  1.00  0.00    -0.237 OA
ATOM     88  O   UNL A   1      40.789  37.881  40.401  1.00  0.00    -0.237 OA
ATOM     89  O   UNL A   1      38.531  38.393  39.557  1.00  0.00    -0.744 OA
ENDBRANCH  85  86
ENDBRANCH  53  78
ENDBRANCH  27  28
ENDBRANCH  20  22
ENDBRANCH  19  20
ENDBRANCH  18  19
ENDBRANCH   1  18
TORSDOF 20
ENDMDL
