MODEL 1
REMARK VINA RESULT:      -9.1      0.000      0.000
REMARK SMILES CCN(Cc1ccccn1)C(=O)[C@H]([NH3+])CCC(=O)OCCOCCOC(=O)c1ccc(-c2c3nc(c(-c4c(F)cc(S(=O)(=O)[O-])cc4F)c4ccc([nH]4)c(-c4c(F)cc(S(=O)(=O)[O-])cc4F)c4nc(c(-c5c(F)cc(S(=O)(=O)[O-])cc5F)c5ccc2[nH]5)C=C4)C=C3)cc1
REMARK SMILES IDX 20 1 19 2 17 3 18 4 16 5 15 6 13 7 11 8 12 9 3 10 2 11 1 12
REMARK SMILES IDX 4 13 5 14 6 15 10 16 7 17 9 18 8 19 14 20 21 24 22 25 23 26
REMARK SMILES IDX 24 27 25 28 26 29 27 30 28 31 29 32 93 33 30 34 92 35 31 36
REMARK SMILES IDX 32 37 33 38 86 39 34 40 91 41 85 42 87 43 35 44 90 45 84 46
REMARK SMILES IDX 83 47 36 49 70 50 49 51 69 52 50 53 53 54 68 55 88 56 51 57
REMARK SMILES IDX 52 58 67 60 89 61 54 62 37 63 38 64 47 65 39 66 40 67 46 68
REMARK SMILES IDX 48 69 41 70 42 71 43 72 44 73 45 74 71 75 72 76 81 77 73 78
REMARK SMILES IDX 74 79 80 80 82 81 75 82 76 83 77 84 78 85 79 86 55 87 56 88
REMARK SMILES IDX 65 89 57 90 58 91 64 92 66 93 59 94 60 95 61 96 62 97 63 98
REMARK H PARENT 14 21 14 22 14 23 87 48 53 59
REMARK Flexibility Score: inf
ROOT
ATOM      1  C   UNL A   1      31.580  25.852  26.290  1.00  0.00     0.261 C 
ENDROOT
BRANCH   1   2
ATOM      2  O   UNL A   1      30.564  24.902  25.908  1.00  0.00    -0.463 OA
BRANCH   2   3
ATOM      3  C   UNL A   1      30.657  23.690  26.520  1.00  0.00     0.306 C 
ATOM      4  O   UNL A   1      29.923  23.306  27.424  1.00  0.00    -0.252 OA
BRANCH   3   5
ATOM      5  C   UNL A   1      31.828  22.857  26.054  1.00  0.00     0.129 C 
BRANCH   5   6
ATOM      6  C   UNL A   1      33.104  22.817  26.894  1.00  0.00     0.087 C 
BRANCH   6   7
ATOM      7  C   UNL A   1      34.046  21.608  26.722  1.00  0.00     0.271 C 
BRANCH   7   8
ATOM      8  C   UNL A   1      34.666  21.637  25.283  1.00  0.00     0.281 C 
ATOM      9  O   UNL A   1      34.760  20.577  24.648  1.00  0.00    -0.268 OA
BRANCH   8  10
ATOM     10  N   UNL A   1      35.169  22.819  24.755  1.00  0.00    -0.332 N 
BRANCH  10  11
ATOM     11  C   UNL A   1      35.019  23.069  23.323  1.00  0.00     0.116 C 
ATOM     12  C   UNL A   1      33.547  23.075  22.927  1.00  0.00     0.027 C 
ENDBRANCH  10  11
BRANCH  10  13
ATOM     13  C   UNL A   1      35.943  23.807  25.493  1.00  0.00     0.175 C 
BRANCH  13  14
ATOM     14  C   UNL A   1      37.352  23.397  25.881  1.00  0.00     0.060 A 
ATOM     15  C   UNL A   1      38.200  24.194  26.647  1.00  0.00     0.026 A 
ATOM     16  N   UNL A   1      37.721  22.150  25.485  1.00  0.00    -0.259 NA
ATOM     17  C   UNL A   1      39.441  23.687  27.037  1.00  0.00     0.004 A 
ATOM     18  C   UNL A   1      38.929  21.682  25.871  1.00  0.00     0.111 A 
ATOM     19  C   UNL A   1      39.811  22.404  26.652  1.00  0.00     0.020 A 
ENDBRANCH  13  14
ENDBRANCH  10  13
ENDBRANCH   8  10
ENDBRANCH   7   8
BRANCH   7  20
ATOM     20  N   UNL A   1      33.375  20.305  26.847  1.00  0.00    -0.347 N 
ATOM     21  H   UNL A   1      32.378  20.416  26.665  1.00  0.00     0.345 HD
ATOM     22  H   UNL A   1      33.510  19.942  27.790  1.00  0.00     0.345 HD
ATOM     23  H   UNL A   1      33.773  19.652  26.172  1.00  0.00     0.345 HD
ENDBRANCH   7  20
ENDBRANCH   6   7
ENDBRANCH   5   6
ENDBRANCH   3   5
ENDBRANCH   2   3
ENDBRANCH   1   2
BRANCH   1  24
ATOM     24  C   UNL A   1      31.948  26.914  25.243  1.00  0.00     0.202 C 
BRANCH  24  25
ATOM     25  O   UNL A   1      31.203  28.123  25.187  1.00  0.00    -0.374 OA
BRANCH  25  26
ATOM     26  C   UNL A   1      31.900  29.347  25.346  1.00  0.00     0.202 C 
BRANCH  26  27
ATOM     27  C   UNL A   1      32.393  29.769  26.735  1.00  0.00     0.261 C 
BRANCH  27  28
ATOM     28  O   UNL A   1      33.804  29.685  26.984  1.00  0.00    -0.460 OA
BRANCH  28  29
ATOM     29  C   UNL A   1      34.380  30.851  27.379  1.00  0.00     0.338 C 
ATOM     30  O   UNL A   1      33.927  31.982  27.240  1.00  0.00    -0.246 OA
BRANCH  29  31
ATOM     31  C   UNL A   1      35.629  30.578  28.116  1.00  0.00     0.060 A 
ATOM     32  C   UNL A   1      36.710  31.449  27.989  1.00  0.00     0.016 A 
ATOM     33  C   UNL A   1      35.766  29.409  28.863  1.00  0.00     0.016 A 
ATOM     34  C   UNL A   1      37.924  31.142  28.616  1.00  0.00     0.010 A 
ATOM     35  C   UNL A   1      36.953  29.135  29.546  1.00  0.00     0.010 A 
ATOM     36  C   UNL A   1      38.058  29.982  29.402  1.00  0.00    -0.014 A 
BRANCH  36  37
ATOM     37  C   UNL A   1      39.365  29.639  30.028  1.00  0.00     0.031 A 
ATOM     38  C   UNL A   1      39.848  30.375  31.255  1.00  0.00     0.074 A 
ATOM     39  C   UNL A   1      40.122  28.663  29.492  1.00  0.00     0.049 A 
ATOM     40  N   UNL A   1      40.929  30.174  31.967  1.00  0.00    -0.248 NA
ATOM     41  C   UNL A   1      39.023  31.496  31.733  1.00  0.00     0.031 C 
ATOM     42  C   UNL A   1      39.804  27.928  28.266  1.00  0.00     0.029 A 
ATOM     43  N   UNL A   1      41.307  28.112  29.909  1.00  0.00    -0.354 N 
ATOM     44  C   UNL A   1      40.916  31.141  32.968  1.00  0.00     0.074 A 
ATOM     45  C   UNL A   1      39.749  31.964  32.738  1.00  0.00     0.031 C 
ATOM     46  C   UNL A   1      40.747  26.996  28.053  1.00  0.00     0.029 A 
ATOM     47  C   UNL A   1      41.748  27.080  29.114  1.00  0.00     0.049 A 
ATOM     48  H   UNL A   1      41.798  28.427  30.703  1.00  0.00     0.167 HD
ATOM     49  C   UNL A   1      41.779  31.311  33.999  1.00  0.00     0.037 A 
ATOM     50  C   UNL A   1      42.826  26.281  29.233  1.00  0.00     0.037 A 
ATOM     51  C   UNL A   1      42.924  30.472  34.241  1.00  0.00     0.049 A 
ATOM     52  C   UNL A   1      43.740  26.454  30.415  1.00  0.00     0.074 A 
ATOM     53  C   UNL A   1      43.835  30.532  35.281  1.00  0.00     0.029 A 
ATOM     54  N   UNL A   1      43.313  29.414  33.432  1.00  0.00    -0.354 N 
ATOM     55  N   UNL A   1      43.672  27.332  31.387  1.00  0.00    -0.248 NA
ATOM     56  C   UNL A   1      44.869  25.520  30.525  1.00  0.00     0.031 C 
ATOM     57  C   UNL A   1      44.789  29.526  35.089  1.00  0.00     0.029 A 
ATOM     58  C   UNL A   1      44.452  28.817  33.947  1.00  0.00     0.049 A 
ATOM     59  H   UNL A   1      42.849  29.130  32.612  1.00  0.00     0.167 HD
ATOM     60  C   UNL A   1      44.738  27.045  32.233  1.00  0.00     0.074 A 
ATOM     61  C   UNL A   1      45.422  25.900  31.669  1.00  0.00     0.031 C 
ATOM     62  C   UNL A   1      45.117  27.675  33.372  1.00  0.00     0.037 A 
BRANCH  49  63
ATOM     63  C   UNL A   1      41.503  32.438  34.961  1.00  0.00     0.058 A 
ATOM     64  C   UNL A   1      40.639  32.272  36.056  1.00  0.00     0.135 A 
ATOM     65  C   UNL A   1      42.132  33.685  34.809  1.00  0.00     0.135 A 
ATOM     66  F   UNL A   1      40.003  31.105  36.244  1.00  0.00    -0.206 F 
ATOM     67  C   UNL A   1      40.382  33.312  36.946  1.00  0.00     0.059 A 
ATOM     68  C   UNL A   1      41.910  34.730  35.702  1.00  0.00     0.059 A 
ATOM     69  F   UNL A   1      42.971  33.899  33.784  1.00  0.00    -0.206 F 
ATOM     70  C   UNL A   1      41.019  34.539  36.759  1.00  0.00     0.060 A 
BRANCH  70  71
ATOM     71  S   UNL A   1      40.672  35.879  37.918  1.00  0.00     0.124 S 
ATOM     72  O   UNL A   1      39.710  36.675  37.162  1.00  0.00    -0.237 OA
ATOM     73  O   UNL A   1      40.133  35.165  39.072  1.00  0.00    -0.237 OA
ATOM     74  O   UNL A   1      41.978  36.498  38.123  1.00  0.00    -0.744 OA
ENDBRANCH  70  71
ENDBRANCH  49  63
BRANCH  50  75
ATOM     75  C   UNL A   1      43.070  25.213  28.228  1.00  0.00     0.058 A 
ATOM     76  C   UNL A   1      43.591  25.517  26.962  1.00  0.00     0.135 A 
ATOM     77  C   UNL A   1      42.808  23.866  28.521  1.00  0.00     0.135 A 
ATOM     78  F   UNL A   1      43.854  26.792  26.634  1.00  0.00    -0.206 F 
ATOM     79  C   UNL A   1      43.832  24.527  26.016  1.00  0.00     0.059 A 
ATOM     80  C   UNL A   1      43.061  22.854  27.599  1.00  0.00     0.059 A 
ATOM     81  F   UNL A   1      42.326  23.521  29.724  1.00  0.00    -0.206 F 
ATOM     82  C   UNL A   1      43.566  23.197  26.344  1.00  0.00     0.060 A 
BRANCH  82  83
ATOM     83  S   UNL A   1      43.936  21.910  25.132  1.00  0.00     0.124 S 
ATOM     84  O   UNL A   1      43.733  22.623  23.877  1.00  0.00    -0.237 OA
ATOM     85  O   UNL A   1      45.318  21.569  25.457  1.00  0.00    -0.237 OA
ATOM     86  O   UNL A   1      42.955  20.873  25.438  1.00  0.00    -0.744 OA
ENDBRANCH  82  83
ENDBRANCH  50  75
BRANCH  62  87
ATOM     87  C   UNL A   1      46.315  27.125  34.094  1.00  0.00     0.058 A 
ATOM     88  C   UNL A   1      46.187  26.131  35.075  1.00  0.00     0.135 A 
ATOM     89  C   UNL A   1      47.606  27.575  33.776  1.00  0.00     0.135 A 
ATOM     90  F   UNL A   1      44.973  25.671  35.418  1.00  0.00    -0.206 F 
ATOM     91  C   UNL A   1      47.297  25.618  35.737  1.00  0.00     0.059 A 
ATOM     92  C   UNL A   1      48.733  27.061  34.409  1.00  0.00     0.059 A 
ATOM     93  F   UNL A   1      47.782  28.517  32.837  1.00  0.00    -0.206 F 
ATOM     94  C   UNL A   1      48.566  26.091  35.399  1.00  0.00     0.060 A 
BRANCH  94  95
ATOM     95  S   UNL A   1      50.003  25.406  36.250  1.00  0.00     0.124 S 
ATOM     96  O   UNL A   1      50.495  24.446  35.267  1.00  0.00    -0.237 OA
ATOM     97  O   UNL A   1      50.839  26.585  36.458  1.00  0.00    -0.237 OA
ATOM     98  O   UNL A   1      49.435  24.828  37.464  1.00  0.00    -0.744 OA
ENDBRANCH  94  95
ENDBRANCH  62  87
ENDBRANCH  36  37
ENDBRANCH  29  31
ENDBRANCH  28  29
ENDBRANCH  27  28
ENDBRANCH  26  27
ENDBRANCH  25  26
ENDBRANCH  24  25
ENDBRANCH   1  24
TORSDOF 25
ENDMDL
MODEL 2
REMARK VINA RESULT:      -9.1      5.153      7.139
REMARK SMILES CCN(Cc1ccccn1)C(=O)[C@H]([NH3+])CCC(=O)OCCOCCOC(=O)c1ccc(-c2c3nc(c(-c4c(F)cc(S(=O)(=O)[O-])cc4F)c4ccc([nH]4)c(-c4c(F)cc(S(=O)(=O)[O-])cc4F)c4nc(c(-c5c(F)cc(S(=O)(=O)[O-])cc5F)c5ccc2[nH]5)C=C4)C=C3)cc1
REMARK SMILES IDX 20 1 19 2 17 3 18 4 16 5 15 6 13 7 11 8 12 9 3 10 2 11 1 12
REMARK SMILES IDX 4 13 5 14 6 15 10 16 7 17 9 18 8 19 14 20 21 24 22 25 23 26
REMARK SMILES IDX 24 27 25 28 26 29 27 30 28 31 29 32 93 33 30 34 92 35 31 36
REMARK SMILES IDX 32 37 33 38 86 39 34 40 91 41 85 42 87 43 35 44 90 45 84 46
REMARK SMILES IDX 83 47 36 49 70 50 49 51 69 52 50 53 53 54 68 55 88 56 51 57
REMARK SMILES IDX 52 58 67 60 89 61 54 62 37 63 38 64 47 65 39 66 40 67 46 68
REMARK SMILES IDX 48 69 41 70 42 71 43 72 44 73 45 74 71 75 72 76 81 77 73 78
REMARK SMILES IDX 74 79 80 80 82 81 75 82 76 83 77 84 78 85 79 86 55 87 56 88
REMARK SMILES IDX 65 89 57 90 58 91 64 92 66 93 59 94 60 95 61 96 62 97 63 98
REMARK H PARENT 14 21 14 22 14 23 87 48 53 59
REMARK Flexibility Score: inf
ROOT
ATOM      1  C   UNL A   1      34.061  32.066  28.276  1.00  0.00     0.261 C 
ENDROOT
BRANCH   1   2
ATOM      2  O   UNL A   1      34.568  31.144  27.290  1.00  0.00    -0.463 OA
BRANCH   2   3
ATOM      3  C   UNL A   1      33.862  29.987  27.173  1.00  0.00     0.306 C 
ATOM      4  O   UNL A   1      34.346  28.863  27.244  1.00  0.00    -0.252 OA
BRANCH   3   5
ATOM      5  C   UNL A   1      32.401  30.193  26.847  1.00  0.00     0.129 C 
BRANCH   5   6
ATOM      6  C   UNL A   1      31.689  29.198  25.930  1.00  0.00     0.087 C 
BRANCH   6   7
ATOM      7  C   UNL A   1      32.171  29.085  24.471  1.00  0.00     0.271 C 
BRANCH   7   8
ATOM      8  C   UNL A   1      32.330  27.571  24.095  1.00  0.00     0.281 C 
ATOM      9  O   UNL A   1      33.126  27.255  23.199  1.00  0.00    -0.268 OA
BRANCH   8  10
ATOM     10  N   UNL A   1      31.539  26.606  24.705  1.00  0.00    -0.332 N 
BRANCH  10  11
ATOM     11  C   UNL A   1      30.436  26.020  23.947  1.00  0.00     0.116 C 
ATOM     12  C   UNL A   1      29.417  27.087  23.564  1.00  0.00     0.027 C 
ENDBRANCH  10  11
BRANCH  10  13
ATOM     13  C   UNL A   1      31.642  26.192  26.096  1.00  0.00     0.175 C 
BRANCH  13  14
ATOM     14  C   UNL A   1      32.291  24.843  26.346  1.00  0.00     0.060 A 
ATOM     15  C   UNL A   1      33.493  24.449  25.760  1.00  0.00     0.026 A 
ATOM     16  N   UNL A   1      31.652  24.051  27.248  1.00  0.00    -0.259 NA
ATOM     17  C   UNL A   1      34.061  23.228  26.131  1.00  0.00     0.004 A 
ATOM     18  C   UNL A   1      32.220  22.873  27.588  1.00  0.00     0.111 A 
ATOM     19  C   UNL A   1      33.421  22.428  27.069  1.00  0.00     0.020 A 
ENDBRANCH  13  14
ENDBRANCH  10  13
ENDBRANCH   8  10
ENDBRANCH   7   8
BRANCH   7  20
ATOM     20  N   UNL A   1      33.483  29.703  24.225  1.00  0.00    -0.347 N 
ATOM     21  H   UNL A   1      33.401  30.391  23.477  1.00  0.00     0.345 HD
ATOM     22  H   UNL A   1      34.152  28.983  23.953  1.00  0.00     0.345 HD
ATOM     23  H   UNL A   1      33.807  30.162  25.076  1.00  0.00     0.345 HD
ENDBRANCH   7  20
ENDBRANCH   6   7
ENDBRANCH   5   6
ENDBRANCH   3   5
ENDBRANCH   2   3
ENDBRANCH   1   2
BRANCH   1  24
ATOM     24  C   UNL A   1      34.363  33.553  28.039  1.00  0.00     0.202 C 
BRANCH  24  25
ATOM     25  O   UNL A   1      35.034  34.296  29.047  1.00  0.00    -0.374 OA
BRANCH  25  26
ATOM     26  C   UNL A   1      36.208  33.742  29.617  1.00  0.00     0.202 C 
BRANCH  26  27
ATOM     27  C   UNL A   1      36.259  33.449  31.122  1.00  0.00     0.261 C 
BRANCH  27  28
ATOM     28  O   UNL A   1      37.189  32.449  31.564  1.00  0.00    -0.460 OA
BRANCH  28  29
ATOM     29  C   UNL A   1      36.962  31.204  31.067  1.00  0.00     0.338 C 
ATOM     30  O   UNL A   1      35.886  30.618  31.010  1.00  0.00    -0.246 OA
BRANCH  29  31
ATOM     31  C   UNL A   1      38.202  30.653  30.490  1.00  0.00     0.060 A 
ATOM     32  C   UNL A   1      39.263  30.313  31.328  1.00  0.00     0.016 A 
ATOM     33  C   UNL A   1      38.355  30.556  29.107  1.00  0.00     0.016 A 
ATOM     34  C   UNL A   1      40.472  29.875  30.773  1.00  0.00     0.010 A 
ATOM     35  C   UNL A   1      39.535  30.054  28.554  1.00  0.00     0.010 A 
ATOM     36  C   UNL A   1      40.621  29.740  29.380  1.00  0.00    -0.014 A 
BRANCH  36  37
ATOM     37  C   UNL A   1      41.924  29.318  28.796  1.00  0.00     0.031 A 
ATOM     38  C   UNL A   1      43.066  30.298  28.674  1.00  0.00     0.074 A 
ATOM     39  C   UNL A   1      42.082  28.049  28.373  1.00  0.00     0.049 A 
ATOM     40  N   UNL A   1      44.287  30.094  28.245  1.00  0.00    -0.248 NA
ATOM     41  C   UNL A   1      42.798  31.692  29.062  1.00  0.00     0.031 C 
ATOM     42  C   UNL A   1      41.034  27.026  28.367  1.00  0.00     0.029 A 
ATOM     43  N   UNL A   1      43.182  27.397  27.875  1.00  0.00    -0.354 N 
ATOM     44  C   UNL A   1      44.927  31.328  28.307  1.00  0.00     0.074 A 
ATOM     45  C   UNL A   1      43.943  32.286  28.761  1.00  0.00     0.031 C 
ATOM     46  C   UNL A   1      41.552  25.867  27.929  1.00  0.00     0.029 A 
ATOM     47  C   UNL A   1      42.962  26.067  27.603  1.00  0.00     0.049 A 
ATOM     48  H   UNL A   1      44.049  27.841  27.725  1.00  0.00     0.167 HD
ATOM     49  C   UNL A   1      46.221  31.632  28.038  1.00  0.00     0.037 A 
ATOM     50  C   UNL A   1      43.801  25.113  27.157  1.00  0.00     0.037 A 
ATOM     51  C   UNL A   1      47.204  30.669  27.612  1.00  0.00     0.049 A 
ATOM     52  C   UNL A   1      45.245  25.461  26.916  1.00  0.00     0.074 A 
ATOM     53  C   UNL A   1      48.550  30.865  27.357  1.00  0.00     0.029 A 
ATOM     54  N   UNL A   1      46.947  29.325  27.385  1.00  0.00    -0.354 N 
ATOM     55  N   UNL A   1      45.845  26.620  27.045  1.00  0.00    -0.248 NA
ATOM     56  C   UNL A   1      46.128  24.370  26.483  1.00  0.00     0.031 C 
ATOM     57  C   UNL A   1      49.102  29.644  26.952  1.00  0.00     0.029 A 
ATOM     58  C   UNL A   1      48.108  28.681  26.988  1.00  0.00     0.049 A 
ATOM     59  H   UNL A   1      46.069  28.892  27.490  1.00  0.00     0.167 HD
ATOM     60  C   UNL A   1      47.180  26.394  26.727  1.00  0.00     0.074 A 
ATOM     61  C   UNL A   1      47.302  24.984  26.418  1.00  0.00     0.031 C 
ATOM     62  C   UNL A   1      48.210  27.274  26.689  1.00  0.00     0.037 A 
BRANCH  49  63
ATOM     63  C   UNL A   1      46.654  33.063  28.218  1.00  0.00     0.058 A 
ATOM     64  C   UNL A   1      47.159  33.527  29.444  1.00  0.00     0.135 A 
ATOM     65  C   UNL A   1      46.596  33.974  27.150  1.00  0.00     0.135 A 
ATOM     66  F   UNL A   1      47.227  32.704  30.502  1.00  0.00    -0.206 F 
ATOM     67  C   UNL A   1      47.560  34.850  29.615  1.00  0.00     0.059 A 
ATOM     68  C   UNL A   1      47.016  35.294  27.291  1.00  0.00     0.059 A 
ATOM     69  F   UNL A   1      46.127  33.585  25.955  1.00  0.00    -0.206 F 
ATOM     70  C   UNL A   1      47.481  35.728  28.532  1.00  0.00     0.060 A 
BRANCH  70  71
ATOM     71  S   UNL A   1      47.999  37.441  28.770  1.00  0.00     0.124 S 
ATOM     72  O   UNL A   1      48.850  37.326  29.951  1.00  0.00    -0.237 OA
ATOM     73  O   UNL A   1      48.690  37.737  27.518  1.00  0.00    -0.237 OA
ATOM     74  O   UNL A   1      46.740  38.152  28.970  1.00  0.00    -0.744 OA
ENDBRANCH  70  71
ENDBRANCH  49  63
BRANCH  50  75
ATOM     75  C   UNL A   1      43.305  23.726  26.956  1.00  0.00     0.058 A 
ATOM     76  C   UNL A   1      43.105  23.209  25.668  1.00  0.00     0.135 A 
ATOM     77  C   UNL A   1      43.043  22.883  28.047  1.00  0.00     0.135 A 
ATOM     78  F   UNL A   1      43.338  23.979  24.594  1.00  0.00    -0.206 F 
ATOM     79  C   UNL A   1      42.649  21.911  25.466  1.00  0.00     0.059 A 
ATOM     80  C   UNL A   1      42.608  21.573  27.870  1.00  0.00     0.059 A 
ATOM     81  F   UNL A   1      43.236  23.325  29.299  1.00  0.00    -0.206 F 
ATOM     82  C   UNL A   1      42.405  21.099  26.575  1.00  0.00     0.060 A 
BRANCH  82  83
ATOM     83  S   UNL A   1      41.870  19.395  26.304  1.00  0.00     0.124 S 
ATOM     84  O   UNL A   1      42.277  18.759  27.551  1.00  0.00    -0.237 OA
ATOM     85  O   UNL A   1      40.432  19.551  26.106  1.00  0.00    -0.237 OA
ATOM     86  O   UNL A   1      42.618  18.996  25.116  1.00  0.00    -0.744 OA
ENDBRANCH  82  83
ENDBRANCH  50  75
BRANCH  62  87
ATOM     87  C   UNL A   1      49.562  26.733  26.322  1.00  0.00     0.058 A 
ATOM     88  C   UNL A   1      50.061  26.830  25.014  1.00  0.00     0.135 A 
ATOM     89  C   UNL A   1      50.380  26.139  27.296  1.00  0.00     0.135 A 
ATOM     90  F   UNL A   1      49.314  27.385  24.046  1.00  0.00    -0.206 F 
ATOM     91  C   UNL A   1      51.315  26.335  24.678  1.00  0.00     0.059 A 
ATOM     92  C   UNL A   1      51.647  25.656  26.987  1.00  0.00     0.059 A 
ATOM     93  F   UNL A   1      49.953  26.030  28.564  1.00  0.00    -0.206 F 
ATOM     94  C   UNL A   1      52.101  25.746  25.671  1.00  0.00     0.060 A 
BRANCH  94  95
ATOM     95  S   UNL A   1      53.736  25.123  25.229  1.00  0.00     0.124 S 
ATOM     96  O   UNL A   1      53.890  25.640  23.873  1.00  0.00    -0.237 OA
ATOM     97  O   UNL A   1      54.592  25.735  26.241  1.00  0.00    -0.237 OA
ATOM     98  O   UNL A   1      53.588  23.674  25.337  1.00  0.00    -0.744 OA
ENDBRANCH  94  95
ENDBRANCH  62  87
ENDBRANCH  36  37
ENDBRANCH  29  31
ENDBRANCH  28  29
ENDBRANCH  27  28
ENDBRANCH  26  27
ENDBRANCH  25  26
ENDBRANCH  24  25
ENDBRANCH   1  24
TORSDOF 25
ENDMDL
MODEL 3
REMARK VINA RESULT:      -8.9      4.590      9.989
REMARK SMILES CCN(Cc1ccccn1)C(=O)[C@H]([NH3+])CCC(=O)OCCOCCOC(=O)c1ccc(-c2c3nc(c(-c4c(F)cc(S(=O)(=O)[O-])cc4F)c4ccc([nH]4)c(-c4c(F)cc(S(=O)(=O)[O-])cc4F)c4nc(c(-c5c(F)cc(S(=O)(=O)[O-])cc5F)c5ccc2[nH]5)C=C4)C=C3)cc1
REMARK SMILES IDX 20 1 19 2 17 3 18 4 16 5 15 6 13 7 11 8 12 9 3 10 2 11 1 12
REMARK SMILES IDX 4 13 5 14 6 15 10 16 7 17 9 18 8 19 14 20 21 24 22 25 23 26
REMARK SMILES IDX 24 27 25 28 26 29 27 30 28 31 29 32 93 33 30 34 92 35 31 36
REMARK SMILES IDX 32 37 33 38 86 39 34 40 91 41 85 42 87 43 35 44 90 45 84 46
REMARK SMILES IDX 83 47 36 49 70 50 49 51 69 52 50 53 53 54 68 55 88 56 51 57
REMARK SMILES IDX 52 58 67 60 89 61 54 62 37 63 38 64 47 65 39 66 40 67 46 68
REMARK SMILES IDX 48 69 41 70 42 71 43 72 44 73 45 74 71 75 72 76 81 77 73 78
REMARK SMILES IDX 74 79 80 80 82 81 75 82 76 83 77 84 78 85 79 86 55 87 56 88
REMARK SMILES IDX 65 89 57 90 58 91 64 92 66 93 59 94 60 95 61 96 62 97 63 98
REMARK H PARENT 14 21 14 22 14 23 87 48 53 59
REMARK Flexibility Score: inf
ROOT
ATOM      1  C   UNL A   1      32.665  21.065  24.718  1.00  0.00     0.261 C 
ENDROOT
BRANCH   1   2
ATOM      2  O   UNL A   1      32.549  22.500  24.802  1.00  0.00    -0.463 OA
BRANCH   2   3
ATOM      3  C   UNL A   1      32.445  23.136  23.604  1.00  0.00     0.306 C 
ATOM      4  O   UNL A   1      32.540  22.587  22.511  1.00  0.00    -0.252 OA
BRANCH   3   5
ATOM      5  C   UNL A   1      32.289  24.634  23.718  1.00  0.00     0.129 C 
BRANCH   5   6
ATOM      6  C   UNL A   1      33.519  25.531  23.577  1.00  0.00     0.087 C 
BRANCH   6   7
ATOM      7  C   UNL A   1      33.524  26.580  22.447  1.00  0.00     0.271 C 
BRANCH   7   8
ATOM      8  C   UNL A   1      33.308  28.005  23.065  1.00  0.00     0.281 C 
ATOM      9  O   UNL A   1      34.142  28.892  22.834  1.00  0.00    -0.268 OA
BRANCH   8  10
ATOM     10  N   UNL A   1      32.239  28.250  23.917  1.00  0.00    -0.332 N 
BRANCH  10  11
ATOM     11  C   UNL A   1      31.065  28.942  23.389  1.00  0.00     0.116 C 
ATOM     12  C   UNL A   1      29.897  27.977  23.224  1.00  0.00     0.027 C 
ENDBRANCH  10  11
BRANCH  10  13
ATOM     13  C   UNL A   1      32.220  27.970  25.345  1.00  0.00     0.175 C 
BRANCH  13  14
ATOM     14  C   UNL A   1      33.092  28.860  26.212  1.00  0.00     0.060 A 
ATOM     15  C   UNL A   1      34.366  28.499  26.646  1.00  0.00     0.026 A 
ATOM     16  N   UNL A   1      32.572  30.085  26.489  1.00  0.00    -0.259 NA
ATOM     17  C   UNL A   1      35.129  29.428  27.356  1.00  0.00     0.004 A 
ATOM     18  C   UNL A   1      33.329  30.966  27.180  1.00  0.00     0.111 A 
ATOM     19  C   UNL A   1      34.609  30.689  27.620  1.00  0.00     0.020 A 
ENDBRANCH  13  14
ENDBRANCH  10  13
ENDBRANCH   8  10
ENDBRANCH   7   8
BRANCH   7  20
ATOM     20  N   UNL A   1      32.448  26.401  21.460  1.00  0.00    -0.347 N 
ATOM     21  H   UNL A   1      32.850  26.354  20.523  1.00  0.00     0.345 HD
ATOM     22  H   UNL A   1      31.803  27.189  21.514  1.00  0.00     0.345 HD
ATOM     23  H   UNL A   1      31.946  25.536  21.658  1.00  0.00     0.345 HD
ENDBRANCH   7  20
ENDBRANCH   6   7
ENDBRANCH   5   6
ENDBRANCH   3   5
ENDBRANCH   2   3
ENDBRANCH   1   2
BRANCH   1  24
ATOM     24  C   UNL A   1      34.087  20.490  24.791  1.00  0.00     0.202 C 
BRANCH  24  25
ATOM     25  O   UNL A   1      35.161  21.337  25.177  1.00  0.00    -0.374 OA
BRANCH  25  26
ATOM     26  C   UNL A   1      35.829  22.074  24.167  1.00  0.00     0.202 C 
BRANCH  26  27
ATOM     27  C   UNL A   1      36.691  23.283  24.550  1.00  0.00     0.261 C 
BRANCH  27  28
ATOM     28  O   UNL A   1      37.083  23.401  25.925  1.00  0.00    -0.460 OA
BRANCH  28  29
ATOM     29  C   UNL A   1      38.367  23.036  26.183  1.00  0.00     0.338 C 
ATOM     30  O   UNL A   1      38.886  21.950  25.947  1.00  0.00    -0.246 OA
BRANCH  29  31
ATOM     31  C   UNL A   1      39.125  24.184  26.716  1.00  0.00     0.060 A 
ATOM     32  C   UNL A   1      39.055  24.487  28.075  1.00  0.00     0.016 A 
ATOM     33  C   UNL A   1      39.836  25.020  25.856  1.00  0.00     0.016 A 
ATOM     34  C   UNL A   1      39.702  25.628  28.564  1.00  0.00     0.010 A 
ATOM     35  C   UNL A   1      40.539  26.120  26.352  1.00  0.00     0.010 A 
ATOM     36  C   UNL A   1      40.452  26.457  27.709  1.00  0.00    -0.014 A 
BRANCH  36  37
ATOM     37  C   UNL A   1      41.098  27.694  28.228  1.00  0.00     0.031 A 
ATOM     38  C   UNL A   1      42.590  27.893  28.104  1.00  0.00     0.074 A 
ATOM     39  C   UNL A   1      40.342  28.643  28.812  1.00  0.00     0.049 A 
ATOM     40  N   UNL A   1      43.316  28.928  28.446  1.00  0.00    -0.248 NA
ATOM     41  C   UNL A   1      43.371  26.778  27.546  1.00  0.00     0.031 C 
ATOM     42  C   UNL A   1      38.902  28.539  29.059  1.00  0.00     0.029 A 
ATOM     43  N   UNL A   1      40.672  29.883  29.297  1.00  0.00    -0.354 N 
ATOM     44  C   UNL A   1      44.633  28.588  28.151  1.00  0.00     0.074 A 
ATOM     45  C   UNL A   1      44.612  27.229  27.655  1.00  0.00     0.031 C 
ATOM     46  C   UNL A   1      38.466  29.683  29.610  1.00  0.00     0.029 A 
ATOM     47  C   UNL A   1      39.596  30.594  29.776  1.00  0.00     0.049 A 
ATOM     48  H   UNL A   1      41.593  30.232  29.303  1.00  0.00     0.167 HD
ATOM     49  C   UNL A   1      45.752  29.345  28.256  1.00  0.00     0.037 A 
ATOM     50  C   UNL A   1      39.524  31.843  30.277  1.00  0.00     0.037 A 
ATOM     51  C   UNL A   1      45.765  30.707  28.725  1.00  0.00     0.049 A 
ATOM     52  C   UNL A   1      40.770  32.683  30.334  1.00  0.00     0.074 A 
ATOM     53  C   UNL A   1      46.838  31.575  28.827  1.00  0.00     0.029 A 
ATOM     54  N   UNL A   1      44.647  31.401  29.165  1.00  0.00    -0.354 N 
ATOM     55  N   UNL A   1      41.994  32.365  29.987  1.00  0.00    -0.248 NA
ATOM     56  C   UNL A   1      40.623  34.056  30.838  1.00  0.00     0.031 C 
ATOM     57  C   UNL A   1      46.374  32.787  29.352  1.00  0.00     0.029 A 
ATOM     58  C   UNL A   1      45.006  32.685  29.544  1.00  0.00     0.049 A 
ATOM     59  H   UNL A   1      43.734  31.036  29.203  1.00  0.00     0.167 HD
ATOM     60  C   UNL A   1      42.760  33.503  30.213  1.00  0.00     0.074 A 
ATOM     61  C   UNL A   1      41.858  34.523  30.708  1.00  0.00     0.031 C 
ATOM     62  C   UNL A   1      44.091  33.687  30.031  1.00  0.00     0.037 A 
BRANCH  49  63
ATOM     63  C   UNL A   1      47.058  28.723  27.835  1.00  0.00     0.058 A 
ATOM     64  C   UNL A   1      47.498  28.775  26.501  1.00  0.00     0.135 A 
ATOM     65  C   UNL A   1      47.895  28.097  28.774  1.00  0.00     0.135 A 
ATOM     66  F   UNL A   1      46.735  29.352  25.560  1.00  0.00    -0.206 F 
ATOM     67  C   UNL A   1      48.704  28.200  26.108  1.00  0.00     0.059 A 
ATOM     68  C   UNL A   1      49.117  27.538  28.407  1.00  0.00     0.059 A 
ATOM     69  F   UNL A   1      47.527  28.021  30.062  1.00  0.00    -0.206 F 
ATOM     70  C   UNL A   1      49.505  27.580  27.068  1.00  0.00     0.060 A 
BRANCH  70  71
ATOM     71  S   UNL A   1      51.063  26.835  26.542  1.00  0.00     0.124 S 
ATOM     72  O   UNL A   1      52.031  27.823  27.010  1.00  0.00    -0.237 OA
ATOM     73  O   UNL A   1      51.061  25.563  27.258  1.00  0.00    -0.237 OA
ATOM     74  O   UNL A   1      50.920  26.735  25.092  1.00  0.00    -0.744 OA
ENDBRANCH  70  71
ENDBRANCH  49  63
BRANCH  50  75
ATOM     75  C   UNL A   1      38.212  32.387  30.718  1.00  0.00     0.058 A 
ATOM     76  C   UNL A   1      37.841  32.372  32.070  1.00  0.00     0.135 A 
ATOM     77  C   UNL A   1      37.315  32.955  29.800  1.00  0.00     0.135 A 
ATOM     78  F   UNL A   1      38.665  31.836  32.985  1.00  0.00    -0.206 F 
ATOM     79  C   UNL A   1      36.622  32.886  32.497  1.00  0.00     0.059 A 
ATOM     80  C   UNL A   1      36.099  33.496  30.206  1.00  0.00     0.059 A 
ATOM     81  F   UNL A   1      37.632  33.010  28.497  1.00  0.00    -0.206 F 
ATOM     82  C   UNL A   1      35.757  33.449  31.557  1.00  0.00     0.060 A 
BRANCH  82  83
ATOM     83  S   UNL A   1      34.201  34.168  32.126  1.00  0.00     0.124 S 
ATOM     84  O   UNL A   1      33.593  33.039  32.820  1.00  0.00    -0.237 OA
ATOM     85  O   UNL A   1      34.660  35.266  32.972  1.00  0.00    -0.237 OA
ATOM     86  O   UNL A   1      33.550  34.576  30.885  1.00  0.00    -0.744 OA
ENDBRANCH  82  83
ENDBRANCH  50  75
BRANCH  62  87
ATOM     87  C   UNL A   1      44.646  35.047  30.349  1.00  0.00     0.058 A 
ATOM     88  C   UNL A   1      44.696  36.062  29.383  1.00  0.00     0.135 A 
ATOM     89  C   UNL A   1      45.103  35.345  31.642  1.00  0.00     0.135 A 
ATOM     90  F   UNL A   1      44.276  35.825  28.129  1.00  0.00    -0.206 F 
ATOM     91  C   UNL A   1      45.203  37.322  29.681  1.00  0.00     0.059 A 
ATOM     92  C   UNL A   1      45.594  36.604  31.969  1.00  0.00     0.059 A 
ATOM     93  F   UNL A   1      45.067  34.410  32.604  1.00  0.00    -0.206 F 
ATOM     94  C   UNL A   1      45.653  37.583  30.976  1.00  0.00     0.060 A 
BRANCH  94  95
ATOM     95  S   UNL A   1      46.292  39.227  31.359  1.00  0.00     0.124 S 
ATOM     96  O   UNL A   1      45.466  40.070  30.501  1.00  0.00    -0.237 OA
ATOM     97  O   UNL A   1      46.037  39.340  32.792  1.00  0.00    -0.237 OA
ATOM     98  O   UNL A   1      47.701  39.139  30.985  1.00  0.00    -0.744 OA
ENDBRANCH  94  95
ENDBRANCH  62  87
ENDBRANCH  36  37
ENDBRANCH  29  31
ENDBRANCH  28  29
ENDBRANCH  27  28
ENDBRANCH  26  27
ENDBRANCH  25  26
ENDBRANCH  24  25
ENDBRANCH   1  24
TORSDOF 25
ENDMDL
