MODEL 1
REMARK VINA RESULT:     -11.5      0.000      0.000
REMARK SMILES CC(C)c1cc(N2CCC(C(=O)OCCOCCOC(=O)c3ccc(-c4c5nc(c(-c6c(F)cc(S(=O)(=O)[O-])cc6F)c6ccc([nH]6)c(-c6c(F)cc(S(=O)(=O)[O-])cc6F)c6nc(c(-c7c(F)cc(S(=O)(=O)[O-])cc7F)c7ccc4[nH]7)C=C6)C=C5)cc3)CC2)nc(-c2ccc(F)cc2)n1
REMARK SMILES IDX 17 1 16 2 15 3 14 4 13 5 11 6 12 7 10 8 7 9 8 10 89 11 9 12
REMARK SMILES IDX 88 13 6 14 4 15 5 16 99 17 91 18 90 19 2 20 1 21 3 22 92 23
REMARK SMILES IDX 93 24 98 25 94 26 97 27 95 28 96 29 18 30 19 31 20 32 21 33
REMARK SMILES IDX 22 34 23 35 87 36 24 37 86 38 25 39 26 40 27 41 80 42 28 43
REMARK SMILES IDX 85 44 79 45 81 46 29 47 84 48 78 49 77 50 30 52 64 53 43 54
REMARK SMILES IDX 63 55 44 56 47 57 62 58 82 59 45 60 46 61 61 63 83 64 48 65
REMARK SMILES IDX 31 66 32 67 41 68 33 69 34 70 40 71 42 72 35 73 36 74 37 75
REMARK SMILES IDX 38 76 39 77 65 78 66 79 75 80 67 81 68 82 74 83 76 84 69 85
REMARK SMILES IDX 70 86 71 87 72 88 73 89 49 90 50 91 59 92 51 93 52 94 58 95
REMARK SMILES IDX 60 96 53 97 54 98 55 99 56 100 57 101
REMARK H PARENT 81 51 47 62
REMARK Flexibility Score: inf
ROOT
ATOM      1  C   UNL A   1      37.687  23.789  26.087  1.00  0.00     0.202 C 
ENDROOT
BRANCH   1   2
ATOM      2  O   UNL A   1      36.599  23.158  25.416  1.00  0.00    -0.374 OA
BRANCH   2   3
ATOM      3  C   UNL A   1      35.552  22.626  26.233  1.00  0.00     0.202 C 
BRANCH   3   4
ATOM      4  C   UNL A   1      34.741  21.481  25.619  1.00  0.00     0.261 C 
BRANCH   4   5
ATOM      5  O   UNL A   1      33.465  21.352  26.273  1.00  0.00    -0.463 OA
BRANCH   5   6
ATOM      6  C   UNL A   1      32.400  21.085  25.479  1.00  0.00     0.309 C 
ATOM      7  O   UNL A   1      32.169  20.010  24.940  1.00  0.00    -0.252 OA
BRANCH   6   8
ATOM      8  C   UNL A   1      31.487  22.282  25.306  1.00  0.00     0.103 C 
ATOM      9  N   UNL A   1      30.835  25.006  24.910  1.00  0.00    -0.356 N 
ATOM     10  C   UNL A   1      30.540  24.435  26.210  1.00  0.00     0.119 C 
ATOM     11  C   UNL A   1      30.874  24.151  23.740  1.00  0.00     0.119 C 
ATOM     12  C   UNL A   1      31.479  23.269  26.482  1.00  0.00     0.037 C 
ATOM     13  C   UNL A   1      31.839  22.998  24.000  1.00  0.00     0.037 C 
BRANCH   9  14
ATOM     14  C   UNL A   1      30.855  26.376  24.805  1.00  0.00     0.132 A 
ATOM     15  C   UNL A   1      30.074  28.414  23.889  1.00  0.00     0.049 A 
ATOM     16  C   UNL A   1      30.017  27.033  23.927  1.00  0.00     0.071 A 
ATOM     17  N   UNL A   1      30.919  29.100  24.681  1.00  0.00    -0.233 NA
ATOM     18  C   UNL A   1      31.718  28.379  25.489  1.00  0.00     0.161 A 
ATOM     19  N   UNL A   1      31.703  27.043  25.597  1.00  0.00    -0.211 NA
BRANCH  15  20
ATOM     20  C   UNL A   1      29.152  29.197  22.968  1.00  0.00     0.032 C 
ATOM     21  C   UNL A   1      27.755  28.576  22.856  1.00  0.00     0.014 C 
ATOM     22  C   UNL A   1      29.017  30.661  23.405  1.00  0.00     0.014 C 
ENDBRANCH  15  20
BRANCH  18  23
ATOM     23  C   UNL A   1      32.711  29.111  26.280  1.00  0.00     0.019 A 
ATOM     24  C   UNL A   1      32.544  30.478  26.565  1.00  0.00     0.015 A 
ATOM     25  C   UNL A   1      33.870  28.467  26.756  1.00  0.00     0.015 A 
ATOM     26  C   UNL A   1      33.504  31.179  27.299  1.00  0.00     0.040 A 
ATOM     27  C   UNL A   1      34.839  29.172  27.474  1.00  0.00     0.040 A 
ATOM     28  C   UNL A   1      34.646  30.521  27.740  1.00  0.00     0.123 A 
ATOM     29  F   UNL A   1      35.574  31.201  28.423  1.00  0.00    -0.207 F 
ENDBRANCH  18  23
ENDBRANCH   9  14
ENDBRANCH   6   8
ENDBRANCH   5   6
ENDBRANCH   4   5
ENDBRANCH   3   4
ENDBRANCH   2   3
ENDBRANCH   1   2
BRANCH   1  30
ATOM     30  C   UNL A   1      38.976  22.969  26.229  1.00  0.00     0.261 C 
BRANCH  30  31
ATOM     31  O   UNL A   1      39.733  23.314  27.402  1.00  0.00    -0.460 OA
BRANCH  31  32
ATOM     32  C   UNL A   1      40.730  24.206  27.179  1.00  0.00     0.338 C 
ATOM     33  O   UNL A   1      41.598  24.133  26.320  1.00  0.00    -0.246 OA
BRANCH  32  34
ATOM     34  C   UNL A   1      40.555  25.411  28.010  1.00  0.00     0.060 A 
ATOM     35  C   UNL A   1      41.660  26.262  28.131  1.00  0.00     0.016 A 
ATOM     36  C   UNL A   1      39.386  25.663  28.732  1.00  0.00     0.016 A 
ATOM     37  C   UNL A   1      41.620  27.336  29.017  1.00  0.00     0.010 A 
ATOM     38  C   UNL A   1      39.350  26.741  29.628  1.00  0.00     0.010 A 
ATOM     39  C   UNL A   1      40.480  27.562  29.801  1.00  0.00    -0.014 A 
BRANCH  39  40
ATOM     40  C   UNL A   1      40.547  28.585  30.876  1.00  0.00     0.031 A 
ATOM     41  C   UNL A   1      39.560  29.723  30.877  1.00  0.00     0.074 A 
ATOM     42  C   UNL A   1      41.422  28.450  31.890  1.00  0.00     0.049 A 
ATOM     43  N   UNL A   1      39.395  30.674  31.761  1.00  0.00    -0.248 NA
ATOM     44  C   UNL A   1      38.631  29.795  29.738  1.00  0.00     0.031 C 
ATOM     45  C   UNL A   1      42.409  27.377  32.016  1.00  0.00     0.029 A 
ATOM     46  N   UNL A   1      41.612  29.214  33.014  1.00  0.00    -0.354 N 
ATOM     47  C   UNL A   1      38.339  31.449  31.293  1.00  0.00     0.074 A 
ATOM     48  C   UNL A   1      37.926  30.879  30.028  1.00  0.00     0.031 C 
ATOM     49  C   UNL A   1      43.100  27.552  33.156  1.00  0.00     0.029 A 
ATOM     50  C   UNL A   1      42.617  28.755  33.831  1.00  0.00     0.049 A 
ATOM     51  H   UNL A   1      41.078  30.017  33.216  1.00  0.00     0.167 HD
ATOM     52  C   UNL A   1      37.755  32.526  31.871  1.00  0.00     0.037 A 
ATOM     53  C   UNL A   1      43.096  29.250  34.989  1.00  0.00     0.037 A 
ATOM     54  C   UNL A   1      38.168  33.096  33.128  1.00  0.00     0.049 A 
ATOM     55  C   UNL A   1      42.464  30.483  35.584  1.00  0.00     0.074 A 
ATOM     56  C   UNL A   1      37.635  34.185  33.798  1.00  0.00     0.029 A 
ATOM     57  N   UNL A   1      39.215  32.626  33.906  1.00  0.00    -0.354 N 
ATOM     58  N   UNL A   1      41.450  31.188  35.139  1.00  0.00    -0.248 NA
ATOM     59  C   UNL A   1      43.038  30.983  36.841  1.00  0.00     0.031 C 
ATOM     60  C   UNL A   1      38.383  34.396  34.961  1.00  0.00     0.029 A 
ATOM     61  C   UNL A   1      39.355  33.413  35.038  1.00  0.00     0.049 A 
ATOM     62  H   UNL A   1      39.778  31.847  33.687  1.00  0.00     0.167 HD
ATOM     63  C   UNL A   1      41.253  32.200  36.073  1.00  0.00     0.074 A 
ATOM     64  C   UNL A   1      42.238  32.003  37.117  1.00  0.00     0.031 C 
ATOM     65  C   UNL A   1      40.343  33.206  36.068  1.00  0.00     0.037 A 
BRANCH  52  66
ATOM     66  C   UNL A   1      36.604  33.169  31.150  1.00  0.00     0.058 A 
ATOM     67  C   UNL A   1      35.293  33.091  31.647  1.00  0.00     0.135 A 
ATOM     68  C   UNL A   1      36.820  33.921  29.985  1.00  0.00     0.135 A 
ATOM     69  F   UNL A   1      35.030  32.371  32.748  1.00  0.00    -0.206 F 
ATOM     70  C   UNL A   1      34.236  33.729  31.008  1.00  0.00     0.059 A 
ATOM     71  C   UNL A   1      35.779  34.586  29.340  1.00  0.00     0.059 A 
ATOM     72  F   UNL A   1      38.053  34.024  29.466  1.00  0.00    -0.206 F 
ATOM     73  C   UNL A   1      34.488  34.477  29.856  1.00  0.00     0.060 A 
BRANCH  73  74
ATOM     74  S   UNL A   1      33.109  35.324  29.056  1.00  0.00     0.124 S 
ATOM     75  O   UNL A   1      32.726  34.355  28.033  1.00  0.00    -0.237 OA
ATOM     76  O   UNL A   1      32.164  35.491  30.156  1.00  0.00    -0.237 OA
ATOM     77  O   UNL A   1      33.710  36.557  28.558  1.00  0.00    -0.744 OA
ENDBRANCH  73  74
ENDBRANCH  52  66
BRANCH  53  78
ATOM     78  C   UNL A   1      44.246  28.595  35.667  1.00  0.00     0.058 A 
ATOM     79  C   UNL A   1      44.052  27.618  36.654  1.00  0.00     0.135 A 
ATOM     80  C   UNL A   1      45.567  28.962  35.361  1.00  0.00     0.135 A 
ATOM     81  F   UNL A   1      42.808  27.241  36.989  1.00  0.00    -0.206 F 
ATOM     82  C   UNL A   1      45.122  27.047  37.335  1.00  0.00     0.059 A 
ATOM     83  C   UNL A   1      46.654  28.387  36.010  1.00  0.00     0.059 A 
ATOM     84  F   UNL A   1      45.807  29.883  34.415  1.00  0.00    -0.206 F 
ATOM     85  C   UNL A   1      46.421  27.442  37.008  1.00  0.00     0.060 A 
BRANCH  85  86
ATOM     86  S   UNL A   1      47.809  26.683  37.878  1.00  0.00     0.124 S 
ATOM     87  O   UNL A   1      48.035  25.484  37.080  1.00  0.00    -0.237 OA
ATOM     88  O   UNL A   1      48.837  27.716  37.785  1.00  0.00    -0.237 OA
ATOM     89  O   UNL A   1      47.278  26.459  39.220  1.00  0.00    -0.744 OA
ENDBRANCH  85  86
ENDBRANCH  53  78
BRANCH  65  90
ATOM     90  C   UNL A   1      40.358  34.151  37.237  1.00  0.00     0.058 A 
ATOM     91  C   UNL A   1      41.159  35.303  37.241  1.00  0.00     0.135 A 
ATOM     92  C   UNL A   1      39.553  33.909  38.363  1.00  0.00     0.135 A 
ATOM     93  F   UNL A   1      41.949  35.580  36.191  1.00  0.00    -0.206 F 
ATOM     94  C   UNL A   1      41.194  36.161  38.335  1.00  0.00     0.059 A 
ATOM     95  C   UNL A   1      39.552  34.767  39.458  1.00  0.00     0.059 A 
ATOM     96  F   UNL A   1      38.758  32.828  38.405  1.00  0.00    -0.206 F 
ATOM     97  C   UNL A   1      40.391  35.880  39.443  1.00  0.00     0.060 A 
BRANCH  97  98
ATOM     98  S   UNL A   1      40.446  36.997  40.861  1.00  0.00     0.124 S 
ATOM     99  O   UNL A   1      39.027  37.175  41.149  1.00  0.00    -0.237 OA
ATOM    100  O   UNL A   1      41.200  36.224  41.843  1.00  0.00    -0.237 OA
ATOM    101  O   UNL A   1      41.134  38.173  40.338  1.00  0.00    -0.744 OA
ENDBRANCH  97  98
ENDBRANCH  65  90
ENDBRANCH  39  40
ENDBRANCH  32  34
ENDBRANCH  31  32
ENDBRANCH  30  31
ENDBRANCH   1  30
TORSDOF 20
ENDMDL
MODEL 2
REMARK VINA RESULT:     -11.5      5.124      9.039
REMARK SMILES CC(C)c1cc(N2CCC(C(=O)OCCOCCOC(=O)c3ccc(-c4c5nc(c(-c6c(F)cc(S(=O)(=O)[O-])cc6F)c6ccc([nH]6)c(-c6c(F)cc(S(=O)(=O)[O-])cc6F)c6nc(c(-c7c(F)cc(S(=O)(=O)[O-])cc7F)c7ccc4[nH]7)C=C6)C=C5)cc3)CC2)nc(-c2ccc(F)cc2)n1
REMARK SMILES IDX 17 1 16 2 15 3 14 4 13 5 11 6 12 7 10 8 7 9 8 10 89 11 9 12
REMARK SMILES IDX 88 13 6 14 4 15 5 16 99 17 91 18 90 19 2 20 1 21 3 22 92 23
REMARK SMILES IDX 93 24 98 25 94 26 97 27 95 28 96 29 18 30 19 31 20 32 21 33
REMARK SMILES IDX 22 34 23 35 87 36 24 37 86 38 25 39 26 40 27 41 80 42 28 43
REMARK SMILES IDX 85 44 79 45 81 46 29 47 84 48 78 49 77 50 30 52 64 53 43 54
REMARK SMILES IDX 63 55 44 56 47 57 62 58 82 59 45 60 46 61 61 63 83 64 48 65
REMARK SMILES IDX 31 66 32 67 41 68 33 69 34 70 40 71 42 72 35 73 36 74 37 75
REMARK SMILES IDX 38 76 39 77 65 78 66 79 75 80 67 81 68 82 74 83 76 84 69 85
REMARK SMILES IDX 70 86 71 87 72 88 73 89 49 90 50 91 59 92 51 93 52 94 58 95
REMARK SMILES IDX 60 96 53 97 54 98 55 99 56 100 57 101
REMARK H PARENT 81 51 47 62
REMARK Flexibility Score: inf
ROOT
ATOM      1  C   UNL A   1      37.018  21.700  24.156  1.00  0.00     0.202 C 
ENDROOT
BRANCH   1   2
ATOM      2  O   UNL A   1      36.419  22.882  24.681  1.00  0.00    -0.374 OA
BRANCH   2   3
ATOM      3  C   UNL A   1      35.026  22.818  24.999  1.00  0.00     0.202 C 
BRANCH   3   4
ATOM      4  C   UNL A   1      34.476  21.424  25.317  1.00  0.00     0.261 C 
BRANCH   4   5
ATOM      5  O   UNL A   1      33.254  21.519  26.073  1.00  0.00    -0.463 OA
BRANCH   5   6
ATOM      6  C   UNL A   1      32.105  21.243  25.407  1.00  0.00     0.309 C 
ATOM      7  O   UNL A   1      31.782  20.142  24.977  1.00  0.00    -0.252 OA
BRANCH   6   8
ATOM      8  C   UNL A   1      31.225  22.464  25.231  1.00  0.00     0.103 C 
ATOM      9  N   UNL A   1      30.648  25.202  24.818  1.00  0.00    -0.356 N 
ATOM     10  C   UNL A   1      30.348  24.650  26.125  1.00  0.00     0.119 C 
ATOM     11  C   UNL A   1      30.654  24.337  23.654  1.00  0.00     0.119 C 
ATOM     12  C   UNL A   1      31.256  23.460  26.399  1.00  0.00     0.037 C 
ATOM     13  C   UNL A   1      31.587  23.158  23.917  1.00  0.00     0.037 C 
BRANCH   9  14
ATOM     14  C   UNL A   1      30.706  26.569  24.701  1.00  0.00     0.132 A 
ATOM     15  C   UNL A   1      29.983  28.620  23.766  1.00  0.00     0.049 A 
ATOM     16  C   UNL A   1      29.888  27.242  23.816  1.00  0.00     0.071 A 
ATOM     17  N   UNL A   1      30.846  29.289  24.554  1.00  0.00    -0.233 NA
ATOM     18  C   UNL A   1      31.624  28.554  25.368  1.00  0.00     0.161 A 
ATOM     19  N   UNL A   1      31.572  27.220  25.488  1.00  0.00    -0.211 NA
BRANCH  15  20
ATOM     20  C   UNL A   1      29.085  29.421  22.837  1.00  0.00     0.032 C 
ATOM     21  C   UNL A   1      27.647  28.889  22.796  1.00  0.00     0.014 C 
ATOM     22  C   UNL A   1      29.059  30.909  23.209  1.00  0.00     0.014 C 
ENDBRANCH  15  20
BRANCH  18  23
ATOM     23  C   UNL A   1      32.635  29.265  26.155  1.00  0.00     0.019 A 
ATOM     24  C   UNL A   1      32.389  30.557  26.652  1.00  0.00     0.015 A 
ATOM     25  C   UNL A   1      33.890  28.679  26.414  1.00  0.00     0.015 A 
ATOM     26  C   UNL A   1      33.364  31.242  27.381  1.00  0.00     0.040 A 
ATOM     27  C   UNL A   1      34.872  29.370  27.126  1.00  0.00     0.040 A 
ATOM     28  C   UNL A   1      34.600  30.645  27.604  1.00  0.00     0.123 A 
ATOM     29  F   UNL A   1      35.539  31.313  28.283  1.00  0.00    -0.207 F 
ENDBRANCH  18  23
ENDBRANCH   9  14
ENDBRANCH   6   8
ENDBRANCH   5   6
ENDBRANCH   4   5
ENDBRANCH   3   4
ENDBRANCH   2   3
ENDBRANCH   1   2
BRANCH   1  30
ATOM     30  C   UNL A   1      38.103  21.039  25.017  1.00  0.00     0.261 C 
BRANCH  30  31
ATOM     31  O   UNL A   1      38.441  21.811  26.182  1.00  0.00    -0.460 OA
BRANCH  31  32
ATOM     32  C   UNL A   1      39.762  21.808  26.488  1.00  0.00     0.338 C 
ATOM     33  O   UNL A   1      40.586  20.962  26.168  1.00  0.00    -0.246 OA
BRANCH  32  34
ATOM     34  C   UNL A   1      40.156  23.072  27.138  1.00  0.00     0.060 A 
ATOM     35  C   UNL A   1      39.645  24.254  26.589  1.00  0.00     0.016 A 
ATOM     36  C   UNL A   1      41.075  23.121  28.190  1.00  0.00     0.016 A 
ATOM     37  C   UNL A   1      40.091  25.489  27.051  1.00  0.00     0.010 A 
ATOM     38  C   UNL A   1      41.526  24.366  28.651  1.00  0.00     0.010 A 
ATOM     39  C   UNL A   1      41.064  25.555  28.059  1.00  0.00    -0.014 A 
BRANCH  39  40
ATOM     40  C   UNL A   1      41.663  26.875  28.383  1.00  0.00     0.031 A 
ATOM     41  C   UNL A   1      43.091  27.155  27.996  1.00  0.00     0.074 A 
ATOM     42  C   UNL A   1      40.912  27.846  28.936  1.00  0.00     0.049 A 
ATOM     43  N   UNL A   1      43.780  28.262  28.114  1.00  0.00    -0.248 NA
ATOM     44  C   UNL A   1      43.842  26.044  27.388  1.00  0.00     0.031 C 
ATOM     45  C   UNL A   1      39.510  27.707  29.331  1.00  0.00     0.029 A 
ATOM     46  N   UNL A   1      41.221  29.146  29.250  1.00  0.00    -0.354 N 
ATOM     47  C   UNL A   1      45.037  27.986  27.586  1.00  0.00     0.074 A 
ATOM     48  C   UNL A   1      45.029  26.597  27.181  1.00  0.00     0.031 C 
ATOM     49  C   UNL A   1      39.080  28.878  29.833  1.00  0.00     0.029 A 
ATOM     50  C   UNL A   1      40.178  29.843  29.811  1.00  0.00     0.049 A 
ATOM     51  H   UNL A   1      42.108  29.542  29.089  1.00  0.00     0.167 HD
ATOM     52  C   UNL A   1      46.095  28.818  27.437  1.00  0.00     0.037 A 
ATOM     53  C   UNL A   1      40.117  31.111  30.261  1.00  0.00     0.037 A 
ATOM     54  C   UNL A   1      46.105  30.201  27.843  1.00  0.00     0.049 A 
ATOM     55  C   UNL A   1      41.327  32.001  30.132  1.00  0.00     0.074 A 
ATOM     56  C   UNL A   1      47.130  31.126  27.728  1.00  0.00     0.029 A 
ATOM     57  N   UNL A   1      45.043  30.858  28.443  1.00  0.00    -0.354 N 
ATOM     58  N   UNL A   1      42.499  31.730  29.608  1.00  0.00    -0.248 NA
ATOM     59  C   UNL A   1      41.203  33.371  30.651  1.00  0.00     0.031 C 
ATOM     60  C   UNL A   1      46.699  32.331  28.294  1.00  0.00     0.029 A 
ATOM     61  C   UNL A   1      45.393  32.170  28.722  1.00  0.00     0.049 A 
ATOM     62  H   UNL A   1      44.167  30.453  28.644  1.00  0.00     0.167 HD
ATOM     63  C   UNL A   1      43.243  32.901  29.715  1.00  0.00     0.074 A 
ATOM     64  C   UNL A   1      42.382  33.888  30.335  1.00  0.00     0.031 C 
ATOM     65  C   UNL A   1      44.524  33.140  29.340  1.00  0.00     0.037 A 
BRANCH  52  66
ATOM     66  C   UNL A   1      47.341  28.259  26.809  1.00  0.00     0.058 A 
ATOM     67  C   UNL A   1      47.476  28.156  25.415  1.00  0.00     0.135 A 
ATOM     68  C   UNL A   1      48.435  27.880  27.603  1.00  0.00     0.135 A 
ATOM     69  F   UNL A   1      46.455  28.490  24.611  1.00  0.00    -0.206 F 
ATOM     70  C   UNL A   1      48.648  27.687  24.832  1.00  0.00     0.059 A 
ATOM     71  C   UNL A   1      49.625  27.427  27.039  1.00  0.00     0.059 A 
ATOM     72  F   UNL A   1      48.357  27.955  28.940  1.00  0.00    -0.206 F 
ATOM     73  C   UNL A   1      49.719  27.327  25.652  1.00  0.00     0.060 A 
BRANCH  73  74
ATOM     74  S   UNL A   1      51.244  26.750  24.877  1.00  0.00     0.124 S 
ATOM     75  O   UNL A   1      51.434  25.460  25.535  1.00  0.00    -0.237 OA
ATOM     76  O   UNL A   1      50.877  26.693  23.466  1.00  0.00    -0.237 OA
ATOM     77  O   UNL A   1      52.216  27.781  25.228  1.00  0.00    -0.744 OA
ENDBRANCH  73  74
ENDBRANCH  52  66
BRANCH  53  78
ATOM     78  C   UNL A   1      38.871  31.625  30.889  1.00  0.00     0.058 A 
ATOM     79  C   UNL A   1      37.945  32.386  30.160  1.00  0.00     0.135 A 
ATOM     80  C   UNL A   1      38.600  31.393  32.247  1.00  0.00     0.135 A 
ATOM     81  F   UNL A   1      38.164  32.644  28.861  1.00  0.00    -0.206 F 
ATOM     82  C   UNL A   1      36.809  32.921  30.759  1.00  0.00     0.059 A 
ATOM     83  C   UNL A   1      37.459  31.896  32.862  1.00  0.00     0.059 A 
ATOM     84  F   UNL A   1      39.448  30.661  32.986  1.00  0.00    -0.206 F 
ATOM     85  C   UNL A   1      36.577  32.674  32.113  1.00  0.00     0.060 A 
BRANCH  85  86
ATOM     86  S   UNL A   1      35.090  33.352  32.882  1.00  0.00     0.124 S 
ATOM     87  O   UNL A   1      35.292  32.990  34.280  1.00  0.00    -0.237 OA
ATOM     88  O   UNL A   1      35.200  34.773  32.568  1.00  0.00    -0.237 OA
ATOM     89  O   UNL A   1      34.011  32.649  32.194  1.00  0.00    -0.744 OA
ENDBRANCH  85  86
ENDBRANCH  53  78
BRANCH  65  90
ATOM     90  C   UNL A   1      45.060  34.527  29.569  1.00  0.00     0.058 A 
ATOM     91  C   UNL A   1      45.720  34.873  30.758  1.00  0.00     0.135 A 
ATOM     92  C   UNL A   1      44.919  35.518  28.585  1.00  0.00     0.135 A 
ATOM     93  F   UNL A   1      45.878  33.963  31.733  1.00  0.00    -0.206 F 
ATOM     94  C   UNL A   1      46.189  36.164  30.980  1.00  0.00     0.059 A 
ATOM     95  C   UNL A   1      45.404  36.809  28.774  1.00  0.00     0.059 A 
ATOM     96  F   UNL A   1      44.307  35.236  27.423  1.00  0.00    -0.206 F 
ATOM     97  C   UNL A   1      46.018  37.128  29.984  1.00  0.00     0.060 A 
BRANCH  97  98
ATOM     98  S   UNL A   1      46.625  38.802  30.283  1.00  0.00     0.124 S 
ATOM     99  O   UNL A   1      45.918  39.558  29.254  1.00  0.00    -0.237 OA
ATOM    100  O   UNL A   1      46.202  39.052  31.657  1.00  0.00    -0.237 OA
ATOM    101  O   UNL A   1      48.067  38.678  30.091  1.00  0.00    -0.744 OA
ENDBRANCH  97  98
ENDBRANCH  65  90
ENDBRANCH  39  40
ENDBRANCH  32  34
ENDBRANCH  31  32
ENDBRANCH  30  31
ENDBRANCH   1  30
TORSDOF 20
ENDMDL
MODEL 3
REMARK VINA RESULT:     -11.3      6.049     10.115
REMARK SMILES CC(C)c1cc(N2CCC(C(=O)OCCOCCOC(=O)c3ccc(-c4c5nc(c(-c6c(F)cc(S(=O)(=O)[O-])cc6F)c6ccc([nH]6)c(-c6c(F)cc(S(=O)(=O)[O-])cc6F)c6nc(c(-c7c(F)cc(S(=O)(=O)[O-])cc7F)c7ccc4[nH]7)C=C6)C=C5)cc3)CC2)nc(-c2ccc(F)cc2)n1
REMARK SMILES IDX 17 1 16 2 15 3 14 4 13 5 11 6 12 7 10 8 7 9 8 10 89 11 9 12
REMARK SMILES IDX 88 13 6 14 4 15 5 16 99 17 91 18 90 19 2 20 1 21 3 22 92 23
REMARK SMILES IDX 93 24 98 25 94 26 97 27 95 28 96 29 18 30 19 31 20 32 21 33
REMARK SMILES IDX 22 34 23 35 87 36 24 37 86 38 25 39 26 40 27 41 80 42 28 43
REMARK SMILES IDX 85 44 79 45 81 46 29 47 84 48 78 49 77 50 30 52 64 53 43 54
REMARK SMILES IDX 63 55 44 56 47 57 62 58 82 59 45 60 46 61 61 63 83 64 48 65
REMARK SMILES IDX 31 66 32 67 41 68 33 69 34 70 40 71 42 72 35 73 36 74 37 75
REMARK SMILES IDX 38 76 39 77 65 78 66 79 75 80 67 81 68 82 74 83 76 84 69 85
REMARK SMILES IDX 70 86 71 87 72 88 73 89 49 90 50 91 59 92 51 93 52 94 58 95
REMARK SMILES IDX 60 96 53 97 54 98 55 99 56 100 57 101
REMARK H PARENT 81 51 47 62
REMARK Flexibility Score: inf
ROOT
ATOM      1  C   UNL A   1      38.550  22.051  25.851  1.00  0.00     0.202 C 
ENDROOT
BRANCH   1   2
ATOM      2  O   UNL A   1      37.140  22.241  25.754  1.00  0.00    -0.374 OA
BRANCH   2   3
ATOM      3  C   UNL A   1      36.347  21.084  25.474  1.00  0.00     0.202 C 
BRANCH   3   4
ATOM      4  C   UNL A   1      35.064  21.330  24.675  1.00  0.00     0.261 C 
BRANCH   4   5
ATOM      5  O   UNL A   1      33.909  21.263  25.532  1.00  0.00    -0.463 OA
BRANCH   5   6
ATOM      6  C   UNL A   1      32.728  20.965  24.938  1.00  0.00     0.309 C 
ATOM      7  O   UNL A   1      32.442  19.887  24.430  1.00  0.00    -0.252 OA
BRANCH   6   8
ATOM      8  C   UNL A   1      31.757  22.128  24.951  1.00  0.00     0.103 C 
ATOM      9  N   UNL A   1      30.948  24.828  24.710  1.00  0.00    -0.356 N 
ATOM     10  C   UNL A   1      30.925  24.244  26.037  1.00  0.00     0.119 C 
ATOM     11  C   UNL A   1      30.795  23.978  23.546  1.00  0.00     0.119 C 
ATOM     12  C   UNL A   1      31.938  23.112  26.116  1.00  0.00     0.037 C 
ATOM     13  C   UNL A   1      31.831  22.859  23.609  1.00  0.00     0.037 C 
BRANCH   9  14
ATOM     14  C   UNL A   1      30.900  26.198  24.616  1.00  0.00     0.132 A 
ATOM     15  C   UNL A   1      30.018  28.202  23.717  1.00  0.00     0.049 A 
ATOM     16  C   UNL A   1      30.029  26.820  23.744  1.00  0.00     0.071 A 
ATOM     17  N   UNL A   1      30.830  28.922  24.513  1.00  0.00    -0.233 NA
ATOM     18  C   UNL A   1      31.665  28.236  25.313  1.00  0.00     0.161 A 
ATOM     19  N   UNL A   1      31.716  26.900  25.412  1.00  0.00    -0.211 NA
BRANCH  15  20
ATOM     20  C   UNL A   1      29.057  28.946  22.803  1.00  0.00     0.032 C 
ATOM     21  C   UNL A   1      27.592  28.564  23.044  1.00  0.00     0.014 C 
ATOM     22  C   UNL A   1      29.207  30.466  22.933  1.00  0.00     0.014 C 
ENDBRANCH  15  20
BRANCH  18  23
ATOM     23  C   UNL A   1      32.622  29.010  26.109  1.00  0.00     0.019 A 
ATOM     24  C   UNL A   1      32.342  30.335  26.488  1.00  0.00     0.015 A 
ATOM     25  C   UNL A   1      33.856  28.452  26.495  1.00  0.00     0.015 A 
ATOM     26  C   UNL A   1      33.267  31.079  27.226  1.00  0.00     0.040 A 
ATOM     27  C   UNL A   1      34.789  29.201  27.216  1.00  0.00     0.040 A 
ATOM     28  C   UNL A   1      34.485  30.507  27.576  1.00  0.00     0.123 A 
ATOM     29  F   UNL A   1      35.376  31.230  28.264  1.00  0.00    -0.207 F 
ENDBRANCH  18  23
ENDBRANCH   9  14
ENDBRANCH   6   8
ENDBRANCH   5   6
ENDBRANCH   4   5
ENDBRANCH   3   4
ENDBRANCH   2   3
ENDBRANCH   1   2
BRANCH   1  30
ATOM     30  C   UNL A   1      39.057  20.606  25.751  1.00  0.00     0.261 C 
BRANCH  30  31
ATOM     31  O   UNL A   1      40.012  20.276  26.775  1.00  0.00    -0.460 OA
BRANCH  31  32
ATOM     32  C   UNL A   1      41.272  20.076  26.317  1.00  0.00     0.338 C 
ATOM     33  O   UNL A   1      41.679  19.106  25.692  1.00  0.00    -0.246 OA
BRANCH  32  34
ATOM     34  C   UNL A   1      42.103  21.278  26.518  1.00  0.00     0.060 A 
ATOM     35  C   UNL A   1      42.442  21.602  27.836  1.00  0.00     0.016 A 
ATOM     36  C   UNL A   1      42.464  22.125  25.466  1.00  0.00     0.016 A 
ATOM     37  C   UNL A   1      43.093  22.800  28.116  1.00  0.00     0.010 A 
ATOM     38  C   UNL A   1      43.115  23.334  25.751  1.00  0.00     0.010 A 
ATOM     39  C   UNL A   1      43.400  23.694  27.080  1.00  0.00    -0.014 A 
BRANCH  39  40
ATOM     40  C   UNL A   1      43.906  25.045  27.434  1.00  0.00     0.031 A 
ATOM     41  C   UNL A   1      45.330  25.412  27.106  1.00  0.00     0.074 A 
ATOM     42  C   UNL A   1      43.078  25.966  27.961  1.00  0.00     0.049 A 
ATOM     43  N   UNL A   1      45.946  26.557  27.256  1.00  0.00    -0.248 NA
ATOM     44  C   UNL A   1      46.169  24.351  26.524  1.00  0.00     0.031 C 
ATOM     45  C   UNL A   1      41.672  25.742  28.299  1.00  0.00     0.029 A 
ATOM     46  N   UNL A   1      43.296  27.280  28.293  1.00  0.00    -0.354 N 
ATOM     47  C   UNL A   1      47.237  26.360  26.778  1.00  0.00     0.074 A 
ATOM     48  C   UNL A   1      47.328  24.975  26.367  1.00  0.00     0.031 C 
ATOM     49  C   UNL A   1      41.153  26.881  28.789  1.00  0.00     0.029 A 
ATOM     50  C   UNL A   1      42.192  27.909  28.815  1.00  0.00     0.049 A 
ATOM     51  H   UNL A   1      44.164  27.729  28.169  1.00  0.00     0.167 HD
ATOM     52  C   UNL A   1      48.249  27.254  26.675  1.00  0.00     0.037 A 
ATOM     53  C   UNL A   1      42.038  29.169  29.268  1.00  0.00     0.037 A 
ATOM     54  C   UNL A   1      48.161  28.632  27.088  1.00  0.00     0.049 A 
ATOM     55  C   UNL A   1      43.197  30.129  29.192  1.00  0.00     0.074 A 
ATOM     56  C   UNL A   1      49.133  29.617  27.018  1.00  0.00     0.029 A 
ATOM     57  N   UNL A   1      47.038  29.221  27.648  1.00  0.00    -0.354 N 
ATOM     58  N   UNL A   1      44.403  29.933  28.713  1.00  0.00    -0.248 NA
ATOM     59  C   UNL A   1      42.971  31.486  29.711  1.00  0.00     0.031 C 
ATOM     60  C   UNL A   1      48.609  30.791  27.571  1.00  0.00     0.029 A 
ATOM     61  C   UNL A   1      47.298  30.550  27.945  1.00  0.00     0.049 A 
ATOM     62  H   UNL A   1      46.181  28.763  27.811  1.00  0.00     0.167 HD
ATOM     63  C   UNL A   1      45.071  31.145  28.856  1.00  0.00     0.074 A 
ATOM     64  C   UNL A   1      44.128  32.074  29.444  1.00  0.00     0.031 C 
ATOM     65  C   UNL A   1      46.349  31.462  28.533  1.00  0.00     0.037 A 
BRANCH  52  66
ATOM     66  C   UNL A   1      49.550  26.774  26.094  1.00  0.00     0.058 A 
ATOM     67  C   UNL A   1      49.911  27.062  24.769  1.00  0.00     0.135 A 
ATOM     68  C   UNL A   1      50.472  26.073  26.888  1.00  0.00     0.135 A 
ATOM     69  F   UNL A   1      49.060  27.715  23.963  1.00  0.00    -0.206 F 
ATOM     70  C   UNL A   1      51.137  26.663  24.247  1.00  0.00     0.059 A 
ATOM     71  C   UNL A   1      51.714  25.682  26.392  1.00  0.00     0.059 A 
ATOM     72  F   UNL A   1      50.175  25.769  28.160  1.00  0.00    -0.206 F 
ATOM     73  C   UNL A   1      52.034  25.976  25.067  1.00  0.00     0.060 A 
BRANCH  73  74
ATOM     74  S   UNL A   1      53.633  25.492  24.384  1.00  0.00     0.124 S 
ATOM     75  O   UNL A   1      53.682  24.075  24.733  1.00  0.00    -0.237 OA
ATOM     76  O   UNL A   1      53.470  25.788  22.964  1.00  0.00    -0.237 OA
ATOM     77  O   UNL A   1      54.580  26.345  25.095  1.00  0.00    -0.744 OA
ENDBRANCH  73  74
ENDBRANCH  52  66
BRANCH  53  78
ATOM     78  C   UNL A   1      40.739  29.604  29.848  1.00  0.00     0.058 A 
ATOM     79  C   UNL A   1      40.564  29.727  31.234  1.00  0.00     0.135 A 
ATOM     80  C   UNL A   1      39.635  29.871  29.023  1.00  0.00     0.135 A 
ATOM     81  F   UNL A   1      41.587  29.473  32.065  1.00  0.00    -0.206 F 
ATOM     82  C   UNL A   1      39.334  30.074  31.785  1.00  0.00     0.059 A 
ATOM     83  C   UNL A   1      38.403  30.244  29.548  1.00  0.00     0.059 A 
ATOM     84  F   UNL A   1      39.754  29.779  27.689  1.00  0.00    -0.206 F 
ATOM     85  C   UNL A   1      38.257  30.326  30.932  1.00  0.00     0.060 A 
BRANCH  85  86
ATOM     86  S   UNL A   1      36.669  30.797  31.650  1.00  0.00     0.124 S 
ATOM     87  O   UNL A   1      36.960  30.731  33.077  1.00  0.00    -0.237 OA
ATOM     88  O   UNL A   1      36.465  32.135  31.101  1.00  0.00    -0.237 OA
ATOM     89  O   UNL A   1      35.758  29.776  31.141  1.00  0.00    -0.744 OA
ENDBRANCH  85  86
ENDBRANCH  53  78
BRANCH  65  90
ATOM     90  C   UNL A   1      46.792  32.877  28.790  1.00  0.00     0.058 A 
ATOM     91  C   UNL A   1      47.380  33.254  30.007  1.00  0.00     0.135 A 
ATOM     92  C   UNL A   1      46.635  33.864  27.804  1.00  0.00     0.135 A 
ATOM     93  F   UNL A   1      47.550  32.349  30.984  1.00  0.00    -0.206 F 
ATOM     94  C   UNL A   1      47.761  34.569  30.253  1.00  0.00     0.059 A 
ATOM     95  C   UNL A   1      47.033  35.180  28.018  1.00  0.00     0.059 A 
ATOM     96  F   UNL A   1      46.090  33.554  26.616  1.00  0.00    -0.206 F 
ATOM     97  C   UNL A   1      47.577  35.527  29.254  1.00  0.00     0.060 A 
BRANCH  97  98
ATOM     98  S   UNL A   1      48.070  37.232  29.584  1.00  0.00     0.124 S 
ATOM     99  O   UNL A   1      48.993  37.489  28.483  1.00  0.00    -0.237 OA
ATOM    100  O   UNL A   1      46.799  37.947  29.526  1.00  0.00    -0.237 OA
ATOM    101  O   UNL A   1      48.679  37.157  30.909  1.00  0.00    -0.744 OA
ENDBRANCH  97  98
ENDBRANCH  65  90
ENDBRANCH  39  40
ENDBRANCH  32  34
ENDBRANCH  31  32
ENDBRANCH  30  31
ENDBRANCH   1  30
TORSDOF 20
ENDMDL
