MODEL 1
REMARK VINA RESULT:     -12.1      0.000      0.000
REMARK SMILES NS(=O)(=O)c1ccc(-n2nc(C(F)(F)F)cc2-c2ccc(CC(=O)OCCOCCOC(=O)c3ccc(-c4c5nc(c(-c6c(F)cc(S(=O)(=O)[O-])cc6F)c6ccc([nH]6)c(-c6c(F)cc(S(=O)(=O)[O-])cc6F)c6nc(c(-c7c(F)cc(S(=O)(=O)[O-])cc7F)c7ccc4[nH]7)C=C6)C=C5)cc3)cc2)cc1
REMARK SMILES IDX 27 1 26 2 25 3 23 4 24 5 22 6 21 7 18 8 19 9 101 10 20 11
REMARK SMILES IDX 100 12 17 13 9 14 10 15 11 16 16 17 8 18 5 19 6 20 103 21
REMARK SMILES IDX 7 22 102 23 2 24 3 25 4 26 1 27 12 30 13 31 14 32 15 33
REMARK SMILES IDX 28 34 29 35 30 36 31 37 32 38 33 39 34 40 35 41 99 42 36 43
REMARK SMILES IDX 98 44 37 45 38 46 39 47 92 48 40 49 97 50 91 51 93 52 41 53
REMARK SMILES IDX 96 54 90 55 89 56 42 58 76 59 55 60 75 61 56 62 59 63 74 64
REMARK SMILES IDX 94 65 57 66 58 67 73 69 95 70 60 71 43 72 44 73 53 74 45 75
REMARK SMILES IDX 46 76 52 77 54 78 47 79 48 80 49 81 50 82 51 83 77 84 78 85
REMARK SMILES IDX 87 86 79 87 80 88 86 89 88 90 81 91 82 92 83 93 84 94 85 95
REMARK SMILES IDX 61 96 62 97 71 98 63 99 64 100 70 101 72 102 65 103 66 104
REMARK SMILES IDX 67 105 68 106 69 107
REMARK H PARENT 1 28 1 29 93 57 59 68
REMARK Flexibility Score: inf
ROOT
ATOM      1  C   UNL A   1      32.960  29.026  24.793  1.00  0.00     0.202 C 
ENDROOT
BRANCH   1   2
ATOM      2  C   UNL A   1      31.812  28.595  23.874  1.00  0.00     0.261 C 
BRANCH   2   3
ATOM      3  O   UNL A   1      32.206  28.005  22.623  1.00  0.00    -0.463 OA
BRANCH   3   4
ATOM      4  C   UNL A   1      31.602  26.820  22.346  1.00  0.00     0.310 C 
ATOM      5  O   UNL A   1      31.140  26.521  21.247  1.00  0.00    -0.252 OA
BRANCH   4   6
ATOM      6  C   UNL A   1      31.484  25.864  23.505  1.00  0.00     0.158 C 
BRANCH   6   7
ATOM      7  C   UNL A   1      32.674  25.061  23.976  1.00  0.00    -0.037 A 
ATOM      8  C   UNL A   1      35.098  23.877  24.825  1.00  0.00     0.000 A 
ATOM      9  C   UNL A   1      34.228  24.471  25.749  1.00  0.00     0.010 A 
ATOM     10  C   UNL A   1      34.740  23.873  23.472  1.00  0.00     0.010 A 
ATOM     11  C   UNL A   1      33.025  25.044  25.332  1.00  0.00     0.005 A 
ATOM     12  C   UNL A   1      33.536  24.452  23.053  1.00  0.00     0.005 A 
BRANCH   8  13
ATOM     13  C   UNL A   1      36.379  23.318  25.263  1.00  0.00     0.075 A 
ATOM     14  N   UNL A   1      36.665  21.971  25.532  1.00  0.00    -0.233 N 
ATOM     15  N   UNL A   1      37.850  21.841  26.178  1.00  0.00    -0.163 NA
ATOM     16  C   UNL A   1      38.410  23.067  26.166  1.00  0.00     0.167 A 
ATOM     17  C   UNL A   1      37.505  24.019  25.647  1.00  0.00     0.064 A 
BRANCH  14  18
ATOM     18  C   UNL A   1      35.855  20.827  25.246  1.00  0.00     0.065 A 
ATOM     19  C   UNL A   1      34.302  18.534  24.625  1.00  0.00     0.082 A 
ATOM     20  C   UNL A   1      35.679  18.542  24.484  1.00  0.00     0.024 A 
ATOM     21  C   UNL A   1      33.674  19.709  25.045  1.00  0.00     0.024 A 
ATOM     22  C   UNL A   1      36.455  19.656  24.801  1.00  0.00     0.030 A 
ATOM     23  C   UNL A   1      34.457  20.843  25.391  1.00  0.00     0.030 A 
BRANCH  19  24
ATOM     24  S   UNL A   1      33.452  16.972  24.405  1.00  0.00     0.238 S 
ATOM     25  O   UNL A   1      33.782  16.122  25.537  1.00  0.00    -0.207 OA
ATOM     26  O   UNL A   1      33.651  16.536  23.052  1.00  0.00    -0.207 OA
BRANCH  24  27
ATOM     27  N   UNL A   1      31.828  17.329  24.586  1.00  0.00    -0.225 NA
ATOM     28  H   UNL A   1      31.287  16.464  24.590  1.00  0.00     0.137 HD
ATOM     29  H   UNL A   1      31.521  17.918  23.813  1.00  0.00     0.137 HD
ENDBRANCH  24  27
ENDBRANCH  19  24
ENDBRANCH  14  18
BRANCH  16  30
ATOM     30  C   UNL A   1      39.788  23.383  26.704  1.00  0.00     0.435 C 
ATOM     31  F   UNL A   1      40.725  22.505  26.279  1.00  0.00    -0.164 F 
ATOM     32  F   UNL A   1      40.174  24.640  26.378  1.00  0.00    -0.164 F 
ATOM     33  F   UNL A   1      39.792  23.320  28.070  1.00  0.00    -0.164 F 
ENDBRANCH  16  30
ENDBRANCH   8  13
ENDBRANCH   6   7
ENDBRANCH   4   6
ENDBRANCH   3   4
ENDBRANCH   2   3
ENDBRANCH   1   2
BRANCH   1  34
ATOM     34  O   UNL A   1      32.740  29.077  26.195  1.00  0.00    -0.374 OA
BRANCH  34  35
ATOM     35  C   UNL A   1      32.344  30.315  26.770  1.00  0.00     0.202 C 
BRANCH  35  36
ATOM     36  C   UNL A   1      33.392  31.183  27.459  1.00  0.00     0.261 C 
BRANCH  36  37
ATOM     37  O   UNL A   1      34.752  30.760  27.267  1.00  0.00    -0.460 OA
BRANCH  37  38
ATOM     38  C   UNL A   1      35.700  31.570  27.829  1.00  0.00     0.338 C 
ATOM     39  O   UNL A   1      35.893  32.745  27.564  1.00  0.00    -0.246 OA
BRANCH  38  40
ATOM     40  C   UNL A   1      36.643  30.734  28.611  1.00  0.00     0.060 A 
ATOM     41  C   UNL A   1      37.635  31.438  29.300  1.00  0.00     0.016 A 
ATOM     42  C   UNL A   1      36.832  29.391  28.281  1.00  0.00     0.016 A 
ATOM     43  C   UNL A   1      38.921  30.912  29.354  1.00  0.00     0.010 A 
ATOM     44  C   UNL A   1      38.129  28.892  28.310  1.00  0.00     0.010 A 
ATOM     45  C   UNL A   1      39.206  29.705  28.706  1.00  0.00    -0.014 A 
BRANCH  45  46
ATOM     46  C   UNL A   1      40.557  29.117  28.764  1.00  0.00     0.031 A 
ATOM     47  C   UNL A   1      40.904  28.966  30.174  1.00  0.00     0.074 A 
ATOM     48  C   UNL A   1      41.442  28.730  27.814  1.00  0.00     0.049 A 
ATOM     49  N   UNL A   1      41.515  29.880  30.853  1.00  0.00    -0.248 NA
ATOM     50  C   UNL A   1      40.240  27.936  30.978  1.00  0.00     0.031 C 
ATOM     51  C   UNL A   1      41.346  28.871  26.386  1.00  0.00     0.029 A 
ATOM     52  N   UNL A   1      42.663  28.099  27.922  1.00  0.00    -0.354 N 
ATOM     53  C   UNL A   1      41.599  29.335  32.113  1.00  0.00     0.074 A 
ATOM     54  C   UNL A   1      40.525  28.380  32.204  1.00  0.00     0.031 C 
ATOM     55  C   UNL A   1      42.266  28.143  25.726  1.00  0.00     0.029 A 
ATOM     56  C   UNL A   1      43.148  27.566  26.710  1.00  0.00     0.049 A 
ATOM     57  H   UNL A   1      43.154  28.027  28.772  1.00  0.00     0.167 HD
ATOM     58  C   UNL A   1      42.793  29.364  32.759  1.00  0.00     0.037 A 
ATOM     59  C   UNL A   1      44.323  26.956  26.389  1.00  0.00     0.037 A 
ATOM     60  C   UNL A   1      43.679  30.362  32.193  1.00  0.00     0.049 A 
ATOM     61  C   UNL A   1      45.299  27.384  27.412  1.00  0.00     0.074 A 
ATOM     62  C   UNL A   1      43.573  31.714  31.919  1.00  0.00     0.029 A 
ATOM     63  N   UNL A   1      44.751  29.917  31.460  1.00  0.00    -0.354 N 
ATOM     64  N   UNL A   1      45.794  28.591  27.443  1.00  0.00    -0.248 NA
ATOM     65  C   UNL A   1      45.280  26.674  28.680  1.00  0.00     0.031 C 
ATOM     66  C   UNL A   1      44.310  31.922  30.718  1.00  0.00     0.029 A 
ATOM     67  C   UNL A   1      44.901  30.714  30.354  1.00  0.00     0.049 A 
ATOM     68  H   UNL A   1      45.321  29.148  31.691  1.00  0.00     0.167 HD
ATOM     69  C   UNL A   1      45.684  28.964  28.772  1.00  0.00     0.074 A 
ATOM     70  C   UNL A   1      45.426  27.719  29.497  1.00  0.00     0.031 C 
ATOM     71  C   UNL A   1      45.511  30.273  29.118  1.00  0.00     0.037 A 
BRANCH  58  72
ATOM     72  C   UNL A   1      43.279  28.194  33.572  1.00  0.00     0.058 A 
ATOM     73  C   UNL A   1      43.521  26.975  32.920  1.00  0.00     0.135 A 
ATOM     74  C   UNL A   1      43.296  28.143  34.989  1.00  0.00     0.135 A 
ATOM     75  F   UNL A   1      43.482  26.903  31.580  1.00  0.00    -0.206 F 
ATOM     76  C   UNL A   1      43.735  25.791  33.621  1.00  0.00     0.059 A 
ATOM     77  C   UNL A   1      43.578  26.994  35.705  1.00  0.00     0.059 A 
ATOM     78  F   UNL A   1      42.947  29.172  35.766  1.00  0.00    -0.206 F 
ATOM     79  C   UNL A   1      43.764  25.815  35.015  1.00  0.00     0.060 A 
BRANCH  79  80
ATOM     80  S   UNL A   1      43.999  24.289  35.930  1.00  0.00     0.124 S 
ATOM     81  O   UNL A   1      43.774  24.737  37.299  1.00  0.00    -0.237 OA
ATOM     82  O   UNL A   1      42.967  23.436  35.351  1.00  0.00    -0.237 OA
ATOM     83  O   UNL A   1      45.372  23.911  35.603  1.00  0.00    -0.744 OA
ENDBRANCH  79  80
ENDBRANCH  58  72
BRANCH  59  84
ATOM     84  C   UNL A   1      44.463  25.693  25.594  1.00  0.00     0.058 A 
ATOM     85  C   UNL A   1      45.730  25.140  25.314  1.00  0.00     0.135 A 
ATOM     86  C   UNL A   1      43.366  24.863  25.305  1.00  0.00     0.135 A 
ATOM     87  F   UNL A   1      46.841  25.871  25.496  1.00  0.00    -0.206 F 
ATOM     88  C   UNL A   1      45.901  23.806  24.916  1.00  0.00     0.059 A 
ATOM     89  C   UNL A   1      43.512  23.536  24.904  1.00  0.00     0.059 A 
ATOM     90  F   UNL A   1      42.111  25.294  25.475  1.00  0.00    -0.206 F 
ATOM     91  C   UNL A   1      44.781  22.995  24.762  1.00  0.00     0.060 A 
BRANCH  91  92
ATOM     92  S   UNL A   1      44.977  21.207  24.539  1.00  0.00     0.124 S 
ATOM     93  O   UNL A   1      44.017  20.673  25.499  1.00  0.00    -0.237 OA
ATOM     94  O   UNL A   1      44.632  21.031  23.132  1.00  0.00    -0.237 OA
ATOM     95  O   UNL A   1      46.382  20.973  24.862  1.00  0.00    -0.744 OA
ENDBRANCH  91  92
ENDBRANCH  59  84
BRANCH  71  96
ATOM     96  C   UNL A   1      45.832  31.336  28.095  1.00  0.00     0.058 A 
ATOM     97  C   UNL A   1      44.951  31.824  27.112  1.00  0.00     0.135 A 
ATOM     98  C   UNL A   1      47.068  31.988  28.222  1.00  0.00     0.135 A 
ATOM     99  F   UNL A   1      43.713  31.321  26.980  1.00  0.00    -0.206 F 
ATOM    100  C   UNL A   1      45.302  32.893  26.277  1.00  0.00     0.059 A 
ATOM    101  C   UNL A   1      47.425  33.071  27.427  1.00  0.00     0.059 A 
ATOM    102  F   UNL A   1      47.934  31.602  29.175  1.00  0.00    -0.206 F 
ATOM    103  C   UNL A   1      46.542  33.512  26.447  1.00  0.00     0.060 A 
BRANCH 103 104
ATOM    104  S   UNL A   1      46.970  34.942  25.426  1.00  0.00     0.124 S 
ATOM    105  O   UNL A   1      48.361  34.668  25.084  1.00  0.00    -0.237 OA
ATOM    106  O   UNL A   1      46.012  34.837  24.329  1.00  0.00    -0.237 OA
ATOM    107  O   UNL A   1      46.758  36.076  26.322  1.00  0.00    -0.744 OA
ENDBRANCH 103 104
ENDBRANCH  71  96
ENDBRANCH  45  46
ENDBRANCH  38  40
ENDBRANCH  37  38
ENDBRANCH  36  37
ENDBRANCH  35  36
ENDBRANCH  34  35
ENDBRANCH   1  34
TORSDOF 23
ENDMDL
MODEL 2
REMARK VINA RESULT:     -11.7      4.177     10.310
REMARK SMILES NS(=O)(=O)c1ccc(-n2nc(C(F)(F)F)cc2-c2ccc(CC(=O)OCCOCCOC(=O)c3ccc(-c4c5nc(c(-c6c(F)cc(S(=O)(=O)[O-])cc6F)c6ccc([nH]6)c(-c6c(F)cc(S(=O)(=O)[O-])cc6F)c6nc(c(-c7c(F)cc(S(=O)(=O)[O-])cc7F)c7ccc4[nH]7)C=C6)C=C5)cc3)cc2)cc1
REMARK SMILES IDX 27 1 26 2 25 3 23 4 24 5 22 6 21 7 18 8 19 9 101 10 20 11
REMARK SMILES IDX 100 12 17 13 9 14 10 15 11 16 16 17 8 18 5 19 6 20 103 21
REMARK SMILES IDX 7 22 102 23 2 24 3 25 4 26 1 27 12 30 13 31 14 32 15 33
REMARK SMILES IDX 28 34 29 35 30 36 31 37 32 38 33 39 34 40 35 41 99 42 36 43
REMARK SMILES IDX 98 44 37 45 38 46 39 47 92 48 40 49 97 50 91 51 93 52 41 53
REMARK SMILES IDX 96 54 90 55 89 56 42 58 76 59 55 60 75 61 56 62 59 63 74 64
REMARK SMILES IDX 94 65 57 66 58 67 73 69 95 70 60 71 43 72 44 73 53 74 45 75
REMARK SMILES IDX 46 76 52 77 54 78 47 79 48 80 49 81 50 82 51 83 77 84 78 85
REMARK SMILES IDX 87 86 79 87 80 88 86 89 88 90 81 91 82 92 83 93 84 94 85 95
REMARK SMILES IDX 61 96 62 97 71 98 63 99 64 100 70 101 72 102 65 103 66 104
REMARK SMILES IDX 67 105 68 106 69 107
REMARK H PARENT 1 28 1 29 93 57 59 68
REMARK Flexibility Score: inf
ROOT
ATOM      1  C   UNL A   1      38.092  23.301  26.103  1.00  0.00     0.202 C 
ENDROOT
BRANCH   1   2
ATOM      2  C   UNL A   1      36.742  23.770  25.549  1.00  0.00     0.261 C 
BRANCH   2   3
ATOM      3  O   UNL A   1      35.935  22.749  24.934  1.00  0.00    -0.463 OA
BRANCH   3   4
ATOM      4  C   UNL A   1      35.628  22.985  23.632  1.00  0.00     0.310 C 
ATOM      5  O   UNL A   1      36.462  23.139  22.742  1.00  0.00    -0.252 OA
BRANCH   4   6
ATOM      6  C   UNL A   1      34.157  23.093  23.320  1.00  0.00     0.158 C 
BRANCH   6   7
ATOM      7  C   UNL A   1      33.433  24.414  23.426  1.00  0.00    -0.037 A 
ATOM      8  C   UNL A   1      31.812  26.731  23.405  1.00  0.00     0.000 A 
ATOM      9  C   UNL A   1      31.639  25.744  24.384  1.00  0.00     0.010 A 
ATOM     10  C   UNL A   1      32.810  26.554  22.441  1.00  0.00     0.010 A 
ATOM     11  C   UNL A   1      32.447  24.606  24.402  1.00  0.00     0.005 A 
ATOM     12  C   UNL A   1      33.618  25.409  22.456  1.00  0.00     0.005 A 
BRANCH   8  13
ATOM     13  C   UNL A   1      30.930  27.901  23.365  1.00  0.00     0.075 A 
ATOM     14  N   UNL A   1      30.993  29.035  24.190  1.00  0.00    -0.233 N 
ATOM     15  N   UNL A   1      29.872  29.787  24.073  1.00  0.00    -0.163 NA
ATOM     16  C   UNL A   1      29.173  29.249  23.054  1.00  0.00     0.167 A 
ATOM     17  C   UNL A   1      29.777  28.049  22.620  1.00  0.00     0.064 A 
BRANCH  14  18
ATOM     18  C   UNL A   1      32.034  29.402  25.099  1.00  0.00     0.065 A 
ATOM     19  C   UNL A   1      34.130  30.059  26.896  1.00  0.00     0.082 A 
ATOM     20  C   UNL A   1      34.302  29.130  25.885  1.00  0.00     0.024 A 
ATOM     21  C   UNL A   1      32.873  30.648  27.047  1.00  0.00     0.024 A 
ATOM     22  C   UNL A   1      33.285  28.810  24.986  1.00  0.00     0.030 A 
ATOM     23  C   UNL A   1      31.836  30.345  26.123  1.00  0.00     0.030 A 
BRANCH  19  24
ATOM     24  S   UNL A   1      35.579  30.547  27.832  1.00  0.00     0.238 S 
ATOM     25  O   UNL A   1      35.587  29.784  29.069  1.00  0.00    -0.207 OA
ATOM     26  O   UNL A   1      35.656  31.981  27.829  1.00  0.00    -0.207 OA
BRANCH  24  27
ATOM     27  N   UNL A   1      36.881  29.971  26.954  1.00  0.00    -0.225 NA
ATOM     28  H   UNL A   1      37.242  29.125  27.396  1.00  0.00     0.137 HD
ATOM     29  H   UNL A   1      37.613  30.679  26.927  1.00  0.00     0.137 HD
ENDBRANCH  24  27
ENDBRANCH  19  24
ENDBRANCH  14  18
BRANCH  16  30
ATOM     30  C   UNL A   1      27.883  29.817  22.507  1.00  0.00     0.435 C 
ATOM     31  F   UNL A   1      26.852  28.946  22.602  1.00  0.00    -0.164 F 
ATOM     32  F   UNL A   1      27.546  30.975  23.124  1.00  0.00    -0.164 F 
ATOM     33  F   UNL A   1      28.017  30.112  21.179  1.00  0.00    -0.164 F 
ENDBRANCH  16  30
ENDBRANCH   8  13
ENDBRANCH   6   7
ENDBRANCH   4   6
ENDBRANCH   3   4
ENDBRANCH   2   3
ENDBRANCH   1   2
BRANCH   1  34
ATOM     34  O   UNL A   1      38.696  24.033  27.159  1.00  0.00    -0.374 OA
BRANCH  34  35
ATOM     35  C   UNL A   1      40.003  23.662  27.575  1.00  0.00     0.202 C 
BRANCH  35  36
ATOM     36  C   UNL A   1      40.816  22.708  26.706  1.00  0.00     0.261 C 
BRANCH  36  37
ATOM     37  O   UNL A   1      42.229  22.969  26.675  1.00  0.00    -0.460 OA
BRANCH  37  38
ATOM     38  C   UNL A   1      42.692  23.536  25.520  1.00  0.00     0.338 C 
ATOM     39  O   UNL A   1      43.085  22.940  24.532  1.00  0.00    -0.246 OA
BRANCH  38  40
ATOM     40  C   UNL A   1      42.907  24.985  25.751  1.00  0.00     0.060 A 
ATOM     41  C   UNL A   1      43.922  25.300  26.659  1.00  0.00     0.016 A 
ATOM     42  C   UNL A   1      41.884  25.897  25.493  1.00  0.00     0.016 A 
ATOM     43  C   UNL A   1      43.732  26.358  27.542  1.00  0.00     0.010 A 
ATOM     44  C   UNL A   1      41.688  26.930  26.404  1.00  0.00     0.010 A 
ATOM     45  C   UNL A   1      42.529  27.072  27.523  1.00  0.00    -0.014 A 
BRANCH  45  46
ATOM     46  C   UNL A   1      42.311  28.208  28.437  1.00  0.00     0.031 A 
ATOM     47  C   UNL A   1      43.402  29.154  28.222  1.00  0.00     0.074 A 
ATOM     48  C   UNL A   1      41.353  28.492  29.353  1.00  0.00     0.049 A 
ATOM     49  N   UNL A   1      44.509  29.118  28.889  1.00  0.00    -0.248 NA
ATOM     50  C   UNL A   1      43.448  29.940  26.986  1.00  0.00     0.031 C 
ATOM     51  C   UNL A   1      40.253  27.673  29.785  1.00  0.00     0.029 A 
ATOM     52  N   UNL A   1      41.145  29.617  30.120  1.00  0.00    -0.354 N 
ATOM     53  C   UNL A   1      45.241  30.146  28.341  1.00  0.00     0.074 A 
ATOM     54  C   UNL A   1      44.723  30.336  27.011  1.00  0.00     0.031 C 
ATOM     55  C   UNL A   1      39.343  28.357  30.503  1.00  0.00     0.029 A 
ATOM     56  C   UNL A   1      39.870  29.682  30.719  1.00  0.00     0.049 A 
ATOM     57  H   UNL A   1      41.828  30.316  30.242  1.00  0.00     0.167 HD
ATOM     58  C   UNL A   1      45.848  31.031  29.173  1.00  0.00     0.037 A 
ATOM     59  C   UNL A   1      39.318  30.568  31.594  1.00  0.00     0.037 A 
ATOM     60  C   UNL A   1      45.991  30.491  30.511  1.00  0.00     0.049 A 
ATOM     61  C   UNL A   1      40.450  31.231  32.273  1.00  0.00     0.074 A 
ATOM     62  C   UNL A   1      46.525  29.329  31.039  1.00  0.00     0.029 A 
ATOM     63  N   UNL A   1      45.187  31.013  31.495  1.00  0.00    -0.354 N 
ATOM     64  N   UNL A   1      41.182  30.621  33.165  1.00  0.00    -0.248 NA
ATOM     65  C   UNL A   1      41.090  32.329  31.570  1.00  0.00     0.031 C 
ATOM     66  C   UNL A   1      45.690  28.989  32.143  1.00  0.00     0.029 A 
ATOM     67  C   UNL A   1      44.736  29.993  32.294  1.00  0.00     0.049 A 
ATOM     68  H   UNL A   1      44.971  31.966  31.609  1.00  0.00     0.167 HD
ATOM     69  C   UNL A   1      42.482  30.916  32.789  1.00  0.00     0.074 A 
ATOM     70  C   UNL A   1      42.362  32.028  31.843  1.00  0.00     0.031 C 
ATOM     71  C   UNL A   1      43.499  30.043  33.043  1.00  0.00     0.037 A 
BRANCH  58  72
ATOM     72  C   UNL A   1      45.879  32.505  28.869  1.00  0.00     0.058 A 
ATOM     73  C   UNL A   1      44.663  33.200  28.783  1.00  0.00     0.135 A 
ATOM     74  C   UNL A   1      47.022  33.218  28.431  1.00  0.00     0.135 A 
ATOM     75  F   UNL A   1      43.513  32.601  29.130  1.00  0.00    -0.206 F 
ATOM     76  C   UNL A   1      44.585  34.494  28.274  1.00  0.00     0.059 A 
ATOM     77  C   UNL A   1      46.979  34.528  27.990  1.00  0.00     0.059 A 
ATOM     78  F   UNL A   1      48.233  32.665  28.310  1.00  0.00    -0.206 F 
ATOM     79  C   UNL A   1      45.752  35.149  27.883  1.00  0.00     0.060 A 
BRANCH  79  80
ATOM     80  S   UNL A   1      45.660  36.800  27.188  1.00  0.00     0.124 S 
ATOM     81  O   UNL A   1      46.709  36.745  26.176  1.00  0.00    -0.237 OA
ATOM     82  O   UNL A   1      44.288  36.837  26.695  1.00  0.00    -0.237 OA
ATOM     83  O   UNL A   1      45.931  37.662  28.336  1.00  0.00    -0.744 OA
ENDBRANCH  79  80
ENDBRANCH  58  72
BRANCH  59  84
ATOM     84  C   UNL A   1      37.956  31.182  31.473  1.00  0.00     0.058 A 
ATOM     85  C   UNL A   1      36.938  30.896  32.407  1.00  0.00     0.135 A 
ATOM     86  C   UNL A   1      37.689  32.249  30.599  1.00  0.00     0.135 A 
ATOM     87  F   UNL A   1      37.065  29.857  33.247  1.00  0.00    -0.206 F 
ATOM     88  C   UNL A   1      35.802  31.705  32.558  1.00  0.00     0.059 A 
ATOM     89  C   UNL A   1      36.565  33.064  30.727  1.00  0.00     0.059 A 
ATOM     90  F   UNL A   1      38.553  32.583  29.633  1.00  0.00    -0.206 F 
ATOM     91  C   UNL A   1      35.650  32.821  31.741  1.00  0.00     0.060 A 
BRANCH  91  92
ATOM     92  S   UNL A   1      34.361  34.043  32.101  1.00  0.00     0.124 S 
ATOM     93  O   UNL A   1      35.138  35.166  32.613  1.00  0.00    -0.237 OA
ATOM     94  O   UNL A   1      33.747  34.239  30.791  1.00  0.00    -0.237 OA
ATOM     95  O   UNL A   1      33.514  33.369  33.082  1.00  0.00    -0.744 OA
ENDBRANCH  91  92
ENDBRANCH  59  84
BRANCH  71  96
ATOM     96  C   UNL A   1      43.275  28.956  34.067  1.00  0.00     0.058 A 
ATOM     97  C   UNL A   1      43.459  29.085  35.457  1.00  0.00     0.135 A 
ATOM     98  C   UNL A   1      42.706  27.758  33.608  1.00  0.00     0.135 A 
ATOM     99  F   UNL A   1      43.912  30.230  35.992  1.00  0.00    -0.206 F 
ATOM    100  C   UNL A   1      43.118  28.053  36.340  1.00  0.00     0.059 A 
ATOM    101  C   UNL A   1      42.330  26.733  34.470  1.00  0.00     0.059 A 
ATOM    102  F   UNL A   1      42.459  27.593  32.298  1.00  0.00    -0.206 F 
ATOM    103  C   UNL A   1      42.550  26.882  35.835  1.00  0.00     0.060 A 
BRANCH 103 104
ATOM    104  S   UNL A   1      42.035  25.578  36.977  1.00  0.00     0.124 S 
ATOM    105  O   UNL A   1      41.549  24.548  36.067  1.00  0.00    -0.237 OA
ATOM    106  O   UNL A   1      43.278  25.272  37.679  1.00  0.00    -0.237 OA
ATOM    107  O   UNL A   1      41.011  26.225  37.794  1.00  0.00    -0.744 OA
ENDBRANCH 103 104
ENDBRANCH  71  96
ENDBRANCH  45  46
ENDBRANCH  38  40
ENDBRANCH  37  38
ENDBRANCH  36  37
ENDBRANCH  35  36
ENDBRANCH  34  35
ENDBRANCH   1  34
TORSDOF 23
ENDMDL
MODEL 3
REMARK VINA RESULT:     -11.5      2.371      3.559
REMARK SMILES NS(=O)(=O)c1ccc(-n2nc(C(F)(F)F)cc2-c2ccc(CC(=O)OCCOCCOC(=O)c3ccc(-c4c5nc(c(-c6c(F)cc(S(=O)(=O)[O-])cc6F)c6ccc([nH]6)c(-c6c(F)cc(S(=O)(=O)[O-])cc6F)c6nc(c(-c7c(F)cc(S(=O)(=O)[O-])cc7F)c7ccc4[nH]7)C=C6)C=C5)cc3)cc2)cc1
REMARK SMILES IDX 27 1 26 2 25 3 23 4 24 5 22 6 21 7 18 8 19 9 101 10 20 11
REMARK SMILES IDX 100 12 17 13 9 14 10 15 11 16 16 17 8 18 5 19 6 20 103 21
REMARK SMILES IDX 7 22 102 23 2 24 3 25 4 26 1 27 12 30 13 31 14 32 15 33
REMARK SMILES IDX 28 34 29 35 30 36 31 37 32 38 33 39 34 40 35 41 99 42 36 43
REMARK SMILES IDX 98 44 37 45 38 46 39 47 92 48 40 49 97 50 91 51 93 52 41 53
REMARK SMILES IDX 96 54 90 55 89 56 42 58 76 59 55 60 75 61 56 62 59 63 74 64
REMARK SMILES IDX 94 65 57 66 58 67 73 69 95 70 60 71 43 72 44 73 53 74 45 75
REMARK SMILES IDX 46 76 52 77 54 78 47 79 48 80 49 81 50 82 51 83 77 84 78 85
REMARK SMILES IDX 87 86 79 87 80 88 86 89 88 90 81 91 82 92 83 93 84 94 85 95
REMARK SMILES IDX 61 96 62 97 71 98 63 99 64 100 70 101 72 102 65 103 66 104
REMARK SMILES IDX 67 105 68 106 69 107
REMARK H PARENT 1 28 1 29 93 57 59 68
REMARK Flexibility Score: inf
ROOT
ATOM      1  C   UNL A   1      33.589  28.392  24.397  1.00  0.00     0.202 C 
ENDROOT
BRANCH   1   2
ATOM      2  C   UNL A   1      32.508  28.427  23.311  1.00  0.00     0.261 C 
BRANCH   2   3
ATOM      3  O   UNL A   1      32.746  27.584  22.170  1.00  0.00    -0.463 OA
BRANCH   3   4
ATOM      4  C   UNL A   1      31.845  26.578  22.017  1.00  0.00     0.310 C 
ATOM      5  O   UNL A   1      31.351  26.252  20.939  1.00  0.00    -0.252 OA
BRANCH   4   6
ATOM      6  C   UNL A   1      31.433  25.876  23.285  1.00  0.00     0.158 C 
BRANCH   6   7
ATOM      7  C   UNL A   1      32.069  24.568  23.694  1.00  0.00    -0.037 A 
ATOM      8  C   UNL A   1      33.005  21.955  24.235  1.00  0.00     0.000 A 
ATOM      9  C   UNL A   1      33.521  22.693  23.163  1.00  0.00     0.010 A 
ATOM     10  C   UNL A   1      32.021  22.539  25.041  1.00  0.00     0.010 A 
ATOM     11  C   UNL A   1      33.069  23.988  22.903  1.00  0.00     0.005 A 
ATOM     12  C   UNL A   1      31.562  23.836  24.777  1.00  0.00     0.005 A 
BRANCH   8  13
ATOM     13  C   UNL A   1      33.452  20.580  24.475  1.00  0.00     0.075 A 
ATOM     14  N   UNL A   1      34.737  20.164  24.851  1.00  0.00    -0.233 N 
ATOM     15  N   UNL A   1      34.876  18.822  24.715  1.00  0.00    -0.163 NA
ATOM     16  C   UNL A   1      33.646  18.352  24.430  1.00  0.00     0.167 A 
ATOM     17  C   UNL A   1      32.744  19.420  24.228  1.00  0.00     0.064 A 
BRANCH  14  18
ATOM     18  C   UNL A   1      35.832  20.976  25.283  1.00  0.00     0.065 A 
ATOM     19  C   UNL A   1      37.958  22.652  26.136  1.00  0.00     0.082 A 
ATOM     20  C   UNL A   1      36.634  22.981  26.365  1.00  0.00     0.024 A 
ATOM     21  C   UNL A   1      38.235  21.480  25.427  1.00  0.00     0.024 A 
ATOM     22  C   UNL A   1      35.581  22.159  25.966  1.00  0.00     0.030 A 
ATOM     23  C   UNL A   1      37.170  20.624  25.035  1.00  0.00     0.030 A 
BRANCH  19  24
ATOM     24  S   UNL A   1      39.215  23.676  26.901  1.00  0.00     0.238 S 
ATOM     25  O   UNL A   1      40.344  22.823  27.230  1.00  0.00    -0.207 OA
ATOM     26  O   UNL A   1      38.582  24.505  27.888  1.00  0.00    -0.207 OA
BRANCH  24  27
ATOM     27  N   UNL A   1      39.765  24.677  25.679  1.00  0.00    -0.225 NA
ATOM     28  H   UNL A   1      40.762  24.855  25.808  1.00  0.00     0.137 HD
ATOM     29  H   UNL A   1      39.257  25.560  25.708  1.00  0.00     0.137 HD
ENDBRANCH  24  27
ENDBRANCH  19  24
ENDBRANCH  14  18
BRANCH  16  30
ATOM     30  C   UNL A   1      33.303  16.888  24.277  1.00  0.00     0.435 C 
ATOM     31  F   UNL A   1      34.122  16.086  24.996  1.00  0.00    -0.164 F 
ATOM     32  F   UNL A   1      32.018  16.637  24.623  1.00  0.00    -0.164 F 
ATOM     33  F   UNL A   1      33.435  16.502  22.972  1.00  0.00    -0.164 F 
ENDBRANCH  16  30
ENDBRANCH   8  13
ENDBRANCH   6   7
ENDBRANCH   4   6
ENDBRANCH   3   4
ENDBRANCH   2   3
ENDBRANCH   1   2
BRANCH   1  34
ATOM     34  O   UNL A   1      33.197  28.299  25.758  1.00  0.00    -0.374 OA
BRANCH  34  35
ATOM     35  C   UNL A   1      32.323  29.292  26.278  1.00  0.00     0.202 C 
BRANCH  35  36
ATOM     36  C   UNL A   1      32.917  30.553  26.897  1.00  0.00     0.261 C 
BRANCH  36  37
ATOM     37  O   UNL A   1      34.208  30.380  27.505  1.00  0.00    -0.460 OA
BRANCH  37  38
ATOM     38  C   UNL A   1      34.779  31.522  27.995  1.00  0.00     0.338 C 
ATOM     39  O   UNL A   1      34.594  32.655  27.583  1.00  0.00    -0.246 OA
BRANCH  38  40
ATOM     40  C   UNL A   1      35.873  31.150  28.925  1.00  0.00     0.060 A 
ATOM     41  C   UNL A   1      37.003  31.972  28.877  1.00  0.00     0.016 A 
ATOM     42  C   UNL A   1      35.971  29.845  29.408  1.00  0.00     0.016 A 
ATOM     43  C   UNL A   1      38.263  31.394  28.986  1.00  0.00     0.010 A 
ATOM     44  C   UNL A   1      37.236  29.272  29.480  1.00  0.00     0.010 A 
ATOM     45  C   UNL A   1      38.381  30.006  29.121  1.00  0.00    -0.014 A 
BRANCH  45  46
ATOM     46  C   UNL A   1      39.705  29.371  29.257  1.00  0.00     0.031 A 
ATOM     47  C   UNL A   1      40.015  29.313  30.683  1.00  0.00     0.074 A 
ATOM     48  C   UNL A   1      40.593  28.876  28.361  1.00  0.00     0.049 A 
ATOM     49  N   UNL A   1      40.648  30.251  31.305  1.00  0.00    -0.248 NA
ATOM     50  C   UNL A   1      39.290  28.376  31.545  1.00  0.00     0.031 C 
ATOM     51  C   UNL A   1      40.534  28.911  26.924  1.00  0.00     0.029 A 
ATOM     52  N   UNL A   1      41.783  28.206  28.546  1.00  0.00    -0.354 N 
ATOM     53  C   UNL A   1      40.682  29.802  32.605  1.00  0.00     0.074 A 
ATOM     54  C   UNL A   1      39.567  28.901  32.741  1.00  0.00     0.031 C 
ATOM     55  C   UNL A   1      41.436  28.098  26.344  1.00  0.00     0.029 A 
ATOM     56  C   UNL A   1      42.271  27.563  27.391  1.00  0.00     0.049 A 
ATOM     57  H   UNL A   1      42.252  28.180  29.412  1.00  0.00     0.167 HD
ATOM     58  C   UNL A   1      41.862  29.831  33.276  1.00  0.00     0.037 A 
ATOM     59  C   UNL A   1      43.427  26.883  27.147  1.00  0.00     0.037 A 
ATOM     60  C   UNL A   1      42.801  30.747  32.658  1.00  0.00     0.049 A 
ATOM     61  C   UNL A   1      44.397  27.347  28.158  1.00  0.00     0.074 A 
ATOM     62  C   UNL A   1      42.759  32.077  32.280  1.00  0.00     0.029 A 
ATOM     63  N   UNL A   1      43.870  30.203  31.987  1.00  0.00    -0.354 N 
ATOM     64  N   UNL A   1      44.942  28.532  28.110  1.00  0.00    -0.248 NA
ATOM     65  C   UNL A   1      44.321  26.738  29.475  1.00  0.00     0.031 C 
ATOM     66  C   UNL A   1      43.530  32.162  31.085  1.00  0.00     0.029 A 
ATOM     67  C   UNL A   1      44.077  30.907  30.829  1.00  0.00     0.049 A 
ATOM     68  H   UNL A   1      44.401  29.432  32.291  1.00  0.00     0.167 HD
ATOM     69  C   UNL A   1      44.819  29.011  29.403  1.00  0.00     0.074 A 
ATOM     70  C   UNL A   1      44.493  27.836  30.214  1.00  0.00     0.031 C 
ATOM     71  C   UNL A   1      44.694  30.348  29.645  1.00  0.00     0.037 A 
BRANCH  58  72
ATOM     72  C   UNL A   1      42.280  28.708  34.187  1.00  0.00     0.058 A 
ATOM     73  C   UNL A   1      42.500  28.990  35.544  1.00  0.00     0.135 A 
ATOM     74  C   UNL A   1      42.699  27.426  33.753  1.00  0.00     0.135 A 
ATOM     75  F   UNL A   1      42.182  30.192  36.048  1.00  0.00    -0.206 F 
ATOM     76  C   UNL A   1      43.116  28.078  36.398  1.00  0.00     0.059 A 
ATOM     77  C   UNL A   1      43.246  26.478  34.598  1.00  0.00     0.059 A 
ATOM     78  F   UNL A   1      42.697  27.045  32.472  1.00  0.00    -0.206 F 
ATOM     79  C   UNL A   1      43.481  26.823  35.913  1.00  0.00     0.060 A 
BRANCH  79  80
ATOM     80  S   UNL A   1      44.311  25.654  36.993  1.00  0.00     0.124 S 
ATOM     81  O   UNL A   1      44.082  26.259  38.300  1.00  0.00    -0.237 OA
ATOM     82  O   UNL A   1      43.580  24.423  36.713  1.00  0.00    -0.237 OA
ATOM     83  O   UNL A   1      45.691  25.679  36.516  1.00  0.00    -0.744 OA
ENDBRANCH  79  80
ENDBRANCH  58  72
BRANCH  59  84
ATOM     84  C   UNL A   1      43.530  25.557  26.453  1.00  0.00     0.058 A 
ATOM     85  C   UNL A   1      44.270  25.409  25.262  1.00  0.00     0.135 A 
ATOM     86  C   UNL A   1      43.123  24.358  27.063  1.00  0.00     0.135 A 
ATOM     87  F   UNL A   1      44.654  26.492  24.567  1.00  0.00    -0.206 F 
ATOM     88  C   UNL A   1      44.702  24.161  24.791  1.00  0.00     0.059 A 
ATOM     89  C   UNL A   1      43.536  23.106  26.610  1.00  0.00     0.059 A 
ATOM     90  F   UNL A   1      42.369  24.367  28.168  1.00  0.00    -0.206 F 
ATOM     91  C   UNL A   1      44.370  23.014  25.505  1.00  0.00     0.060 A 
BRANCH  91  92
ATOM     92  S   UNL A   1      45.149  21.430  25.096  1.00  0.00     0.124 S 
ATOM     93  O   UNL A   1      45.199  21.481  23.639  1.00  0.00    -0.237 OA
ATOM     94  O   UNL A   1      46.435  21.533  25.779  1.00  0.00    -0.237 OA
ATOM     95  O   UNL A   1      44.233  20.441  25.657  1.00  0.00    -0.744 OA
ENDBRANCH  91  92
ENDBRANCH  59  84
BRANCH  71  96
ATOM     96  C   UNL A   1      45.082  31.316  28.553  1.00  0.00     0.058 A 
ATOM     97  C   UNL A   1      44.317  31.615  27.410  1.00  0.00     0.135 A 
ATOM     98  C   UNL A   1      46.240  32.081  28.763  1.00  0.00     0.135 A 
ATOM     99  F   UNL A   1      43.149  30.997  27.177  1.00  0.00    -0.206 F 
ATOM    100  C   UNL A   1      44.708  32.612  26.507  1.00  0.00     0.059 A 
ATOM    101  C   UNL A   1      46.629  33.097  27.897  1.00  0.00     0.059 A 
ATOM    102  F   UNL A   1      46.986  31.878  29.862  1.00  0.00    -0.206 F 
ATOM    103  C   UNL A   1      45.865  33.350  26.763  1.00  0.00     0.060 A 
BRANCH 103 104
ATOM    104  S   UNL A   1      46.332  34.690  25.643  1.00  0.00     0.124 S 
ATOM    105  O   UNL A   1      47.753  34.432  25.433  1.00  0.00    -0.237 OA
ATOM    106  O   UNL A   1      45.465  34.450  24.494  1.00  0.00    -0.237 OA
ATOM    107  O   UNL A   1      46.023  35.896  26.406  1.00  0.00    -0.744 OA
ENDBRANCH 103 104
ENDBRANCH  71  96
ENDBRANCH  45  46
ENDBRANCH  38  40
ENDBRANCH  37  38
ENDBRANCH  36  37
ENDBRANCH  35  36
ENDBRANCH  34  35
ENDBRANCH   1  34
TORSDOF 23
ENDMDL
