MODEL 1
REMARK VINA RESULT:     -12.0      0.000      0.000
REMARK SMILES O=C(OCCOCCOC(=O)c1ccc(-c2c3nc(c(-c4c(F)cc(S(=O)(=O)[O-])cc4F)c4ccc([nH]4)c(-c4c(F)cc(S(=O)(=O)[O-])cc4F)c4nc(c(-c5c(F)cc(S(=O)(=O)[O-])cc5F)c5ccc2[nH]5)C=C4)C=C3)cc1)C1=Cc2c(Cl)ccc(Cl)c2O[C@@H]1C(F)(F)F
REMARK SMILES IDX 7 1 6 2 5 3 4 4 3 5 2 6 1 7 78 8 79 9 89 10 80 11 88 12
REMARK SMILES IDX 81 13 87 14 82 15 83 16 85 17 84 18 86 19 90 20 91 21 92 22
REMARK SMILES IDX 93 23 8 24 9 25 10 26 11 27 12 28 13 29 77 30 14 31 76 32
REMARK SMILES IDX 15 33 16 34 17 35 70 36 18 37 75 38 69 39 71 40 19 41 74 42
REMARK SMILES IDX 68 43 67 44 20 46 54 47 33 48 53 49 34 50 37 51 52 52 72 53
REMARK SMILES IDX 35 54 36 55 51 57 73 58 38 59 21 60 22 61 31 62 23 63 24 64
REMARK SMILES IDX 30 65 32 66 25 67 26 68 27 69 28 70 29 71 55 72 56 73 65 74
REMARK SMILES IDX 57 75 58 76 64 77 66 78 59 79 60 80 61 81 62 82 63 83 39 84
REMARK SMILES IDX 40 85 49 86 41 87 42 88 48 89 50 90 43 91 44 92 45 93 46 94
REMARK SMILES IDX 47 95
REMARK H PARENT 71 45 37 56
REMARK Flexibility Score: inf
ROOT
ATOM      1  C   UNL A   1      42.488  22.007  26.158  1.00  0.00     0.202 C 
ENDROOT
BRANCH   1   2
ATOM      2  O   UNL A   1      41.228  21.495  25.703  1.00  0.00    -0.374 OA
BRANCH   2   3
ATOM      3  C   UNL A   1      39.757  21.471  26.284  1.00  0.00     0.202 C 
BRANCH   3   4
ATOM      4  C   UNL A   1      37.790  21.295  25.356  1.00  0.00     0.261 C 
BRANCH   4   5
ATOM      5  O   UNL A   1      36.549  22.142  25.658  1.00  0.00    -0.460 OA
BRANCH   5   6
ATOM      6  C   UNL A   1      36.159  22.881  24.617  1.00  0.00     0.338 C 
ATOM      7  O   UNL A   1      36.823  23.427  23.774  1.00  0.00    -0.246 OA
BRANCH   6   8
ATOM      8  C   UNL A   1      34.809  23.102  25.091  1.00  0.00     0.087 C 
ATOM      9  C   UNL A   1      34.586  24.529  25.457  1.00  0.00     0.029 C 
ATOM     10  C   UNL A   1      33.936  22.198  23.620  1.00  0.00     0.316 C 
ATOM     11  C   UNL A   1      33.607  25.699  24.445  1.00  0.00     0.037 A 
ATOM     12  O   UNL A   1      32.951  23.421  22.506  1.00  0.00    -0.474 OA
ATOM     13  C   UNL A   1      33.613  27.048  24.719  1.00  0.00     0.052 A 
ATOM     14  C   UNL A   1      32.902  25.197  22.934  1.00  0.00     0.148 A 
ATOM     15  Cl  UNL A   1      34.254  27.714  26.161  1.00  0.00    -0.084 Cl
ATOM     16  C   UNL A   1      33.110  27.888  23.705  1.00  0.00     0.023 A 
ATOM     17  C   UNL A   1      32.605  26.100  21.951  1.00  0.00     0.083 A 
ATOM     18  C   UNL A   1      32.683  27.444  22.385  1.00  0.00     0.026 A 
ATOM     19  Cl  UNL A   1      32.533  25.695  20.300  1.00  0.00    -0.080 Cl
BRANCH  10  20
ATOM     20  C   UNL A   1      33.486  20.884  24.384  1.00  0.00     0.430 C 
ATOM     21  F   UNL A   1      32.728  21.068  25.479  1.00  0.00    -0.167 F 
ATOM     22  F   UNL A   1      32.687  20.178  23.525  1.00  0.00    -0.167 F 
ATOM     23  F   UNL A   1      34.491  20.026  24.678  1.00  0.00    -0.167 F 
ENDBRANCH  10  20
ENDBRANCH   6   8
ENDBRANCH   5   6
ENDBRANCH   4   5
ENDBRANCH   3   4
ENDBRANCH   2   3
ENDBRANCH   1   2
BRANCH   1  24
ATOM     24  C   UNL A   1      42.785  23.492  26.148  1.00  0.00     0.261 C 
BRANCH  24  25
ATOM     25  O   UNL A   1      41.671  24.276  26.515  1.00  0.00    -0.460 OA
BRANCH  25  26
ATOM     26  C   UNL A   1      41.744  25.565  26.124  1.00  0.00     0.338 C 
ATOM     27  O   UNL A   1      41.957  26.000  25.007  1.00  0.00    -0.246 OA
BRANCH  26  28
ATOM     28  C   UNL A   1      41.486  26.378  27.318  1.00  0.00     0.060 A 
ATOM     29  C   UNL A   1      42.225  27.550  27.500  1.00  0.00     0.016 A 
ATOM     30  C   UNL A   1      40.464  26.016  28.208  1.00  0.00     0.016 A 
ATOM     31  C   UNL A   1      41.902  28.400  28.552  1.00  0.00     0.010 A 
ATOM     32  C   UNL A   1      40.141  26.862  29.255  1.00  0.00     0.010 A 
ATOM     33  C   UNL A   1      40.866  28.050  29.431  1.00  0.00    -0.014 A 
BRANCH  33  34
ATOM     34  C   UNL A   1      40.700  28.761  30.707  1.00  0.00     0.031 A 
ATOM     35  C   UNL A   1      39.647  29.824  30.737  1.00  0.00     0.074 A 
ATOM     36  C   UNL A   1      41.505  28.528  31.754  1.00  0.00     0.049 A 
ATOM     37  N   UNL A   1      39.365  30.684  31.675  1.00  0.00    -0.248 NA
ATOM     38  C   UNL A   1      38.810  29.942  29.529  1.00  0.00     0.031 C 
ATOM     39  C   UNL A   1      42.551  27.508  31.812  1.00  0.00     0.029 A 
ATOM     40  N   UNL A   1      41.583  29.162  32.967  1.00  0.00    -0.354 N 
ATOM     41  C   UNL A   1      38.326  31.450  31.166  1.00  0.00     0.074 A 
ATOM     42  C   UNL A   1      38.057  30.986  29.825  1.00  0.00     0.031 C 
ATOM     43  C   UNL A   1      43.182  27.601  32.995  1.00  0.00     0.029 A 
ATOM     44  C   UNL A   1      42.611  28.710  33.758  1.00  0.00     0.049 A 
ATOM     45  H   UNL A   1      40.960  29.873  33.244  1.00  0.00     0.167 HD
ATOM     46  C   UNL A   1      37.656  32.453  31.773  1.00  0.00     0.037 A 
ATOM     47  C   UNL A   1      43.052  29.170  34.945  1.00  0.00     0.037 A 
ATOM     48  C   UNL A   1      37.978  32.928  33.088  1.00  0.00     0.049 A 
ATOM     49  C   UNL A   1      42.339  30.340  35.578  1.00  0.00     0.074 A 
ATOM     50  C   UNL A   1      37.369  33.934  33.811  1.00  0.00     0.029 A 
ATOM     51  N   UNL A   1      39.025  32.445  33.865  1.00  0.00    -0.354 N 
ATOM     52  N   UNL A   1      41.325  31.035  35.116  1.00  0.00    -0.248 NA
ATOM     53  C   UNL A   1      42.823  30.787  36.890  1.00  0.00     0.031 C 
ATOM     54  C   UNL A   1      38.094  34.113  34.991  1.00  0.00     0.029 A 
ATOM     55  C   UNL A   1      39.097  33.155  35.049  1.00  0.00     0.049 A 
ATOM     56  H   UNL A   1      39.625  31.707  33.610  1.00  0.00     0.167 HD
ATOM     57  C   UNL A   1      41.021  31.972  36.098  1.00  0.00     0.074 A 
ATOM     58  C   UNL A   1      41.967  31.761  37.176  1.00  0.00     0.031 C 
ATOM     59  C   UNL A   1      40.042  32.913  36.114  1.00  0.00     0.037 A 
BRANCH  46  60
ATOM     60  C   UNL A   1      36.569  33.120  30.980  1.00  0.00     0.058 A 
ATOM     61  C   UNL A   1      36.852  34.025  29.942  1.00  0.00     0.135 A 
ATOM     62  C   UNL A   1      35.222  32.887  31.295  1.00  0.00     0.135 A 
ATOM     63  F   UNL A   1      38.124  34.309  29.617  1.00  0.00    -0.206 F 
ATOM     64  C   UNL A   1      35.840  34.715  29.284  1.00  0.00     0.059 A 
ATOM     65  C   UNL A   1      34.191  33.535  30.620  1.00  0.00     0.059 A 
ATOM     66  F   UNL A   1      34.893  32.042  32.285  1.00  0.00    -0.206 F 
ATOM     67  C   UNL A   1      34.512  34.464  29.633  1.00  0.00     0.060 A 
BRANCH  67  68
ATOM     68  S   UNL A   1      33.213  35.385  28.787  1.00  0.00     0.124 S 
ATOM     69  O   UNL A   1      33.995  36.314  27.977  1.00  0.00    -0.237 OA
ATOM     70  O   UNL A   1      32.518  34.335  28.052  1.00  0.00    -0.237 OA
ATOM     71  O   UNL A   1      32.457  35.989  29.880  1.00  0.00    -0.744 OA
ENDBRANCH  67  68
ENDBRANCH  46  60
BRANCH  47  72
ATOM     72  C   UNL A   1      44.219  28.522  35.602  1.00  0.00     0.058 A 
ATOM     73  C   UNL A   1      45.530  28.943  35.336  1.00  0.00     0.135 A 
ATOM     74  C   UNL A   1      44.044  27.493  36.542  1.00  0.00     0.135 A 
ATOM     75  F   UNL A   1      45.754  29.913  34.436  1.00  0.00    -0.206 F 
ATOM     76  C   UNL A   1      46.625  28.373  35.979  1.00  0.00     0.059 A 
ATOM     77  C   UNL A   1      45.121  26.926  37.218  1.00  0.00     0.059 A 
ATOM     78  F   UNL A   1      42.811  27.056  36.839  1.00  0.00    -0.206 F 
ATOM     79  C   UNL A   1      46.408  27.374  36.930  1.00  0.00     0.060 A 
BRANCH  79  80
ATOM     80  S   UNL A   1      47.831  26.711  37.825  1.00  0.00     0.124 S 
ATOM     81  O   UNL A   1      47.649  27.297  39.148  1.00  0.00    -0.237 OA
ATOM     82  O   UNL A   1      47.605  25.272  37.728  1.00  0.00    -0.237 OA
ATOM     83  O   UNL A   1      48.971  27.213  37.065  1.00  0.00    -0.744 OA
ENDBRANCH  79  80
ENDBRANCH  47  72
BRANCH  59  84
ATOM     84  C   UNL A   1      39.882  33.746  37.357  1.00  0.00     0.058 A 
ATOM     85  C   UNL A   1      40.540  34.973  37.528  1.00  0.00     0.135 A 
ATOM     86  C   UNL A   1      38.956  33.354  38.340  1.00  0.00     0.135 A 
ATOM     87  F   UNL A   1      41.437  35.392  36.622  1.00  0.00    -0.206 F 
ATOM     88  C   UNL A   1      40.289  35.781  38.633  1.00  0.00     0.059 A 
ATOM     89  C   UNL A   1      38.665  34.161  39.433  1.00  0.00     0.059 A 
ATOM     90  F   UNL A   1      38.292  32.194  38.219  1.00  0.00    -0.206 F 
ATOM     91  C   UNL A   1      39.339  35.371  39.574  1.00  0.00     0.060 A 
BRANCH  91  92
ATOM     92  S   UNL A   1      38.971  36.463  40.963  1.00  0.00     0.124 S 
ATOM     93  O   UNL A   1      38.547  37.679  40.277  1.00  0.00    -0.237 OA
ATOM     94  O   UNL A   1      37.921  35.729  41.662  1.00  0.00    -0.237 OA
ATOM     95  O   UNL A   1      40.243  36.554  41.672  1.00  0.00    -0.744 OA
ENDBRANCH  91  92
ENDBRANCH  59  84
ENDBRANCH  33  34
ENDBRANCH  26  28
ENDBRANCH  25  26
ENDBRANCH  24  25
ENDBRANCH   1  24
TORSDOF 18
ENDMDL
MODEL 2
REMARK VINA RESULT:     -11.9      1.324      8.410
REMARK SMILES O=C(OCCOCCOC(=O)c1ccc(-c2c3nc(c(-c4c(F)cc(S(=O)(=O)[O-])cc4F)c4ccc([nH]4)c(-c4c(F)cc(S(=O)(=O)[O-])cc4F)c4nc(c(-c5c(F)cc(S(=O)(=O)[O-])cc5F)c5ccc2[nH]5)C=C4)C=C3)cc1)C1=Cc2c(Cl)ccc(Cl)c2O[C@@H]1C(F)(F)F
REMARK SMILES IDX 7 1 6 2 5 3 4 4 3 5 2 6 1 7 78 8 79 9 89 10 80 11 88 12
REMARK SMILES IDX 81 13 87 14 82 15 83 16 85 17 84 18 86 19 90 20 91 21 92 22
REMARK SMILES IDX 93 23 8 24 9 25 10 26 11 27 12 28 13 29 77 30 14 31 76 32
REMARK SMILES IDX 15 33 16 34 17 35 70 36 18 37 75 38 69 39 71 40 19 41 74 42
REMARK SMILES IDX 68 43 67 44 20 46 54 47 33 48 53 49 34 50 37 51 52 52 72 53
REMARK SMILES IDX 35 54 36 55 51 57 73 58 38 59 21 60 22 61 31 62 23 63 24 64
REMARK SMILES IDX 30 65 32 66 25 67 26 68 27 69 28 70 29 71 55 72 56 73 65 74
REMARK SMILES IDX 57 75 58 76 64 77 66 78 59 79 60 80 61 81 62 82 63 83 39 84
REMARK SMILES IDX 40 85 49 86 41 87 42 88 48 89 50 90 43 91 44 92 45 93 46 94
REMARK SMILES IDX 47 95
REMARK H PARENT 71 45 37 56
REMARK Flexibility Score: inf
ROOT
ATOM      1  C   UNL A   1      40.032  21.512  26.362  1.00  0.00     0.202 C 
ENDROOT
BRANCH   1   2
ATOM      2  O   UNL A   1      38.661  21.833  26.094  1.00  0.00    -0.374 OA
BRANCH   2   3
ATOM      3  C   UNL A   1      37.635  21.476  24.944  1.00  0.00     0.202 C 
BRANCH   3   4
ATOM      4  C   UNL A   1      35.686  22.280  24.382  1.00  0.00     0.261 C 
BRANCH   4   5
ATOM      5  O   UNL A   1      34.715  23.056  25.279  1.00  0.00    -0.460 OA
BRANCH   5   6
ATOM      6  C   UNL A   1      33.976  23.938  24.603  1.00  0.00     0.338 C 
ATOM      7  O   UNL A   1      34.119  24.359  23.484  1.00  0.00    -0.246 OA
BRANCH   6   8
ATOM      8  C   UNL A   1      33.271  24.454  25.758  1.00  0.00     0.087 C 
ATOM      9  C   UNL A   1      33.638  25.872  26.033  1.00  0.00     0.029 C 
ATOM     10  C   UNL A   1      31.516  23.866  25.193  1.00  0.00     0.316 C 
ATOM     11  C   UNL A   1      32.543  27.295  25.680  1.00  0.00     0.037 A 
ATOM     12  O   UNL A   1      30.366  25.348  24.757  1.00  0.00    -0.474 OA
ATOM     13  C   UNL A   1      33.014  28.587  25.754  1.00  0.00     0.052 A 
ATOM     14  C   UNL A   1      30.984  27.058  24.941  1.00  0.00     0.148 A 
ATOM     15  Cl  UNL A   1      34.519  29.001  26.458  1.00  0.00    -0.084 Cl
ATOM     16  C   UNL A   1      32.209  29.575  25.153  1.00  0.00     0.023 A 
ATOM     17  C   UNL A   1      30.369  28.056  24.237  1.00  0.00     0.083 A 
ATOM     18  C   UNL A   1      30.991  29.317  24.397  1.00  0.00     0.026 A 
ATOM     19  Cl  UNL A   1      29.235  27.767  23.002  1.00  0.00    -0.080 Cl
BRANCH  10  20
ATOM     20  C   UNL A   1      31.333  22.663  26.208  1.00  0.00     0.430 C 
ATOM     21  F   UNL A   1      31.355  22.983  27.513  1.00  0.00    -0.167 F 
ATOM     22  F   UNL A   1      30.080  22.153  25.998  1.00  0.00    -0.167 F 
ATOM     23  F   UNL A   1      32.156  21.610  25.994  1.00  0.00    -0.167 F 
ENDBRANCH  10  20
ENDBRANCH   6   8
ENDBRANCH   5   6
ENDBRANCH   4   5
ENDBRANCH   3   4
ENDBRANCH   2   3
ENDBRANCH   1   2
BRANCH   1  24
ATOM     24  C   UNL A   1      41.032  22.583  26.746  1.00  0.00     0.261 C 
BRANCH  24  25
ATOM     25  O   UNL A   1      40.444  23.859  26.879  1.00  0.00    -0.460 OA
BRANCH  25  26
ATOM     26  C   UNL A   1      41.239  24.881  26.497  1.00  0.00     0.338 C 
ATOM     27  O   UNL A   1      41.874  24.993  25.466  1.00  0.00    -0.246 OA
BRANCH  26  28
ATOM     28  C   UNL A   1      41.176  25.880  27.571  1.00  0.00     0.060 A 
ATOM     29  C   UNL A   1      40.088  25.851  28.448  1.00  0.00     0.016 A 
ATOM     30  C   UNL A   1      42.231  26.788  27.750  1.00  0.00     0.016 A 
ATOM     31  C   UNL A   1      40.080  26.701  29.548  1.00  0.00     0.010 A 
ATOM     32  C   UNL A   1      42.225  27.633  28.846  1.00  0.00     0.010 A 
ATOM     33  C   UNL A   1      41.144  27.594  29.739  1.00  0.00    -0.014 A 
BRANCH  33  34
ATOM     34  C   UNL A   1      41.025  28.697  30.705  1.00  0.00     0.031 A 
ATOM     35  C   UNL A   1      41.933  28.633  31.893  1.00  0.00     0.074 A 
ATOM     36  C   UNL A   1      40.099  29.657  30.570  1.00  0.00     0.049 A 
ATOM     37  N   UNL A   1      41.964  29.391  32.953  1.00  0.00    -0.248 NA
ATOM     38  C   UNL A   1      42.929  27.546  31.890  1.00  0.00     0.031 C 
ATOM     39  C   UNL A   1      39.180  29.798  29.441  1.00  0.00     0.029 A 
ATOM     40  N   UNL A   1      39.760  30.683  31.413  1.00  0.00    -0.354 N 
ATOM     41  C   UNL A   1      42.975  28.867  33.745  1.00  0.00     0.074 A 
ATOM     42  C   UNL A   1      43.502  27.705  33.070  1.00  0.00     0.031 C 
ATOM     43  C   UNL A   1      38.365  30.841  29.673  1.00  0.00     0.029 A 
ATOM     44  C   UNL A   1      38.679  31.413  30.981  1.00  0.00     0.049 A 
ATOM     45  H   UNL A   1      40.246  30.878  32.246  1.00  0.00     0.167 HD
ATOM     46  C   UNL A   1      43.423  29.324  34.935  1.00  0.00     0.037 A 
ATOM     47  C   UNL A   1      38.007  32.406  31.598  1.00  0.00     0.037 A 
ATOM     48  C   UNL A   1      42.847  30.452  35.609  1.00  0.00     0.049 A 
ATOM     49  C   UNL A   1      38.474  32.857  32.961  1.00  0.00     0.074 A 
ATOM     50  C   UNL A   1      43.216  31.013  36.815  1.00  0.00     0.029 A 
ATOM     51  N   UNL A   1      41.753  31.173  35.142  1.00  0.00    -0.354 N 
ATOM     52  N   UNL A   1      39.462  32.391  33.690  1.00  0.00    -0.248 NA
ATOM     53  C   UNL A   1      37.743  33.968  33.584  1.00  0.00     0.031 C 
ATOM     54  C   UNL A   1      42.300  32.023  37.117  1.00  0.00     0.029 A 
ATOM     55  C   UNL A   1      41.416  32.155  36.054  1.00  0.00     0.049 A 
ATOM     56  H   UNL A   1      41.289  31.008  34.290  1.00  0.00     0.167 HD
ATOM     57  C   UNL A   1      39.499  33.178  34.837  1.00  0.00     0.074 A 
ATOM     58  C   UNL A   1      38.426  34.145  34.707  1.00  0.00     0.031 C 
ATOM     59  C   UNL A   1      40.350  33.117  35.893  1.00  0.00     0.037 A 
BRANCH  46  60
ATOM     60  C   UNL A   1      44.538  28.553  35.582  1.00  0.00     0.058 A 
ATOM     61  C   UNL A   1      44.292  27.518  36.502  1.00  0.00     0.135 A 
ATOM     62  C   UNL A   1      45.874  28.886  35.316  1.00  0.00     0.135 A 
ATOM     63  F   UNL A   1      43.032  27.176  36.817  1.00  0.00    -0.206 F 
ATOM     64  C   UNL A   1      45.329  26.880  37.172  1.00  0.00     0.059 A 
ATOM     65  C   UNL A   1      46.929  28.233  35.944  1.00  0.00     0.059 A 
ATOM     66  F   UNL A   1      46.167  29.874  34.455  1.00  0.00    -0.206 F 
ATOM     67  C   UNL A   1      46.645  27.248  36.888  1.00  0.00     0.060 A 
BRANCH  67  68
ATOM     68  S   UNL A   1      47.979  26.429  37.785  1.00  0.00     0.124 S 
ATOM     69  O   UNL A   1      47.391  25.119  38.048  1.00  0.00    -0.237 OA
ATOM     70  O   UNL A   1      49.065  26.452  36.811  1.00  0.00    -0.237 OA
ATOM     71  O   UNL A   1      48.171  27.277  38.957  1.00  0.00    -0.744 OA
ENDBRANCH  67  68
ENDBRANCH  46  60
BRANCH  47  72
ATOM     72  C   UNL A   1      36.834  33.031  30.931  1.00  0.00     0.058 A 
ATOM     73  C   UNL A   1      35.525  32.751  31.349  1.00  0.00     0.135 A 
ATOM     74  C   UNL A   1      36.999  33.954  29.886  1.00  0.00     0.135 A 
ATOM     75  F   UNL A   1      35.310  31.865  32.335  1.00  0.00    -0.206 F 
ATOM     76  C   UNL A   1      34.423  33.364  30.761  1.00  0.00     0.059 A 
ATOM     77  C   UNL A   1      35.915  34.601  29.300  1.00  0.00     0.059 A 
ATOM     78  F   UNL A   1      38.230  34.264  29.450  1.00  0.00    -0.206 F 
ATOM     79  C   UNL A   1      34.630  34.300  29.745  1.00  0.00     0.060 A 
BRANCH  79  80
ATOM     80  S   UNL A   1      33.197  35.158  29.057  1.00  0.00     0.124 S 
ATOM     81  O   UNL A   1      32.701  34.182  28.093  1.00  0.00    -0.237 OA
ATOM     82  O   UNL A   1      32.370  35.362  30.242  1.00  0.00    -0.237 OA
ATOM     83  O   UNL A   1      33.773  36.372  28.486  1.00  0.00    -0.744 OA
ENDBRANCH  79  80
ENDBRANCH  47  72
BRANCH  59  84
ATOM     84  C   UNL A   1      40.216  34.160  36.970  1.00  0.00     0.058 A 
ATOM     85  C   UNL A   1      40.884  35.391  36.911  1.00  0.00     0.135 A 
ATOM     86  C   UNL A   1      39.303  33.957  38.020  1.00  0.00     0.135 A 
ATOM     87  F   UNL A   1      41.770  35.634  35.932  1.00  0.00    -0.206 F 
ATOM     88  C   UNL A   1      40.657  36.384  37.858  1.00  0.00     0.059 A 
ATOM     89  C   UNL A   1      39.034  34.948  38.957  1.00  0.00     0.059 A 
ATOM     90  F   UNL A   1      38.629  32.800  38.117  1.00  0.00    -0.206 F 
ATOM     91  C   UNL A   1      39.720  36.158  38.870  1.00  0.00     0.060 A 
BRANCH  91  92
ATOM     92  S   UNL A   1      39.381  37.482  40.049  1.00  0.00     0.124 S 
ATOM     93  O   UNL A   1      40.680  38.142  40.132  1.00  0.00    -0.237 OA
ATOM     94  O   UNL A   1      38.328  38.234  39.374  1.00  0.00    -0.237 OA
ATOM     95  O   UNL A   1      38.962  36.769  41.252  1.00  0.00    -0.744 OA
ENDBRANCH  91  92
ENDBRANCH  59  84
ENDBRANCH  33  34
ENDBRANCH  26  28
ENDBRANCH  25  26
ENDBRANCH  24  25
ENDBRANCH   1  24
TORSDOF 18
ENDMDL
MODEL 3
REMARK VINA RESULT:     -11.7      1.389      8.352
REMARK SMILES O=C(OCCOCCOC(=O)c1ccc(-c2c3nc(c(-c4c(F)cc(S(=O)(=O)[O-])cc4F)c4ccc([nH]4)c(-c4c(F)cc(S(=O)(=O)[O-])cc4F)c4nc(c(-c5c(F)cc(S(=O)(=O)[O-])cc5F)c5ccc2[nH]5)C=C4)C=C3)cc1)C1=Cc2c(Cl)ccc(Cl)c2O[C@@H]1C(F)(F)F
REMARK SMILES IDX 7 1 6 2 5 3 4 4 3 5 2 6 1 7 78 8 79 9 89 10 80 11 88 12
REMARK SMILES IDX 81 13 87 14 82 15 83 16 85 17 84 18 86 19 90 20 91 21 92 22
REMARK SMILES IDX 93 23 8 24 9 25 10 26 11 27 12 28 13 29 77 30 14 31 76 32
REMARK SMILES IDX 15 33 16 34 17 35 70 36 18 37 75 38 69 39 71 40 19 41 74 42
REMARK SMILES IDX 68 43 67 44 20 46 54 47 33 48 53 49 34 50 37 51 52 52 72 53
REMARK SMILES IDX 35 54 36 55 51 57 73 58 38 59 21 60 22 61 31 62 23 63 24 64
REMARK SMILES IDX 30 65 32 66 25 67 26 68 27 69 28 70 29 71 55 72 56 73 65 74
REMARK SMILES IDX 57 75 58 76 64 77 66 78 59 79 60 80 61 81 62 82 63 83 39 84
REMARK SMILES IDX 40 85 49 86 41 87 42 88 48 89 50 90 43 91 44 92 45 93 46 94
REMARK SMILES IDX 47 95
REMARK H PARENT 71 45 37 56
REMARK Flexibility Score: inf
ROOT
ATOM      1  C   UNL A   1      39.804  20.866  26.392  1.00  0.00     0.202 C 
ENDROOT
BRANCH   1   2
ATOM      2  O   UNL A   1      38.963  21.285  25.309  1.00  0.00    -0.374 OA
BRANCH   2   3
ATOM      3  C   UNL A   1      37.405  21.477  25.117  1.00  0.00     0.202 C 
BRANCH   3   4
ATOM      4  C   UNL A   1      35.995  22.998  25.798  1.00  0.00     0.261 C 
BRANCH   4   5
ATOM      5  O   UNL A   1      35.623  24.298  25.079  1.00  0.00    -0.460 OA
BRANCH   5   6
ATOM      6  C   UNL A   1      34.422  24.246  24.499  1.00  0.00     0.338 C 
ATOM      7  O   UNL A   1      34.138  24.202  23.330  1.00  0.00    -0.246 OA
BRANCH   6   8
ATOM      8  C   UNL A   1      33.675  24.653  25.671  1.00  0.00     0.087 C 
ATOM      9  C   UNL A   1      33.941  26.077  26.020  1.00  0.00     0.029 C 
ATOM     10  C   UNL A   1      31.969  23.975  25.059  1.00  0.00     0.316 C 
ATOM     11  C   UNL A   1      32.752  27.437  25.728  1.00  0.00     0.037 A 
ATOM     12  O   UNL A   1      30.722  25.394  24.685  1.00  0.00    -0.474 OA
ATOM     13  C   UNL A   1      33.131  28.752  25.873  1.00  0.00     0.052 A 
ATOM     14  C   UNL A   1      31.218  27.131  24.962  1.00  0.00     0.148 A 
ATOM     15  Cl  UNL A   1      34.599  29.234  26.612  1.00  0.00    -0.084 Cl
ATOM     16  C   UNL A   1      32.264  29.712  25.314  1.00  0.00     0.023 A 
ATOM     17  C   UNL A   1      30.540  28.119  24.303  1.00  0.00     0.083 A 
ATOM     18  C   UNL A   1      31.071  29.409  24.532  1.00  0.00     0.026 A 
ATOM     19  Cl  UNL A   1      29.437  27.815  23.043  1.00  0.00    -0.080 Cl
BRANCH  10  20
ATOM     20  C   UNL A   1      31.863  22.711  26.009  1.00  0.00     0.430 C 
ATOM     21  F   UNL A   1      32.007  22.948  27.324  1.00  0.00    -0.167 F 
ATOM     22  F   UNL A   1      30.590  22.225  25.883  1.00  0.00    -0.167 F 
ATOM     23  F   UNL A   1      32.650  21.668  25.657  1.00  0.00    -0.167 F 
ENDBRANCH  10  20
ENDBRANCH   6   8
ENDBRANCH   5   6
ENDBRANCH   4   5
ENDBRANCH   3   4
ENDBRANCH   2   3
ENDBRANCH   1   2
BRANCH   1  24
ATOM     24  C   UNL A   1      40.597  21.867  27.208  1.00  0.00     0.261 C 
BRANCH  24  25
ATOM     25  O   UNL A   1      40.353  23.202  26.824  1.00  0.00    -0.460 OA
BRANCH  25  26
ATOM     26  C   UNL A   1      41.465  23.952  26.679  1.00  0.00     0.338 C 
ATOM     27  O   UNL A   1      42.409  23.759  25.935  1.00  0.00    -0.246 OA
BRANCH  26  28
ATOM     28  C   UNL A   1      41.319  25.094  27.590  1.00  0.00     0.060 A 
ATOM     29  C   UNL A   1      42.318  26.071  27.602  1.00  0.00     0.016 A 
ATOM     30  C   UNL A   1      40.158  25.230  28.366  1.00  0.00     0.016 A 
ATOM     31  C   UNL A   1      42.131  27.224  28.356  1.00  0.00     0.010 A 
ATOM     32  C   UNL A   1      39.971  26.378  29.116  1.00  0.00     0.010 A 
ATOM     33  C   UNL A   1      40.962  27.370  29.117  1.00  0.00    -0.014 A 
BRANCH  33  34
ATOM     34  C   UNL A   1      40.870  28.419  30.144  1.00  0.00     0.031 A 
ATOM     35  C   UNL A   1      41.779  28.268  31.323  1.00  0.00     0.074 A 
ATOM     36  C   UNL A   1      39.964  29.405  30.066  1.00  0.00     0.049 A 
ATOM     37  N   UNL A   1      41.828  28.963  32.424  1.00  0.00    -0.248 NA
ATOM     38  C   UNL A   1      42.751  27.162  31.255  1.00  0.00     0.031 C 
ATOM     39  C   UNL A   1      39.046  29.629  28.951  1.00  0.00     0.029 A 
ATOM     40  N   UNL A   1      39.649  30.388  30.967  1.00  0.00    -0.354 N 
ATOM     41  C   UNL A   1      42.830  28.374  33.182  1.00  0.00     0.074 A 
ATOM     42  C   UNL A   1      43.331  27.241  32.440  1.00  0.00     0.031 C 
ATOM     43  C   UNL A   1      38.254  30.675  29.245  1.00  0.00     0.029 A 
ATOM     44  C   UNL A   1      38.583  31.165  30.582  1.00  0.00     0.049 A 
ATOM     45  H   UNL A   1      40.141  30.525  31.809  1.00  0.00     0.167 HD
ATOM     46  C   UNL A   1      43.291  28.752  34.393  1.00  0.00     0.037 A 
ATOM     47  C   UNL A   1      37.935  32.135  31.257  1.00  0.00     0.037 A 
ATOM     48  C   UNL A   1      42.741  29.853  35.133  1.00  0.00     0.049 A 
ATOM     49  C   UNL A   1      38.415  32.498  32.641  1.00  0.00     0.074 A 
ATOM     50  C   UNL A   1      43.125  30.336  36.367  1.00  0.00     0.029 A 
ATOM     51  N   UNL A   1      41.662  30.622  34.712  1.00  0.00    -0.354 N 
ATOM     52  N   UNL A   1      39.395  31.970  33.339  1.00  0.00    -0.248 NA
ATOM     53  C   UNL A   1      37.710  33.587  33.329  1.00  0.00     0.031 C 
ATOM     54  C   UNL A   1      42.231  31.347  36.729  1.00  0.00     0.029 A 
ATOM     55  C   UNL A   1      41.348  31.558  35.679  1.00  0.00     0.049 A 
ATOM     56  H   UNL A   1      41.192  30.517  33.853  1.00  0.00     0.167 HD
ATOM     57  C   UNL A   1      39.451  32.690  34.529  1.00  0.00     0.074 A 
ATOM     58  C   UNL A   1      38.399  33.685  34.458  1.00  0.00     0.031 C 
ATOM     59  C   UNL A   1      40.303  32.550  35.577  1.00  0.00     0.037 A 
BRANCH  46  60
ATOM     60  C   UNL A   1      44.390  27.922  34.992  1.00  0.00     0.058 A 
ATOM     61  C   UNL A   1      45.748  28.212  34.771  1.00  0.00     0.135 A 
ATOM     62  C   UNL A   1      44.080  26.789  35.760  1.00  0.00     0.135 A 
ATOM     63  F   UNL A   1      46.103  29.267  34.019  1.00  0.00    -0.206 F 
ATOM     64  C   UNL A   1      46.755  27.378  35.244  1.00  0.00     0.059 A 
ATOM     65  C   UNL A   1      45.073  25.965  36.279  1.00  0.00     0.059 A 
ATOM     66  F   UNL A   1      42.800  26.458  35.993  1.00  0.00    -0.206 F 
ATOM     67  C   UNL A   1      46.406  26.255  35.996  1.00  0.00     0.060 A 
BRANCH  67  68
ATOM     68  S   UNL A   1      47.722  25.170  36.580  1.00  0.00     0.124 S 
ATOM     69  O   UNL A   1      48.888  26.043  36.473  1.00  0.00    -0.237 OA
ATOM     70  O   UNL A   1      47.287  24.860  37.938  1.00  0.00    -0.237 OA
ATOM     71  O   UNL A   1      47.687  24.054  35.641  1.00  0.00    -0.744 OA
ENDBRANCH  67  68
ENDBRANCH  46  60
BRANCH  47  72
ATOM     72  C   UNL A   1      36.774  32.822  30.631  1.00  0.00     0.058 A 
ATOM     73  C   UNL A   1      35.458  32.515  31.006  1.00  0.00     0.135 A 
ATOM     74  C   UNL A   1      36.958  33.831  29.671  1.00  0.00     0.135 A 
ATOM     75  F   UNL A   1      35.226  31.549  31.908  1.00  0.00    -0.206 F 
ATOM     76  C   UNL A   1      34.367  33.184  30.458  1.00  0.00     0.059 A 
ATOM     77  C   UNL A   1      35.885  34.533  29.129  1.00  0.00     0.059 A 
ATOM     78  F   UNL A   1      38.196  34.169  29.280  1.00  0.00    -0.206 F 
ATOM     79  C   UNL A   1      34.593  34.202  29.529  1.00  0.00     0.060 A 
BRANCH  79  80
ATOM     80  S   UNL A   1      33.173  35.124  28.899  1.00  0.00     0.124 S 
ATOM     81  O   UNL A   1      33.822  36.245  28.228  1.00  0.00    -0.237 OA
ATOM     82  O   UNL A   1      32.537  34.141  28.029  1.00  0.00    -0.237 OA
ATOM     83  O   UNL A   1      32.426  35.460  30.107  1.00  0.00    -0.744 OA
ENDBRANCH  79  80
ENDBRANCH  47  72
BRANCH  59  84
ATOM     84  C   UNL A   1      40.194  33.533  36.711  1.00  0.00     0.058 A 
ATOM     85  C   UNL A   1      40.910  34.738  36.733  1.00  0.00     0.135 A 
ATOM     86  C   UNL A   1      39.260  33.305  37.737  1.00  0.00     0.135 A 
ATOM     87  F   UNL A   1      41.818  35.003  35.780  1.00  0.00    -0.206 F 
ATOM     88  C   UNL A   1      40.708  35.683  37.734  1.00  0.00     0.059 A 
ATOM     89  C   UNL A   1      39.017  34.249  38.728  1.00  0.00     0.059 A 
ATOM     90  F   UNL A   1      38.540  32.171  37.758  1.00  0.00    -0.206 F 
ATOM     91  C   UNL A   1      39.749  35.434  38.720  1.00  0.00     0.060 A 
BRANCH  91  92
ATOM     92  S   UNL A   1      39.445  36.700  39.971  1.00  0.00     0.124 S 
ATOM     93  O   UNL A   1      38.877  37.777  39.168  1.00  0.00    -0.237 OA
ATOM     94  O   UNL A   1      38.518  36.025  40.874  1.00  0.00    -0.237 OA
ATOM     95  O   UNL A   1      40.771  36.960  40.522  1.00  0.00    -0.744 OA
ENDBRANCH  91  92
ENDBRANCH  59  84
ENDBRANCH  33  34
ENDBRANCH  26  28
ENDBRANCH  25  26
ENDBRANCH  24  25
ENDBRANCH   1  24
TORSDOF 18
ENDMDL
