MODEL 1
REMARK VINA RESULT:     -11.8      0.000      0.000
REMARK SMILES O=C(C[C@]1(C(=O)NC2CCCCC2)CC(c2ccc([N+](=O)[O-])cc2)=NO1)OCCOCCOC(=O)c1ccc(-c2c3nc(c(-c4c(F)cc(S(=O)(=O)[O-])cc4F)c4ccc([nH]4)c(-c4c(F)cc(S(=O)(=O)[O-])cc4F)c4nc(c(-c5c(F)cc(S(=O)(=O)[O-])cc5F)c5ccc2[nH]5)C=C4)C=C3)cc1
REMARK SMILES IDX 30 1 29 2 28 3 27 4 2 5 1 6 3 7 4 8 14 9 26 10 15 11 25 12
REMARK SMILES IDX 5 13 6 14 7 15 8 17 9 18 13 19 10 20 12 21 11 22 16 23 17 24
REMARK SMILES IDX 24 25 18 26 23 27 19 28 20 29 21 30 22 31 31 32 32 33 33 34
REMARK SMILES IDX 34 35 35 36 36 37 37 38 101 39 38 40 100 41 39 42 40 43
REMARK SMILES IDX 41 44 94 45 42 46 99 47 93 48 95 49 43 50 98 51 92 52 91 53
REMARK SMILES IDX 44 55 78 56 57 57 77 58 58 59 61 60 76 61 96 62 59 63 60 64
REMARK SMILES IDX 75 66 97 67 62 68 45 69 46 70 55 71 47 72 48 73 54 74 56 75
REMARK SMILES IDX 49 76 50 77 51 78 52 79 53 80 79 81 80 82 89 83 81 84 82 85
REMARK SMILES IDX 88 86 90 87 83 88 84 89 85 90 86 91 87 92 63 93 64 94 73 95
REMARK SMILES IDX 65 96 66 97 72 98 74 99 67 100 68 101 69 102 70 103 71 104
REMARK H PARENT 7 16 95 54 61 65
REMARK Flexibility Score: inf
ROOT
ATOM      1  O   UNL A   1      37.764  20.974  24.141  1.00  0.00    -0.374 OA
ENDROOT
BRANCH   1   2
ATOM      2  C   UNL A   1      36.988  22.138  24.447  1.00  0.00     0.202 C 
BRANCH   2   3
ATOM      3  C   UNL A   1      36.347  22.258  25.832  1.00  0.00     0.261 C 
BRANCH   3   4
ATOM      4  O   UNL A   1      35.698  23.520  25.999  1.00  0.00    -0.463 OA
BRANCH   4   5
ATOM      5  C   UNL A   1      34.449  23.599  26.491  1.00  0.00     0.310 C 
ATOM      6  O   UNL A   1      34.145  22.934  27.479  1.00  0.00    -0.252 OA
BRANCH   5   7
ATOM      7  C   UNL A   1      33.434  24.466  25.772  1.00  0.00     0.185 C 
BRANCH   7   8
ATOM      8  C   UNL A   1      32.077  23.794  25.645  1.00  0.00     0.231 C 
ATOM      9  C   UNL A   1      32.058  22.288  25.814  1.00  0.00     0.123 C 
ATOM     10  O   UNL A   1      31.735  23.938  24.236  1.00  0.00    -0.378 OA
ATOM     11  C   UNL A   1      32.395  21.890  24.423  1.00  0.00     0.092 C 
ATOM     12  N   UNL A   1      32.258  22.815  23.536  1.00  0.00    -0.089 NA
BRANCH   8  13
ATOM     13  C   UNL A   1      30.987  24.469  26.481  1.00  0.00     0.268 C 
ATOM     14  O   UNL A   1      30.190  23.802  27.150  1.00  0.00    -0.270 OA
ATOM     15  N   UNL A   1      30.797  25.814  26.507  1.00  0.00    -0.350 N 
ATOM     16  H   UNL A   1      29.910  26.033  26.872  1.00  0.00     0.163 HD
BRANCH  15  17
ATOM     17  C   UNL A   1      31.532  27.043  26.149  1.00  0.00     0.082 C 
ATOM     18  C   UNL A   1      31.088  27.815  24.902  1.00  0.00     0.025 C 
ATOM     19  C   UNL A   1      31.460  27.989  27.364  1.00  0.00     0.025 C 
ATOM     20  C   UNL A   1      31.842  29.122  24.683  1.00  0.00     0.002 C 
ATOM     21  C   UNL A   1      32.218  29.295  27.145  1.00  0.00     0.002 C 
ATOM     22  C   UNL A   1      31.735  30.023  25.898  1.00  0.00     0.000 C 
ENDBRANCH  15  17
ENDBRANCH   8  13
BRANCH  11  23
ATOM     23  C   UNL A   1      32.756  20.506  24.117  1.00  0.00    -0.000 A 
ATOM     24  C   UNL A   1      32.106  19.772  23.122  1.00  0.00     0.017 A 
ATOM     25  C   UNL A   1      33.761  19.932  24.900  1.00  0.00     0.017 A 
ATOM     26  C   UNL A   1      32.472  18.436  22.909  1.00  0.00     0.086 A 
ATOM     27  C   UNL A   1      34.119  18.601  24.702  1.00  0.00     0.086 A 
ATOM     28  C   UNL A   1      33.470  17.854  23.710  1.00  0.00     0.269 A 
BRANCH  28  29
ATOM     29  N   UNL A   1      33.832  16.442  23.529  1.00  0.00     0.062 N 
ATOM     30  O   UNL A   1      33.560  15.653  24.444  1.00  0.00    -0.258 OA
ATOM     31  O   UNL A   1      34.381  16.121  22.465  1.00  0.00    -0.258 OA
ENDBRANCH  28  29
ENDBRANCH  11  23
ENDBRANCH   7   8
ENDBRANCH   5   7
ENDBRANCH   4   5
ENDBRANCH   3   4
ENDBRANCH   2   3
ENDBRANCH   1   2
BRANCH   1  32
ATOM     32  C   UNL A   1      37.707  19.904  25.096  1.00  0.00     0.202 C 
BRANCH  32  33
ATOM     33  C   UNL A   1      39.046  19.296  25.542  1.00  0.00     0.261 C 
BRANCH  33  34
ATOM     34  O   UNL A   1      39.914  20.285  26.118  1.00  0.00    -0.460 OA
BRANCH  34  35
ATOM     35  C   UNL A   1      41.231  19.957  26.158  1.00  0.00     0.338 C 
ATOM     36  O   UNL A   1      41.745  18.931  25.743  1.00  0.00    -0.246 OA
BRANCH  35  37
ATOM     37  C   UNL A   1      41.987  21.181  26.503  1.00  0.00     0.060 A 
ATOM     38  C   UNL A   1      42.259  21.424  27.861  1.00  0.00     0.016 A 
ATOM     39  C   UNL A   1      42.514  22.013  25.514  1.00  0.00     0.016 A 
ATOM     40  C   UNL A   1      43.068  22.492  28.234  1.00  0.00     0.010 A 
ATOM     41  C   UNL A   1      43.281  23.113  25.893  1.00  0.00     0.010 A 
ATOM     42  C   UNL A   1      43.543  23.363  27.252  1.00  0.00    -0.014 A 
BRANCH  42  43
ATOM     43  C   UNL A   1      44.119  24.666  27.636  1.00  0.00     0.031 A 
ATOM     44  C   UNL A   1      43.157  25.745  28.039  1.00  0.00     0.074 A 
ATOM     45  C   UNL A   1      45.442  24.892  27.569  1.00  0.00     0.049 A 
ATOM     46  N   UNL A   1      43.372  27.016  28.235  1.00  0.00    -0.248 NA
ATOM     47  C   UNL A   1      41.753  25.335  28.229  1.00  0.00     0.031 C 
ATOM     48  C   UNL A   1      46.456  23.892  27.231  1.00  0.00     0.029 A 
ATOM     49  N   UNL A   1      46.155  26.050  27.745  1.00  0.00    -0.354 N 
ATOM     50  C   UNL A   1      42.132  27.563  28.535  1.00  0.00     0.074 A 
ATOM     51  C   UNL A   1      41.164  26.490  28.499  1.00  0.00     0.031 C 
ATOM     52  C   UNL A   1      47.658  24.494  27.177  1.00  0.00     0.029 A 
ATOM     53  C   UNL A   1      47.488  25.923  27.430  1.00  0.00     0.049 A 
ATOM     54  H   UNL A   1      45.752  26.889  28.065  1.00  0.00     0.167 HD
ATOM     55  C   UNL A   1      41.832  28.852  28.804  1.00  0.00     0.037 A 
ATOM     56  C   UNL A   1      48.441  26.869  27.308  1.00  0.00     0.037 A 
ATOM     57  C   UNL A   1      42.815  29.899  28.843  1.00  0.00     0.049 A 
ATOM     58  C   UNL A   1      48.067  28.311  27.560  1.00  0.00     0.074 A 
ATOM     59  C   UNL A   1      42.636  31.231  29.165  1.00  0.00     0.029 A 
ATOM     60  N   UNL A   1      44.157  29.734  28.533  1.00  0.00    -0.354 N 
ATOM     61  N   UNL A   1      46.903  28.815  27.901  1.00  0.00    -0.248 NA
ATOM     62  C   UNL A   1      49.130  29.314  27.404  1.00  0.00     0.031 C 
ATOM     63  C   UNL A   1      43.857  31.885  28.985  1.00  0.00     0.029 A 
ATOM     64  C   UNL A   1      44.810  30.950  28.612  1.00  0.00     0.049 A 
ATOM     65  H   UNL A   1      44.581  28.879  28.292  1.00  0.00     0.167 HD
ATOM     66  C   UNL A   1      47.101  30.186  28.021  1.00  0.00     0.074 A 
ATOM     67  C   UNL A   1      48.498  30.433  27.734  1.00  0.00     0.031 C 
ATOM     68  C   UNL A   1      46.208  31.160  28.333  1.00  0.00     0.037 A 
BRANCH  55  69
ATOM     69  C   UNL A   1      40.395  29.215  29.035  1.00  0.00     0.058 A 
ATOM     70  C   UNL A   1      39.868  29.387  30.324  1.00  0.00     0.135 A 
ATOM     71  C   UNL A   1      39.552  29.471  27.940  1.00  0.00     0.135 A 
ATOM     72  F   UNL A   1      40.621  29.126  31.404  1.00  0.00    -0.206 F 
ATOM     73  C   UNL A   1      38.556  29.806  30.520  1.00  0.00     0.059 A 
ATOM     74  C   UNL A   1      38.246  29.915  28.113  1.00  0.00     0.059 A 
ATOM     75  F   UNL A   1      40.002  29.304  26.687  1.00  0.00    -0.206 F 
ATOM     76  C   UNL A   1      37.756  30.080  29.408  1.00  0.00     0.060 A 
BRANCH  76  77
ATOM     77  S   UNL A   1      36.079  30.686  29.681  1.00  0.00     0.124 S 
ATOM     78  O   UNL A   1      36.262  32.128  29.545  1.00  0.00    -0.237 OA
ATOM     79  O   UNL A   1      35.336  30.038  28.604  1.00  0.00    -0.237 OA
ATOM     80  O   UNL A   1      35.762  30.219  31.027  1.00  0.00    -0.744 OA
ENDBRANCH  76  77
ENDBRANCH  55  69
BRANCH  56  81
ATOM     81  C   UNL A   1      49.817  26.505  26.867  1.00  0.00     0.058 A 
ATOM     82  C   UNL A   1      50.152  26.438  25.507  1.00  0.00     0.135 A 
ATOM     83  C   UNL A   1      50.816  26.179  27.799  1.00  0.00     0.135 A 
ATOM     84  F   UNL A   1      49.232  26.728  24.575  1.00  0.00    -0.206 F 
ATOM     85  C   UNL A   1      51.415  26.031  25.084  1.00  0.00     0.059 A 
ATOM     86  C   UNL A   1      52.095  25.801  27.402  1.00  0.00     0.059 A 
ATOM     87  F   UNL A   1      50.555  26.235  29.115  1.00  0.00    -0.206 F 
ATOM     88  C   UNL A   1      52.379  25.710  26.041  1.00  0.00     0.060 A 
BRANCH  88  89
ATOM     89  S   UNL A   1      54.014  25.185  25.482  1.00  0.00     0.124 S 
ATOM     90  O   UNL A   1      54.484  26.380  24.788  1.00  0.00    -0.237 OA
ATOM     91  O   UNL A   1      54.684  24.874  26.740  1.00  0.00    -0.237 OA
ATOM     92  O   UNL A   1      53.726  24.034  24.632  1.00  0.00    -0.744 OA
ENDBRANCH  88  89
ENDBRANCH  56  81
BRANCH  68  93
ATOM     93  C   UNL A   1      46.715  32.573  28.410  1.00  0.00     0.058 A 
ATOM     94  C   UNL A   1      47.335  33.069  29.567  1.00  0.00     0.135 A 
ATOM     95  C   UNL A   1      46.664  33.408  27.282  1.00  0.00     0.135 A 
ATOM     96  F   UNL A   1      47.404  32.312  30.674  1.00  0.00    -0.206 F 
ATOM     97  C   UNL A   1      47.877  34.348  29.606  1.00  0.00     0.059 A 
ATOM     98  C   UNL A   1      47.226  34.678  27.289  1.00  0.00     0.059 A 
ATOM     99  F   UNL A   1      46.092  32.975  26.146  1.00  0.00    -0.206 F 
ATOM    100  C   UNL A   1      47.827  35.143  28.458  1.00  0.00     0.060 A 
BRANCH 100 101
ATOM    101  S   UNL A   1      48.590  36.776  28.506  1.00  0.00     0.124 S 
ATOM    102  O   UNL A   1      49.868  36.487  29.147  1.00  0.00    -0.237 OA
ATOM    103  O   UNL A   1      48.654  37.131  27.091  1.00  0.00    -0.237 OA
ATOM    104  O   UNL A   1      47.654  37.566  29.302  1.00  0.00    -0.744 OA
ENDBRANCH 100 101
ENDBRANCH  68  93
ENDBRANCH  42  43
ENDBRANCH  35  37
ENDBRANCH  34  35
ENDBRANCH  33  34
ENDBRANCH  32  33
ENDBRANCH   1  32
TORSDOF 22
ENDMDL
MODEL 2
REMARK VINA RESULT:     -11.8      5.607     10.093
REMARK SMILES O=C(C[C@]1(C(=O)NC2CCCCC2)CC(c2ccc([N+](=O)[O-])cc2)=NO1)OCCOCCOC(=O)c1ccc(-c2c3nc(c(-c4c(F)cc(S(=O)(=O)[O-])cc4F)c4ccc([nH]4)c(-c4c(F)cc(S(=O)(=O)[O-])cc4F)c4nc(c(-c5c(F)cc(S(=O)(=O)[O-])cc5F)c5ccc2[nH]5)C=C4)C=C3)cc1
REMARK SMILES IDX 30 1 29 2 28 3 27 4 2 5 1 6 3 7 4 8 14 9 26 10 15 11 25 12
REMARK SMILES IDX 5 13 6 14 7 15 8 17 9 18 13 19 10 20 12 21 11 22 16 23 17 24
REMARK SMILES IDX 24 25 18 26 23 27 19 28 20 29 21 30 22 31 31 32 32 33 33 34
REMARK SMILES IDX 34 35 35 36 36 37 37 38 101 39 38 40 100 41 39 42 40 43
REMARK SMILES IDX 41 44 94 45 42 46 99 47 93 48 95 49 43 50 98 51 92 52 91 53
REMARK SMILES IDX 44 55 78 56 57 57 77 58 58 59 61 60 76 61 96 62 59 63 60 64
REMARK SMILES IDX 75 66 97 67 62 68 45 69 46 70 55 71 47 72 48 73 54 74 56 75
REMARK SMILES IDX 49 76 50 77 51 78 52 79 53 80 79 81 80 82 89 83 81 84 82 85
REMARK SMILES IDX 88 86 90 87 83 88 84 89 85 90 86 91 87 92 63 93 64 94 73 95
REMARK SMILES IDX 65 96 66 97 72 98 74 99 67 100 68 101 69 102 70 103 71 104
REMARK H PARENT 7 16 95 54 61 65
REMARK Flexibility Score: inf
ROOT
ATOM      1  O   UNL A   1      38.497  21.118  25.420  1.00  0.00    -0.374 OA
ENDROOT
BRANCH   1   2
ATOM      2  C   UNL A   1      37.328  21.648  24.783  1.00  0.00     0.202 C 
BRANCH   2   3
ATOM      3  C   UNL A   1      36.095  21.956  25.636  1.00  0.00     0.261 C 
BRANCH   3   4
ATOM      4  O   UNL A   1      35.481  23.183  25.240  1.00  0.00    -0.463 OA
BRANCH   4   5
ATOM      5  C   UNL A   1      34.460  23.707  25.942  1.00  0.00     0.310 C 
ATOM      6  O   UNL A   1      34.379  23.486  27.148  1.00  0.00    -0.252 OA
BRANCH   5   7
ATOM      7  C   UNL A   1      33.404  24.509  25.207  1.00  0.00     0.185 C 
BRANCH   7   8
ATOM      8  C   UNL A   1      32.049  23.822  25.200  1.00  0.00     0.231 C 
ATOM      9  C   UNL A   1      32.052  22.333  25.486  1.00  0.00     0.123 C 
ATOM     10  O   UNL A   1      31.636  23.855  23.804  1.00  0.00    -0.378 OA
ATOM     11  C   UNL A   1      32.322  21.830  24.115  1.00  0.00     0.092 C 
ATOM     12  N   UNL A   1      32.133  22.684  23.166  1.00  0.00    -0.089 NA
BRANCH   8  13
ATOM     13  C   UNL A   1      30.994  24.555  26.035  1.00  0.00     0.268 C 
ATOM     14  O   UNL A   1      30.637  24.121  27.136  1.00  0.00    -0.270 OA
ATOM     15  N   UNL A   1      30.363  25.680  25.611  1.00  0.00    -0.350 N 
ATOM     16  H   UNL A   1      29.552  25.846  26.145  1.00  0.00     0.163 HD
BRANCH  15  17
ATOM     17  C   UNL A   1      30.535  26.727  24.586  1.00  0.00     0.082 C 
ATOM     18  C   UNL A   1      29.312  27.142  23.761  1.00  0.00     0.025 C 
ATOM     19  C   UNL A   1      31.096  27.975  25.296  1.00  0.00     0.025 C 
ATOM     20  C   UNL A   1      29.573  28.302  22.807  1.00  0.00     0.002 C 
ATOM     21  C   UNL A   1      31.361  29.133  24.339  1.00  0.00     0.002 C 
ATOM     22  C   UNL A   1      30.114  29.509  23.550  1.00  0.00     0.000 C 
ENDBRANCH  15  17
ENDBRANCH   8  13
BRANCH  11  23
ATOM     23  C   UNL A   1      32.680  20.429  23.899  1.00  0.00    -0.000 A 
ATOM     24  C   UNL A   1      32.160  19.685  22.837  1.00  0.00     0.017 A 
ATOM     25  C   UNL A   1      33.542  19.850  24.834  1.00  0.00     0.017 A 
ATOM     26  C   UNL A   1      32.511  18.334  22.713  1.00  0.00     0.086 A 
ATOM     27  C   UNL A   1      33.882  18.505  24.723  1.00  0.00     0.086 A 
ATOM     28  C   UNL A   1      33.362  17.747  23.665  1.00  0.00     0.269 A 
BRANCH  28  29
ATOM     29  N   UNL A   1      33.702  16.321  23.574  1.00  0.00     0.062 N 
ATOM     30  O   UNL A   1      34.384  15.950  22.609  1.00  0.00    -0.258 OA
ATOM     31  O   UNL A   1      33.293  15.574  24.475  1.00  0.00    -0.258 OA
ENDBRANCH  28  29
ENDBRANCH  11  23
ENDBRANCH   7   8
ENDBRANCH   5   7
ENDBRANCH   4   5
ENDBRANCH   3   4
ENDBRANCH   2   3
ENDBRANCH   1   2
BRANCH   1  32
ATOM     32  C   UNL A   1      39.201  22.011  26.296  1.00  0.00     0.202 C 
BRANCH  32  33
ATOM     33  C   UNL A   1      40.736  21.951  26.266  1.00  0.00     0.261 C 
BRANCH  33  34
ATOM     34  O   UNL A   1      41.323  22.893  27.177  1.00  0.00    -0.460 OA
BRANCH  34  35
ATOM     35  C   UNL A   1      41.895  23.983  26.603  1.00  0.00     0.338 C 
ATOM     36  O   UNL A   1      42.282  24.089  25.451  1.00  0.00    -0.246 OA
BRANCH  35  37
ATOM     37  C   UNL A   1      41.688  25.130  27.515  1.00  0.00     0.060 A 
ATOM     38  C   UNL A   1      42.588  26.206  27.433  1.00  0.00     0.016 A 
ATOM     39  C   UNL A   1      40.573  25.200  28.352  1.00  0.00     0.016 A 
ATOM     40  C   UNL A   1      42.372  27.361  28.177  1.00  0.00     0.010 A 
ATOM     41  C   UNL A   1      40.387  26.336  29.137  1.00  0.00     0.010 A 
ATOM     42  C   UNL A   1      41.294  27.408  29.064  1.00  0.00    -0.014 A 
BRANCH  42  43
ATOM     43  C   UNL A   1      41.228  28.467  30.089  1.00  0.00     0.031 A 
ATOM     44  C   UNL A   1      42.147  28.334  31.268  1.00  0.00     0.074 A 
ATOM     45  C   UNL A   1      40.339  29.471  29.999  1.00  0.00     0.049 A 
ATOM     46  N   UNL A   1      42.162  29.005  32.386  1.00  0.00    -0.248 NA
ATOM     47  C   UNL A   1      43.182  27.287  31.178  1.00  0.00     0.031 C 
ATOM     48  C   UNL A   1      39.437  29.704  28.871  1.00  0.00     0.029 A 
ATOM     49  N   UNL A   1      40.024  30.460  30.894  1.00  0.00    -0.354 N 
ATOM     50  C   UNL A   1      43.179  28.441  33.145  1.00  0.00     0.074 A 
ATOM     51  C   UNL A   1      43.763  27.375  32.366  1.00  0.00     0.031 C 
ATOM     52  C   UNL A   1      38.634  30.744  29.164  1.00  0.00     0.029 A 
ATOM     53  C   UNL A   1      38.937  31.214  30.515  1.00  0.00     0.049 A 
ATOM     54  H   UNL A   1      40.526  30.616  31.726  1.00  0.00     0.167 HD
ATOM     55  C   UNL A   1      43.576  28.782  34.391  1.00  0.00     0.037 A 
ATOM     56  C   UNL A   1      38.240  32.135  31.209  1.00  0.00     0.037 A 
ATOM     57  C   UNL A   1      42.984  29.854  35.142  1.00  0.00     0.049 A 
ATOM     58  C   UNL A   1      38.671  32.459  32.620  1.00  0.00     0.074 A 
ATOM     59  C   UNL A   1      43.347  30.328  36.389  1.00  0.00     0.029 A 
ATOM     60  N   UNL A   1      41.895  30.604  34.724  1.00  0.00    -0.354 N 
ATOM     61  N   UNL A   1      39.670  31.962  33.312  1.00  0.00    -0.248 NA
ATOM     62  C   UNL A   1      37.877  33.458  33.349  1.00  0.00     0.031 C 
ATOM     63  C   UNL A   1      42.434  31.322  36.752  1.00  0.00     0.029 A 
ATOM     64  C   UNL A   1      41.544  31.510  35.707  1.00  0.00     0.049 A 
ATOM     65  H   UNL A   1      41.441  30.507  33.855  1.00  0.00     0.167 HD
ATOM     66  C   UNL A   1      39.638  32.605  34.546  1.00  0.00     0.074 A 
ATOM     67  C   UNL A   1      38.532  33.538  34.500  1.00  0.00     0.031 C 
ATOM     68  C   UNL A   1      40.443  32.437  35.625  1.00  0.00     0.037 A 
BRANCH  55  69
ATOM     69  C   UNL A   1      44.663  27.975  35.037  1.00  0.00     0.058 A 
ATOM     70  C   UNL A   1      44.388  26.818  35.784  1.00  0.00     0.135 A 
ATOM     71  C   UNL A   1      46.009  28.325  34.839  1.00  0.00     0.135 A 
ATOM     72  F   UNL A   1      43.120  26.456  36.029  1.00  0.00    -0.206 F 
ATOM     73  C   UNL A   1      45.412  26.034  36.306  1.00  0.00     0.059 A 
ATOM     74  C   UNL A   1      47.048  27.542  35.329  1.00  0.00     0.059 A 
ATOM     75  F   UNL A   1      46.324  29.431  34.147  1.00  0.00    -0.206 F 
ATOM     76  C   UNL A   1      46.739  26.397  36.062  1.00  0.00     0.060 A 
BRANCH  76  77
ATOM     77  S   UNL A   1      48.053  25.331  36.690  1.00  0.00     0.124 S 
ATOM     78  O   UNL A   1      48.665  24.859  35.452  1.00  0.00    -0.237 OA
ATOM     79  O   UNL A   1      48.855  26.262  37.478  1.00  0.00    -0.237 OA
ATOM     80  O   UNL A   1      47.334  24.320  37.459  1.00  0.00    -0.744 OA
ENDBRANCH  76  77
ENDBRANCH  55  69
BRANCH  56  81
ATOM     81  C   UNL A   1      37.029  32.771  30.618  1.00  0.00     0.058 A 
ATOM     82  C   UNL A   1      37.136  33.816  29.689  1.00  0.00     0.135 A 
ATOM     83  C   UNL A   1      35.737  32.372  30.999  1.00  0.00     0.135 A 
ATOM     84  F   UNL A   1      38.346  34.245  29.299  1.00  0.00    -0.206 F 
ATOM     85  C   UNL A   1      36.011  34.464  29.184  1.00  0.00     0.059 A 
ATOM     86  C   UNL A   1      34.597  32.982  30.484  1.00  0.00     0.059 A 
ATOM     87  F   UNL A   1      35.574  31.370  31.879  1.00  0.00    -0.206 F 
ATOM     88  C   UNL A   1      34.745  34.041  29.592  1.00  0.00     0.060 A 
BRANCH  88  89
ATOM     89  S   UNL A   1      33.293  34.887  28.929  1.00  0.00     0.124 S 
ATOM     90  O   UNL A   1      33.888  36.100  28.379  1.00  0.00    -0.237 OA
ATOM     91  O   UNL A   1      32.795  33.922  27.954  1.00  0.00    -0.237 OA
ATOM     92  O   UNL A   1      32.448  35.075  30.104  1.00  0.00    -0.744 OA
ENDBRANCH  88  89
ENDBRANCH  56  81
BRANCH  68  93
ATOM     93  C   UNL A   1      40.182  33.295  36.831  1.00  0.00     0.058 A 
ATOM     94  C   UNL A   1      40.883  34.490  37.049  1.00  0.00     0.135 A 
ATOM     95  C   UNL A   1      39.153  32.963  37.728  1.00  0.00     0.135 A 
ATOM     96  F   UNL A   1      41.880  34.849  36.223  1.00  0.00    -0.206 F 
ATOM     97  C   UNL A   1      40.580  35.322  38.120  1.00  0.00     0.059 A 
ATOM     98  C   UNL A   1      38.813  33.795  38.787  1.00  0.00     0.059 A 
ATOM     99  F   UNL A   1      38.443  31.835  37.556  1.00  0.00    -0.206 F 
ATOM    100  C   UNL A   1      39.537  34.971  38.979  1.00  0.00     0.060 A 
BRANCH 100 101
ATOM    101  S   UNL A   1      39.116  36.093  40.328  1.00  0.00     0.124 S 
ATOM    102  O   UNL A   1      40.386  36.191  41.039  1.00  0.00    -0.237 OA
ATOM    103  O   UNL A   1      38.693  37.293  39.613  1.00  0.00    -0.237 OA
ATOM    104  O   UNL A   1      38.052  35.387  41.039  1.00  0.00    -0.744 OA
ENDBRANCH 100 101
ENDBRANCH  68  93
ENDBRANCH  42  43
ENDBRANCH  35  37
ENDBRANCH  34  35
ENDBRANCH  33  34
ENDBRANCH  32  33
ENDBRANCH   1  32
TORSDOF 22
ENDMDL
MODEL 3
REMARK VINA RESULT:     -11.6      2.934      9.327
REMARK SMILES O=C(C[C@]1(C(=O)NC2CCCCC2)CC(c2ccc([N+](=O)[O-])cc2)=NO1)OCCOCCOC(=O)c1ccc(-c2c3nc(c(-c4c(F)cc(S(=O)(=O)[O-])cc4F)c4ccc([nH]4)c(-c4c(F)cc(S(=O)(=O)[O-])cc4F)c4nc(c(-c5c(F)cc(S(=O)(=O)[O-])cc5F)c5ccc2[nH]5)C=C4)C=C3)cc1
REMARK SMILES IDX 30 1 29 2 28 3 27 4 2 5 1 6 3 7 4 8 14 9 26 10 15 11 25 12
REMARK SMILES IDX 5 13 6 14 7 15 8 17 9 18 13 19 10 20 12 21 11 22 16 23 17 24
REMARK SMILES IDX 24 25 18 26 23 27 19 28 20 29 21 30 22 31 31 32 32 33 33 34
REMARK SMILES IDX 34 35 35 36 36 37 37 38 101 39 38 40 100 41 39 42 40 43
REMARK SMILES IDX 41 44 94 45 42 46 99 47 93 48 95 49 43 50 98 51 92 52 91 53
REMARK SMILES IDX 44 55 78 56 57 57 77 58 58 59 61 60 76 61 96 62 59 63 60 64
REMARK SMILES IDX 75 66 97 67 62 68 45 69 46 70 55 71 47 72 48 73 54 74 56 75
REMARK SMILES IDX 49 76 50 77 51 78 52 79 53 80 79 81 80 82 89 83 81 84 82 85
REMARK SMILES IDX 88 86 90 87 83 88 84 89 85 90 86 91 87 92 63 93 64 94 73 95
REMARK SMILES IDX 65 96 66 97 72 98 74 99 67 100 68 101 69 102 70 103 71 104
REMARK H PARENT 7 16 95 54 61 65
REMARK Flexibility Score: inf
ROOT
ATOM      1  O   UNL A   1      33.351  30.834  27.770  1.00  0.00    -0.374 OA
ENDROOT
BRANCH   1   2
ATOM      2  C   UNL A   1      33.559  30.228  26.489  1.00  0.00     0.202 C 
BRANCH   2   3
ATOM      3  C   UNL A   1      33.799  28.719  26.413  1.00  0.00     0.261 C 
BRANCH   3   4
ATOM      4  O   UNL A   1      32.909  28.094  25.486  1.00  0.00    -0.463 OA
BRANCH   4   5
ATOM      5  C   UNL A   1      33.373  27.290  24.512  1.00  0.00     0.310 C 
ATOM      6  O   UNL A   1      34.388  27.608  23.898  1.00  0.00    -0.252 OA
BRANCH   5   7
ATOM      7  C   UNL A   1      32.589  26.040  24.164  1.00  0.00     0.185 C 
BRANCH   7   8
ATOM      8  C   UNL A   1      31.993  26.095  22.768  1.00  0.00     0.231 C 
ATOM      9  C   UNL A   1      31.813  27.477  22.171  1.00  0.00     0.123 C 
ATOM     10  O   UNL A   1      30.611  25.669  22.950  1.00  0.00    -0.378 OA
ATOM     11  C   UNL A   1      30.491  27.817  22.758  1.00  0.00     0.092 C 
ATOM     12  N   UNL A   1      29.826  26.821  23.236  1.00  0.00    -0.089 NA
BRANCH   8  13
ATOM     13  C   UNL A   1      32.669  25.138  21.782  1.00  0.00     0.268 C 
ATOM     14  O   UNL A   1      33.071  25.534  20.682  1.00  0.00    -0.270 OA
ATOM     15  N   UNL A   1      32.828  23.811  22.026  1.00  0.00    -0.350 N 
ATOM     16  H   UNL A   1      33.031  23.327  21.193  1.00  0.00     0.163 HD
BRANCH  15  17
ATOM     17  C   UNL A   1      32.788  22.884  23.172  1.00  0.00     0.082 C 
ATOM     18  C   UNL A   1      32.175  21.495  22.960  1.00  0.00     0.025 C 
ATOM     19  C   UNL A   1      34.236  22.711  23.672  1.00  0.00     0.025 C 
ATOM     20  C   UNL A   1      32.279  20.581  24.175  1.00  0.00     0.002 C 
ATOM     21  C   UNL A   1      34.338  21.798  24.891  1.00  0.00     0.002 C 
ATOM     22  C   UNL A   1      33.720  20.432  24.624  1.00  0.00     0.000 C 
ENDBRANCH  15  17
ENDBRANCH   8  13
BRANCH  11  23
ATOM     23  C   UNL A   1      29.982  29.186  22.687  1.00  0.00    -0.000 A 
ATOM     24  C   UNL A   1      29.936  30.020  23.808  1.00  0.00     0.017 A 
ATOM     25  C   UNL A   1      29.500  29.614  21.447  1.00  0.00     0.017 A 
ATOM     26  C   UNL A   1      29.396  31.306  23.680  1.00  0.00     0.086 A 
ATOM     27  C   UNL A   1      28.950  30.886  21.319  1.00  0.00     0.086 A 
ATOM     28  C   UNL A   1      28.894  31.728  22.437  1.00  0.00     0.269 A 
BRANCH  28  29
ATOM     29  N   UNL A   1      28.283  33.057  22.299  1.00  0.00     0.062 N 
ATOM     30  O   UNL A   1      27.643  33.295  21.266  1.00  0.00    -0.258 OA
ATOM     31  O   UNL A   1      28.436  33.860  23.231  1.00  0.00    -0.258 OA
ENDBRANCH  28  29
ENDBRANCH  11  23
ENDBRANCH   7   8
ENDBRANCH   5   7
ENDBRANCH   4   5
ENDBRANCH   3   4
ENDBRANCH   2   3
ENDBRANCH   1   2
BRANCH   1  32
ATOM     32  C   UNL A   1      34.119  32.016  28.044  1.00  0.00     0.202 C 
BRANCH  32  33
ATOM     33  C   UNL A   1      35.169  31.921  29.161  1.00  0.00     0.261 C 
BRANCH  33  34
ATOM     34  O   UNL A   1      35.944  30.716  29.061  1.00  0.00    -0.460 OA
BRANCH  34  35
ATOM     35  C   UNL A   1      36.516  30.289  30.216  1.00  0.00     0.338 C 
ATOM     36  O   UNL A   1      35.942  29.960  31.241  1.00  0.00    -0.246 OA
BRANCH  35  37
ATOM     37  C   UNL A   1      37.936  29.987  29.929  1.00  0.00     0.060 A 
ATOM     38  C   UNL A   1      38.319  29.851  28.584  1.00  0.00     0.016 A 
ATOM     39  C   UNL A   1      38.891  29.950  30.946  1.00  0.00     0.016 A 
ATOM     40  C   UNL A   1      39.659  29.688  28.248  1.00  0.00     0.010 A 
ATOM     41  C   UNL A   1      40.226  29.734  30.612  1.00  0.00     0.010 A 
ATOM     42  C   UNL A   1      40.608  29.585  29.267  1.00  0.00    -0.014 A 
BRANCH  42  43
ATOM     43  C   UNL A   1      41.966  29.092  28.964  1.00  0.00     0.031 A 
ATOM     44  C   UNL A   1      43.060  30.116  28.878  1.00  0.00     0.074 A 
ATOM     45  C   UNL A   1      42.197  27.792  28.715  1.00  0.00     0.049 A 
ATOM     46  N   UNL A   1      44.283  29.987  28.446  1.00  0.00    -0.248 NA
ATOM     47  C   UNL A   1      42.719  31.480  29.326  1.00  0.00     0.031 C 
ATOM     48  C   UNL A   1      41.206  26.721  28.817  1.00  0.00     0.029 A 
ATOM     49  N   UNL A   1      43.335  27.159  28.286  1.00  0.00    -0.354 N 
ATOM     50  C   UNL A   1      44.846  31.253  28.535  1.00  0.00     0.074 A 
ATOM     51  C   UNL A   1      43.837  32.140  29.064  1.00  0.00     0.031 C 
ATOM     52  C   UNL A   1      41.769  25.568  28.413  1.00  0.00     0.029 A 
ATOM     53  C   UNL A   1      43.140  25.832  27.982  1.00  0.00     0.049 A 
ATOM     54  H   UNL A   1      44.206  27.611  28.203  1.00  0.00     0.167 HD
ATOM     55  C   UNL A   1      46.095  31.635  28.191  1.00  0.00     0.037 A 
ATOM     56  C   UNL A   1      43.964  24.955  27.373  1.00  0.00     0.037 A 
ATOM     57  C   UNL A   1      47.085  30.730  27.676  1.00  0.00     0.049 A 
ATOM     58  C   UNL A   1      45.336  25.423  26.949  1.00  0.00     0.074 A 
ATOM     59  C   UNL A   1      48.402  30.995  27.352  1.00  0.00     0.029 A 
ATOM     60  N   UNL A   1      46.858  29.391  27.393  1.00  0.00    -0.354 N 
ATOM     61  N   UNL A   1      45.884  26.608  27.089  1.00  0.00    -0.248 NA
ATOM     62  C   UNL A   1      46.199  24.442  26.276  1.00  0.00     0.031 C 
ATOM     63  C   UNL A   1      48.953  29.830  26.811  1.00  0.00     0.029 A 
ATOM     64  C   UNL A   1      47.999  28.826  26.856  1.00  0.00     0.049 A 
ATOM     65  H   UNL A   1      46.012  28.915  27.552  1.00  0.00     0.167 HD
ATOM     66  C   UNL A   1      47.159  26.507  26.544  1.00  0.00     0.074 A 
ATOM     67  C   UNL A   1      47.309  25.141  26.087  1.00  0.00     0.031 C 
ATOM     68  C   UNL A   1      48.121  27.456  26.423  1.00  0.00     0.037 A 
BRANCH  55  69
ATOM     69  C   UNL A   1      46.454  33.087  28.317  1.00  0.00     0.058 A 
ATOM     70  C   UNL A   1      46.251  33.998  27.269  1.00  0.00     0.135 A 
ATOM     71  C   UNL A   1      46.940  33.586  29.537  1.00  0.00     0.135 A 
ATOM     72  F   UNL A   1      45.819  33.569  26.073  1.00  0.00    -0.206 F 
ATOM     73  C   UNL A   1      46.511  35.355  27.430  1.00  0.00     0.059 A 
ATOM     74  C   UNL A   1      47.182  34.941  29.728  1.00  0.00     0.059 A 
ATOM     75  F   UNL A   1      47.169  32.752  30.564  1.00  0.00    -0.206 F 
ATOM     76  C   UNL A   1      46.964  35.820  28.667  1.00  0.00     0.060 A 
BRANCH  76  77
ATOM     77  S   UNL A   1      47.232  37.592  28.877  1.00  0.00     0.124 S 
ATOM     78  O   UNL A   1      47.569  37.672  30.295  1.00  0.00    -0.237 OA
ATOM     79  O   UNL A   1      48.329  37.850  27.949  1.00  0.00    -0.237 OA
ATOM     80  O   UNL A   1      45.948  38.177  28.503  1.00  0.00    -0.744 OA
ENDBRANCH  76  77
ENDBRANCH  55  69
BRANCH  56  81
ATOM     81  C   UNL A   1      43.503  23.572  27.067  1.00  0.00     0.058 A 
ATOM     82  C   UNL A   1      43.058  23.220  25.784  1.00  0.00     0.135 A 
ATOM     83  C   UNL A   1      43.461  22.581  28.062  1.00  0.00     0.135 A 
ATOM     84  F   UNL A   1      43.065  24.131  24.799  1.00  0.00    -0.206 F 
ATOM     85  C   UNL A   1      42.559  21.950  25.505  1.00  0.00     0.059 A 
ATOM     86  C   UNL A   1      42.998  21.295  27.800  1.00  0.00     0.059 A 
ATOM     87  F   UNL A   1      43.883  22.858  29.306  1.00  0.00    -0.206 F 
ATOM     88  C   UNL A   1      42.530  20.995  26.523  1.00  0.00     0.060 A 
BRANCH  88  89
ATOM     89  S   UNL A   1      41.883  19.350  26.150  1.00  0.00     0.124 S 
ATOM     90  O   UNL A   1      42.674  18.984  24.980  1.00  0.00    -0.237 OA
ATOM     91  O   UNL A   1      42.182  18.618  27.376  1.00  0.00    -0.237 OA
ATOM     92  O   UNL A   1      40.466  19.594  25.902  1.00  0.00    -0.744 OA
ENDBRANCH  88  89
ENDBRANCH  56  81
BRANCH  68  93
ATOM     93  C   UNL A   1      49.428  27.050  25.801  1.00  0.00     0.058 A 
ATOM     94  C   UNL A   1      49.675  27.224  24.432  1.00  0.00     0.135 A 
ATOM     95  C   UNL A   1      50.476  26.570  26.603  1.00  0.00     0.135 A 
ATOM     96  F   UNL A   1      48.703  27.675  23.621  1.00  0.00    -0.206 F 
ATOM     97  C   UNL A   1      50.913  26.925  23.875  1.00  0.00     0.059 A 
ATOM     98  C   UNL A   1      51.731  26.294  26.074  1.00  0.00     0.059 A 
ATOM     99  F   UNL A   1      50.295  26.397  27.923  1.00  0.00    -0.206 F 
ATOM    100  C   UNL A   1      51.939  26.470  24.706  1.00  0.00     0.060 A 
BRANCH 100 101
ATOM    101  S   UNL A   1      53.558  26.147  23.980  1.00  0.00     0.124 S 
ATOM    102  O   UNL A   1      53.945  24.913  24.656  1.00  0.00    -0.237 OA
ATOM    103  O   UNL A   1      53.242  26.021  22.560  1.00  0.00    -0.237 OA
ATOM    104  O   UNL A   1      54.336  27.330  24.340  1.00  0.00    -0.744 OA
ENDBRANCH 100 101
ENDBRANCH  68  93
ENDBRANCH  42  43
ENDBRANCH  35  37
ENDBRANCH  34  35
ENDBRANCH  33  34
ENDBRANCH  32  33
ENDBRANCH   1  32
TORSDOF 22
ENDMDL
