MODEL 1
REMARK VINA RESULT:     -12.3      0.000      0.000
REMARK SMILES CC1(C)Oc2ccc(NC(=O)[C@H]3CC=CC[C@@H]3C(=O)OCCOCCOC(=O)c3ccc(-c4c5nc(c(-c6c(F)cc(S(=O)(=O)[O-])cc6F)c6ccc([nH]6)c(-c6c(F)cc(S(=O)(=O)[O-])cc6F)c6nc(c(-c7c(F)cc(S(=O)(=O)[O-])cc7F)c7ccc4[nH]7)C=C6)C=C5)cc3)cc2NC1=O
REMARK SMILES IDX 24 1 23 2 22 3 21 4 20 5 18 6 19 7 17 8 12 9 13 10 14 11
REMARK SMILES IDX 16 12 15 13 10 14 9 15 11 17 8 18 1 19 2 20 3 21 4 22 98 23
REMARK SMILES IDX 5 24 97 25 99 26 6 27 96 28 7 30 95 31 25 32 26 33 27 34
REMARK SMILES IDX 28 35 29 36 30 37 94 38 31 39 93 40 32 41 33 42 34 43 87 44
REMARK SMILES IDX 35 45 92 46 86 47 88 48 36 49 91 50 85 51 84 52 37 54 71 55
REMARK SMILES IDX 50 56 70 57 51 58 54 59 69 60 89 61 52 62 53 63 68 65 90 66
REMARK SMILES IDX 55 67 38 68 39 69 48 70 40 71 41 72 47 73 49 74 42 75 43 76
REMARK SMILES IDX 44 77 45 78 46 79 72 80 73 81 82 82 74 83 75 84 81 85 83 86
REMARK SMILES IDX 76 87 77 88 78 89 79 90 80 91 56 92 57 93 66 94 58 95 59 96
REMARK SMILES IDX 65 97 67 98 60 99 61 100 62 101 63 102 64 103
REMARK H PARENT 9 16 97 29 88 53 54 64
REMARK Flexibility Score: inf
ROOT
ATOM      1  C   UNL A   1      38.432  21.879  25.807  1.00  0.00     0.202 C 
ENDROOT
BRANCH   1   2
ATOM      2  O   UNL A   1      37.282  21.709  24.980  1.00  0.00    -0.374 OA
BRANCH   2   3
ATOM      3  C   UNL A   1      36.967  22.724  24.026  1.00  0.00     0.202 C 
BRANCH   3   4
ATOM      4  C   UNL A   1      35.517  22.814  23.548  1.00  0.00     0.261 C 
BRANCH   4   5
ATOM      5  O   UNL A   1      35.294  24.110  22.984  1.00  0.00    -0.463 OA
BRANCH   5   6
ATOM      6  C   UNL A   1      34.028  24.580  23.053  1.00  0.00     0.310 C 
ATOM      7  O   UNL A   1      33.321  24.854  22.090  1.00  0.00    -0.252 OA
BRANCH   6   8
ATOM      8  C   UNL A   1      33.521  24.619  24.483  1.00  0.00     0.116 C 
ATOM      9  C   UNL A   1      32.027  25.000  24.454  1.00  0.00     0.097 C 
ATOM     10  C   UNL A   1      31.982  26.450  23.921  1.00  0.00     0.041 C 
ATOM     11  C   UNL A   1      32.859  27.400  24.677  1.00  0.00    -0.030 C 
ATOM     12  C   UNL A   1      34.306  25.531  25.460  1.00  0.00     0.043 C 
ATOM     13  C   UNL A   1      33.904  26.977  25.398  1.00  0.00    -0.030 C 
BRANCH   9  14
ATOM     14  C   UNL A   1      31.509  24.579  25.849  1.00  0.00     0.228 C 
ATOM     15  N   UNL A   1      31.303  23.283  26.188  1.00  0.00    -0.326 N 
ATOM     16  H   UNL A   1      30.534  23.110  26.779  1.00  0.00     0.169 HD
ATOM     17  O   UNL A   1      31.148  25.436  26.666  1.00  0.00    -0.274 OA
BRANCH  15  18
ATOM     18  C   UNL A   1      32.039  22.169  25.806  1.00  0.00     0.043 A 
ATOM     19  C   UNL A   1      34.477  16.844  23.555  1.00  0.00     0.067 C 
ATOM     20  C   UNL A   1      33.501  17.896  24.076  1.00  0.00     0.182 C 
ATOM     21  C   UNL A   1      32.638  17.277  25.195  1.00  0.00     0.067 C 
ATOM     22  O   UNL A   1      34.307  18.931  24.652  1.00  0.00    -0.476 OA
ATOM     23  C   UNL A   1      32.588  18.397  22.927  1.00  0.00     0.268 C 
ATOM     24  C   UNL A   1      33.539  20.010  25.000  1.00  0.00     0.144 A 
ATOM     25  N   UNL A   1      32.051  19.648  23.135  1.00  0.00    -0.319 N 
ATOM     26  O   UNL A   1      32.248  17.713  21.966  1.00  0.00    -0.270 OA
ATOM     27  C   UNL A   1      33.883  20.657  26.174  1.00  0.00     0.051 A 
ATOM     28  C   UNL A   1      32.428  20.407  24.245  1.00  0.00     0.086 A 
ATOM     29  H   UNL A   1      31.397  20.009  22.495  1.00  0.00     0.170 HD
ATOM     30  C   UNL A   1      33.083  21.698  26.612  1.00  0.00     0.030 A 
ATOM     31  C   UNL A   1      31.681  21.509  24.631  1.00  0.00     0.056 A 
ENDBRANCH  15  18
ENDBRANCH   9  14
ENDBRANCH   6   8
ENDBRANCH   5   6
ENDBRANCH   4   5
ENDBRANCH   3   4
ENDBRANCH   2   3
ENDBRANCH   1   2
BRANCH   1  32
ATOM     32  C   UNL A   1      38.854  23.302  26.195  1.00  0.00     0.261 C 
BRANCH  32  33
ATOM     33  O   UNL A   1      39.827  23.325  27.253  1.00  0.00    -0.460 OA
BRANCH  33  34
ATOM     34  C   UNL A   1      40.827  24.222  27.084  1.00  0.00     0.338 C 
ATOM     35  O   UNL A   1      41.702  24.195  26.230  1.00  0.00    -0.246 OA
BRANCH  34  36
ATOM     36  C   UNL A   1      40.593  25.386  27.958  1.00  0.00     0.060 A 
ATOM     37  C   UNL A   1      39.417  25.515  28.698  1.00  0.00     0.016 A 
ATOM     38  C   UNL A   1      41.607  26.347  28.060  1.00  0.00     0.016 A 
ATOM     39  C   UNL A   1      39.277  26.599  29.571  1.00  0.00     0.010 A 
ATOM     40  C   UNL A   1      41.463  27.430  28.925  1.00  0.00     0.010 A 
ATOM     41  C   UNL A   1      40.308  27.549  29.708  1.00  0.00    -0.014 A 
BRANCH  41  42
ATOM     42  C   UNL A   1      40.242  28.576  30.777  1.00  0.00     0.031 A 
ATOM     43  C   UNL A   1      39.272  29.718  30.715  1.00  0.00     0.074 A 
ATOM     44  C   UNL A   1      41.110  28.478  31.804  1.00  0.00     0.049 A 
ATOM     45  N   UNL A   1      39.066  30.663  31.595  1.00  0.00    -0.248 NA
ATOM     46  C   UNL A   1      38.432  29.823  29.512  1.00  0.00     0.031 C 
ATOM     47  C   UNL A   1      42.137  27.441  31.935  1.00  0.00     0.029 A 
ATOM     48  N   UNL A   1      41.272  29.248  32.926  1.00  0.00    -0.354 N 
ATOM     49  C   UNL A   1      38.063  31.467  31.067  1.00  0.00     0.074 A 
ATOM     50  C   UNL A   1      37.733  30.922  29.766  1.00  0.00     0.031 C 
ATOM     51  C   UNL A   1      42.804  27.626  33.085  1.00  0.00     0.029 A 
ATOM     52  C   UNL A   1      42.277  28.810  33.756  1.00  0.00     0.049 A 
ATOM     53  H   UNL A   1      40.721  30.041  33.119  1.00  0.00     0.167 HD
ATOM     54  C   UNL A   1      37.468  32.547  31.628  1.00  0.00     0.037 A 
ATOM     55  C   UNL A   1      42.729  29.305  34.925  1.00  0.00     0.037 A 
ATOM     56  C   UNL A   1      37.811  33.080  32.923  1.00  0.00     0.049 A 
ATOM     57  C   UNL A   1      42.061  30.518  35.513  1.00  0.00     0.074 A 
ATOM     58  C   UNL A   1      37.219  34.134  33.599  1.00  0.00     0.029 A 
ATOM     59  N   UNL A   1      38.839  32.618  33.732  1.00  0.00    -0.354 N 
ATOM     60  N   UNL A   1      41.047  31.207  35.044  1.00  0.00    -0.248 NA
ATOM     61  C   UNL A   1      42.589  31.019  36.789  1.00  0.00     0.031 C 
ATOM     62  C   UNL A   1      37.926  34.348  34.785  1.00  0.00     0.029 A 
ATOM     63  C   UNL A   1      38.920  33.389  34.882  1.00  0.00     0.049 A 
ATOM     64  H   UNL A   1      39.425  31.857  33.520  1.00  0.00     0.167 HD
ATOM     65  C   UNL A   1      40.805  32.210  35.976  1.00  0.00     0.074 A 
ATOM     66  C   UNL A   1      41.763  32.025  37.047  1.00  0.00     0.031 C 
ATOM     67  C   UNL A   1      39.877  33.197  35.944  1.00  0.00     0.037 A 
BRANCH  54  68
ATOM     68  C   UNL A   1      36.365  33.232  30.868  1.00  0.00     0.058 A 
ATOM     69  C   UNL A   1      35.025  33.129  31.274  1.00  0.00     0.135 A 
ATOM     70  C   UNL A   1      36.662  34.101  29.805  1.00  0.00     0.135 A 
ATOM     71  F   UNL A   1      34.684  32.304  32.276  1.00  0.00    -0.206 F 
ATOM     72  C   UNL A   1      34.019  33.863  30.653  1.00  0.00     0.059 A 
ATOM     73  C   UNL A   1      35.675  34.864  29.186  1.00  0.00     0.059 A 
ATOM     74  F   UNL A   1      37.927  34.238  29.377  1.00  0.00    -0.206 F 
ATOM     75  C   UNL A   1      34.356  34.738  29.619  1.00  0.00     0.060 A 
BRANCH  75  76
ATOM     76  S   UNL A   1      33.042  35.721  28.866  1.00  0.00     0.124 S 
ATOM     77  O   UNL A   1      33.812  36.718  28.127  1.00  0.00    -0.237 OA
ATOM     78  O   UNL A   1      32.342  34.731  28.055  1.00  0.00    -0.237 OA
ATOM     79  O   UNL A   1      32.297  36.231  30.012  1.00  0.00    -0.744 OA
ENDBRANCH  75  76
ENDBRANCH  54  68
BRANCH  55  80
ATOM     80  C   UNL A   1      43.866  28.645  35.620  1.00  0.00     0.058 A 
ATOM     81  C   UNL A   1      45.194  28.982  35.320  1.00  0.00     0.135 A 
ATOM     82  C   UNL A   1      43.647  27.669  36.605  1.00  0.00     0.135 A 
ATOM     83  F   UNL A   1      45.457  29.907  34.383  1.00  0.00    -0.206 F 
ATOM     84  C   UNL A   1      46.265  28.362  35.955  1.00  0.00     0.059 A 
ATOM     85  C   UNL A   1      44.700  27.057  37.276  1.00  0.00     0.059 A 
ATOM     86  F   UNL A   1      42.395  27.323  36.942  1.00  0.00    -0.206 F 
ATOM     87  C   UNL A   1      46.007  27.401  36.935  1.00  0.00     0.060 A 
BRANCH  87  88
ATOM     88  S   UNL A   1      47.404  26.626  37.774  1.00  0.00     0.124 S 
ATOM     89  O   UNL A   1      46.860  25.314  38.100  1.00  0.00    -0.237 OA
ATOM     90  O   UNL A   1      48.432  26.653  36.738  1.00  0.00    -0.237 OA
ATOM     91  O   UNL A   1      47.647  27.509  38.911  1.00  0.00    -0.744 OA
ENDBRANCH  87  88
ENDBRANCH  55  80
BRANCH  67  92
ATOM     92  C   UNL A   1      39.833  34.154  37.106  1.00  0.00     0.058 A 
ATOM     93  C   UNL A   1      40.472  35.403  37.053  1.00  0.00     0.135 A 
ATOM     94  C   UNL A   1      39.080  33.851  38.253  1.00  0.00     0.135 A 
ATOM     95  F   UNL A   1      41.210  35.740  35.985  1.00  0.00    -0.206 F 
ATOM     96  C   UNL A   1      40.379  36.311  38.104  1.00  0.00     0.059 A 
ATOM     97  C   UNL A   1      38.948  34.756  39.302  1.00  0.00     0.059 A 
ATOM     98  F   UNL A   1      38.441  32.675  38.351  1.00  0.00    -0.206 F 
ATOM     99  C   UNL A   1      39.609  35.981  39.221  1.00  0.00     0.060 A 
BRANCH  99 100
ATOM    100  S   UNL A   1      39.464  37.191  40.553  1.00  0.00     0.124 S 
ATOM    101  O   UNL A   1      38.648  36.465  41.523  1.00  0.00    -0.237 OA
ATOM    102  O   UNL A   1      40.857  37.405  40.930  1.00  0.00    -0.237 OA
ATOM    103  O   UNL A   1      38.810  38.328  39.912  1.00  0.00    -0.744 OA
ENDBRANCH  99 100
ENDBRANCH  67  92
ENDBRANCH  41  42
ENDBRANCH  34  36
ENDBRANCH  33  34
ENDBRANCH  32  33
ENDBRANCH   1  32
TORSDOF 19
ENDMDL
MODEL 2
REMARK VINA RESULT:     -12.3      1.837      8.938
REMARK SMILES CC1(C)Oc2ccc(NC(=O)[C@H]3CC=CC[C@@H]3C(=O)OCCOCCOC(=O)c3ccc(-c4c5nc(c(-c6c(F)cc(S(=O)(=O)[O-])cc6F)c6ccc([nH]6)c(-c6c(F)cc(S(=O)(=O)[O-])cc6F)c6nc(c(-c7c(F)cc(S(=O)(=O)[O-])cc7F)c7ccc4[nH]7)C=C6)C=C5)cc3)cc2NC1=O
REMARK SMILES IDX 24 1 23 2 22 3 21 4 20 5 18 6 19 7 17 8 12 9 13 10 14 11
REMARK SMILES IDX 16 12 15 13 10 14 9 15 11 17 8 18 1 19 2 20 3 21 4 22 98 23
REMARK SMILES IDX 5 24 97 25 99 26 6 27 96 28 7 30 95 31 25 32 26 33 27 34
REMARK SMILES IDX 28 35 29 36 30 37 94 38 31 39 93 40 32 41 33 42 34 43 87 44
REMARK SMILES IDX 35 45 92 46 86 47 88 48 36 49 91 50 85 51 84 52 37 54 71 55
REMARK SMILES IDX 50 56 70 57 51 58 54 59 69 60 89 61 52 62 53 63 68 65 90 66
REMARK SMILES IDX 55 67 38 68 39 69 48 70 40 71 41 72 47 73 49 74 42 75 43 76
REMARK SMILES IDX 44 77 45 78 46 79 72 80 73 81 82 82 74 83 75 84 81 85 83 86
REMARK SMILES IDX 76 87 77 88 78 89 79 90 80 91 56 92 57 93 66 94 58 95 59 96
REMARK SMILES IDX 65 97 67 98 60 99 61 100 62 101 63 102 64 103
REMARK H PARENT 9 16 97 29 88 53 54 64
REMARK Flexibility Score: inf
ROOT
ATOM      1  C   UNL A   1      40.395  21.843  26.142  1.00  0.00     0.202 C 
ENDROOT
BRANCH   1   2
ATOM      2  O   UNL A   1      39.010  21.563  26.340  1.00  0.00    -0.374 OA
BRANCH   2   3
ATOM      3  C   UNL A   1      38.080  21.948  25.327  1.00  0.00     0.202 C 
BRANCH   3   4
ATOM      4  C   UNL A   1      36.756  21.185  25.261  1.00  0.00     0.261 C 
BRANCH   4   5
ATOM      5  O   UNL A   1      35.744  21.954  25.918  1.00  0.00    -0.463 OA
BRANCH   5   6
ATOM      6  C   UNL A   1      35.448  23.149  25.360  1.00  0.00     0.310 C 
ATOM      7  O   UNL A   1      35.927  24.227  25.698  1.00  0.00    -0.252 OA
BRANCH   6   8
ATOM      8  C   UNL A   1      34.529  22.998  24.161  1.00  0.00     0.116 C 
ATOM      9  C   UNL A   1      33.820  24.346  23.925  1.00  0.00     0.097 C 
ATOM     10  C   UNL A   1      32.917  24.560  25.161  1.00  0.00     0.041 C 
ATOM     11  C   UNL A   1      32.001  23.410  25.447  1.00  0.00    -0.030 C 
ATOM     12  C   UNL A   1      33.503  21.838  24.232  1.00  0.00     0.043 C 
ATOM     13  C   UNL A   1      32.257  22.173  25.002  1.00  0.00    -0.030 C 
BRANCH   9  14
ATOM     14  C   UNL A   1      33.287  24.237  22.478  1.00  0.00     0.228 C 
ATOM     15  N   UNL A   1      32.162  24.872  22.066  1.00  0.00    -0.326 N 
ATOM     16  H   UNL A   1      31.609  24.386  21.411  1.00  0.00     0.169 HD
ATOM     17  O   UNL A   1      33.817  23.458  21.674  1.00  0.00    -0.274 OA
BRANCH  15  18
ATOM     18  C   UNL A   1      31.690  26.119  22.453  1.00  0.00     0.043 A 
ATOM     19  C   UNL A   1      28.634  31.438  23.768  1.00  0.00     0.067 C 
ATOM     20  C   UNL A   1      29.083  30.140  23.103  1.00  0.00     0.182 C 
ATOM     21  C   UNL A   1      29.312  30.394  21.598  1.00  0.00     0.067 C 
ATOM     22  O   UNL A   1      30.342  29.806  23.698  1.00  0.00    -0.476 OA
ATOM     23  C   UNL A   1      28.005  29.041  23.289  1.00  0.00     0.268 C 
ATOM     24  C   UNL A   1      30.757  28.565  23.296  1.00  0.00     0.144 A 
ATOM     25  N   UNL A   1      28.486  27.754  23.198  1.00  0.00    -0.319 N 
ATOM     26  O   UNL A   1      26.800  29.262  23.382  1.00  0.00    -0.270 OA
ATOM     27  C   UNL A   1      32.113  28.414  23.067  1.00  0.00     0.051 A 
ATOM     28  C   UNL A   1      29.856  27.516  23.069  1.00  0.00     0.086 A 
ATOM     29  H   UNL A   1      27.859  26.996  23.223  1.00  0.00     0.170 HD
ATOM     30  C   UNL A   1      32.569  27.203  22.576  1.00  0.00     0.030 A 
ATOM     31  C   UNL A   1      30.321  26.274  22.668  1.00  0.00     0.056 A 
ENDBRANCH  15  18
ENDBRANCH   9  14
ENDBRANCH   6   8
ENDBRANCH   5   6
ENDBRANCH   4   5
ENDBRANCH   3   4
ENDBRANCH   2   3
ENDBRANCH   1   2
BRANCH   1  32
ATOM     32  C   UNL A   1      40.981  23.120  26.758  1.00  0.00     0.261 C 
BRANCH  32  33
ATOM     33  O   UNL A   1      40.227  24.297  26.422  1.00  0.00    -0.460 OA
BRANCH  33  34
ATOM     34  C   UNL A   1      40.972  25.412  26.233  1.00  0.00     0.338 C 
ATOM     35  O   UNL A   1      41.401  25.838  25.171  1.00  0.00    -0.246 OA
BRANCH  34  36
ATOM     36  C   UNL A   1      41.019  26.186  27.488  1.00  0.00     0.060 A 
ATOM     37  C   UNL A   1      42.060  27.076  27.755  1.00  0.00     0.016 A 
ATOM     38  C   UNL A   1      39.962  26.033  28.395  1.00  0.00     0.016 A 
ATOM     39  C   UNL A   1      42.018  27.842  28.924  1.00  0.00     0.010 A 
ATOM     40  C   UNL A   1      39.925  26.792  29.563  1.00  0.00     0.010 A 
ATOM     41  C   UNL A   1      40.940  27.723  29.823  1.00  0.00    -0.014 A 
BRANCH  41  42
ATOM     42  C   UNL A   1      40.796  28.677  30.950  1.00  0.00     0.031 A 
ATOM     43  C   UNL A   1      41.641  28.571  32.185  1.00  0.00     0.074 A 
ATOM     44  C   UNL A   1      39.852  29.634  30.854  1.00  0.00     0.049 A 
ATOM     45  N   UNL A   1      41.663  29.359  33.229  1.00  0.00    -0.248 NA
ATOM     46  C   UNL A   1      42.573  27.436  32.267  1.00  0.00     0.031 C 
ATOM     47  C   UNL A   1      38.932  29.792  29.723  1.00  0.00     0.029 A 
ATOM     48  N   UNL A   1      39.505  30.650  31.707  1.00  0.00    -0.354 N 
ATOM     49  C   UNL A   1      42.619  28.830  34.088  1.00  0.00     0.074 A 
ATOM     50  C   UNL A   1      43.125  27.627  33.460  1.00  0.00     0.031 C 
ATOM     51  C   UNL A   1      38.145  30.857  29.942  1.00  0.00     0.029 A 
ATOM     52  C   UNL A   1      38.479  31.438  31.239  1.00  0.00     0.049 A 
ATOM     53  H   UNL A   1      39.948  30.801  32.573  1.00  0.00     0.167 HD
ATOM     54  C   UNL A   1      43.041  29.318  35.279  1.00  0.00     0.037 A 
ATOM     55  C   UNL A   1      37.871  32.506  31.791  1.00  0.00     0.037 A 
ATOM     56  C   UNL A   1      42.524  30.516  35.893  1.00  0.00     0.049 A 
ATOM     57  C   UNL A   1      38.348  33.011  33.125  1.00  0.00     0.074 A 
ATOM     58  C   UNL A   1      42.936  31.121  37.070  1.00  0.00     0.029 A 
ATOM     59  N   UNL A   1      41.480  31.284  35.398  1.00  0.00    -0.354 N 
ATOM     60  N   UNL A   1      39.322  32.555  33.877  1.00  0.00    -0.248 NA
ATOM     61  C   UNL A   1      37.654  34.179  33.684  1.00  0.00     0.031 C 
ATOM     62  C   UNL A   1      42.102  32.215  37.316  1.00  0.00     0.029 A 
ATOM     63  C   UNL A   1      41.211  32.333  36.263  1.00  0.00     0.049 A 
ATOM     64  H   UNL A   1      41.000  31.108  34.556  1.00  0.00     0.167 HD
ATOM     65  C   UNL A   1      39.368  33.391  34.987  1.00  0.00     0.074 A 
ATOM     66  C   UNL A   1      38.340  34.393  34.799  1.00  0.00     0.031 C 
ATOM     67  C   UNL A   1      40.185  33.329  36.067  1.00  0.00     0.037 A 
BRANCH  54  68
ATOM     68  C   UNL A   1      44.131  28.581  36.009  1.00  0.00     0.058 A 
ATOM     69  C   UNL A   1      43.840  27.499  36.854  1.00  0.00     0.135 A 
ATOM     70  C   UNL A   1      45.482  28.875  35.761  1.00  0.00     0.135 A 
ATOM     71  F   UNL A   1      42.567  27.182  37.134  1.00  0.00    -0.206 F 
ATOM     72  C   UNL A   1      44.851  26.734  37.428  1.00  0.00     0.059 A 
ATOM     73  C   UNL A   1      46.509  28.107  36.305  1.00  0.00     0.059 A 
ATOM     74  F   UNL A   1      45.815  29.899  34.960  1.00  0.00    -0.206 F 
ATOM     75  C   UNL A   1      46.182  27.038  37.137  1.00  0.00     0.060 A 
BRANCH  75  76
ATOM     76  S   UNL A   1      47.474  25.997  37.849  1.00  0.00     0.124 S 
ATOM     77  O   UNL A   1      47.058  24.671  37.403  1.00  0.00    -0.237 OA
ATOM     78  O   UNL A   1      48.679  26.528  37.221  1.00  0.00    -0.237 OA
ATOM     79  O   UNL A   1      47.357  26.239  39.283  1.00  0.00    -0.744 OA
ENDBRANCH  75  76
ENDBRANCH  54  68
BRANCH  55  80
ATOM     80  C   UNL A   1      36.750  33.172  31.075  1.00  0.00     0.058 A 
ATOM     81  C   UNL A   1      35.419  32.984  31.475  1.00  0.00     0.135 A 
ATOM     82  C   UNL A   1      36.990  34.020  29.982  1.00  0.00     0.135 A 
ATOM     83  F   UNL A   1      35.137  32.179  32.513  1.00  0.00    -0.206 F 
ATOM     84  C   UNL A   1      34.363  33.593  30.805  1.00  0.00     0.059 A 
ATOM     85  C   UNL A   1      35.953  34.665  29.315  1.00  0.00     0.059 A 
ATOM     86  F   UNL A   1      38.247  34.249  29.571  1.00  0.00    -0.206 F 
ATOM     87  C   UNL A   1      34.642  34.435  29.726  1.00  0.00     0.060 A 
BRANCH  87  88
ATOM     88  S   UNL A   1      33.265  35.243  28.885  1.00  0.00     0.124 S 
ATOM     89  O   UNL A   1      33.957  36.260  28.101  1.00  0.00    -0.237 OA
ATOM     90  O   UNL A   1      32.682  34.140  28.128  1.00  0.00    -0.237 OA
ATOM     91  O   UNL A   1      32.445  35.744  29.984  1.00  0.00    -0.744 OA
ENDBRANCH  87  88
ENDBRANCH  55  80
BRANCH  67  92
ATOM     92  C   UNL A   1      40.019  34.379  37.132  1.00  0.00     0.058 A 
ATOM     93  C   UNL A   1      40.632  35.637  37.025  1.00  0.00     0.135 A 
ATOM     94  C   UNL A   1      39.178  34.152  38.234  1.00  0.00     0.135 A 
ATOM     95  F   UNL A   1      41.452  35.905  35.997  1.00  0.00    -0.206 F 
ATOM     96  C   UNL A   1      40.429  36.628  37.981  1.00  0.00     0.059 A 
ATOM     97  C   UNL A   1      38.936  35.139  39.186  1.00  0.00     0.059 A 
ATOM     98  F   UNL A   1      38.559  32.970  38.381  1.00  0.00    -0.206 F 
ATOM     99  C   UNL A   1      39.573  36.372  39.054  1.00  0.00     0.060 A 
BRANCH  99 100
ATOM    100  S   UNL A   1      39.287  37.685  40.259  1.00  0.00     0.124 S 
ATOM    101  O   UNL A   1      38.224  38.451  39.613  1.00  0.00    -0.237 OA
ATOM    102  O   UNL A   1      38.895  36.935  41.447  1.00  0.00    -0.237 OA
ATOM    103  O   UNL A   1      40.579  38.358  40.345  1.00  0.00    -0.744 OA
ENDBRANCH  99 100
ENDBRANCH  67  92
ENDBRANCH  41  42
ENDBRANCH  34  36
ENDBRANCH  33  34
ENDBRANCH  32  33
ENDBRANCH   1  32
TORSDOF 19
ENDMDL
MODEL 3
REMARK VINA RESULT:     -12.2      1.563      8.918
REMARK SMILES CC1(C)Oc2ccc(NC(=O)[C@H]3CC=CC[C@@H]3C(=O)OCCOCCOC(=O)c3ccc(-c4c5nc(c(-c6c(F)cc(S(=O)(=O)[O-])cc6F)c6ccc([nH]6)c(-c6c(F)cc(S(=O)(=O)[O-])cc6F)c6nc(c(-c7c(F)cc(S(=O)(=O)[O-])cc7F)c7ccc4[nH]7)C=C6)C=C5)cc3)cc2NC1=O
REMARK SMILES IDX 24 1 23 2 22 3 21 4 20 5 18 6 19 7 17 8 12 9 13 10 14 11
REMARK SMILES IDX 16 12 15 13 10 14 9 15 11 17 8 18 1 19 2 20 3 21 4 22 98 23
REMARK SMILES IDX 5 24 97 25 99 26 6 27 96 28 7 30 95 31 25 32 26 33 27 34
REMARK SMILES IDX 28 35 29 36 30 37 94 38 31 39 93 40 32 41 33 42 34 43 87 44
REMARK SMILES IDX 35 45 92 46 86 47 88 48 36 49 91 50 85 51 84 52 37 54 71 55
REMARK SMILES IDX 50 56 70 57 51 58 54 59 69 60 89 61 52 62 53 63 68 65 90 66
REMARK SMILES IDX 55 67 38 68 39 69 48 70 40 71 41 72 47 73 49 74 42 75 43 76
REMARK SMILES IDX 44 77 45 78 46 79 72 80 73 81 82 82 74 83 75 84 81 85 83 86
REMARK SMILES IDX 76 87 77 88 78 89 79 90 80 91 56 92 57 93 66 94 58 95 59 96
REMARK SMILES IDX 65 97 67 98 60 99 61 100 62 101 63 102 64 103
REMARK H PARENT 9 16 97 29 88 53 54 64
REMARK Flexibility Score: inf
ROOT
ATOM      1  C   UNL A   1      40.259  21.686  26.273  1.00  0.00     0.202 C 
ENDROOT
BRANCH   1   2
ATOM      2  O   UNL A   1      38.837  21.639  26.370  1.00  0.00    -0.374 OA
BRANCH   2   3
ATOM      3  C   UNL A   1      38.065  21.687  25.170  1.00  0.00     0.202 C 
BRANCH   3   4
ATOM      4  C   UNL A   1      37.005  20.603  24.971  1.00  0.00     0.261 C 
BRANCH   4   5
ATOM      5  O   UNL A   1      35.860  20.922  25.767  1.00  0.00    -0.463 OA
BRANCH   5   6
ATOM      6  C   UNL A   1      35.401  22.191  25.670  1.00  0.00     0.310 C 
ATOM      7  O   UNL A   1      35.648  23.096  26.459  1.00  0.00    -0.252 OA
BRANCH   6   8
ATOM      8  C   UNL A   1      34.628  22.411  24.382  1.00  0.00     0.116 C 
ATOM      9  C   UNL A   1      33.920  23.778  24.474  1.00  0.00     0.097 C 
ATOM     10  C   UNL A   1      32.878  23.629  25.606  1.00  0.00     0.041 C 
ATOM     11  C   UNL A   1      31.962  22.457  25.433  1.00  0.00    -0.030 C 
ATOM     12  C   UNL A   1      33.626  21.295  23.990  1.00  0.00     0.043 C 
ATOM     13  C   UNL A   1      32.294  21.404  24.676  1.00  0.00    -0.030 C 
BRANCH   9  14
ATOM     14  C   UNL A   1      33.558  24.108  23.007  1.00  0.00     0.228 C 
ATOM     15  N   UNL A   1      32.609  25.019  22.679  1.00  0.00    -0.326 N 
ATOM     16  H   UNL A   1      32.069  24.810  21.882  1.00  0.00     0.169 HD
ATOM     17  O   UNL A   1      34.048  23.451  22.080  1.00  0.00    -0.274 OA
BRANCH  15  18
ATOM     18  C   UNL A   1      32.302  26.209  23.326  1.00  0.00     0.043 A 
ATOM     19  C   UNL A   1      31.778  31.373  26.850  1.00  0.00     0.067 C 
ATOM     20  C   UNL A   1      32.093  29.957  26.375  1.00  0.00     0.182 C 
ATOM     21  C   UNL A   1      31.547  28.944  27.402  1.00  0.00     0.067 C 
ATOM     22  O   UNL A   1      31.375  29.783  25.148  1.00  0.00    -0.476 OA
ATOM     23  C   UNL A   1      33.624  29.772  26.220  1.00  0.00     0.268 C 
ATOM     24  C   UNL A   1      31.720  28.605  24.543  1.00  0.00     0.144 A 
ATOM     25  N   UNL A   1      33.989  28.770  25.348  1.00  0.00    -0.319 N 
ATOM     26  O   UNL A   1      34.464  30.359  26.896  1.00  0.00    -0.270 OA
ATOM     27  C   UNL A   1      30.699  27.912  23.917  1.00  0.00     0.051 A 
ATOM     28  C   UNL A   1      33.023  28.092  24.601  1.00  0.00     0.086 A 
ATOM     29  H   UNL A   1      34.938  28.529  25.251  1.00  0.00     0.170 HD
ATOM     30  C   UNL A   1      30.982  26.674  23.367  1.00  0.00     0.030 A 
ATOM     31  C   UNL A   1      33.329  26.898  23.970  1.00  0.00     0.056 A 
ENDBRANCH  15  18
ENDBRANCH   9  14
ENDBRANCH   6   8
ENDBRANCH   5   6
ENDBRANCH   4   5
ENDBRANCH   3   4
ENDBRANCH   2   3
ENDBRANCH   1   2
BRANCH   1  32
ATOM     32  C   UNL A   1      40.970  23.019  26.538  1.00  0.00     0.261 C 
BRANCH  32  33
ATOM     33  O   UNL A   1      40.082  24.147  26.464  1.00  0.00    -0.460 OA
BRANCH  33  34
ATOM     34  C   UNL A   1      40.691  25.335  26.238  1.00  0.00     0.338 C 
ATOM     35  O   UNL A   1      40.995  25.811  25.153  1.00  0.00    -0.246 OA
BRANCH  34  36
ATOM     36  C   UNL A   1      40.753  26.101  27.497  1.00  0.00     0.060 A 
ATOM     37  C   UNL A   1      41.804  26.978  27.765  1.00  0.00     0.016 A 
ATOM     38  C   UNL A   1      39.697  25.955  28.407  1.00  0.00     0.016 A 
ATOM     39  C   UNL A   1      41.775  27.737  28.939  1.00  0.00     0.010 A 
ATOM     40  C   UNL A   1      39.674  26.707  29.579  1.00  0.00     0.010 A 
ATOM     41  C   UNL A   1      40.699  27.625  29.841  1.00  0.00    -0.014 A 
BRANCH  41  42
ATOM     42  C   UNL A   1      40.571  28.574  30.974  1.00  0.00     0.031 A 
ATOM     43  C   UNL A   1      41.401  28.436  32.216  1.00  0.00     0.074 A 
ATOM     44  C   UNL A   1      39.654  29.557  30.876  1.00  0.00     0.049 A 
ATOM     45  N   UNL A   1      41.434  29.214  33.267  1.00  0.00    -0.248 NA
ATOM     46  C   UNL A   1      42.301  27.276  32.298  1.00  0.00     0.031 C 
ATOM     47  C   UNL A   1      38.750  29.749  29.738  1.00  0.00     0.029 A 
ATOM     48  N   UNL A   1      39.327  30.576  31.734  1.00  0.00    -0.354 N 
ATOM     49  C   UNL A   1      42.367  28.653  34.130  1.00  0.00     0.074 A 
ATOM     50  C   UNL A   1      42.846  27.442  33.497  1.00  0.00     0.031 C 
ATOM     51  C   UNL A   1      37.991  30.833  29.958  1.00  0.00     0.029 A 
ATOM     52  C   UNL A   1      38.327  31.395  31.263  1.00  0.00     0.049 A 
ATOM     53  H   UNL A   1      39.765  30.708  32.606  1.00  0.00     0.167 HD
ATOM     54  C   UNL A   1      42.791  29.121  35.329  1.00  0.00     0.037 A 
ATOM     55  C   UNL A   1      37.743  32.474  31.818  1.00  0.00     0.037 A 
ATOM     56  C   UNL A   1      42.301  30.328  35.948  1.00  0.00     0.049 A 
ATOM     57  C   UNL A   1      38.221  32.957  33.160  1.00  0.00     0.074 A 
ATOM     58  C   UNL A   1      42.717  30.912  37.133  1.00  0.00     0.029 A 
ATOM     59  N   UNL A   1      41.283  31.127  35.448  1.00  0.00    -0.354 N 
ATOM     60  N   UNL A   1      39.175  32.469  33.917  1.00  0.00    -0.248 NA
ATOM     61  C   UNL A   1      37.553  34.138  33.722  1.00  0.00     0.031 C 
ATOM     62  C   UNL A   1      41.912  32.026  37.380  1.00  0.00     0.029 A 
ATOM     63  C   UNL A   1      41.034  32.177  36.319  1.00  0.00     0.049 A 
ATOM     64  H   UNL A   1      40.807  30.971  34.601  1.00  0.00     0.167 HD
ATOM     65  C   UNL A   1      39.233  33.294  35.035  1.00  0.00     0.074 A 
ATOM     66  C   UNL A   1      38.235  34.325  34.844  1.00  0.00     0.031 C 
ATOM     67  C   UNL A   1      40.038  33.201  36.121  1.00  0.00     0.037 A 
BRANCH  54  68
ATOM     68  C   UNL A   1      43.853  28.349  36.063  1.00  0.00     0.058 A 
ATOM     69  C   UNL A   1      45.205  28.724  35.998  1.00  0.00     0.135 A 
ATOM     70  C   UNL A   1      43.504  27.308  36.939  1.00  0.00     0.135 A 
ATOM     71  F   UNL A   1      45.596  29.704  35.169  1.00  0.00    -0.206 F 
ATOM     72  C   UNL A   1      46.171  28.095  36.776  1.00  0.00     0.059 A 
ATOM     73  C   UNL A   1      44.451  26.681  37.745  1.00  0.00     0.059 A 
ATOM     74  F   UNL A   1      42.226  26.911  37.041  1.00  0.00    -0.206 F 
ATOM     75  C   UNL A   1      45.783  27.083  37.656  1.00  0.00     0.060 A 
BRANCH  75  76
ATOM     76  S   UNL A   1      47.046  26.319  38.695  1.00  0.00     0.124 S 
ATOM     77  O   UNL A   1      48.011  25.868  37.696  1.00  0.00    -0.237 OA
ATOM     78  O   UNL A   1      47.473  27.434  39.532  1.00  0.00    -0.237 OA
ATOM     79  O   UNL A   1      46.323  25.257  39.387  1.00  0.00    -0.744 OA
ENDBRANCH  75  76
ENDBRANCH  54  68
BRANCH  55  80
ATOM     80  C   UNL A   1      36.648  33.177  31.097  1.00  0.00     0.058 A 
ATOM     81  C   UNL A   1      36.910  33.959  29.963  1.00  0.00     0.135 A 
ATOM     82  C   UNL A   1      35.314  33.071  31.523  1.00  0.00     0.135 A 
ATOM     83  F   UNL A   1      38.170  34.095  29.518  1.00  0.00    -0.206 F 
ATOM     84  C   UNL A   1      35.895  34.630  29.289  1.00  0.00     0.059 A 
ATOM     85  C   UNL A   1      34.277  33.706  30.847  1.00  0.00     0.059 A 
ATOM     86  F   UNL A   1      35.007  32.319  32.591  1.00  0.00    -0.206 F 
ATOM     87  C   UNL A   1      34.580  34.494  29.738  1.00  0.00     0.060 A 
BRANCH  87  88
ATOM     88  S   UNL A   1      33.268  35.344  28.836  1.00  0.00     0.124 S 
ATOM     89  O   UNL A   1      32.498  35.934  29.924  1.00  0.00    -0.237 OA
ATOM     90  O   UNL A   1      34.025  36.278  28.008  1.00  0.00    -0.237 OA
ATOM     91  O   UNL A   1      32.606  34.266  28.108  1.00  0.00    -0.744 OA
ENDBRANCH  87  88
ENDBRANCH  55  80
BRANCH  67  92
ATOM     92  C   UNL A   1      39.890  34.248  37.194  1.00  0.00     0.058 A 
ATOM     93  C   UNL A   1      40.460  35.523  37.058  1.00  0.00     0.135 A 
ATOM     94  C   UNL A   1      39.107  33.998  38.333  1.00  0.00     0.135 A 
ATOM     95  F   UNL A   1      41.223  35.814  35.994  1.00  0.00    -0.206 F 
ATOM     96  C   UNL A   1      40.272  36.509  38.023  1.00  0.00     0.059 A 
ATOM     97  C   UNL A   1      38.880  34.978  39.295  1.00  0.00     0.059 A 
ATOM     98  F   UNL A   1      38.530  32.798  38.508  1.00  0.00    -0.206 F 
ATOM     99  C   UNL A   1      39.474  36.229  39.134  1.00  0.00     0.060 A 
BRANCH  99 100
ATOM    100  S   UNL A   1      39.205  37.534  40.351  1.00  0.00     0.124 S 
ATOM    101  O   UNL A   1      38.273  38.409  39.644  1.00  0.00    -0.237 OA
ATOM    102  O   UNL A   1      38.649  36.796  41.480  1.00  0.00    -0.237 OA
ATOM    103  O   UNL A   1      40.540  38.085  40.563  1.00  0.00    -0.744 OA
ENDBRANCH  99 100
ENDBRANCH  67  92
ENDBRANCH  41  42
ENDBRANCH  34  36
ENDBRANCH  33  34
ENDBRANCH  32  33
ENDBRANCH   1  32
TORSDOF 19
ENDMDL
