MODEL 1
REMARK VINA RESULT:     -11.6      0.000      0.000
REMARK SMILES C[C@]12C[C@@H](O)[C@H]3[C@@H](CCC4=CC(=O)C=C[C@]43C)[C@H]1CC[C@]2(O)C(=O)COC(=O)CCC(=O)OCCOCCOC(=O)c1ccc(-c2c3nc(c(-c4c(F)cc(S(=O)(=O)[O-])cc4F)c4ccc([nH]4)c(-c4c(F)cc(S(=O)(=O)[O-])cc4F)c4nc(c(-c5c(F)cc(S(=O)(=O)[O-])cc5F)c5ccc2[nH]5)C=C4)C=C3)cc1
REMARK SMILES IDX 34 1 33 2 31 3 32 4 30 5 29 6 27 7 28 8 26 9 25 10 23 11
REMARK SMILES IDX 24 12 21 13 17 14 16 15 15 16 10 17 6 18 14 19 11 20 9 21
REMARK SMILES IDX 7 22 4 23 12 24 8 25 18 26 3 27 13 28 2 29 19 30 1 31 20 32
REMARK SMILES IDX 5 33 22 35 35 37 36 38 37 39 38 40 39 41 40 42 41 43 42 44
REMARK SMILES IDX 43 45 107 46 44 47 106 48 45 49 46 50 47 51 100 52 48 53
REMARK SMILES IDX 105 54 99 55 101 56 49 57 104 58 98 59 97 60 50 62 84 63
REMARK SMILES IDX 63 64 83 65 64 66 67 67 82 68 102 69 65 70 66 71 81 73
REMARK SMILES IDX 103 74 68 75 51 76 52 77 61 78 53 79 54 80 60 81 62 82 55 83
REMARK SMILES IDX 56 84 57 85 58 86 59 87 85 88 86 89 95 90 87 91 88 92 94 93
REMARK SMILES IDX 96 94 89 95 90 96 91 97 92 98 93 99 69 100 70 101 79 102
REMARK SMILES IDX 71 103 72 104 78 105 80 106 73 107 74 108 75 109 76 110
REMARK SMILES IDX 77 111
REMARK H PARENT 5 34 22 36 101 61 67 72
REMARK Flexibility Score: inf
ROOT
ATOM      1  C   UNL A   1      40.706  20.454  26.101  1.00  0.00     0.261 C 
ENDROOT
BRANCH   1   2
ATOM      2  O   UNL A   1      39.661  21.095  26.854  1.00  0.00    -0.463 OA
BRANCH   2   3
ATOM      3  C   UNL A   1      39.165  22.245  26.338  1.00  0.00     0.306 C 
ATOM      4  O   UNL A   1      39.705  23.344  26.396  1.00  0.00    -0.252 OA
BRANCH   3   5
ATOM      5  C   UNL A   1      37.853  22.048  25.601  1.00  0.00     0.134 C 
BRANCH   5   6
ATOM      6  C   UNL A   1      37.144  23.302  25.095  1.00  0.00     0.134 C 
BRANCH   6   7
ATOM      7  C   UNL A   1      35.742  23.384  25.637  1.00  0.00     0.306 C 
ATOM      8  O   UNL A   1      35.294  22.576  26.441  1.00  0.00    -0.252 OA
BRANCH   7   9
ATOM      9  O   UNL A   1      35.033  24.365  25.031  1.00  0.00    -0.458 OA
BRANCH   9  10
ATOM     10  C   UNL A   1      34.059  25.049  25.816  1.00  0.00     0.311 C 
BRANCH  10  11
ATOM     11  C   UNL A   1      32.541  24.876  25.595  1.00  0.00     0.202 C 
ATOM     12  O   UNL A   1      32.080  23.762  25.327  1.00  0.00    -0.293 OA
BRANCH  11  13
ATOM     13  C   UNL A   1      31.620  26.099  25.814  1.00  0.00     0.132 C 
ATOM     14  C   UNL A   1      27.109  30.447  23.654  1.00  0.00     0.021 C 
ATOM     15  C   UNL A   1      28.600  30.471  23.177  1.00  0.00     0.013 C 
ATOM     16  C   UNL A   1      28.563  30.379  21.646  1.00  0.00    -0.012 C 
ATOM     17  C   UNL A   1      29.159  31.870  23.519  1.00  0.00    -0.056 C 
ATOM     18  C   UNL A   1      29.328  29.261  23.915  1.00  0.00     0.035 C 
ATOM     19  C   UNL A   1      28.250  31.435  20.875  1.00  0.00     0.048 C 
ATOM     20  C   UNL A   1      28.817  32.945  22.775  1.00  0.00     0.052 C 
ATOM     21  C   UNL A   1      30.257  32.077  24.519  1.00  0.00     0.032 C 
ATOM     22  C   UNL A   1      30.774  29.595  24.331  1.00  0.00    -0.000 C 
ATOM     23  C   UNL A   1      29.263  27.892  23.199  1.00  0.00     0.119 C 
ATOM     24  C   UNL A   1      28.067  32.759  21.512  1.00  0.00     0.178 C 
ATOM     25  C   UNL A   1      30.743  30.836  25.235  1.00  0.00     0.009 C 
ATOM     26  C   UNL A   1      31.551  28.452  25.028  1.00  0.00     0.002 C 
ATOM     27  C   UNL A   1      29.828  26.794  24.092  1.00  0.00     0.042 C 
ATOM     28  O   UNL A   1      27.420  33.658  20.997  1.00  0.00    -0.290 OA
ATOM     29  C   UNL A   1      31.291  26.990  24.541  1.00  0.00     0.009 C 
ATOM     30  C   UNL A   1      31.442  28.356  26.552  1.00  0.00     0.008 C 
ATOM     31  C   UNL A   1      32.226  26.713  23.348  1.00  0.00     0.015 C 
ATOM     32  C   UNL A   1      32.237  27.086  26.821  1.00  0.00     0.044 C 
BRANCH  23  33
ATOM     33  O   UNL A   1      27.910  27.502  22.945  1.00  0.00    -0.393 OA
ATOM     34  H   UNL A   1      27.317  27.982  23.544  1.00  0.00     0.210 HD
ENDBRANCH  23  33
BRANCH  13  35
ATOM     35  O   UNL A   1      30.406  25.681  26.442  1.00  0.00    -0.381 OA
ATOM     36  H   UNL A   1      29.804  25.317  25.773  1.00  0.00     0.212 HD
ENDBRANCH  13  35
ENDBRANCH  11  13
ENDBRANCH  10  11
ENDBRANCH   9  10
ENDBRANCH   7   9
ENDBRANCH   6   7
ENDBRANCH   5   6
ENDBRANCH   3   5
ENDBRANCH   2   3
ENDBRANCH   1   2
BRANCH   1  37
ATOM     37  C   UNL A   1      42.087  20.903  26.584  1.00  0.00     0.202 C 
BRANCH  37  38
ATOM     38  O   UNL A   1      42.976  21.411  25.588  1.00  0.00    -0.374 OA
BRANCH  38  39
ATOM     39  C   UNL A   1      44.120  22.141  26.025  1.00  0.00     0.202 C 
BRANCH  39  40
ATOM     40  C   UNL A   1      43.957  23.055  27.247  1.00  0.00     0.261 C 
BRANCH  40  41
ATOM     41  O   UNL A   1      44.137  24.459  26.969  1.00  0.00    -0.460 OA
BRANCH  41  42
ATOM     42  C   UNL A   1      43.081  25.038  26.342  1.00  0.00     0.338 C 
ATOM     43  O   UNL A   1      42.659  24.771  25.227  1.00  0.00    -0.246 OA
BRANCH  42  44
ATOM     44  C   UNL A   1      42.368  25.987  27.219  1.00  0.00     0.060 A 
ATOM     45  C   UNL A   1      42.908  27.271  27.342  1.00  0.00     0.016 A 
ATOM     46  C   UNL A   1      41.321  25.580  28.051  1.00  0.00     0.016 A 
ATOM     47  C   UNL A   1      42.453  28.129  28.342  1.00  0.00     0.010 A 
ATOM     48  C   UNL A   1      40.860  26.449  29.054  1.00  0.00     0.010 A 
ATOM     49  C   UNL A   1      41.457  27.711  29.236  1.00  0.00    -0.014 A 
BRANCH  49  50
ATOM     50  C   UNL A   1      41.154  28.562  30.420  1.00  0.00     0.031 A 
ATOM     51  C   UNL A   1      42.019  28.475  31.652  1.00  0.00     0.074 A 
ATOM     52  C   UNL A   1      40.163  29.473  30.368  1.00  0.00     0.049 A 
ATOM     53  N   UNL A   1      41.978  29.193  32.746  1.00  0.00    -0.248 NA
ATOM     54  C   UNL A   1      43.070  27.445  31.651  1.00  0.00     0.031 C 
ATOM     55  C   UNL A   1      39.264  29.675  29.233  1.00  0.00     0.029 A 
ATOM     56  N   UNL A   1      39.757  30.407  31.288  1.00  0.00    -0.354 N 
ATOM     57  C   UNL A   1      42.996  28.709  33.562  1.00  0.00     0.074 A 
ATOM     58  C   UNL A   1      43.610  27.607  32.851  1.00  0.00     0.031 C 
ATOM     59  C   UNL A   1      38.412  30.673  29.522  1.00  0.00     0.029 A 
ATOM     60  C   UNL A   1      38.698  31.174  30.866  1.00  0.00     0.049 A 
ATOM     61  H   UNL A   1      40.185  30.518  32.169  1.00  0.00     0.167 HD
ATOM     62  C   UNL A   1      43.396  29.149  34.780  1.00  0.00     0.037 A 
ATOM     63  C   UNL A   1      38.034  32.169  31.488  1.00  0.00     0.037 A 
ATOM     64  C   UNL A   1      42.792  30.248  35.489  1.00  0.00     0.049 A 
ATOM     65  C   UNL A   1      38.478  32.623  32.853  1.00  0.00     0.074 A 
ATOM     66  C   UNL A   1      43.146  30.782  36.718  1.00  0.00     0.029 A 
ATOM     67  N   UNL A   1      41.704  30.983  35.039  1.00  0.00    -0.354 N 
ATOM     68  N   UNL A   1      39.467  32.178  33.590  1.00  0.00    -0.248 NA
ATOM     69  C   UNL A   1      37.723  33.727  33.462  1.00  0.00     0.031 C 
ATOM     70  C   UNL A   1      42.246  31.808  37.030  1.00  0.00     0.029 A 
ATOM     71  C   UNL A   1      41.361  31.948  35.973  1.00  0.00     0.049 A 
ATOM     72  H   UNL A   1      41.242  30.838  34.182  1.00  0.00     0.167 HD
ATOM     73  C   UNL A   1      39.467  32.962  34.739  1.00  0.00     0.074 A 
ATOM     74  C   UNL A   1      38.393  33.922  34.589  1.00  0.00     0.031 C 
ATOM     75  C   UNL A   1      40.285  32.895  35.820  1.00  0.00     0.037 A 
BRANCH  62  76
ATOM     76  C   UNL A   1      44.544  28.429  35.437  1.00  0.00     0.058 A 
ATOM     77  C   UNL A   1      45.873  28.846  35.263  1.00  0.00     0.135 A 
ATOM     78  C   UNL A   1      44.308  27.330  36.279  1.00  0.00     0.135 A 
ATOM     79  F   UNL A   1      46.157  29.882  34.457  1.00  0.00    -0.206 F 
ATOM     80  C   UNL A   1      46.930  28.181  35.877  1.00  0.00     0.059 A 
ATOM     81  C   UNL A   1      45.348  26.666  36.924  1.00  0.00     0.059 A 
ATOM     82  F   UNL A   1      43.056  26.890  36.482  1.00  0.00    -0.206 F 
ATOM     83  C   UNL A   1      46.658  27.091  36.705  1.00  0.00     0.060 A 
BRANCH  83  84
ATOM     84  S   UNL A   1      48.039  26.238  37.494  1.00  0.00     0.124 S 
ATOM     85  O   UNL A   1      49.163  27.087  37.110  1.00  0.00    -0.237 OA
ATOM     86  O   UNL A   1      47.668  26.280  38.905  1.00  0.00    -0.237 OA
ATOM     87  O   UNL A   1      48.016  24.913  36.882  1.00  0.00    -0.744 OA
ENDBRANCH  83  84
ENDBRANCH  62  76
BRANCH  63  88
ATOM     88  C   UNL A   1      36.878  32.818  30.814  1.00  0.00     0.058 A 
ATOM     89  C   UNL A   1      35.559  32.435  31.102  1.00  0.00     0.135 A 
ATOM     90  C   UNL A   1      37.073  33.839  29.872  1.00  0.00     0.135 A 
ATOM     91  F   UNL A   1      35.323  31.456  31.988  1.00  0.00    -0.206 F 
ATOM     92  C   UNL A   1      34.474  33.033  30.470  1.00  0.00     0.059 A 
ATOM     93  C   UNL A   1      36.004  34.471  29.246  1.00  0.00     0.059 A 
ATOM     94  F   UNL A   1      38.316  34.250  29.573  1.00  0.00    -0.206 F 
ATOM     95  C   UNL A   1      34.707  34.056  29.548  1.00  0.00     0.060 A 
BRANCH  95  96
ATOM     96  S   UNL A   1      33.290  34.881  28.791  1.00  0.00     0.124 S 
ATOM     97  O   UNL A   1      32.747  33.821  27.950  1.00  0.00    -0.237 OA
ATOM     98  O   UNL A   1      32.494  35.246  29.958  1.00  0.00    -0.237 OA
ATOM     99  O   UNL A   1      33.899  36.004  28.085  1.00  0.00    -0.744 OA
ENDBRANCH  95  96
ENDBRANCH  63  88
BRANCH  75 100
ATOM    100  C   UNL A   1      40.061  33.905  36.914  1.00  0.00     0.058 A 
ATOM    101  C   UNL A   1      39.091  33.714  37.911  1.00  0.00     0.135 A 
ATOM    102  C   UNL A   1      40.826  35.083  36.965  1.00  0.00     0.135 A 
ATOM    103  F   UNL A   1      38.330  32.608  37.909  1.00  0.00    -0.206 F 
ATOM    104  C   UNL A   1      38.852  34.674  38.890  1.00  0.00     0.059 A 
ATOM    105  C   UNL A   1      40.624  36.044  37.952  1.00  0.00     0.059 A 
ATOM    106  F   UNL A   1      41.778  35.311  36.047  1.00  0.00    -0.206 F 
ATOM    107  C   UNL A   1      39.618  35.842  38.896  1.00  0.00     0.060 A 
BRANCH 107 108
ATOM    108  S   UNL A   1      39.289  37.092  40.156  1.00  0.00     0.124 S 
ATOM    109  O   UNL A   1      38.572  36.312  41.160  1.00  0.00    -0.237 OA
ATOM    110  O   UNL A   1      40.631  37.524  40.530  1.00  0.00    -0.237 OA
ATOM    111  O   UNL A   1      38.491  38.087  39.445  1.00  0.00    -0.744 OA
ENDBRANCH 107 108
ENDBRANCH  75 100
ENDBRANCH  49  50
ENDBRANCH  42  44
ENDBRANCH  41  42
ENDBRANCH  40  41
ENDBRANCH  39  40
ENDBRANCH  38  39
ENDBRANCH  37  38
ENDBRANCH   1  37
TORSDOF 25
ENDMDL
MODEL 2
REMARK VINA RESULT:     -11.2      4.715     11.217
REMARK SMILES C[C@]12C[C@@H](O)[C@H]3[C@@H](CCC4=CC(=O)C=C[C@]43C)[C@H]1CC[C@]2(O)C(=O)COC(=O)CCC(=O)OCCOCCOC(=O)c1ccc(-c2c3nc(c(-c4c(F)cc(S(=O)(=O)[O-])cc4F)c4ccc([nH]4)c(-c4c(F)cc(S(=O)(=O)[O-])cc4F)c4nc(c(-c5c(F)cc(S(=O)(=O)[O-])cc5F)c5ccc2[nH]5)C=C4)C=C3)cc1
REMARK SMILES IDX 34 1 33 2 31 3 32 4 30 5 29 6 27 7 28 8 26 9 25 10 23 11
REMARK SMILES IDX 24 12 21 13 17 14 16 15 15 16 10 17 6 18 14 19 11 20 9 21
REMARK SMILES IDX 7 22 4 23 12 24 8 25 18 26 3 27 13 28 2 29 19 30 1 31 20 32
REMARK SMILES IDX 5 33 22 35 35 37 36 38 37 39 38 40 39 41 40 42 41 43 42 44
REMARK SMILES IDX 43 45 107 46 44 47 106 48 45 49 46 50 47 51 100 52 48 53
REMARK SMILES IDX 105 54 99 55 101 56 49 57 104 58 98 59 97 60 50 62 84 63
REMARK SMILES IDX 63 64 83 65 64 66 67 67 82 68 102 69 65 70 66 71 81 73
REMARK SMILES IDX 103 74 68 75 51 76 52 77 61 78 53 79 54 80 60 81 62 82 55 83
REMARK SMILES IDX 56 84 57 85 58 86 59 87 85 88 86 89 95 90 87 91 88 92 94 93
REMARK SMILES IDX 96 94 89 95 90 96 91 97 92 98 93 99 69 100 70 101 79 102
REMARK SMILES IDX 71 103 72 104 78 105 80 106 73 107 74 108 75 109 76 110
REMARK SMILES IDX 77 111
REMARK H PARENT 5 34 22 36 101 61 67 72
REMARK Flexibility Score: inf
ROOT
ATOM      1  C   UNL A   1      45.366  21.583  24.891  1.00  0.00     0.261 C 
ENDROOT
BRANCH   1   2
ATOM      2  O   UNL A   1      45.891  22.089  26.131  1.00  0.00    -0.463 OA
BRANCH   2   3
ATOM      3  C   UNL A   1      45.364  23.255  26.577  1.00  0.00     0.306 C 
ATOM      4  O   UNL A   1      44.184  23.577  26.508  1.00  0.00    -0.252 OA
BRANCH   3   5
ATOM      5  C   UNL A   1      46.389  24.151  27.248  1.00  0.00     0.134 C 
BRANCH   5   6
ATOM      6  C   UNL A   1      47.138  25.139  26.358  1.00  0.00     0.134 C 
BRANCH   6   7
ATOM      7  C   UNL A   1      46.209  26.195  25.823  1.00  0.00     0.306 C 
ATOM      8  O   UNL A   1      46.026  26.372  24.625  1.00  0.00    -0.252 OA
BRANCH   7   9
ATOM      9  O   UNL A   1      45.725  26.978  26.815  1.00  0.00    -0.458 OA
BRANCH   9  10
ATOM     10  C   UNL A   1      46.339  28.252  27.002  1.00  0.00     0.311 C 
BRANCH  10  11
ATOM     11  C   UNL A   1      45.923  29.503  26.199  1.00  0.00     0.202 C 
ATOM     12  O   UNL A   1      46.408  29.706  25.081  1.00  0.00    -0.293 OA
BRANCH  11  13
ATOM     13  C   UNL A   1      44.825  30.422  26.782  1.00  0.00     0.132 C 
ATOM     14  C   UNL A   1      41.631  36.222  27.048  1.00  0.00     0.021 C 
ATOM     15  C   UNL A   1      43.084  36.034  27.598  1.00  0.00     0.013 C 
ATOM     16  C   UNL A   1      43.954  37.076  26.881  1.00  0.00    -0.012 C 
ATOM     17  C   UNL A   1      43.058  36.438  29.089  1.00  0.00    -0.056 C 
ATOM     18  C   UNL A   1      43.476  34.514  27.323  1.00  0.00     0.035 C 
ATOM     19  C   UNL A   1      43.941  38.375  27.226  1.00  0.00     0.048 C 
ATOM     20  C   UNL A   1      43.002  37.739  29.446  1.00  0.00     0.052 C 
ATOM     21  C   UNL A   1      43.314  35.457  30.194  1.00  0.00     0.032 C 
ATOM     22  C   UNL A   1      44.320  33.898  28.456  1.00  0.00    -0.000 C 
ATOM     23  C   UNL A   1      44.105  34.215  25.943  1.00  0.00     0.119 C 
ATOM     24  C   UNL A   1      43.169  38.793  28.419  1.00  0.00     0.178 C 
ATOM     25  C   UNL A   1      43.532  34.021  29.769  1.00  0.00     0.009 C 
ATOM     26  C   UNL A   1      44.760  32.430  28.239  1.00  0.00     0.002 C 
ATOM     27  C   UNL A   1      44.256  32.712  25.738  1.00  0.00     0.042 C 
ATOM     28  O   UNL A   1      42.775  39.937  28.585  1.00  0.00    -0.290 OA
ATOM     29  C   UNL A   1      45.121  31.983  26.786  1.00  0.00     0.009 C 
ATOM     30  C   UNL A   1      43.816  31.332  28.739  1.00  0.00     0.008 C 
ATOM     31  C   UNL A   1      46.604  32.320  26.539  1.00  0.00     0.015 C 
ATOM     32  C   UNL A   1      44.543  30.083  28.257  1.00  0.00     0.044 C 
BRANCH  23  33
ATOM     33  O   UNL A   1      43.253  34.649  24.878  1.00  0.00    -0.393 OA
ATOM     34  H   UNL A   1      43.233  33.972  24.183  1.00  0.00     0.210 HD
ENDBRANCH  23  33
BRANCH  13  35
ATOM     35  O   UNL A   1      43.582  30.165  26.126  1.00  0.00    -0.381 OA
ATOM     36  H   UNL A   1      43.615  29.293  25.701  1.00  0.00     0.212 HD
ENDBRANCH  13  35
ENDBRANCH  11  13
ENDBRANCH  10  11
ENDBRANCH   9  10
ENDBRANCH   7   9
ENDBRANCH   6   7
ENDBRANCH   5   6
ENDBRANCH   3   5
ENDBRANCH   2   3
ENDBRANCH   1   2
BRANCH   1  37
ATOM     37  C   UNL A   1      44.412  20.411  25.135  1.00  0.00     0.202 C 
BRANCH  37  38
ATOM     38  O   UNL A   1      43.027  20.733  25.266  1.00  0.00    -0.374 OA
BRANCH  38  39
ATOM     39  C   UNL A   1      42.395  20.464  26.514  1.00  0.00     0.202 C 
BRANCH  39  40
ATOM     40  C   UNL A   1      41.115  21.244  26.847  1.00  0.00     0.261 C 
BRANCH  40  41
ATOM     41  O   UNL A   1      40.874  22.383  25.997  1.00  0.00    -0.460 OA
BRANCH  41  42
ATOM     42  C   UNL A   1      39.629  22.913  26.122  1.00  0.00     0.338 C 
ATOM     43  O   UNL A   1      38.574  22.372  25.831  1.00  0.00    -0.246 OA
BRANCH  42  44
ATOM     44  C   UNL A   1      39.652  24.228  26.793  1.00  0.00     0.060 A 
ATOM     45  C   UNL A   1      40.519  25.193  26.273  1.00  0.00     0.016 A 
ATOM     46  C   UNL A   1      38.998  24.448  28.008  1.00  0.00     0.016 A 
ATOM     47  C   UNL A   1      40.792  26.352  26.999  1.00  0.00     0.010 A 
ATOM     48  C   UNL A   1      39.270  25.619  28.735  1.00  0.00     0.010 A 
ATOM     49  C   UNL A   1      40.206  26.555  28.257  1.00  0.00    -0.014 A 
BRANCH  49  50
ATOM     50  C   UNL A   1      40.686  27.688  29.097  1.00  0.00     0.031 A 
ATOM     51  C   UNL A   1      39.808  28.897  29.303  1.00  0.00     0.074 A 
ATOM     52  C   UNL A   1      41.863  27.605  29.744  1.00  0.00     0.049 A 
ATOM     53  N   UNL A   1      40.002  29.941  30.069  1.00  0.00    -0.248 NA
ATOM     54  C   UNL A   1      38.543  28.933  28.552  1.00  0.00     0.031 C 
ATOM     55  C   UNL A   1      42.800  26.486  29.647  1.00  0.00     0.029 A 
ATOM     56  N   UNL A   1      42.466  28.473  30.621  1.00  0.00    -0.354 N 
ATOM     57  C   UNL A   1      38.888  30.757  29.897  1.00  0.00     0.074 A 
ATOM     58  C   UNL A   1      38.040  30.103  28.921  1.00  0.00     0.031 C 
ATOM     59  C   UNL A   1      43.859  26.734  30.436  1.00  0.00     0.029 A 
ATOM     60  C   UNL A   1      43.682  28.032  31.086  1.00  0.00     0.049 A 
ATOM     61  H   UNL A   1      42.065  29.330  30.891  1.00  0.00     0.167 HD
ATOM     62  C   UNL A   1      38.587  31.930  30.505  1.00  0.00     0.037 A 
ATOM     63  C   UNL A   1      44.554  28.606  31.939  1.00  0.00     0.037 A 
ATOM     64  C   UNL A   1      39.424  32.582  31.480  1.00  0.00     0.049 A 
ATOM     65  C   UNL A   1      44.211  29.924  32.581  1.00  0.00     0.074 A 
ATOM     66  C   UNL A   1      39.189  33.761  32.169  1.00  0.00     0.029 A 
ATOM     67  N   UNL A   1      40.660  32.117  31.905  1.00  0.00    -0.354 N 
ATOM     68  N   UNL A   1      43.135  30.659  32.435  1.00  0.00    -0.248 NA
ATOM     69  C   UNL A   1      45.196  30.480  33.519  1.00  0.00     0.031 C 
ATOM     70  C   UNL A   1      40.301  34.031  32.975  1.00  0.00     0.029 A 
ATOM     71  C   UNL A   1      41.208  32.994  32.828  1.00  0.00     0.049 A 
ATOM     72  H   UNL A   1      41.086  31.285  31.595  1.00  0.00     0.167 HD
ATOM     73  C   UNL A   1      43.304  31.753  33.278  1.00  0.00     0.074 A 
ATOM     74  C   UNL A   1      44.576  31.571  33.946  1.00  0.00     0.031 C 
ATOM     75  C   UNL A   1      42.479  32.811  33.482  1.00  0.00     0.037 A 
BRANCH  62  76
ATOM     76  C   UNL A   1      37.293  32.599  30.123  1.00  0.00     0.058 A 
ATOM     77  C   UNL A   1      36.087  32.300  30.777  1.00  0.00     0.135 A 
ATOM     78  C   UNL A   1      37.265  33.576  29.114  1.00  0.00     0.135 A 
ATOM     79  F   UNL A   1      36.053  31.365  31.740  1.00  0.00    -0.206 F 
ATOM     80  C   UNL A   1      34.894  32.926  30.425  1.00  0.00     0.059 A 
ATOM     81  C   UNL A   1      36.089  34.232  28.764  1.00  0.00     0.059 A 
ATOM     82  F   UNL A   1      38.390  33.901  28.457  1.00  0.00    -0.206 F 
ATOM     83  C   UNL A   1      34.905  33.889  29.416  1.00  0.00     0.060 A 
BRANCH  83  84
ATOM     84  S   UNL A   1      33.351  34.692  28.969  1.00  0.00     0.124 S 
ATOM     85  O   UNL A   1      33.828  35.932  28.364  1.00  0.00    -0.237 OA
ATOM     86  O   UNL A   1      32.754  33.728  28.049  1.00  0.00    -0.237 OA
ATOM     87  O   UNL A   1      32.664  34.842  30.248  1.00  0.00    -0.744 OA
ENDBRANCH  83  84
ENDBRANCH  62  76
BRANCH  63  88
ATOM     88  C   UNL A   1      45.839  27.925  32.249  1.00  0.00     0.058 A 
ATOM     89  C   UNL A   1      46.980  28.130  31.459  1.00  0.00     0.135 A 
ATOM     90  C   UNL A   1      45.950  27.060  33.347  1.00  0.00     0.135 A 
ATOM     91  F   UNL A   1      46.920  28.942  30.392  1.00  0.00    -0.206 F 
ATOM     92  C   UNL A   1      48.183  27.492  31.739  1.00  0.00     0.059 A 
ATOM     93  C   UNL A   1      47.148  26.429  33.664  1.00  0.00     0.059 A 
ATOM     94  F   UNL A   1      44.890  26.842  34.142  1.00  0.00    -0.206 F 
ATOM     95  C   UNL A   1      48.258  26.647  32.849  1.00  0.00     0.060 A 
BRANCH  95  96
ATOM     96  S   UNL A   1      49.845  25.884  33.252  1.00  0.00     0.124 S 
ATOM     97  O   UNL A   1      50.735  26.536  32.298  1.00  0.00    -0.237 OA
ATOM     98  O   UNL A   1      50.016  26.261  34.651  1.00  0.00    -0.237 OA
ATOM     99  O   UNL A   1      49.598  24.464  33.022  1.00  0.00    -0.744 OA
ENDBRANCH  95  96
ENDBRANCH  63  88
BRANCH  75 100
ATOM    100  C   UNL A   1      42.921  33.841  34.488  1.00  0.00     0.058 A 
ATOM    101  C   UNL A   1      42.409  33.866  35.796  1.00  0.00     0.135 A 
ATOM    102  C   UNL A   1      43.867  34.818  34.138  1.00  0.00     0.135 A 
ATOM    103  F   UNL A   1      41.500  32.956  36.182  1.00  0.00    -0.206 F 
ATOM    104  C   UNL A   1      42.782  34.851  36.706  1.00  0.00     0.059 A 
ATOM    105  C   UNL A   1      44.276  35.796  35.042  1.00  0.00     0.059 A 
ATOM    106  F   UNL A   1      44.401  34.834  32.907  1.00  0.00    -0.206 F 
ATOM    107  C   UNL A   1      43.710  35.818  36.315  1.00  0.00     0.060 A 
BRANCH 107 108
ATOM    108  S   UNL A   1      44.173  37.105  37.495  1.00  0.00     0.124 S 
ATOM    109  O   UNL A   1      45.469  36.621  37.960  1.00  0.00    -0.237 OA
ATOM    110  O   UNL A   1      44.206  38.301  36.660  1.00  0.00    -0.237 OA
ATOM    111  O   UNL A   1      43.096  37.064  38.479  1.00  0.00    -0.744 OA
ENDBRANCH 107 108
ENDBRANCH  75 100
ENDBRANCH  49  50
ENDBRANCH  42  44
ENDBRANCH  41  42
ENDBRANCH  40  41
ENDBRANCH  39  40
ENDBRANCH  38  39
ENDBRANCH  37  38
ENDBRANCH   1  37
TORSDOF 25
ENDMDL
MODEL 3
REMARK VINA RESULT:     -10.7      1.366      2.336
REMARK SMILES C[C@]12C[C@@H](O)[C@H]3[C@@H](CCC4=CC(=O)C=C[C@]43C)[C@H]1CC[C@]2(O)C(=O)COC(=O)CCC(=O)OCCOCCOC(=O)c1ccc(-c2c3nc(c(-c4c(F)cc(S(=O)(=O)[O-])cc4F)c4ccc([nH]4)c(-c4c(F)cc(S(=O)(=O)[O-])cc4F)c4nc(c(-c5c(F)cc(S(=O)(=O)[O-])cc5F)c5ccc2[nH]5)C=C4)C=C3)cc1
REMARK SMILES IDX 34 1 33 2 31 3 32 4 30 5 29 6 27 7 28 8 26 9 25 10 23 11
REMARK SMILES IDX 24 12 21 13 17 14 16 15 15 16 10 17 6 18 14 19 11 20 9 21
REMARK SMILES IDX 7 22 4 23 12 24 8 25 18 26 3 27 13 28 2 29 19 30 1 31 20 32
REMARK SMILES IDX 5 33 22 35 35 37 36 38 37 39 38 40 39 41 40 42 41 43 42 44
REMARK SMILES IDX 43 45 107 46 44 47 106 48 45 49 46 50 47 51 100 52 48 53
REMARK SMILES IDX 105 54 99 55 101 56 49 57 104 58 98 59 97 60 50 62 84 63
REMARK SMILES IDX 63 64 83 65 64 66 67 67 82 68 102 69 65 70 66 71 81 73
REMARK SMILES IDX 103 74 68 75 51 76 52 77 61 78 53 79 54 80 60 81 62 82 55 83
REMARK SMILES IDX 56 84 57 85 58 86 59 87 85 88 86 89 95 90 87 91 88 92 94 93
REMARK SMILES IDX 96 94 89 95 90 96 91 97 92 98 93 99 69 100 70 101 79 102
REMARK SMILES IDX 71 103 72 104 78 105 80 106 73 107 74 108 75 109 76 110
REMARK SMILES IDX 77 111
REMARK H PARENT 5 34 22 36 101 61 67 72
REMARK Flexibility Score: inf
ROOT
ATOM      1  C   UNL A   1      37.274  22.986  25.128  1.00  0.00     0.261 C 
ENDROOT
BRANCH   1   2
ATOM      2  O   UNL A   1      36.966  21.598  24.911  1.00  0.00    -0.463 OA
BRANCH   2   3
ATOM      3  C   UNL A   1      35.902  21.104  25.590  1.00  0.00     0.306 C 
ATOM      4  O   UNL A   1      35.519  21.485  26.690  1.00  0.00    -0.252 OA
BRANCH   3   5
ATOM      5  C   UNL A   1      35.156  20.028  24.823  1.00  0.00     0.134 C 
BRANCH   5   6
ATOM      6  C   UNL A   1      33.698  19.785  25.204  1.00  0.00     0.134 C 
BRANCH   6   7
ATOM      7  C   UNL A   1      32.800  20.828  24.595  1.00  0.00     0.306 C 
ATOM      8  O   UNL A   1      32.971  21.271  23.466  1.00  0.00    -0.252 OA
BRANCH   7   9
ATOM      9  O   UNL A   1      31.891  21.283  25.488  1.00  0.00    -0.458 OA
BRANCH   9  10
ATOM     10  C   UNL A   1      32.277  22.381  26.313  1.00  0.00     0.311 C 
BRANCH  10  11
ATOM     11  C   UNL A   1      32.883  23.680  25.740  1.00  0.00     0.202 C 
ATOM     12  O   UNL A   1      34.013  24.037  26.088  1.00  0.00    -0.293 OA
BRANCH  11  13
ATOM     13  C   UNL A   1      32.089  24.451  24.661  1.00  0.00     0.132 C 
ATOM     14  C   UNL A   1      30.289  30.091  21.683  1.00  0.00     0.021 C 
ATOM     15  C   UNL A   1      29.787  29.693  23.110  1.00  0.00     0.013 C 
ATOM     16  C   UNL A   1      30.171  30.852  24.040  1.00  0.00    -0.012 C 
ATOM     17  C   UNL A   1      28.242  29.671  23.054  1.00  0.00    -0.056 C 
ATOM     18  C   UNL A   1      30.463  28.292  23.452  1.00  0.00     0.035 C 
ATOM     19  C   UNL A   1      29.480  32.005  24.066  1.00  0.00     0.048 C 
ATOM     20  C   UNL A   1      27.541  30.826  23.037  1.00  0.00     0.052 C 
ATOM     21  C   UNL A   1      27.447  28.414  23.239  1.00  0.00     0.032 C 
ATOM     22  C   UNL A   1      29.530  27.350  24.238  1.00  0.00    -0.000 C 
ATOM     23  C   UNL A   1      31.861  28.357  24.111  1.00  0.00     0.119 C 
ATOM     24  C   UNL A   1      28.233  32.113  23.275  1.00  0.00     0.178 C 
ATOM     25  C   UNL A   1      28.249  27.143  23.415  1.00  0.00     0.009 C 
ATOM     26  C   UNL A   1      30.135  25.981  24.628  1.00  0.00     0.002 C 
ATOM     27  C   UNL A   1      32.470  26.963  24.211  1.00  0.00     0.042 C 
ATOM     28  O   UNL A   1      27.765  33.184  22.919  1.00  0.00    -0.290 OA
ATOM     29  C   UNL A   1      31.648  25.936  25.015  1.00  0.00     0.009 C 
ATOM     30  C   UNL A   1      29.977  24.832  23.629  1.00  0.00     0.008 C 
ATOM     31  C   UNL A   1      31.765  26.261  26.517  1.00  0.00     0.015 C 
ATOM     32  C   UNL A   1      30.771  23.732  24.321  1.00  0.00     0.044 C 
BRANCH  23  33
ATOM     33  O   UNL A   1      32.780  29.104  23.308  1.00  0.00    -0.393 OA
ATOM     34  H   UNL A   1      33.621  28.625  23.247  1.00  0.00     0.210 HD
ENDBRANCH  23  33
BRANCH  13  35
ATOM     35  O   UNL A   1      32.814  24.440  23.430  1.00  0.00    -0.381 OA
ATOM     36  H   UNL A   1      32.732  23.567  23.014  1.00  0.00     0.212 HD
ENDBRANCH  13  35
ENDBRANCH  11  13
ENDBRANCH  10  11
ENDBRANCH   9  10
ENDBRANCH   7   9
ENDBRANCH   6   7
ENDBRANCH   5   6
ENDBRANCH   3   5
ENDBRANCH   2   3
ENDBRANCH   1   2
BRANCH   1  37
ATOM     37  C   UNL A   1      38.400  23.147  26.152  1.00  0.00     0.202 C 
BRANCH  37  38
ATOM     38  O   UNL A   1      39.429  22.157  26.129  1.00  0.00    -0.374 OA
BRANCH  38  39
ATOM     39  C   UNL A   1      40.668  22.469  26.760  1.00  0.00     0.202 C 
BRANCH  39  40
ATOM     40  C   UNL A   1      41.695  23.278  25.954  1.00  0.00     0.261 C 
BRANCH  40  41
ATOM     41  O   UNL A   1      41.481  24.704  25.978  1.00  0.00    -0.460 OA
BRANCH  41  42
ATOM     42  C   UNL A   1      42.613  25.429  26.169  1.00  0.00     0.338 C 
ATOM     43  O   UNL A   1      43.489  25.643  25.346  1.00  0.00    -0.246 OA
BRANCH  42  44
ATOM     44  C   UNL A   1      42.638  26.078  27.495  1.00  0.00     0.060 A 
ATOM     45  C   UNL A   1      41.673  25.671  28.422  1.00  0.00     0.016 A 
ATOM     46  C   UNL A   1      43.447  27.186  27.760  1.00  0.00     0.016 A 
ATOM     47  C   UNL A   1      41.463  26.411  29.584  1.00  0.00     0.010 A 
ATOM     48  C   UNL A   1      43.238  27.926  28.935  1.00  0.00     0.010 A 
ATOM     49  C   UNL A   1      42.212  27.571  29.831  1.00  0.00    -0.014 A 
BRANCH  49  50
ATOM     50  C   UNL A   1      41.814  28.453  30.963  1.00  0.00     0.031 A 
ATOM     51  C   UNL A   1      42.608  28.436  32.246  1.00  0.00     0.074 A 
ATOM     52  C   UNL A   1      40.803  29.331  30.821  1.00  0.00     0.049 A 
ATOM     53  N   UNL A   1      42.482  29.190  33.309  1.00  0.00    -0.248 NA
ATOM     54  C   UNL A   1      43.687  27.441  32.343  1.00  0.00     0.031 C 
ATOM     55  C   UNL A   1      39.966  29.464  29.629  1.00  0.00     0.029 A 
ATOM     56  N   UNL A   1      40.315  30.282  31.682  1.00  0.00    -0.354 N 
ATOM     57  C   UNL A   1      43.463  28.767  34.199  1.00  0.00     0.074 A 
ATOM     58  C   UNL A   1      44.151  27.661  33.566  1.00  0.00     0.031 C 
ATOM     59  C   UNL A   1      39.070  30.444  29.832  1.00  0.00     0.029 A 
ATOM     60  C   UNL A   1      39.261  31.001  31.171  1.00  0.00     0.049 A 
ATOM     61  H   UNL A   1      40.687  30.437  32.581  1.00  0.00     0.167 HD
ATOM     62  C   UNL A   1      43.778  29.261  35.421  1.00  0.00     0.037 A 
ATOM     63  C   UNL A   1      38.532  31.995  31.717  1.00  0.00     0.037 A 
ATOM     64  C   UNL A   1      43.101  30.365  36.054  1.00  0.00     0.049 A 
ATOM     65  C   UNL A   1      38.881  32.510  33.088  1.00  0.00     0.074 A 
ATOM     66  C   UNL A   1      43.366  30.952  37.280  1.00  0.00     0.029 A 
ATOM     67  N   UNL A   1      42.021  31.049  35.515  1.00  0.00    -0.354 N 
ATOM     68  N   UNL A   1      39.839  32.122  33.896  1.00  0.00    -0.248 NA
ATOM     69  C   UNL A   1      38.060  33.610  33.611  1.00  0.00     0.031 C 
ATOM     70  C   UNL A   1      42.420  31.960  37.502  1.00  0.00     0.029 A 
ATOM     71  C   UNL A   1      41.595  32.035  36.392  1.00  0.00     0.049 A 
ATOM     72  H   UNL A   1      41.614  30.860  34.638  1.00  0.00     0.167 HD
ATOM     73  C   UNL A   1      39.748  32.945  35.015  1.00  0.00     0.074 A 
ATOM     74  C   UNL A   1      38.657  33.865  34.767  1.00  0.00     0.031 C 
ATOM     75  C   UNL A   1      40.503  32.941  36.143  1.00  0.00     0.037 A 
BRANCH  62  76
ATOM     76  C   UNL A   1      44.906  28.601  36.169  1.00  0.00     0.058 A 
ATOM     77  C   UNL A   1      46.234  29.037  36.036  1.00  0.00     0.135 A 
ATOM     78  C   UNL A   1      44.650  27.543  37.057  1.00  0.00     0.135 A 
ATOM     79  F   UNL A   1      46.537  30.035  35.191  1.00  0.00    -0.206 F 
ATOM     80  C   UNL A   1      47.273  28.427  36.734  1.00  0.00     0.059 A 
ATOM     81  C   UNL A   1      45.670  26.937  37.785  1.00  0.00     0.059 A 
ATOM     82  F   UNL A   1      43.399  27.089  37.224  1.00  0.00    -0.206 F 
ATOM     83  C   UNL A   1      46.981  27.377  37.605  1.00  0.00     0.060 A 
BRANCH  83  84
ATOM     84  S   UNL A   1      48.338  26.596  38.504  1.00  0.00     0.124 S 
ATOM     85  O   UNL A   1      47.638  26.036  39.657  1.00  0.00    -0.237 OA
ATOM     86  O   UNL A   1      48.837  25.624  37.535  1.00  0.00    -0.237 OA
ATOM     87  O   UNL A   1      49.238  27.706  38.795  1.00  0.00    -0.744 OA
ENDBRANCH  83  84
ENDBRANCH  62  76
BRANCH  63  88
ATOM     88  C   UNL A   1      37.399  32.583  30.954  1.00  0.00     0.058 A 
ATOM     89  C   UNL A   1      36.113  32.027  31.018  1.00  0.00     0.135 A 
ATOM     90  C   UNL A   1      37.584  33.718  30.150  1.00  0.00     0.135 A 
ATOM     91  F   UNL A   1      35.890  30.936  31.765  1.00  0.00    -0.206 F 
ATOM     92  C   UNL A   1      35.050  32.568  30.302  1.00  0.00     0.059 A 
ATOM     93  C   UNL A   1      36.532  34.294  29.446  1.00  0.00     0.059 A 
ATOM     94  F   UNL A   1      38.793  34.295  30.068  1.00  0.00    -0.206 F 
ATOM     95  C   UNL A   1      35.270  33.707  29.523  1.00  0.00     0.060 A 
BRANCH  95  96
ATOM     96  S   UNL A   1      33.869  34.450  28.659  1.00  0.00     0.124 S 
ATOM     97  O   UNL A   1      33.133  35.058  29.762  1.00  0.00    -0.237 OA
ATOM     98  O   UNL A   1      34.531  35.372  27.743  1.00  0.00    -0.237 OA
ATOM     99  O   UNL A   1      33.226  33.305  28.023  1.00  0.00    -0.744 OA
ENDBRANCH  95  96
ENDBRANCH  63  88
BRANCH  75 100
ATOM    100  C   UNL A   1      40.185  33.982  37.184  1.00  0.00     0.058 A 
ATOM    101  C   UNL A   1      39.275  33.734  38.225  1.00  0.00     0.135 A 
ATOM    102  C   UNL A   1      40.796  35.246  37.139  1.00  0.00     0.135 A 
ATOM    103  F   UNL A   1      38.660  32.543  38.315  1.00  0.00    -0.206 F 
ATOM    104  C   UNL A   1      38.946  34.716  39.155  1.00  0.00     0.059 A 
ATOM    105  C   UNL A   1      40.504  36.234  38.076  1.00  0.00     0.059 A 
ATOM    106  F   UNL A   1      41.685  35.534  36.176  1.00  0.00    -0.206 F 
ATOM    107  C   UNL A   1      39.559  35.967  39.066  1.00  0.00     0.060 A 
BRANCH 107 108
ATOM    108  S   UNL A   1      39.111  37.242  40.263  1.00  0.00     0.124 S 
ATOM    109  O   UNL A   1      40.423  37.759  40.643  1.00  0.00    -0.237 OA
ATOM    110  O   UNL A   1      38.281  38.142  39.470  1.00  0.00    -0.237 OA
ATOM    111  O   UNL A   1      38.405  36.498  41.302  1.00  0.00    -0.744 OA
ENDBRANCH 107 108
ENDBRANCH  75 100
ENDBRANCH  49  50
ENDBRANCH  42  44
ENDBRANCH  41  42
ENDBRANCH  40  41
ENDBRANCH  39  40
ENDBRANCH  38  39
ENDBRANCH  37  38
ENDBRANCH   1  37
TORSDOF 25
ENDMDL
