MODEL 1
REMARK VINA RESULT:     -10.1      0.000      0.000
REMARK SMILES O=C(OCCOCCOC(=O)[C@H]1CC[C@@H]([NH+]2CCCC2)CC1)c1ccc(-c2c3nc(c(-c4c(F)cc(S(=O)(=O)[O-])cc4F)c4ccc([nH]4)c(-c4c(F)cc(S(=O)(=O)[O-])cc4F)c4nc(c(-c5c(F)cc(S(=O)(=O)[O-])cc5F)c5ccc2[nH]5)C=C4)C=C3)cc1
REMARK SMILES IDX 5 1 4 2 3 3 2 4 1 5 23 6 24 7 88 8 25 9 87 10 26 11 27 12
REMARK SMILES IDX 28 13 81 14 29 15 86 16 80 17 82 18 30 19 85 20 79 21 78 22
REMARK SMILES IDX 31 24 65 25 44 26 64 27 45 28 48 29 63 30 83 31 46 32 47 33
REMARK SMILES IDX 62 35 84 36 49 37 32 38 33 39 42 40 34 41 35 42 41 43 43 44
REMARK SMILES IDX 36 45 37 46 38 47 39 48 40 49 66 50 67 51 76 52 68 53 69 54
REMARK SMILES IDX 75 55 77 56 70 57 71 58 72 59 73 60 74 61 50 62 51 63 60 64
REMARK SMILES IDX 52 65 53 66 59 67 61 68 54 69 55 70 56 71 57 72 58 73 6 74
REMARK SMILES IDX 7 75 8 76 9 77 10 78 11 79 12 80 13 81 22 82 14 83 21 84
REMARK SMILES IDX 15 85 16 86 17 87 20 88 18 90 19 91
REMARK H PARENT 82 23 48 34 16 89
REMARK Flexibility Score: inf
ROOT
ATOM      1  C   UNL A   1      31.988  29.384  25.455  1.00  0.00     0.202 C 
ENDROOT
BRANCH   1   2
ATOM      2  C   UNL A   1      33.368  28.887  25.893  1.00  0.00     0.261 C 
BRANCH   2   3
ATOM      3  O   UNL A   1      33.578  29.174  27.286  1.00  0.00    -0.460 OA
BRANCH   3   4
ATOM      4  C   UNL A   1      34.394  30.117  27.816  1.00  0.00     0.338 C 
ATOM      5  O   UNL A   1      33.920  31.207  28.127  1.00  0.00    -0.246 OA
BRANCH   4   6
ATOM      6  C   UNL A   1      35.845  29.877  28.059  1.00  0.00     0.060 A 
ATOM      7  C   UNL A   1      36.845  30.101  27.114  1.00  0.00     0.016 A 
ATOM      8  C   UNL A   1      36.229  29.471  29.346  1.00  0.00     0.016 A 
ATOM      9  C   UNL A   1      38.169  29.858  27.384  1.00  0.00     0.010 A 
ATOM     10  C   UNL A   1      37.579  29.273  29.651  1.00  0.00     0.010 A 
ATOM     11  C   UNL A   1      38.544  29.459  28.657  1.00  0.00    -0.014 A 
BRANCH  11  12
ATOM     12  C   UNL A   1      39.967  29.154  28.824  1.00  0.00     0.031 A 
ATOM     13  C   UNL A   1      40.817  30.167  29.518  1.00  0.00     0.074 A 
ATOM     14  C   UNL A   1      40.385  27.900  28.571  1.00  0.00     0.049 A 
ATOM     15  N   UNL A   1      42.089  30.122  29.788  1.00  0.00    -0.248 NA
ATOM     16  C   UNL A   1      40.137  31.386  29.997  1.00  0.00     0.031 C 
ATOM     17  C   UNL A   1      39.533  26.813  28.067  1.00  0.00     0.029 A 
ATOM     18  N   UNL A   1      41.601  27.307  28.754  1.00  0.00    -0.354 N 
ATOM     19  C   UNL A   1      42.371  31.316  30.438  1.00  0.00     0.074 A 
ATOM     20  C   UNL A   1      41.141  32.065  30.531  1.00  0.00     0.031 C 
ATOM     21  C   UNL A   1      40.252  25.682  28.007  1.00  0.00     0.029 A 
ATOM     22  C   UNL A   1      41.625  25.984  28.378  1.00  0.00     0.049 A 
ATOM     23  H   UNL A   1      42.383  27.780  29.119  1.00  0.00     0.167 HD
ATOM     24  C   UNL A   1      43.568  31.734  30.902  1.00  0.00     0.037 A 
ATOM     25  C   UNL A   1      42.669  25.139  28.299  1.00  0.00     0.037 A 
ATOM     26  C   UNL A   1      44.762  30.943  30.782  1.00  0.00     0.049 A 
ATOM     27  C   UNL A   1      44.015  25.681  28.702  1.00  0.00     0.074 A 
ATOM     28  C   UNL A   1      46.060  31.276  31.109  1.00  0.00     0.029 A 
ATOM     29  N   UNL A   1      44.789  29.640  30.293  1.00  0.00    -0.354 N 
ATOM     30  N   UNL A   1      44.307  26.857  29.210  1.00  0.00    -0.248 NA
ATOM     31  C   UNL A   1      45.170  24.802  28.502  1.00  0.00     0.031 C 
ATOM     32  C   UNL A   1      46.879  30.190  30.776  1.00  0.00     0.029 A 
ATOM     33  C   UNL A   1      46.083  29.160  30.293  1.00  0.00     0.049 A 
ATOM     34  H   UNL A   1      43.999  29.135  29.990  1.00  0.00     0.167 HD
ATOM     35  C   UNL A   1      45.682  26.857  29.402  1.00  0.00     0.074 A 
ATOM     36  C   UNL A   1      46.154  25.550  28.981  1.00  0.00     0.031 C 
ATOM     37  C   UNL A   1      46.490  27.842  29.869  1.00  0.00     0.037 A 
BRANCH  24  38
ATOM     38  C   UNL A   1      43.640  33.115  31.482  1.00  0.00     0.058 A 
ATOM     39  C   UNL A   1      43.993  34.233  30.711  1.00  0.00     0.135 A 
ATOM     40  C   UNL A   1      43.371  33.317  32.845  1.00  0.00     0.135 A 
ATOM     41  F   UNL A   1      44.307  34.090  29.414  1.00  0.00    -0.206 F 
ATOM     42  C   UNL A   1      44.086  35.504  31.274  1.00  0.00     0.059 A 
ATOM     43  C   UNL A   1      43.433  34.581  33.424  1.00  0.00     0.059 A 
ATOM     44  F   UNL A   1      43.055  32.277  33.633  1.00  0.00    -0.206 F 
ATOM     45  C   UNL A   1      43.800  35.667  32.631  1.00  0.00     0.060 A 
BRANCH  45  46
ATOM     46  S   UNL A   1      43.907  37.323  33.343  1.00  0.00     0.124 S 
ATOM     47  O   UNL A   1      45.298  37.364  33.781  1.00  0.00    -0.237 OA
ATOM     48  O   UNL A   1      43.576  38.172  32.203  1.00  0.00    -0.237 OA
ATOM     49  O   UNL A   1      42.914  37.299  34.412  1.00  0.00    -0.744 OA
ENDBRANCH  45  46
ENDBRANCH  24  38
BRANCH  25  50
ATOM     50  C   UNL A   1      42.505  23.770  27.737  1.00  0.00     0.058 A 
ATOM     51  C   UNL A   1      42.374  22.644  28.563  1.00  0.00     0.135 A 
ATOM     52  C   UNL A   1      42.512  23.554  26.349  1.00  0.00     0.135 A 
ATOM     53  F   UNL A   1      42.361  22.789  29.898  1.00  0.00    -0.206 F 
ATOM     54  C   UNL A   1      42.295  21.356  28.037  1.00  0.00     0.059 A 
ATOM     55  C   UNL A   1      42.401  22.282  25.798  1.00  0.00     0.059 A 
ATOM     56  F   UNL A   1      42.623  24.592  25.504  1.00  0.00    -0.206 F 
ATOM     57  C   UNL A   1      42.318  21.186  26.652  1.00  0.00     0.060 A 
BRANCH  57  58
ATOM     58  S   UNL A   1      42.236  19.513  25.976  1.00  0.00     0.124 S 
ATOM     59  O   UNL A   1      42.678  18.716  27.114  1.00  0.00    -0.237 OA
ATOM     60  O   UNL A   1      40.826  19.393  25.619  1.00  0.00    -0.237 OA
ATOM     61  O   UNL A   1      43.158  19.562  24.845  1.00  0.00    -0.744 OA
ENDBRANCH  57  58
ENDBRANCH  25  50
BRANCH  37  62
ATOM     62  C   UNL A   1      47.948  27.515  29.974  1.00  0.00     0.058 A 
ATOM     63  C   UNL A   1      48.848  27.837  28.946  1.00  0.00     0.135 A 
ATOM     64  C   UNL A   1      48.453  26.913  31.136  1.00  0.00     0.135 A 
ATOM     65  F   UNL A   1      48.406  28.406  27.813  1.00  0.00    -0.206 F 
ATOM     66  C   UNL A   1      50.200  27.542  29.055  1.00  0.00     0.059 A 
ATOM     67  C   UNL A   1      49.807  26.640  31.280  1.00  0.00     0.059 A 
ATOM     68  F   UNL A   1      47.631  26.600  32.150  1.00  0.00    -0.206 F 
ATOM     69  C   UNL A   1      50.669  26.946  30.227  1.00  0.00     0.060 A 
BRANCH  69  70
ATOM     70  S   UNL A   1      52.432  26.596  30.370  1.00  0.00     0.124 S 
ATOM     71  O   UNL A   1      52.437  25.510  31.344  1.00  0.00    -0.237 OA
ATOM     72  O   UNL A   1      52.788  26.225  29.004  1.00  0.00    -0.237 OA
ATOM     73  O   UNL A   1      52.992  27.861  30.835  1.00  0.00    -0.744 OA
ENDBRANCH  69  70
ENDBRANCH  37  62
ENDBRANCH  11  12
ENDBRANCH   4   6
ENDBRANCH   3   4
ENDBRANCH   2   3
ENDBRANCH   1   2
BRANCH   1  74
ATOM     74  O   UNL A   1      31.514  28.920  24.188  1.00  0.00    -0.374 OA
BRANCH  74  75
ATOM     75  C   UNL A   1      31.372  27.502  24.023  1.00  0.00     0.202 C 
BRANCH  75  76
ATOM     76  C   UNL A   1      30.676  26.903  25.243  1.00  0.00     0.261 C 
BRANCH  76  77
ATOM     77  O   UNL A   1      30.281  25.577  24.879  1.00  0.00    -0.463 OA
BRANCH  77  78
ATOM     78  C   UNL A   1      30.913  24.618  25.615  1.00  0.00     0.309 C 
ATOM     79  O   UNL A   1      31.266  24.752  26.779  1.00  0.00    -0.252 OA
BRANCH  78  80
ATOM     80  C   UNL A   1      31.004  23.329  24.804  1.00  0.00     0.099 C 
ATOM     81  C   UNL A   1      31.666  23.609  23.447  1.00  0.00     0.021 C 
ATOM     82  C   UNL A   1      31.543  22.195  25.695  1.00  0.00     0.021 C 
ATOM     83  C   UNL A   1      32.608  22.535  22.938  1.00  0.00     0.066 C 
ATOM     84  C   UNL A   1      32.437  21.190  25.002  1.00  0.00     0.066 C 
ATOM     85  C   UNL A   1      33.430  21.830  24.028  1.00  0.00     0.184 C 
BRANCH  85  86
ATOM     86  N   UNL A   1      34.554  22.617  24.559  1.00  0.00    -0.333 N 
ATOM     87  C   UNL A   1      35.188  23.494  23.569  1.00  0.00     0.262 C 
ATOM     88  C   UNL A   1      35.664  21.993  25.279  1.00  0.00     0.262 C 
ATOM     89  H   UNL A   1      33.997  23.092  25.268  1.00  0.00     0.348 HD
ATOM     90  C   UNL A   1      36.466  22.790  23.149  1.00  0.00     0.067 C 
ATOM     91  C   UNL A   1      36.898  22.033  24.388  1.00  0.00     0.067 C 
ENDBRANCH  85  86
ENDBRANCH  78  80
ENDBRANCH  77  78
ENDBRANCH  76  77
ENDBRANCH  75  76
ENDBRANCH  74  75
ENDBRANCH   1  74
TORSDOF 18
ENDMDL
MODEL 2
REMARK VINA RESULT:     -10.0      4.867     10.490
REMARK SMILES O=C(OCCOCCOC(=O)[C@H]1CC[C@@H]([NH+]2CCCC2)CC1)c1ccc(-c2c3nc(c(-c4c(F)cc(S(=O)(=O)[O-])cc4F)c4ccc([nH]4)c(-c4c(F)cc(S(=O)(=O)[O-])cc4F)c4nc(c(-c5c(F)cc(S(=O)(=O)[O-])cc5F)c5ccc2[nH]5)C=C4)C=C3)cc1
REMARK SMILES IDX 5 1 4 2 3 3 2 4 1 5 23 6 24 7 88 8 25 9 87 10 26 11 27 12
REMARK SMILES IDX 28 13 81 14 29 15 86 16 80 17 82 18 30 19 85 20 79 21 78 22
REMARK SMILES IDX 31 24 65 25 44 26 64 27 45 28 48 29 63 30 83 31 46 32 47 33
REMARK SMILES IDX 62 35 84 36 49 37 32 38 33 39 42 40 34 41 35 42 41 43 43 44
REMARK SMILES IDX 36 45 37 46 38 47 39 48 40 49 66 50 67 51 76 52 68 53 69 54
REMARK SMILES IDX 75 55 77 56 70 57 71 58 72 59 73 60 74 61 50 62 51 63 60 64
REMARK SMILES IDX 52 65 53 66 59 67 61 68 54 69 55 70 56 71 57 72 58 73 6 74
REMARK SMILES IDX 7 75 8 76 9 77 10 78 11 79 12 80 13 81 22 82 14 83 21 84
REMARK SMILES IDX 15 85 16 86 17 87 20 88 18 90 19 91
REMARK H PARENT 82 23 48 34 16 89
REMARK Flexibility Score: inf
ROOT
ATOM      1  C   UNL A   1      37.645  22.244  25.602  1.00  0.00     0.202 C 
ENDROOT
BRANCH   1   2
ATOM      2  C   UNL A   1      38.986  22.613  26.241  1.00  0.00     0.261 C 
BRANCH   2   3
ATOM      3  O   UNL A   1      39.103  24.041  26.356  1.00  0.00    -0.460 OA
BRANCH   3   4
ATOM      4  C   UNL A   1      40.204  24.749  26.709  1.00  0.00     0.338 C 
ATOM      5  O   UNL A   1      41.246  24.580  26.080  1.00  0.00    -0.246 OA
BRANCH   4   6
ATOM      6  C   UNL A   1      40.196  25.744  27.818  1.00  0.00     0.060 A 
ATOM      7  C   UNL A   1      39.269  25.750  28.858  1.00  0.00     0.016 A 
ATOM      8  C   UNL A   1      41.235  26.686  27.853  1.00  0.00     0.016 A 
ATOM      9  C   UNL A   1      39.299  26.692  29.856  1.00  0.00     0.010 A 
ATOM     10  C   UNL A   1      41.310  27.619  28.892  1.00  0.00     0.010 A 
ATOM     11  C   UNL A   1      40.328  27.621  29.887  1.00  0.00    -0.014 A 
BRANCH  11  12
ATOM     12  C   UNL A   1      40.231  28.629  30.945  1.00  0.00     0.031 A 
ATOM     13  C   UNL A   1      41.272  28.614  32.015  1.00  0.00     0.074 A 
ATOM     14  C   UNL A   1      39.373  29.651  30.775  1.00  0.00     0.049 A 
ATOM     15  N   UNL A   1      41.401  29.401  33.043  1.00  0.00    -0.248 NA
ATOM     16  C   UNL A   1      42.328  27.589  31.898  1.00  0.00     0.031 C 
ATOM     17  C   UNL A   1      38.461  29.805  29.633  1.00  0.00     0.029 A 
ATOM     18  N   UNL A   1      39.163  30.777  31.518  1.00  0.00    -0.354 N 
ATOM     19  C   UNL A   1      42.530  28.951  33.714  1.00  0.00     0.074 A 
ATOM     20  C   UNL A   1      43.058  27.827  32.977  1.00  0.00     0.031 C 
ATOM     21  C   UNL A   1      37.810  30.973  29.743  1.00  0.00     0.029 A 
ATOM     22  C   UNL A   1      38.190  31.600  31.000  1.00  0.00     0.049 A 
ATOM     23  H   UNL A   1      39.659  30.980  32.343  1.00  0.00     0.167 HD
ATOM     24  C   UNL A   1      43.058  29.444  34.854  1.00  0.00     0.037 A 
ATOM     25  C   UNL A   1      37.640  32.708  31.527  1.00  0.00     0.037 A 
ATOM     26  C   UNL A   1      42.490  30.570  35.544  1.00  0.00     0.049 A 
ATOM     27  C   UNL A   1      38.166  33.157  32.865  1.00  0.00     0.074 A 
ATOM     28  C   UNL A   1      42.852  31.116  36.758  1.00  0.00     0.029 A 
ATOM     29  N   UNL A   1      41.428  31.327  35.059  1.00  0.00    -0.354 N 
ATOM     30  N   UNL A   1      39.162  32.661  33.564  1.00  0.00    -0.248 NA
ATOM     31  C   UNL A   1      37.488  34.292  33.496  1.00  0.00     0.031 C 
ATOM     32  C   UNL A   1      41.979  32.176  37.029  1.00  0.00     0.029 A 
ATOM     33  C   UNL A   1      41.109  32.326  35.957  1.00  0.00     0.049 A 
ATOM     34  H   UNL A   1      40.971  31.173  34.200  1.00  0.00     0.167 HD
ATOM     35  C   UNL A   1      39.238  33.431  34.717  1.00  0.00     0.074 A 
ATOM     36  C   UNL A   1      38.204  34.443  34.601  1.00  0.00     0.031 C 
ATOM     37  C   UNL A   1      40.071  33.313  35.781  1.00  0.00     0.037 A 
BRANCH  24  38
ATOM     38  C   UNL A   1      44.231  28.719  35.443  1.00  0.00     0.058 A 
ATOM     39  C   UNL A   1      44.078  27.644  36.331  1.00  0.00     0.135 A 
ATOM     40  C   UNL A   1      45.538  29.126  35.126  1.00  0.00     0.135 A 
ATOM     41  F   UNL A   1      42.851  27.244  36.704  1.00  0.00    -0.206 F 
ATOM     42  C   UNL A   1      45.178  27.002  36.893  1.00  0.00     0.059 A 
ATOM     43  C   UNL A   1      46.653  28.485  35.657  1.00  0.00     0.059 A 
ATOM     44  F   UNL A   1      45.740  30.167  34.303  1.00  0.00    -0.206 F 
ATOM     45  C   UNL A   1      46.462  27.429  36.546  1.00  0.00     0.060 A 
BRANCH  45  46
ATOM     46  S   UNL A   1      47.880  26.576  37.269  1.00  0.00     0.124 S 
ATOM     47  O   UNL A   1      48.788  26.498  36.130  1.00  0.00    -0.237 OA
ATOM     48  O   UNL A   1      48.278  27.489  38.336  1.00  0.00    -0.237 OA
ATOM     49  O   UNL A   1      47.321  25.303  37.714  1.00  0.00    -0.744 OA
ENDBRANCH  45  46
ENDBRANCH  24  38
BRANCH  25  50
ATOM     50  C   UNL A   1      36.495  33.388  30.860  1.00  0.00     0.058 A 
ATOM     51  C   UNL A   1      36.674  34.196  29.728  1.00  0.00     0.135 A 
ATOM     52  C   UNL A   1      35.191  33.270  31.369  1.00  0.00     0.135 A 
ATOM     53  F   UNL A   1      37.898  34.347  29.198  1.00  0.00    -0.206 F 
ATOM     54  C   UNL A   1      35.614  34.890  29.150  1.00  0.00     0.059 A 
ATOM     55  C   UNL A   1      34.109  33.925  30.790  1.00  0.00     0.059 A 
ATOM     56  F   UNL A   1      34.951  32.501  32.444  1.00  0.00    -0.206 F 
ATOM     57  C   UNL A   1      34.336  34.754  29.694  1.00  0.00     0.060 A 
BRANCH  57  58
ATOM     58  S   UNL A   1      32.968  35.671  28.954  1.00  0.00     0.124 S 
ATOM     59  O   UNL A   1      32.176  36.014  30.129  1.00  0.00    -0.237 OA
ATOM     60  O   UNL A   1      33.657  36.780  28.301  1.00  0.00    -0.237 OA
ATOM     61  O   UNL A   1      32.362  34.700  28.048  1.00  0.00    -0.744 OA
ENDBRANCH  57  58
ENDBRANCH  25  50
BRANCH  37  62
ATOM     62  C   UNL A   1      39.906  34.327  36.872  1.00  0.00     0.058 A 
ATOM     63  C   UNL A   1      40.497  35.597  36.787  1.00  0.00     0.135 A 
ATOM     64  C   UNL A   1      39.112  34.035  37.991  1.00  0.00     0.135 A 
ATOM     65  F   UNL A   1      41.271  35.915  35.737  1.00  0.00    -0.206 F 
ATOM     66  C   UNL A   1      40.330  36.536  37.795  1.00  0.00     0.059 A 
ATOM     67  C   UNL A   1      38.905  34.972  38.995  1.00  0.00     0.059 A 
ATOM     68  F   UNL A   1      38.518  32.837  38.107  1.00  0.00    -0.206 F 
ATOM     69  C   UNL A   1      39.530  36.214  38.894  1.00  0.00     0.060 A 
BRANCH  69  70
ATOM     70  S   UNL A   1      39.297  37.454  40.183  1.00  0.00     0.124 S 
ATOM     71  O   UNL A   1      40.639  38.013  40.297  1.00  0.00    -0.237 OA
ATOM     72  O   UNL A   1      38.291  38.331  39.592  1.00  0.00    -0.237 OA
ATOM     73  O   UNL A   1      38.842  36.670  41.327  1.00  0.00    -0.744 OA
ENDBRANCH  69  70
ENDBRANCH  37  62
ENDBRANCH  11  12
ENDBRANCH   4   6
ENDBRANCH   3   4
ENDBRANCH   2   3
ENDBRANCH   1   2
BRANCH   1  74
ATOM     74  O   UNL A   1      36.483  22.880  26.142  1.00  0.00    -0.374 OA
BRANCH  74  75
ATOM     75  C   UNL A   1      35.228  22.592  25.509  1.00  0.00     0.202 C 
BRANCH  75  76
ATOM     76  C   UNL A   1      34.080  22.897  26.469  1.00  0.00     0.261 C 
BRANCH  76  77
ATOM     77  O   UNL A   1      32.902  23.034  25.667  1.00  0.00    -0.463 OA
BRANCH  77  78
ATOM     78  C   UNL A   1      31.789  23.301  26.407  1.00  0.00     0.309 C 
ATOM     79  O   UNL A   1      31.688  23.104  27.611  1.00  0.00    -0.252 OA
BRANCH  78  80
ATOM     80  C   UNL A   1      30.744  23.986  25.531  1.00  0.00     0.099 C 
ATOM     81  C   UNL A   1      30.532  25.432  26.001  1.00  0.00     0.021 C 
ATOM     82  C   UNL A   1      31.048  23.704  24.048  1.00  0.00     0.021 C 
ATOM     83  C   UNL A   1      30.321  26.459  24.905  1.00  0.00     0.066 C 
ATOM     84  C   UNL A   1      30.734  24.833  23.092  1.00  0.00     0.066 C 
ATOM     85  C   UNL A   1      31.136  26.211  23.626  1.00  0.00     0.184 C 
BRANCH  85  86
ATOM     86  N   UNL A   1      32.563  26.556  23.727  1.00  0.00    -0.333 N 
ATOM     87  C   UNL A   1      32.827  27.782  24.488  1.00  0.00     0.262 C 
ATOM     88  C   UNL A   1      33.422  26.649  22.547  1.00  0.00     0.262 C 
ATOM     89  H   UNL A   1      32.827  25.688  24.193  1.00  0.00     0.348 HD
ATOM     90  C   UNL A   1      33.102  28.860  23.455  1.00  0.00     0.067 C 
ATOM     91  C   UNL A   1      33.747  28.118  22.304  1.00  0.00     0.067 C 
ENDBRANCH  85  86
ENDBRANCH  78  80
ENDBRANCH  77  78
ENDBRANCH  76  77
ENDBRANCH  75  76
ENDBRANCH  74  75
ENDBRANCH   1  74
TORSDOF 18
ENDMDL
MODEL 3
REMARK VINA RESULT:      -9.9      2.737      3.626
REMARK SMILES O=C(OCCOCCOC(=O)[C@H]1CC[C@@H]([NH+]2CCCC2)CC1)c1ccc(-c2c3nc(c(-c4c(F)cc(S(=O)(=O)[O-])cc4F)c4ccc([nH]4)c(-c4c(F)cc(S(=O)(=O)[O-])cc4F)c4nc(c(-c5c(F)cc(S(=O)(=O)[O-])cc5F)c5ccc2[nH]5)C=C4)C=C3)cc1
REMARK SMILES IDX 5 1 4 2 3 3 2 4 1 5 23 6 24 7 88 8 25 9 87 10 26 11 27 12
REMARK SMILES IDX 28 13 81 14 29 15 86 16 80 17 82 18 30 19 85 20 79 21 78 22
REMARK SMILES IDX 31 24 65 25 44 26 64 27 45 28 48 29 63 30 83 31 46 32 47 33
REMARK SMILES IDX 62 35 84 36 49 37 32 38 33 39 42 40 34 41 35 42 41 43 43 44
REMARK SMILES IDX 36 45 37 46 38 47 39 48 40 49 66 50 67 51 76 52 68 53 69 54
REMARK SMILES IDX 75 55 77 56 70 57 71 58 72 59 73 60 74 61 50 62 51 63 60 64
REMARK SMILES IDX 52 65 53 66 59 67 61 68 54 69 55 70 56 71 57 72 58 73 6 74
REMARK SMILES IDX 7 75 8 76 9 77 10 78 11 79 12 80 13 81 22 82 14 83 21 84
REMARK SMILES IDX 15 85 16 86 17 87 20 88 18 90 19 91
REMARK H PARENT 82 23 48 34 16 89
REMARK Flexibility Score: inf
ROOT
ATOM      1  C   UNL A   1      34.598  30.396  27.623  1.00  0.00     0.202 C 
ENDROOT
BRANCH   1   2
ATOM      2  C   UNL A   1      35.314  31.666  28.089  1.00  0.00     0.261 C 
BRANCH   2   3
ATOM      3  O   UNL A   1      35.851  31.477  29.409  1.00  0.00    -0.460 OA
BRANCH   3   4
ATOM      4  C   UNL A   1      36.505  30.389  29.882  1.00  0.00     0.338 C 
ATOM      5  O   UNL A   1      35.928  29.643  30.670  1.00  0.00    -0.246 OA
BRANCH   4   6
ATOM      6  C   UNL A   1      37.895  30.046  29.467  1.00  0.00     0.060 A 
ATOM      7  C   UNL A   1      38.302  29.897  28.142  1.00  0.00     0.016 A 
ATOM      8  C   UNL A   1      38.866  29.939  30.473  1.00  0.00     0.016 A 
ATOM      9  C   UNL A   1      39.594  29.573  27.809  1.00  0.00     0.010 A 
ATOM     10  C   UNL A   1      40.197  29.663  30.146  1.00  0.00     0.010 A 
ATOM     11  C   UNL A   1      40.551  29.471  28.808  1.00  0.00    -0.014 A 
BRANCH  11  12
ATOM     12  C   UNL A   1      41.880  29.049  28.361  1.00  0.00     0.031 A 
ATOM     13  C   UNL A   1      42.995  30.035  28.472  1.00  0.00     0.074 A 
ATOM     14  C   UNL A   1      42.083  27.743  28.106  1.00  0.00     0.049 A 
ATOM     15  N   UNL A   1      44.248  29.894  28.151  1.00  0.00    -0.248 NA
ATOM     16  C   UNL A   1      42.660  31.352  29.048  1.00  0.00     0.031 C 
ATOM     17  C   UNL A   1      41.049  26.700  28.173  1.00  0.00     0.029 A 
ATOM     18  N   UNL A   1      43.223  27.056  27.801  1.00  0.00    -0.354 N 
ATOM     19  C   UNL A   1      44.846  31.110  28.454  1.00  0.00     0.074 A 
ATOM     20  C   UNL A   1      43.826  31.978  28.991  1.00  0.00     0.031 C 
ATOM     21  C   UNL A   1      41.612  25.505  27.940  1.00  0.00     0.029 A 
ATOM     22  C   UNL A   1      43.017  25.708  27.621  1.00  0.00     0.049 A 
ATOM     23  H   UNL A   1      44.105  27.484  27.718  1.00  0.00     0.167 HD
ATOM     24  C   UNL A   1      46.140  31.453  28.280  1.00  0.00     0.037 A 
ATOM     25  C   UNL A   1      43.873  24.764  27.192  1.00  0.00     0.037 A 
ATOM     26  C   UNL A   1      47.115  30.544  27.741  1.00  0.00     0.049 A 
ATOM     27  C   UNL A   1      45.277  25.210  26.883  1.00  0.00     0.074 A 
ATOM     28  C   UNL A   1      48.434  30.781  27.412  1.00  0.00     0.029 A 
ATOM     29  N   UNL A   1      46.860  29.206  27.457  1.00  0.00    -0.354 N 
ATOM     30  N   UNL A   1      45.820  26.394  27.057  1.00  0.00    -0.248 NA
ATOM     31  C   UNL A   1      46.177  24.211  26.301  1.00  0.00     0.031 C 
ATOM     32  C   UNL A   1      48.964  29.597  26.888  1.00  0.00     0.029 A 
ATOM     33  C   UNL A   1      47.992  28.608  26.941  1.00  0.00     0.049 A 
ATOM     34  H   UNL A   1      45.998  28.753  27.603  1.00  0.00     0.167 HD
ATOM     35  C   UNL A   1      47.131  26.281  26.616  1.00  0.00     0.074 A 
ATOM     36  C   UNL A   1      47.303  24.902  26.195  1.00  0.00     0.031 C 
ATOM     37  C   UNL A   1      48.104  27.224  26.547  1.00  0.00     0.037 A 
BRANCH  24  38
ATOM     38  C   UNL A   1      46.527  32.868  28.591  1.00  0.00     0.058 A 
ATOM     39  C   UNL A   1      46.499  33.883  27.621  1.00  0.00     0.135 A 
ATOM     40  C   UNL A   1      46.958  33.209  29.883  1.00  0.00     0.135 A 
ATOM     41  F   UNL A   1      46.140  33.602  26.358  1.00  0.00    -0.206 F 
ATOM     42  C   UNL A   1      46.892  35.185  27.920  1.00  0.00     0.059 A 
ATOM     43  C   UNL A   1      47.333  34.509  30.211  1.00  0.00     0.059 A 
ATOM     44  F   UNL A   1      47.030  32.271  30.840  1.00  0.00    -0.206 F 
ATOM     45  C   UNL A   1      47.304  35.488  29.220  1.00  0.00     0.060 A 
BRANCH  45  46
ATOM     46  S   UNL A   1      47.794  37.184  29.596  1.00  0.00     0.124 S 
ATOM     47  O   UNL A   1      49.247  37.061  29.664  1.00  0.00    -0.237 OA
ATOM     48  O   UNL A   1      47.272  37.919  28.448  1.00  0.00    -0.237 OA
ATOM     49  O   UNL A   1      47.128  37.457  30.866  1.00  0.00    -0.744 OA
ENDBRANCH  45  46
ENDBRANCH  24  38
BRANCH  25  50
ATOM     50  C   UNL A   1      43.412  23.371  26.937  1.00  0.00     0.058 A 
ATOM     51  C   UNL A   1      43.158  22.474  27.985  1.00  0.00     0.135 A 
ATOM     52  C   UNL A   1      43.252  22.893  25.625  1.00  0.00     0.135 A 
ATOM     53  F   UNL A   1      43.296  22.874  29.259  1.00  0.00    -0.206 F 
ATOM     54  C   UNL A   1      42.800  21.150  27.743  1.00  0.00     0.059 A 
ATOM     55  C   UNL A   1      42.861  21.585  25.358  1.00  0.00     0.059 A 
ATOM     56  F   UNL A   1      43.469  23.705  24.578  1.00  0.00    -0.206 F 
ATOM     57  C   UNL A   1      42.662  20.713  26.425  1.00  0.00     0.060 A 
BRANCH  57  58
ATOM     58  S   UNL A   1      42.217  18.990  26.117  1.00  0.00     0.124 S 
ATOM     59  O   UNL A   1      40.801  19.108  25.787  1.00  0.00    -0.237 OA
ATOM     60  O   UNL A   1      43.103  18.635  25.013  1.00  0.00    -0.237 OA
ATOM     61  O   UNL A   1      42.514  18.333  27.386  1.00  0.00    -0.744 OA
ENDBRANCH  57  58
ENDBRANCH  25  50
BRANCH  37  62
ATOM     62  C   UNL A   1      49.436  26.770  26.032  1.00  0.00     0.058 A 
ATOM     63  C   UNL A   1      49.792  26.926  24.684  1.00  0.00     0.135 A 
ATOM     64  C   UNL A   1      50.379  26.215  26.910  1.00  0.00     0.135 A 
ATOM     65  F   UNL A   1      48.918  27.445  23.808  1.00  0.00    -0.206 F 
ATOM     66  C   UNL A   1      51.033  26.515  24.216  1.00  0.00     0.059 A 
ATOM     67  C   UNL A   1      51.639  25.829  26.470  1.00  0.00     0.059 A 
ATOM     68  F   UNL A   1      50.086  26.060  28.211  1.00  0.00    -0.206 F 
ATOM     69  C   UNL A   1      51.949  25.970  25.118  1.00  0.00     0.060 A 
BRANCH  69  70
ATOM     70  S   UNL A   1      53.569  25.468  24.504  1.00  0.00     0.124 S 
ATOM     71  O   UNL A   1      53.556  24.036  24.783  1.00  0.00    -0.237 OA
ATOM     72  O   UNL A   1      53.497  25.841  23.095  1.00  0.00    -0.237 OA
ATOM     73  O   UNL A   1      54.495  26.258  25.308  1.00  0.00    -0.744 OA
ENDBRANCH  69  70
ENDBRANCH  37  62
ENDBRANCH  11  12
ENDBRANCH   4   6
ENDBRANCH   3   4
ENDBRANCH   2   3
ENDBRANCH   1   2
BRANCH   1  74
ATOM     74  O   UNL A   1      33.188  30.500  27.409  1.00  0.00    -0.374 OA
BRANCH  74  75
ATOM     75  C   UNL A   1      32.645  29.793  26.285  1.00  0.00     0.202 C 
BRANCH  75  76
ATOM     76  C   UNL A   1      31.917  28.538  26.762  1.00  0.00     0.261 C 
BRANCH  76  77
ATOM     77  O   UNL A   1      31.910  27.625  25.659  1.00  0.00    -0.463 OA
BRANCH  77  78
ATOM     78  C   UNL A   1      32.186  26.344  26.035  1.00  0.00     0.309 C 
ATOM     79  O   UNL A   1      31.460  25.649  26.734  1.00  0.00    -0.252 OA
BRANCH  78  80
ATOM     80  C   UNL A   1      33.471  25.879  25.357  1.00  0.00     0.099 C 
ATOM     81  C   UNL A   1      34.043  24.660  26.096  1.00  0.00     0.021 C 
ATOM     82  C   UNL A   1      33.258  25.814  23.834  1.00  0.00     0.021 C 
ATOM     83  C   UNL A   1      34.658  23.585  25.221  1.00  0.00     0.066 C 
ATOM     84  C   UNL A   1      33.985  24.695  23.120  1.00  0.00     0.066 C 
ATOM     85  C   UNL A   1      33.946  23.365  23.877  1.00  0.00     0.184 C 
BRANCH  85  86
ATOM     86  N   UNL A   1      32.679  22.622  23.964  1.00  0.00    -0.333 N 
ATOM     87  C   UNL A   1      32.693  21.532  24.945  1.00  0.00     0.262 C 
ATOM     88  C   UNL A   1      32.028  22.061  22.780  1.00  0.00     0.262 C 
ATOM     89  H   UNL A   1      32.122  23.436  24.225  1.00  0.00     0.348 HD
ATOM     90  C   UNL A   1      32.865  20.255  24.142  1.00  0.00     0.067 C 
ATOM     91  C   UNL A   1      32.172  20.545  22.827  1.00  0.00     0.067 C 
ENDBRANCH  85  86
ENDBRANCH  78  80
ENDBRANCH  77  78
ENDBRANCH  76  77
ENDBRANCH  75  76
ENDBRANCH  74  75
ENDBRANCH   1  74
TORSDOF 18
ENDMDL
