MODEL 1
REMARK VINA RESULT:     -12.6      0.000      0.000
REMARK SMILES Cc1cccc(N2C(=O)/C(=C/c3ccc(C(=O)OCCOCCOC(=O)c4ccc(-c5c6nc(c(-c7c(F)cc(S(=O)(=O)[O-])cc7F)c7ccc([nH]7)c(-c7c(F)cc(S(=O)(=O)[O-])cc7F)c7nc(c(-c8c(F)cc(S(=O)(=O)[O-])cc8F)c8ccc5[nH]8)C=C7)C=C6)cc4)cc3)c3ccccc3C2=O)c1
REMARK SMILES IDX 22 1 21 2 20 3 19 4 18 5 16 6 17 7 15 8 12 9 13 10 94 11
REMARK SMILES IDX 14 12 93 13 11 14 7 15 8 16 101 17 9 18 10 19 100 20 102 21
REMARK SMILES IDX 95 22 99 23 96 24 98 25 97 26 6 27 1 28 2 29 3 30 103 31
REMARK SMILES IDX 4 32 5 33 23 34 24 35 25 36 26 37 27 38 28 39 92 40 29 41
REMARK SMILES IDX 91 42 30 43 31 44 32 45 85 46 33 47 90 48 84 49 86 50 34 51
REMARK SMILES IDX 89 52 83 53 82 54 35 56 69 57 48 58 68 59 49 60 52 61 67 62
REMARK SMILES IDX 87 63 50 64 51 65 66 67 88 68 53 69 36 70 37 71 46 72 38 73
REMARK SMILES IDX 39 74 45 75 47 76 40 77 41 78 42 79 43 80 44 81 70 82 71 83
REMARK SMILES IDX 80 84 72 85 73 86 79 87 81 88 74 89 75 90 76 91 77 92 78 93
REMARK SMILES IDX 54 94 55 95 64 96 56 97 57 98 63 99 65 100 58 101 59 102
REMARK SMILES IDX 60 103 61 104 62 105
REMARK H PARENT 86 55 52 66
REMARK Flexibility Score: inf
ROOT
ATOM      1  C   UNL A   1      42.994  26.410  25.766  1.00  0.00     0.202 C 
ENDROOT
BRANCH   1   2
ATOM      2  O   UNL A   1      41.932  25.582  25.357  1.00  0.00    -0.374 OA
BRANCH   2   3
ATOM      3  C   UNL A   1      40.740  25.661  26.124  1.00  0.00     0.202 C 
BRANCH   3   4
ATOM      4  C   UNL A   1      40.481  24.268  26.625  1.00  0.00     0.261 C 
BRANCH   4   5
ATOM      5  O   UNL A   1      39.109  23.847  26.437  1.00  0.00    -0.460 OA
BRANCH   5   6
ATOM      6  C   UNL A   1      38.801  22.656  25.833  1.00  0.00     0.338 C 
ATOM      7  O   UNL A   1      39.393  21.623  25.790  1.00  0.00    -0.246 OA
BRANCH   6   8
ATOM      8  C   UNL A   1      37.413  22.812  25.368  1.00  0.00     0.060 A 
ATOM      9  C   UNL A   1      35.138  24.005  24.422  1.00  0.00    -0.025 A 
ATOM     10  C   UNL A   1      35.364  23.962  25.803  1.00  0.00     0.009 A 
ATOM     11  C   UNL A   1      35.915  23.230  23.552  1.00  0.00     0.009 A 
ATOM     12  C   UNL A   1      36.508  23.346  26.284  1.00  0.00     0.016 A 
ATOM     13  C   UNL A   1      37.088  22.665  24.020  1.00  0.00     0.016 A 
BRANCH   9  14
ATOM     14  C   UNL A   1      34.171  24.972  23.910  1.00  0.00     0.022 C 
ATOM     15  N   UNL A   1      31.183  26.625  24.405  1.00  0.00    -0.242 N 
ATOM     16  C   UNL A   1      32.107  26.068  23.499  1.00  0.00     0.265 C 
ATOM     17  C   UNL A   1      30.759  25.895  25.547  1.00  0.00     0.265 C 
ATOM     18  O   UNL A   1      32.407  26.443  22.368  1.00  0.00    -0.268 OA
ATOM     19  C   UNL A   1      32.829  24.886  24.037  1.00  0.00     0.049 C 
ATOM     20  C   UNL A   1      31.025  24.429  25.566  1.00  0.00     0.048 A 
ATOM     21  O   UNL A   1      30.150  26.326  26.524  1.00  0.00    -0.268 OA
ATOM     22  C   UNL A   1      32.026  23.903  24.757  1.00  0.00    -0.000 A 
ATOM     23  C   UNL A   1      30.269  23.587  26.396  1.00  0.00     0.014 A 
ATOM     24  C   UNL A   1      32.199  22.512  24.698  1.00  0.00     0.010 A 
ATOM     25  C   UNL A   1      30.486  22.209  26.378  1.00  0.00     0.001 A 
ATOM     26  C   UNL A   1      31.439  21.671  25.516  1.00  0.00     0.001 A 
BRANCH  15  27
ATOM     27  C   UNL A   1      30.680  27.979  24.165  1.00  0.00     0.053 A 
ATOM     28  C   UNL A   1      27.983  29.709  22.054  1.00  0.00     0.044 C 
ATOM     29  C   UNL A   1      29.120  29.521  23.016  1.00  0.00    -0.049 A 
ATOM     30  C   UNL A   1      29.687  30.610  23.667  1.00  0.00     0.003 A 
ATOM     31  C   UNL A   1      29.608  28.231  23.287  1.00  0.00     0.030 A 
ATOM     32  C   UNL A   1      30.740  30.406  24.548  1.00  0.00     0.002 A 
ATOM     33  C   UNL A   1      31.232  29.114  24.783  1.00  0.00     0.027 A 
ENDBRANCH  15  27
ENDBRANCH   9  14
ENDBRANCH   6   8
ENDBRANCH   5   6
ENDBRANCH   4   5
ENDBRANCH   3   4
ENDBRANCH   2   3
ENDBRANCH   1   2
BRANCH   1  34
ATOM     34  C   UNL A   1      44.365  25.776  25.524  1.00  0.00     0.261 C 
BRANCH  34  35
ATOM     35  O   UNL A   1      45.311  26.214  26.522  1.00  0.00    -0.460 OA
BRANCH  35  36
ATOM     36  C   UNL A   1      46.178  25.256  26.962  1.00  0.00     0.338 C 
ATOM     37  O   UNL A   1      47.045  24.756  26.269  1.00  0.00    -0.246 OA
BRANCH  36  38
ATOM     38  C   UNL A   1      45.911  24.933  28.392  1.00  0.00     0.060 A 
ATOM     39  C   UNL A   1      44.796  24.167  28.774  1.00  0.00     0.016 A 
ATOM     40  C   UNL A   1      46.686  25.552  29.368  1.00  0.00     0.016 A 
ATOM     41  C   UNL A   1      44.373  24.141  30.117  1.00  0.00     0.010 A 
ATOM     42  C   UNL A   1      46.226  25.581  30.666  1.00  0.00     0.010 A 
ATOM     43  C   UNL A   1      45.054  24.909  31.055  1.00  0.00    -0.014 A 
BRANCH  43  44
ATOM     44  C   UNL A   1      44.670  25.165  32.451  1.00  0.00     0.031 A 
ATOM     45  C   UNL A   1      44.119  26.509  32.772  1.00  0.00     0.074 A 
ATOM     46  C   UNL A   1      44.430  24.136  33.302  1.00  0.00     0.049 A 
ATOM     47  N   UNL A   1      43.651  26.840  33.924  1.00  0.00    -0.248 NA
ATOM     48  C   UNL A   1      44.062  27.621  31.819  1.00  0.00     0.031 C 
ATOM     49  C   UNL A   1      43.430  24.072  34.374  1.00  0.00     0.029 A 
ATOM     50  N   UNL A   1      45.052  22.886  33.398  1.00  0.00    -0.354 N 
ATOM     51  C   UNL A   1      42.903  27.979  33.759  1.00  0.00     0.074 A 
ATOM     52  C   UNL A   1      43.317  28.507  32.486  1.00  0.00     0.031 C 
ATOM     53  C   UNL A   1      43.685  23.021  35.171  1.00  0.00     0.029 A 
ATOM     54  C   UNL A   1      44.943  22.450  34.726  1.00  0.00     0.049 A 
ATOM     55  H   UNL A   1      45.489  22.400  32.662  1.00  0.00     0.167 HD
ATOM     56  C   UNL A   1      41.923  28.235  34.671  1.00  0.00     0.037 A 
ATOM     57  C   UNL A   1      46.058  22.229  35.471  1.00  0.00     0.037 A 
ATOM     58  C   UNL A   1      42.075  27.351  35.837  1.00  0.00     0.049 A 
ATOM     59  C   UNL A   1      46.071  23.202  36.615  1.00  0.00     0.074 A 
ATOM     60  C   UNL A   1      41.345  26.297  36.355  1.00  0.00     0.029 A 
ATOM     61  N   UNL A   1      43.305  27.332  36.499  1.00  0.00    -0.354 N 
ATOM     62  N   UNL A   1      45.376  24.308  36.590  1.00  0.00    -0.248 NA
ATOM     63  C   UNL A   1      46.724  22.989  37.901  1.00  0.00     0.031 C 
ATOM     64  C   UNL A   1      42.202  25.572  37.241  1.00  0.00     0.029 A 
ATOM     65  C   UNL A   1      43.432  26.213  37.297  1.00  0.00     0.049 A 
ATOM     66  H   UNL A   1      43.995  28.030  36.408  1.00  0.00     0.167 HD
ATOM     67  C   UNL A   1      45.387  24.894  37.814  1.00  0.00     0.074 A 
ATOM     68  C   UNL A   1      46.286  24.058  38.594  1.00  0.00     0.031 C 
ATOM     69  C   UNL A   1      44.644  26.003  38.091  1.00  0.00     0.037 A 
BRANCH  56  70
ATOM     70  C   UNL A   1      40.740  29.167  34.463  1.00  0.00     0.058 A 
ATOM     71  C   UNL A   1      39.861  28.968  33.374  1.00  0.00     0.135 A 
ATOM     72  C   UNL A   1      40.462  30.325  35.225  1.00  0.00     0.135 A 
ATOM     73  F   UNL A   1      40.023  27.934  32.534  1.00  0.00    -0.206 F 
ATOM     74  C   UNL A   1      38.792  29.826  33.083  1.00  0.00     0.059 A 
ATOM     75  C   UNL A   1      39.372  31.171  34.983  1.00  0.00     0.059 A 
ATOM     76  F   UNL A   1      41.264  30.743  36.210  1.00  0.00    -0.206 F 
ATOM     77  C   UNL A   1      38.547  30.922  33.900  1.00  0.00     0.060 A 
BRANCH  77  78
ATOM     78  S   UNL A   1      37.163  32.017  33.531  1.00  0.00     0.124 S 
ATOM     79  O   UNL A   1      36.662  32.332  34.866  1.00  0.00    -0.237 OA
ATOM     80  O   UNL A   1      37.813  33.113  32.820  1.00  0.00    -0.237 OA
ATOM     81  O   UNL A   1      36.279  31.189  32.715  1.00  0.00    -0.744 OA
ENDBRANCH  77  78
ENDBRANCH  56  70
BRANCH  57  82
ATOM     82  C   UNL A   1      47.170  21.659  34.643  1.00  0.00     0.058 A 
ATOM     83  C   UNL A   1      48.284  22.506  34.434  1.00  0.00     0.135 A 
ATOM     84  C   UNL A   1      47.414  20.276  34.592  1.00  0.00     0.135 A 
ATOM     85  F   UNL A   1      48.126  23.840  34.484  1.00  0.00    -0.206 F 
ATOM     86  C   UNL A   1      49.589  22.018  34.350  1.00  0.00     0.059 A 
ATOM     87  C   UNL A   1      48.720  19.766  34.521  1.00  0.00     0.059 A 
ATOM     88  F   UNL A   1      46.411  19.409  34.791  1.00  0.00    -0.206 F 
ATOM     89  C   UNL A   1      49.804  20.646  34.461  1.00  0.00     0.060 A 
BRANCH  89  90
ATOM     90  S   UNL A   1      51.495  20.061  34.785  1.00  0.00     0.124 S 
ATOM     91  O   UNL A   1      52.051  21.157  35.567  1.00  0.00    -0.237 OA
ATOM     92  O   UNL A   1      51.268  18.816  35.518  1.00  0.00    -0.237 OA
ATOM     93  O   UNL A   1      52.046  19.886  33.446  1.00  0.00    -0.744 OA
ENDBRANCH  89  90
ENDBRANCH  57  82
BRANCH  69  94
ATOM     94  C   UNL A   1      44.982  26.976  39.186  1.00  0.00     0.058 A 
ATOM     95  C   UNL A   1      44.754  26.708  40.547  1.00  0.00     0.135 A 
ATOM     96  C   UNL A   1      45.741  28.137  38.905  1.00  0.00     0.135 A 
ATOM     97  F   UNL A   1      44.158  25.578  40.954  1.00  0.00    -0.206 F 
ATOM     98  C   UNL A   1      45.176  27.567  41.553  1.00  0.00     0.059 A 
ATOM     99  C   UNL A   1      46.236  28.970  39.901  1.00  0.00     0.059 A 
ATOM    100  F   UNL A   1      46.051  28.491  37.650  1.00  0.00    -0.206 F 
ATOM    101  C   UNL A   1      45.918  28.694  41.222  1.00  0.00     0.060 A 
BRANCH 101 102
ATOM    102  S   UNL A   1      46.491  29.779  42.533  1.00  0.00     0.124 S 
ATOM    103  O   UNL A   1      46.689  31.027  41.802  1.00  0.00    -0.237 OA
ATOM    104  O   UNL A   1      45.369  29.768  43.469  1.00  0.00    -0.237 OA
ATOM    105  O   UNL A   1      47.703  29.124  43.009  1.00  0.00    -0.744 OA
ENDBRANCH 101 102
ENDBRANCH  69  94
ENDBRANCH  43  44
ENDBRANCH  36  38
ENDBRANCH  35  36
ENDBRANCH  34  35
ENDBRANCH   1  34
TORSDOF 19
ENDMDL
MODEL 2
REMARK VINA RESULT:     -12.4      5.842     11.458
REMARK SMILES Cc1cccc(N2C(=O)/C(=C/c3ccc(C(=O)OCCOCCOC(=O)c4ccc(-c5c6nc(c(-c7c(F)cc(S(=O)(=O)[O-])cc7F)c7ccc([nH]7)c(-c7c(F)cc(S(=O)(=O)[O-])cc7F)c7nc(c(-c8c(F)cc(S(=O)(=O)[O-])cc8F)c8ccc5[nH]8)C=C7)C=C6)cc4)cc3)c3ccccc3C2=O)c1
REMARK SMILES IDX 22 1 21 2 20 3 19 4 18 5 16 6 17 7 15 8 12 9 13 10 94 11
REMARK SMILES IDX 14 12 93 13 11 14 7 15 8 16 101 17 9 18 10 19 100 20 102 21
REMARK SMILES IDX 95 22 99 23 96 24 98 25 97 26 6 27 1 28 2 29 3 30 103 31
REMARK SMILES IDX 4 32 5 33 23 34 24 35 25 36 26 37 27 38 28 39 92 40 29 41
REMARK SMILES IDX 91 42 30 43 31 44 32 45 85 46 33 47 90 48 84 49 86 50 34 51
REMARK SMILES IDX 89 52 83 53 82 54 35 56 69 57 48 58 68 59 49 60 52 61 67 62
REMARK SMILES IDX 87 63 50 64 51 65 66 67 88 68 53 69 36 70 37 71 46 72 38 73
REMARK SMILES IDX 39 74 45 75 47 76 40 77 41 78 42 79 43 80 44 81 70 82 71 83
REMARK SMILES IDX 80 84 72 85 73 86 79 87 81 88 74 89 75 90 76 91 77 92 78 93
REMARK SMILES IDX 54 94 55 95 64 96 56 97 57 98 63 99 65 100 58 101 59 102
REMARK SMILES IDX 60 103 61 104 62 105
REMARK H PARENT 86 55 52 66
REMARK Flexibility Score: inf
ROOT
ATOM      1  C   UNL A   1      35.947  31.586  31.371  1.00  0.00     0.202 C 
ENDROOT
BRANCH   1   2
ATOM      2  O   UNL A   1      36.406  32.810  30.849  1.00  0.00    -0.374 OA
BRANCH   2   3
ATOM      3  C   UNL A   1      36.996  32.763  29.559  1.00  0.00     0.202 C 
BRANCH   3   4
ATOM      4  C   UNL A   1      36.712  31.386  29.028  1.00  0.00     0.261 C 
BRANCH   4   5
ATOM      5  O   UNL A   1      35.829  31.395  27.880  1.00  0.00    -0.460 OA
BRANCH   5   6
ATOM      6  C   UNL A   1      34.473  31.528  28.020  1.00  0.00     0.338 C 
ATOM      7  O   UNL A   1      33.818  32.387  28.523  1.00  0.00    -0.246 OA
BRANCH   6   8
ATOM      8  C   UNL A   1      33.897  30.442  27.210  1.00  0.00     0.060 A 
ATOM      9  C   UNL A   1      33.183  27.917  26.432  1.00  0.00    -0.025 A 
ATOM     10  C   UNL A   1      34.435  28.420  26.056  1.00  0.00     0.009 A 
ATOM     11  C   UNL A   1      32.208  28.767  26.967  1.00  0.00     0.009 A 
ATOM     12  C   UNL A   1      34.791  29.704  26.436  1.00  0.00     0.016 A 
ATOM     13  C   UNL A   1      32.579  30.028  27.400  1.00  0.00     0.016 A 
BRANCH   9  14
ATOM     14  C   UNL A   1      32.976  26.472  26.379  1.00  0.00     0.022 C 
ATOM     15  N   UNL A   1      32.813  23.636  24.422  1.00  0.00    -0.242 N 
ATOM     16  C   UNL A   1      32.368  24.328  25.565  1.00  0.00     0.265 C 
ATOM     17  C   UNL A   1      32.867  24.284  23.159  1.00  0.00     0.265 C 
ATOM     18  O   UNL A   1      32.043  23.884  26.663  1.00  0.00    -0.268 OA
ATOM     19  C   UNL A   1      32.340  25.804  25.393  1.00  0.00     0.049 C 
ATOM     20  C   UNL A   1      32.120  25.563  23.007  1.00  0.00     0.048 A 
ATOM     21  O   UNL A   1      33.436  23.890  22.143  1.00  0.00    -0.268 OA
ATOM     22  C   UNL A   1      31.791  26.304  24.137  1.00  0.00    -0.000 A 
ATOM     23  C   UNL A   1      31.749  26.015  21.731  1.00  0.00     0.014 A 
ATOM     24  C   UNL A   1      30.994  27.450  23.997  1.00  0.00     0.010 A 
ATOM     25  C   UNL A   1      31.006  27.187  21.593  1.00  0.00     0.001 A 
ATOM     26  C   UNL A   1      30.615  27.895  22.727  1.00  0.00     0.001 A 
BRANCH  15  27
ATOM     27  C   UNL A   1      33.239  22.242  24.556  1.00  0.00     0.053 A 
ATOM     28  C   UNL A   1      36.497  20.265  25.009  1.00  0.00     0.044 C 
ATOM     29  C   UNL A   1      35.035  20.559  24.838  1.00  0.00    -0.049 A 
ATOM     30  C   UNL A   1      34.102  19.530  24.806  1.00  0.00     0.003 A 
ATOM     31  C   UNL A   1      34.591  21.889  24.732  1.00  0.00     0.030 A 
ATOM     32  C   UNL A   1      32.757  19.833  24.643  1.00  0.00     0.002 A 
ATOM     33  C   UNL A   1      32.337  21.164  24.511  1.00  0.00     0.027 A 
ENDBRANCH  15  27
ENDBRANCH   9  14
ENDBRANCH   6   8
ENDBRANCH   5   6
ENDBRANCH   4   5
ENDBRANCH   3   4
ENDBRANCH   2   3
ENDBRANCH   1   2
BRANCH   1  34
ATOM     34  C   UNL A   1      36.841  31.048  32.490  1.00  0.00     0.261 C 
BRANCH  34  35
ATOM     35  O   UNL A   1      37.584  29.897  32.038  1.00  0.00    -0.460 OA
BRANCH  35  36
ATOM     36  C   UNL A   1      38.492  29.404  32.929  1.00  0.00     0.338 C 
ATOM     37  O   UNL A   1      38.346  29.444  34.137  1.00  0.00    -0.246 OA
BRANCH  36  38
ATOM     38  C   UNL A   1      39.657  28.815  32.211  1.00  0.00     0.060 A 
ATOM     39  C   UNL A   1      40.939  28.794  32.788  1.00  0.00     0.016 A 
ATOM     40  C   UNL A   1      39.497  28.441  30.881  1.00  0.00     0.016 A 
ATOM     41  C   UNL A   1      42.075  28.542  31.996  1.00  0.00     0.010 A 
ATOM     42  C   UNL A   1      40.616  28.267  30.096  1.00  0.00     0.010 A 
ATOM     43  C   UNL A   1      41.916  28.345  30.628  1.00  0.00    -0.014 A 
BRANCH  43  44
ATOM     44  C   UNL A   1      42.970  28.254  29.608  1.00  0.00     0.031 A 
ATOM     45  C   UNL A   1      43.594  26.922  29.387  1.00  0.00     0.074 A 
ATOM     46  C   UNL A   1      43.081  29.200  28.641  1.00  0.00     0.049 A 
ATOM     47  N   UNL A   1      44.455  26.673  28.464  1.00  0.00    -0.248 NA
ATOM     48  C   UNL A   1      43.316  25.740  30.208  1.00  0.00     0.031 C 
ATOM     49  C   UNL A   1      43.477  29.010  27.241  1.00  0.00     0.029 A 
ATOM     50  N   UNL A   1      42.858  30.579  28.705  1.00  0.00    -0.354 N 
ATOM     51  C   UNL A   1      44.520  25.310  28.310  1.00  0.00     0.074 A 
ATOM     52  C   UNL A   1      43.926  24.778  29.508  1.00  0.00     0.031 C 
ATOM     53  C   UNL A   1      43.743  30.201  26.679  1.00  0.00     0.029 A 
ATOM     54  C   UNL A   1      43.665  31.193  27.736  1.00  0.00     0.049 A 
ATOM     55  H   UNL A   1      42.243  31.038  29.322  1.00  0.00     0.167 HD
ATOM     56  C   UNL A   1      44.942  24.823  27.109  1.00  0.00     0.037 A 
ATOM     57  C   UNL A   1      44.623  32.085  28.103  1.00  0.00     0.037 A 
ATOM     58  C   UNL A   1      45.530  25.906  26.305  1.00  0.00     0.049 A 
ATOM     59  C   UNL A   1      45.967  31.523  27.738  1.00  0.00     0.074 A 
ATOM     60  C   UNL A   1      45.161  26.562  25.145  1.00  0.00     0.029 A 
ATOM     61  N   UNL A   1      46.562  26.664  26.866  1.00  0.00    -0.354 N 
ATOM     62  N   UNL A   1      46.150  30.244  27.536  1.00  0.00    -0.248 NA
ATOM     63  C   UNL A   1      47.161  32.305  27.443  1.00  0.00     0.031 C 
ATOM     64  C   UNL A   1      45.896  27.787  25.088  1.00  0.00     0.029 A 
ATOM     65  C   UNL A   1      46.744  27.850  26.186  1.00  0.00     0.049 A 
ATOM     66  H   UNL A   1      47.093  26.386  27.648  1.00  0.00     0.167 HD
ATOM     67  C   UNL A   1      47.383  30.028  27.013  1.00  0.00     0.074 A 
ATOM     68  C   UNL A   1      48.003  31.343  27.017  1.00  0.00     0.031 C 
ATOM     69  C   UNL A   1      47.786  28.791  26.602  1.00  0.00     0.037 A 
BRANCH  56  70
ATOM     70  C   UNL A   1      44.699  23.416  26.587  1.00  0.00     0.058 A 
ATOM     71  C   UNL A   1      45.737  22.708  25.941  1.00  0.00     0.135 A 
ATOM     72  C   UNL A   1      43.457  22.740  26.596  1.00  0.00     0.135 A 
ATOM     73  F   UNL A   1      46.963  23.239  25.815  1.00  0.00    -0.206 F 
ATOM     74  C   UNL A   1      45.564  21.438  25.376  1.00  0.00     0.059 A 
ATOM     75  C   UNL A   1      43.272  21.451  26.081  1.00  0.00     0.059 A 
ATOM     76  F   UNL A   1      42.335  23.311  27.046  1.00  0.00    -0.206 F 
ATOM     77  C   UNL A   1      44.329  20.810  25.460  1.00  0.00     0.060 A 
BRANCH  77  78
ATOM     78  S   UNL A   1      44.113  19.168  24.744  1.00  0.00     0.124 S 
ATOM     79  O   UNL A   1      45.105  18.386  25.477  1.00  0.00    -0.237 OA
ATOM     80  O   UNL A   1      42.718  18.875  25.053  1.00  0.00    -0.237 OA
ATOM     81  O   UNL A   1      44.404  19.371  23.328  1.00  0.00    -0.744 OA
ENDBRANCH  77  78
ENDBRANCH  56  70
BRANCH  57  82
ATOM     82  C   UNL A   1      44.182  32.919  29.267  1.00  0.00     0.058 A 
ATOM     83  C   UNL A   1      43.230  33.927  28.983  1.00  0.00     0.135 A 
ATOM     84  C   UNL A   1      44.187  32.413  30.578  1.00  0.00     0.135 A 
ATOM     85  F   UNL A   1      43.159  34.447  27.745  1.00  0.00    -0.206 F 
ATOM     86  C   UNL A   1      42.233  34.291  29.889  1.00  0.00     0.059 A 
ATOM     87  C   UNL A   1      43.185  32.757  31.499  1.00  0.00     0.059 A 
ATOM     88  F   UNL A   1      45.053  31.448  30.922  1.00  0.00    -0.206 F 
ATOM     89  C   UNL A   1      42.178  33.651  31.124  1.00  0.00     0.060 A 
BRANCH  89  90
ATOM     90  S   UNL A   1      40.657  33.803  32.110  1.00  0.00     0.124 S 
ATOM     91  O   UNL A   1      39.746  34.435  31.165  1.00  0.00    -0.237 OA
ATOM     92  O   UNL A   1      40.353  32.412  32.445  1.00  0.00    -0.237 OA
ATOM     93  O   UNL A   1      41.078  34.622  33.240  1.00  0.00    -0.744 OA
ENDBRANCH  89  90
ENDBRANCH  57  82
BRANCH  69  94
ATOM     94  C   UNL A   1      49.228  28.375  26.515  1.00  0.00     0.058 A 
ATOM     95  C   UNL A   1      50.062  28.266  27.641  1.00  0.00     0.135 A 
ATOM     96  C   UNL A   1      49.760  27.873  25.303  1.00  0.00     0.135 A 
ATOM     97  F   UNL A   1      49.636  28.588  28.871  1.00  0.00    -0.206 F 
ATOM     98  C   UNL A   1      51.358  27.770  27.560  1.00  0.00     0.059 A 
ATOM     99  C   UNL A   1      51.024  27.306  25.216  1.00  0.00     0.059 A 
ATOM    100  F   UNL A   1      49.055  27.893  24.163  1.00  0.00    -0.206 F 
ATOM    101  C   UNL A   1      51.830  27.292  26.344  1.00  0.00     0.060 A 
BRANCH 101 102
ATOM    102  S   UNL A   1      53.493  26.620  26.256  1.00  0.00     0.124 S 
ATOM    103  O   UNL A   1      53.548  25.839  27.488  1.00  0.00    -0.237 OA
ATOM    104  O   UNL A   1      53.459  25.845  25.019  1.00  0.00    -0.237 OA
ATOM    105  O   UNL A   1      54.337  27.809  26.220  1.00  0.00    -0.744 OA
ENDBRANCH 101 102
ENDBRANCH  69  94
ENDBRANCH  43  44
ENDBRANCH  36  38
ENDBRANCH  35  36
ENDBRANCH  34  35
ENDBRANCH   1  34
TORSDOF 19
ENDMDL
MODEL 3
REMARK VINA RESULT:     -12.2      8.036     14.385
REMARK SMILES Cc1cccc(N2C(=O)/C(=C/c3ccc(C(=O)OCCOCCOC(=O)c4ccc(-c5c6nc(c(-c7c(F)cc(S(=O)(=O)[O-])cc7F)c7ccc([nH]7)c(-c7c(F)cc(S(=O)(=O)[O-])cc7F)c7nc(c(-c8c(F)cc(S(=O)(=O)[O-])cc8F)c8ccc5[nH]8)C=C7)C=C6)cc4)cc3)c3ccccc3C2=O)c1
REMARK SMILES IDX 22 1 21 2 20 3 19 4 18 5 16 6 17 7 15 8 12 9 13 10 94 11
REMARK SMILES IDX 14 12 93 13 11 14 7 15 8 16 101 17 9 18 10 19 100 20 102 21
REMARK SMILES IDX 95 22 99 23 96 24 98 25 97 26 6 27 1 28 2 29 3 30 103 31
REMARK SMILES IDX 4 32 5 33 23 34 24 35 25 36 26 37 27 38 28 39 92 40 29 41
REMARK SMILES IDX 91 42 30 43 31 44 32 45 85 46 33 47 90 48 84 49 86 50 34 51
REMARK SMILES IDX 89 52 83 53 82 54 35 56 69 57 48 58 68 59 49 60 52 61 67 62
REMARK SMILES IDX 87 63 50 64 51 65 66 67 88 68 53 69 36 70 37 71 46 72 38 73
REMARK SMILES IDX 39 74 45 75 47 76 40 77 41 78 42 79 43 80 44 81 70 82 71 83
REMARK SMILES IDX 80 84 72 85 73 86 79 87 81 88 74 89 75 90 76 91 77 92 78 93
REMARK SMILES IDX 54 94 55 95 64 96 56 97 57 98 63 99 65 100 58 101 59 102
REMARK SMILES IDX 60 103 61 104 62 105
REMARK H PARENT 86 55 52 66
REMARK Flexibility Score: inf
ROOT
ATOM      1  C   UNL A   1      35.909  34.135  34.678  1.00  0.00     0.202 C 
ENDROOT
BRANCH   1   2
ATOM      2  O   UNL A   1      35.041  33.085  34.325  1.00  0.00    -0.374 OA
BRANCH   2   3
ATOM      3  C   UNL A   1      34.508  33.122  33.010  1.00  0.00     0.202 C 
BRANCH   3   4
ATOM      4  C   UNL A   1      34.819  34.494  32.481  1.00  0.00     0.261 C 
BRANCH   4   5
ATOM      5  O   UNL A   1      35.067  34.505  31.054  1.00  0.00    -0.460 OA
BRANCH   5   6
ATOM      6  C   UNL A   1      34.093  34.165  30.154  1.00  0.00     0.338 C 
ATOM      7  O   UNL A   1      32.986  34.580  30.003  1.00  0.00    -0.246 OA
BRANCH   6   8
ATOM      8  C   UNL A   1      34.754  33.262  29.198  1.00  0.00     0.060 A 
ATOM      9  C   UNL A   1      36.550  31.463  28.182  1.00  0.00    -0.025 A 
ATOM     10  C   UNL A   1      36.826  32.832  28.087  1.00  0.00     0.009 A 
ATOM     11  C   UNL A   1      35.273  31.021  28.547  1.00  0.00     0.009 A 
ATOM     12  C   UNL A   1      35.911  33.745  28.588  1.00  0.00     0.016 A 
ATOM     13  C   UNL A   1      34.381  31.922  29.102  1.00  0.00     0.016 A 
BRANCH   9  14
ATOM     14  C   UNL A   1      37.657  30.523  28.025  1.00  0.00     0.022 C 
ATOM     15  N   UNL A   1      39.282  27.729  29.231  1.00  0.00    -0.242 N 
ATOM     16  C   UNL A   1      39.366  28.969  28.568  1.00  0.00     0.265 C 
ATOM     17  C   UNL A   1      38.553  27.604  30.443  1.00  0.00     0.265 C 
ATOM     18  O   UNL A   1      40.118  29.314  27.660  1.00  0.00    -0.268 OA
ATOM     19  C   UNL A   1      38.360  29.960  29.031  1.00  0.00     0.049 C 
ATOM     20  C   UNL A   1      38.196  28.856  31.166  1.00  0.00     0.048 A 
ATOM     21  O   UNL A   1      38.207  26.565  31.001  1.00  0.00    -0.268 OA
ATOM     22  C   UNL A   1      38.161  30.062  30.474  1.00  0.00    -0.000 A 
ATOM     23  C   UNL A   1      37.899  28.818  32.537  1.00  0.00     0.014 A 
ATOM     24  C   UNL A   1      37.932  31.252  31.180  1.00  0.00     0.010 A 
ATOM     25  C   UNL A   1      37.613  29.998  33.224  1.00  0.00     0.001 A 
ATOM     26  C   UNL A   1      37.646  31.216  32.548  1.00  0.00     0.001 A 
BRANCH  15  27
ATOM     27  C   UNL A   1      39.942  26.562  28.641  1.00  0.00     0.053 A 
ATOM     28  C   UNL A   1      39.013  23.511  26.508  1.00  0.00     0.044 C 
ATOM     29  C   UNL A   1      39.837  24.477  27.310  1.00  0.00    -0.049 A 
ATOM     30  C   UNL A   1      41.199  24.269  27.491  1.00  0.00     0.003 A 
ATOM     31  C   UNL A   1      39.238  25.620  27.867  1.00  0.00     0.030 A 
ATOM     32  C   UNL A   1      41.933  25.178  28.241  1.00  0.00     0.002 A 
ATOM     33  C   UNL A   1      41.312  26.298  28.812  1.00  0.00     0.027 A 
ENDBRANCH  15  27
ENDBRANCH   9  14
ENDBRANCH   6   8
ENDBRANCH   5   6
ENDBRANCH   4   5
ENDBRANCH   3   4
ENDBRANCH   2   3
ENDBRANCH   1   2
BRANCH   1  34
ATOM     34  C   UNL A   1      37.229  33.637  35.268  1.00  0.00     0.261 C 
BRANCH  34  35
ATOM     35  O   UNL A   1      38.336  34.413  34.764  1.00  0.00    -0.460 OA
BRANCH  35  36
ATOM     36  C   UNL A   1      39.464  33.701  34.476  1.00  0.00     0.338 C 
ATOM     37  O   UNL A   1      39.869  32.772  35.150  1.00  0.00    -0.246 OA
BRANCH  36  38
ATOM     38  C   UNL A   1      40.100  34.217  33.231  1.00  0.00     0.060 A 
ATOM     39  C   UNL A   1      39.519  34.003  31.969  1.00  0.00     0.016 A 
ATOM     40  C   UNL A   1      41.376  34.765  33.316  1.00  0.00     0.016 A 
ATOM     41  C   UNL A   1      40.270  34.200  30.794  1.00  0.00     0.010 A 
ATOM     42  C   UNL A   1      42.128  34.887  32.168  1.00  0.00     0.010 A 
ATOM     43  C   UNL A   1      41.604  34.579  30.900  1.00  0.00    -0.014 A 
BRANCH  43  44
ATOM     44  C   UNL A   1      42.601  34.656  29.822  1.00  0.00     0.031 A 
ATOM     45  C   UNL A   1      43.463  33.464  29.602  1.00  0.00     0.074 A 
ATOM     46  C   UNL A   1      42.470  35.567  28.824  1.00  0.00     0.049 A 
ATOM     47  N   UNL A   1      44.306  33.353  28.637  1.00  0.00    -0.248 NA
ATOM     48  C   UNL A   1      43.468  32.285  30.471  1.00  0.00     0.031 C 
ATOM     49  C   UNL A   1      42.822  35.404  27.409  1.00  0.00     0.029 A 
ATOM     50  N   UNL A   1      41.982  36.877  28.862  1.00  0.00    -0.354 N 
ATOM     51  C   UNL A   1      44.632  32.025  28.518  1.00  0.00     0.074 A 
ATOM     52  C   UNL A   1      44.219  31.434  29.763  1.00  0.00     0.031 C 
ATOM     53  C   UNL A   1      42.817  36.601  26.799  1.00  0.00     0.029 A 
ATOM     54  C   UNL A   1      42.600  37.598  27.830  1.00  0.00     0.049 A 
ATOM     55  H   UNL A   1      41.323  37.231  29.502  1.00  0.00     0.167 HD
ATOM     56  C   UNL A   1      45.078  31.584  27.308  1.00  0.00     0.037 A 
ATOM     57  C   UNL A   1      43.380  38.675  28.114  1.00  0.00     0.037 A 
ATOM     58  C   UNL A   1      45.397  32.728  26.440  1.00  0.00     0.049 A 
ATOM     59  C   UNL A   1      44.788  38.373  27.687  1.00  0.00     0.074 A 
ATOM     60  C   UNL A   1      44.845  33.253  25.286  1.00  0.00     0.029 A 
ATOM     61  N   UNL A   1      46.287  33.695  26.918  1.00  0.00    -0.354 N 
ATOM     62  N   UNL A   1      45.210  37.149  27.510  1.00  0.00    -0.248 NA
ATOM     63  C   UNL A   1      45.787  39.362  27.300  1.00  0.00     0.031 C 
ATOM     64  C   UNL A   1      45.318  34.595  25.151  1.00  0.00     0.029 A 
ATOM     65  C   UNL A   1      46.194  34.866  26.195  1.00  0.00     0.049 A 
ATOM     66  H   UNL A   1      46.902  33.557  27.674  1.00  0.00     0.167 HD
ATOM     67  C   UNL A   1      46.432  37.158  26.921  1.00  0.00     0.074 A 
ATOM     68  C   UNL A   1      46.778  38.568  26.851  1.00  0.00     0.031 C 
ATOM     69  C   UNL A   1      47.049  36.009  26.522  1.00  0.00     0.037 A 
BRANCH  56  70
ATOM     70  C   UNL A   1      45.091  30.137  26.841  1.00  0.00     0.058 A 
ATOM     71  C   UNL A   1      43.880  29.415  26.731  1.00  0.00     0.135 A 
ATOM     72  C   UNL A   1      46.248  29.367  26.581  1.00  0.00     0.135 A 
ATOM     73  F   UNL A   1      42.700  29.999  26.990  1.00  0.00    -0.206 F 
ATOM     74  C   UNL A   1      43.823  28.062  26.374  1.00  0.00     0.059 A 
ATOM     75  C   UNL A   1      46.213  28.027  26.175  1.00  0.00     0.059 A 
ATOM     76  F   UNL A   1      47.482  29.847  26.763  1.00  0.00    -0.206 F 
ATOM     77  C   UNL A   1      44.995  27.376  26.086  1.00  0.00     0.060 A 
BRANCH  77  78
ATOM     78  S   UNL A   1      44.917  25.637  25.612  1.00  0.00     0.124 S 
ATOM     79  O   UNL A   1      43.561  25.528  25.082  1.00  0.00    -0.237 OA
ATOM     80  O   UNL A   1      45.993  25.533  24.632  1.00  0.00    -0.237 OA
ATOM     81  O   UNL A   1      45.153  24.929  26.867  1.00  0.00    -0.744 OA
ENDBRANCH  77  78
ENDBRANCH  56  70
BRANCH  57  82
ATOM     82  C   UNL A   1      42.845  39.452  29.279  1.00  0.00     0.058 A 
ATOM     83  C   UNL A   1      43.632  39.429  30.454  1.00  0.00     0.135 A 
ATOM     84  C   UNL A   1      42.021  40.575  29.097  1.00  0.00     0.135 A 
ATOM     85  F   UNL A   1      44.454  38.391  30.687  1.00  0.00    -0.206 F 
ATOM     86  C   UNL A   1      43.728  40.527  31.312  1.00  0.00     0.059 A 
ATOM     87  C   UNL A   1      42.113  41.694  29.940  1.00  0.00     0.059 A 
ATOM     88  F   UNL A   1      41.254  40.676  28.001  1.00  0.00    -0.206 F 
ATOM     89  C   UNL A   1      43.013  41.683  31.009  1.00  0.00     0.060 A 
BRANCH  89  90
ATOM     90  S   UNL A   1      43.466  43.226  31.859  1.00  0.00     0.124 S 
ATOM     91  O   UNL A   1      42.663  44.211  31.147  1.00  0.00    -0.237 OA
ATOM     92  O   UNL A   1      43.062  42.961  33.239  1.00  0.00    -0.237 OA
ATOM     93  O   UNL A   1      44.907  43.305  31.652  1.00  0.00    -0.744 OA
ENDBRANCH  89  90
ENDBRANCH  57  82
BRANCH  69  94
ATOM     94  C   UNL A   1      48.539  35.880  26.362  1.00  0.00     0.058 A 
ATOM     95  C   UNL A   1      49.243  36.436  25.279  1.00  0.00     0.135 A 
ATOM     96  C   UNL A   1      49.332  35.361  27.412  1.00  0.00     0.135 A 
ATOM     97  F   UNL A   1      48.617  37.070  24.278  1.00  0.00    -0.206 F 
ATOM     98  C   UNL A   1      50.630  36.407  25.204  1.00  0.00     0.059 A 
ATOM     99  C   UNL A   1      50.720  35.390  27.390  1.00  0.00     0.059 A 
ATOM    100  F   UNL A   1      48.783  34.828  28.513  1.00  0.00    -0.206 F 
ATOM    101  C   UNL A   1      51.360  35.884  26.264  1.00  0.00     0.060 A 
BRANCH 101 102
ATOM    102  S   UNL A   1      53.154  35.886  26.173  1.00  0.00     0.124 S 
ATOM    103  O   UNL A   1      53.433  34.458  26.054  1.00  0.00    -0.237 OA
ATOM    104  O   UNL A   1      53.412  36.681  24.976  1.00  0.00    -0.237 OA
ATOM    105  O   UNL A   1      53.556  36.508  27.430  1.00  0.00    -0.744 OA
ENDBRANCH 101 102
ENDBRANCH  69  94
ENDBRANCH  43  44
ENDBRANCH  36  38
ENDBRANCH  35  36
ENDBRANCH  34  35
ENDBRANCH   1  34
TORSDOF 19
ENDMDL
