MODEL 1
REMARK VINA RESULT:     -11.3      0.000      0.000
REMARK SMILES O=C(CS[C@H](C(=O)Nc1ccc(C(F)(F)F)cc1)c1ccccc1)OCCOCCOC(=O)c1ccc(-c2c3nc(c(-c4c(F)cc(S(=O)(=O)[O-])cc4F)c4ccc([nH]4)c(-c4c(F)cc(S(=O)(=O)[O-])cc4F)c4nc(c(-c5c(F)cc(S(=O)(=O)[O-])cc5F)c5ccc2[nH]5)C=C4)C=C3)cc1
REMARK SMILES IDX 27 1 26 2 25 3 2 4 1 5 3 6 4 7 5 8 19 9 20 10 24 11 21 12
REMARK SMILES IDX 23 13 22 14 6 15 7 16 8 17 9 19 10 20 18 21 11 22 17 23
REMARK SMILES IDX 12 24 13 25 14 26 15 27 16 28 28 29 29 30 30 31 31 32 32 33
REMARK SMILES IDX 33 34 34 35 35 36 99 37 36 38 98 39 37 40 38 41 39 42 92 43
REMARK SMILES IDX 40 44 97 45 91 46 93 47 41 48 96 49 90 50 89 51 42 53 76 54
REMARK SMILES IDX 55 55 75 56 56 57 59 58 74 59 94 60 57 61 58 62 73 64 95 65
REMARK SMILES IDX 60 66 43 67 44 68 53 69 45 70 46 71 52 72 54 73 47 74 48 75
REMARK SMILES IDX 49 76 50 77 51 78 77 79 78 80 87 81 79 82 80 83 86 84 88 85
REMARK SMILES IDX 81 86 82 87 83 88 84 89 85 90 61 91 62 92 71 93 63 94 64 95
REMARK SMILES IDX 70 96 72 97 65 98 66 99 67 100 68 101 69 102
REMARK H PARENT 8 18 93 52 59 63
REMARK Flexibility Score: inf
ROOT
ATOM      1  C   UNL A   1      34.402  31.185  27.453  1.00  0.00     0.202 C 
ENDROOT
BRANCH   1   2
ATOM      2  C   UNL A   1      33.546  30.001  26.890  1.00  0.00     0.261 C 
BRANCH   2   3
ATOM      3  O   UNL A   1      33.709  29.390  25.482  1.00  0.00    -0.463 OA
BRANCH   3   4
ATOM      4  C   UNL A   1      33.430  28.669  24.366  1.00  0.00     0.316 C 
ATOM      5  O   UNL A   1      32.962  29.334  23.422  1.00  0.00    -0.251 OA
BRANCH   4   6
ATOM      6  C   UNL A   1      33.434  27.139  24.082  1.00  0.00     0.193 C 
BRANCH   6   7
ATOM      7  S   UNL A   1      33.304  25.773  25.238  1.00  0.00    -0.132 SA
BRANCH   7   8
ATOM      8  C   UNL A   1      33.683  24.461  24.086  1.00  0.00     0.166 C 
BRANCH   8   9
ATOM      9  C   UNL A   1      35.160  23.902  24.293  1.00  0.00    -0.026 A 
ATOM     10  C   UNL A   1      35.883  24.134  25.496  1.00  0.00     0.005 A 
ATOM     11  C   UNL A   1      35.846  23.103  23.363  1.00  0.00     0.005 A 
ATOM     12  C   UNL A   1      36.930  23.307  25.920  1.00  0.00     0.000 A 
ATOM     13  C   UNL A   1      36.923  22.280  23.772  1.00  0.00     0.000 A 
ATOM     14  C   UNL A   1      37.405  22.322  25.078  1.00  0.00     0.000 A 
ENDBRANCH   8   9
BRANCH   8  15
ATOM     15  C   UNL A   1      32.301  23.594  23.997  1.00  0.00     0.242 C 
ATOM     16  O   UNL A   1      31.272  24.254  23.729  1.00  0.00    -0.273 OA
ATOM     17  N   UNL A   1      32.020  22.243  24.332  1.00  0.00    -0.325 N 
ATOM     18  H   UNL A   1      31.181  22.199  24.846  1.00  0.00     0.169 HD
BRANCH  17  19
ATOM     19  C   UNL A   1      32.562  20.893  24.165  1.00  0.00     0.041 A 
ATOM     20  C   UNL A   1      33.673  20.363  24.843  1.00  0.00     0.027 A 
ATOM     21  C   UNL A   1      32.109  20.055  23.149  1.00  0.00     0.027 A 
ATOM     22  C   UNL A   1      34.163  19.063  24.760  1.00  0.00     0.015 A 
ATOM     23  C   UNL A   1      32.580  18.707  23.039  1.00  0.00     0.015 A 
ATOM     24  C   UNL A   1      33.565  18.181  23.898  1.00  0.00     0.056 A 
BRANCH  24  25
ATOM     25  C   UNL A   1      34.026  16.748  23.944  1.00  0.00     0.416 C 
ATOM     26  F   UNL A   1      34.220  16.223  22.703  1.00  0.00    -0.166 F 
ATOM     27  F   UNL A   1      35.221  16.598  24.590  1.00  0.00    -0.166 F 
ATOM     28  F   UNL A   1      33.157  15.921  24.581  1.00  0.00    -0.166 F 
ENDBRANCH  24  25
ENDBRANCH  17  19
ENDBRANCH   8  15
ENDBRANCH   7   8
ENDBRANCH   6   7
ENDBRANCH   4   6
ENDBRANCH   3   4
ENDBRANCH   2   3
ENDBRANCH   1   2
BRANCH   1  29
ATOM     29  O   UNL A   1      33.969  31.784  28.672  1.00  0.00    -0.374 OA
BRANCH  29  30
ATOM     30  C   UNL A   1      34.897  32.432  29.557  1.00  0.00     0.202 C 
BRANCH  30  31
ATOM     31  C   UNL A   1      35.539  31.662  30.734  1.00  0.00     0.261 C 
BRANCH  31  32
ATOM     32  O   UNL A   1      36.097  30.389  30.393  1.00  0.00    -0.460 OA
BRANCH  32  33
ATOM     33  C   UNL A   1      36.961  29.884  31.311  1.00  0.00     0.338 C 
ATOM     34  O   UNL A   1      36.675  29.264  32.302  1.00  0.00    -0.246 OA
BRANCH  33  35
ATOM     35  C   UNL A   1      38.319  29.950  30.714  1.00  0.00     0.060 A 
ATOM     36  C   UNL A   1      38.395  29.818  29.323  1.00  0.00     0.016 A 
ATOM     37  C   UNL A   1      39.467  30.225  31.468  1.00  0.00     0.016 A 
ATOM     38  C   UNL A   1      39.626  29.880  28.688  1.00  0.00     0.010 A 
ATOM     39  C   UNL A   1      40.712  30.250  30.835  1.00  0.00     0.010 A 
ATOM     40  C   UNL A   1      40.790  30.006  29.454  1.00  0.00    -0.014 A 
BRANCH  40  41
ATOM     41  C   UNL A   1      42.034  29.497  28.838  1.00  0.00     0.031 A 
ATOM     42  C   UNL A   1      43.195  30.455  28.771  1.00  0.00     0.074 A 
ATOM     43  C   UNL A   1      42.177  28.201  28.519  1.00  0.00     0.049 A 
ATOM     44  N   UNL A   1      44.431  30.239  28.414  1.00  0.00    -0.248 NA
ATOM     45  C   UNL A   1      42.926  31.846  29.182  1.00  0.00     0.031 C 
ATOM     46  C   UNL A   1      41.127  27.187  28.602  1.00  0.00     0.029 A 
ATOM     47  N   UNL A   1      43.279  27.512  28.086  1.00  0.00    -0.354 N 
ATOM     48  C   UNL A   1      45.086  31.455  28.579  1.00  0.00     0.074 A 
ATOM     49  C   UNL A   1      44.106  32.418  29.017  1.00  0.00     0.031 C 
ATOM     50  C   UNL A   1      41.638  26.000  28.231  1.00  0.00     0.029 A 
ATOM     51  C   UNL A   1      43.043  26.177  27.868  1.00  0.00     0.049 A 
ATOM     52  H   UNL A   1      44.157  27.935  27.944  1.00  0.00     0.167 HD
ATOM     53  C   UNL A   1      46.396  31.737  28.403  1.00  0.00     0.037 A 
ATOM     54  C   UNL A   1      43.874  25.218  27.413  1.00  0.00     0.037 A 
ATOM     55  C   UNL A   1      47.359  30.773  27.950  1.00  0.00     0.049 A 
ATOM     56  C   UNL A   1      45.314  25.579  27.142  1.00  0.00     0.074 A 
ATOM     57  C   UNL A   1      48.705  30.953  27.697  1.00  0.00     0.029 A 
ATOM     58  N   UNL A   1      47.070  29.443  27.678  1.00  0.00    -0.354 N 
ATOM     59  N   UNL A   1      45.921  26.733  27.298  1.00  0.00    -0.248 NA
ATOM     60  C   UNL A   1      46.185  24.505  26.648  1.00  0.00     0.031 C 
ATOM     61  C   UNL A   1      49.222  29.742  27.224  1.00  0.00     0.029 A 
ATOM     62  C   UNL A   1      48.210  28.793  27.240  1.00  0.00     0.049 A 
ATOM     63  H   UNL A   1      46.186  29.025  27.780  1.00  0.00     0.167 HD
ATOM     64  C   UNL A   1      47.248  26.520  26.936  1.00  0.00     0.074 A 
ATOM     65  C   UNL A   1      47.358  25.118  26.585  1.00  0.00     0.031 C 
ATOM     66  C   UNL A   1      48.283  27.398  26.889  1.00  0.00     0.037 A 
BRANCH  53  67
ATOM     67  C   UNL A   1      46.843  33.147  28.676  1.00  0.00     0.058 A 
ATOM     68  C   UNL A   1      46.739  34.157  27.704  1.00  0.00     0.135 A 
ATOM     69  C   UNL A   1      47.371  33.496  29.928  1.00  0.00     0.135 A 
ATOM     70  F   UNL A   1      46.275  33.870  26.477  1.00  0.00    -0.206 F 
ATOM     71  C   UNL A   1      47.152  35.459  27.961  1.00  0.00     0.059 A 
ATOM     72  C   UNL A   1      47.765  34.799  30.217  1.00  0.00     0.059 A 
ATOM     73  F   UNL A   1      47.510  32.566  30.886  1.00  0.00    -0.206 F 
ATOM     74  C   UNL A   1      47.659  35.772  29.224  1.00  0.00     0.060 A 
BRANCH  74  75
ATOM     75  S   UNL A   1      48.165  37.473  29.551  1.00  0.00     0.124 S 
ATOM     76  O   UNL A   1      46.950  38.032  30.136  1.00  0.00    -0.237 OA
ATOM     77  O   UNL A   1      49.285  37.292  30.468  1.00  0.00    -0.237 OA
ATOM     78  O   UNL A   1      48.516  37.984  28.231  1.00  0.00    -0.744 OA
ENDBRANCH  74  75
ENDBRANCH  53  67
BRANCH  54  79
ATOM     79  C   UNL A   1      43.361  23.845  27.151  1.00  0.00     0.058 A 
ATOM     80  C   UNL A   1      43.134  22.929  28.188  1.00  0.00     0.135 A 
ATOM     81  C   UNL A   1      43.107  23.416  25.838  1.00  0.00     0.135 A 
ATOM     82  F   UNL A   1      43.368  23.283  29.461  1.00  0.00    -0.206 F 
ATOM     83  C   UNL A   1      42.699  21.630  27.933  1.00  0.00     0.059 A 
ATOM     84  C   UNL A   1      42.642  22.135  25.559  1.00  0.00     0.059 A 
ATOM     85  F   UNL A   1      43.296  24.256  24.808  1.00  0.00    -0.206 F 
ATOM     86  C   UNL A   1      42.456  21.243  26.614  1.00  0.00     0.060 A 
BRANCH  86  87
ATOM     87  S   UNL A   1      41.866  19.567  26.291  1.00  0.00     0.124 S 
ATOM     88  O   UNL A   1      42.610  19.222  25.085  1.00  0.00    -0.237 OA
ATOM     89  O   UNL A   1      42.261  18.865  27.509  1.00  0.00    -0.237 OA
ATOM     90  O   UNL A   1      40.428  19.746  26.117  1.00  0.00    -0.744 OA
ENDBRANCH  86  87
ENDBRANCH  54  79
BRANCH  66  91
ATOM     91  C   UNL A   1      49.620  26.855  26.462  1.00  0.00     0.058 A 
ATOM     92  C   UNL A   1      50.002  26.813  25.112  1.00  0.00     0.135 A 
ATOM     93  C   UNL A   1      50.536  26.386  27.418  1.00  0.00     0.135 A 
ATOM     94  F   UNL A   1      49.164  27.252  24.159  1.00  0.00    -0.206 F 
ATOM     95  C   UNL A   1      51.223  26.277  24.719  1.00  0.00     0.059 A 
ATOM     96  C   UNL A   1      51.778  25.880  27.051  1.00  0.00     0.059 A 
ATOM     97  F   UNL A   1      50.231  26.423  28.724  1.00  0.00    -0.206 F 
ATOM     98  C   UNL A   1      52.102  25.806  25.697  1.00  0.00     0.060 A 
BRANCH  98  99
ATOM     99  S   UNL A   1      53.676  25.097  25.174  1.00  0.00     0.124 S 
ATOM    100  O   UNL A   1      53.377  23.669  25.203  1.00  0.00    -0.237 OA
ATOM    101  O   UNL A   1      53.858  25.680  23.848  1.00  0.00    -0.237 OA
ATOM    102  O   UNL A   1      54.613  25.563  26.191  1.00  0.00    -0.744 OA
ENDBRANCH  98  99
ENDBRANCH  66  91
ENDBRANCH  40  41
ENDBRANCH  33  35
ENDBRANCH  32  33
ENDBRANCH  31  32
ENDBRANCH  30  31
ENDBRANCH  29  30
ENDBRANCH   1  29
TORSDOF 23
ENDMDL
MODEL 2
REMARK VINA RESULT:     -11.2      4.843      6.395
REMARK SMILES O=C(CS[C@H](C(=O)Nc1ccc(C(F)(F)F)cc1)c1ccccc1)OCCOCCOC(=O)c1ccc(-c2c3nc(c(-c4c(F)cc(S(=O)(=O)[O-])cc4F)c4ccc([nH]4)c(-c4c(F)cc(S(=O)(=O)[O-])cc4F)c4nc(c(-c5c(F)cc(S(=O)(=O)[O-])cc5F)c5ccc2[nH]5)C=C4)C=C3)cc1
REMARK SMILES IDX 27 1 26 2 25 3 2 4 1 5 3 6 4 7 5 8 19 9 20 10 24 11 21 12
REMARK SMILES IDX 23 13 22 14 6 15 7 16 8 17 9 19 10 20 18 21 11 22 17 23
REMARK SMILES IDX 12 24 13 25 14 26 15 27 16 28 28 29 29 30 30 31 31 32 32 33
REMARK SMILES IDX 33 34 34 35 35 36 99 37 36 38 98 39 37 40 38 41 39 42 92 43
REMARK SMILES IDX 40 44 97 45 91 46 93 47 41 48 96 49 90 50 89 51 42 53 76 54
REMARK SMILES IDX 55 55 75 56 56 57 59 58 74 59 94 60 57 61 58 62 73 64 95 65
REMARK SMILES IDX 60 66 43 67 44 68 53 69 45 70 46 71 52 72 54 73 47 74 48 75
REMARK SMILES IDX 49 76 50 77 51 78 77 79 78 80 87 81 79 82 80 83 86 84 88 85
REMARK SMILES IDX 81 86 82 87 83 88 84 89 85 90 61 91 62 92 71 93 63 94 64 95
REMARK SMILES IDX 70 96 72 97 65 98 66 99 67 100 68 101 69 102
REMARK H PARENT 8 18 93 52 59 63
REMARK Flexibility Score: inf
ROOT
ATOM      1  C   UNL A   1      33.285  28.617  24.465  1.00  0.00     0.202 C 
ENDROOT
BRANCH   1   2
ATOM      2  C   UNL A   1      32.820  28.060  23.079  1.00  0.00     0.261 C 
BRANCH   2   3
ATOM      3  O   UNL A   1      33.229  26.690  22.499  1.00  0.00    -0.463 OA
BRANCH   3   4
ATOM      4  C   UNL A   1      33.119  25.466  21.923  1.00  0.00     0.316 C 
ATOM      5  O   UNL A   1      33.189  25.468  20.680  1.00  0.00    -0.251 OA
BRANCH   4   6
ATOM      6  C   UNL A   1      32.763  24.066  22.503  1.00  0.00     0.193 C 
BRANCH   6   7
ATOM      7  S   UNL A   1      31.310  23.560  23.426  1.00  0.00    -0.132 SA
BRANCH   7   8
ATOM      8  C   UNL A   1      32.162  22.878  24.840  1.00  0.00     0.166 C 
BRANCH   8   9
ATOM      9  C   UNL A   1      32.594  21.364  24.595  1.00  0.00    -0.026 A 
ATOM     10  C   UNL A   1      33.122  20.561  25.643  1.00  0.00     0.005 A 
ATOM     11  C   UNL A   1      32.446  20.682  23.376  1.00  0.00     0.005 A 
ATOM     12  C   UNL A   1      33.065  19.162  25.626  1.00  0.00     0.000 A 
ATOM     13  C   UNL A   1      32.411  19.267  23.338  1.00  0.00     0.000 A 
ATOM     14  C   UNL A   1      32.635  18.511  24.487  1.00  0.00     0.000 A 
ENDBRANCH   8   9
BRANCH   8  15
ATOM     15  C   UNL A   1      33.105  24.102  25.370  1.00  0.00     0.242 C 
ATOM     16  O   UNL A   1      32.491  25.083  25.845  1.00  0.00    -0.273 OA
ATOM     17  N   UNL A   1      34.501  24.332  25.240  1.00  0.00    -0.325 N 
ATOM     18  H   UNL A   1      34.656  25.268  24.975  1.00  0.00     0.169 HD
BRANCH  17  19
ATOM     19  C   UNL A   1      35.785  23.642  25.371  1.00  0.00     0.041 A 
ATOM     20  C   UNL A   1      36.957  24.184  25.925  1.00  0.00     0.027 A 
ATOM     21  C   UNL A   1      36.003  22.407  24.767  1.00  0.00     0.027 A 
ATOM     22  C   UNL A   1      38.168  23.528  26.131  1.00  0.00     0.015 A 
ATOM     23  C   UNL A   1      37.231  21.696  24.965  1.00  0.00     0.015 A 
ATOM     24  C   UNL A   1      38.298  22.229  25.714  1.00  0.00     0.056 A 
BRANCH  24  25
ATOM     25  C   UNL A   1      39.568  21.508  26.085  1.00  0.00     0.416 C 
ATOM     26  F   UNL A   1      39.846  21.593  27.415  1.00  0.00    -0.166 F 
ATOM     27  F   UNL A   1      39.516  20.170  25.812  1.00  0.00    -0.166 F 
ATOM     28  F   UNL A   1      40.664  21.975  25.432  1.00  0.00    -0.166 F 
ENDBRANCH  24  25
ENDBRANCH  17  19
ENDBRANCH   8  15
ENDBRANCH   7   8
ENDBRANCH   6   7
ENDBRANCH   4   6
ENDBRANCH   3   4
ENDBRANCH   2   3
ENDBRANCH   1   2
BRANCH   1  29
ATOM     29  O   UNL A   1      32.332  28.612  25.526  1.00  0.00    -0.374 OA
BRANCH  29  30
ATOM     30  C   UNL A   1      31.769  29.834  26.030  1.00  0.00     0.202 C 
BRANCH  30  31
ATOM     31  C   UNL A   1      32.646  30.861  26.783  1.00  0.00     0.261 C 
BRANCH  31  32
ATOM     32  O   UNL A   1      33.655  30.293  27.624  1.00  0.00    -0.460 OA
BRANCH  32  33
ATOM     33  C   UNL A   1      34.534  31.190  28.140  1.00  0.00     0.338 C 
ATOM     34  O   UNL A   1      34.272  32.271  28.599  1.00  0.00    -0.246 OA
BRANCH  33  35
ATOM     35  C   UNL A   1      35.823  30.477  28.333  1.00  0.00     0.060 A 
ATOM     36  C   UNL A   1      35.957  29.746  29.519  1.00  0.00     0.016 A 
ATOM     37  C   UNL A   1      36.826  30.443  27.356  1.00  0.00     0.016 A 
ATOM     38  C   UNL A   1      37.126  29.042  29.769  1.00  0.00     0.010 A 
ATOM     39  C   UNL A   1      38.018  29.766  27.622  1.00  0.00     0.010 A 
ATOM     40  C   UNL A   1      38.188  29.127  28.862  1.00  0.00    -0.014 A 
BRANCH  40  41
ATOM     41  C   UNL A   1      39.537  28.875  29.412  1.00  0.00     0.031 A 
ATOM     42  C   UNL A   1      39.951  29.712  30.595  1.00  0.00     0.074 A 
ATOM     43  C   UNL A   1      40.279  27.837  28.995  1.00  0.00     0.049 A 
ATOM     44  N   UNL A   1      41.007  29.612  31.354  1.00  0.00    -0.248 NA
ATOM     45  C   UNL A   1      39.036  30.802  30.984  1.00  0.00     0.031 C 
ATOM     46  C   UNL A   1      39.936  26.938  27.895  1.00  0.00     0.029 A 
ATOM     47  N   UNL A   1      41.467  27.350  29.472  1.00  0.00    -0.354 N 
ATOM     48  C   UNL A   1      40.870  30.606  32.318  1.00  0.00     0.074 A 
ATOM     49  C   UNL A   1      39.659  31.332  32.021  1.00  0.00     0.031 C 
ATOM     50  C   UNL A   1      40.896  26.003  27.781  1.00  0.00     0.029 A 
ATOM     51  C   UNL A   1      41.927  26.252  28.788  1.00  0.00     0.049 A 
ATOM     52  H   UNL A   1      41.947  27.751  30.233  1.00  0.00     0.167 HD
ATOM     53  C   UNL A   1      41.671  30.874  33.372  1.00  0.00     0.037 A 
ATOM     54  C   UNL A   1      43.062  25.544  28.956  1.00  0.00     0.037 A 
ATOM     55  C   UNL A   1      42.883  30.154  33.647  1.00  0.00     0.049 A 
ATOM     56  C   UNL A   1      43.984  25.917  30.091  1.00  0.00     0.074 A 
ATOM     57  C   UNL A   1      43.797  30.361  34.663  1.00  0.00     0.029 A 
ATOM     58  N   UNL A   1      43.351  29.086  32.894  1.00  0.00    -0.354 N 
ATOM     59  N   UNL A   1      43.846  26.861  30.993  1.00  0.00    -0.248 NA
ATOM     60  C   UNL A   1      45.209  25.121  30.239  1.00  0.00     0.031 C 
ATOM     61  C   UNL A   1      44.844  29.448  34.495  1.00  0.00     0.029 A 
ATOM     62  C   UNL A   1      44.551  28.635  33.411  1.00  0.00     0.049 A 
ATOM     63  H   UNL A   1      42.896  28.707  32.109  1.00  0.00     0.167 HD
ATOM     64  C   UNL A   1      44.958  26.763  31.825  1.00  0.00     0.074 A 
ATOM     65  C   UNL A   1      45.739  25.645  31.334  1.00  0.00     0.031 C 
ATOM     66  C   UNL A   1      45.310  27.524  32.892  1.00  0.00     0.037 A 
BRANCH  53  67
ATOM     67  C   UNL A   1      41.270  32.006  34.277  1.00  0.00     0.058 A 
ATOM     68  C   UNL A   1      41.714  33.321  34.058  1.00  0.00     0.135 A 
ATOM     69  C   UNL A   1      40.420  31.776  35.370  1.00  0.00     0.135 A 
ATOM     70  F   UNL A   1      42.558  33.591  33.049  1.00  0.00    -0.206 F 
ATOM     71  C   UNL A   1      41.339  34.364  34.896  1.00  0.00     0.059 A 
ATOM     72  C   UNL A   1      40.009  32.809  36.206  1.00  0.00     0.059 A 
ATOM     73  F   UNL A   1      39.983  30.535  35.636  1.00  0.00    -0.206 F 
ATOM     74  C   UNL A   1      40.481  34.099  35.966  1.00  0.00     0.060 A 
BRANCH  74  75
ATOM     75  S   UNL A   1      39.981  35.470  37.028  1.00  0.00     0.124 S 
ATOM     76  O   UNL A   1      38.799  34.917  37.682  1.00  0.00    -0.237 OA
ATOM     77  O   UNL A   1      41.153  35.645  37.880  1.00  0.00    -0.237 OA
ATOM     78  O   UNL A   1      39.726  36.555  36.087  1.00  0.00    -0.744 OA
ENDBRANCH  74  75
ENDBRANCH  53  67
BRANCH  54  79
ATOM     79  C   UNL A   1      43.405  24.444  28.014  1.00  0.00     0.058 A 
ATOM     80  C   UNL A   1      44.153  24.670  26.850  1.00  0.00     0.135 A 
ATOM     81  C   UNL A   1      42.963  23.133  28.257  1.00  0.00     0.135 A 
ATOM     82  F   UNL A   1      44.593  25.906  26.565  1.00  0.00    -0.206 F 
ATOM     83  C   UNL A   1      44.429  23.646  25.947  1.00  0.00     0.059 A 
ATOM     84  C   UNL A   1      43.252  22.086  27.388  1.00  0.00     0.059 A 
ATOM     85  F   UNL A   1      42.252  22.856  29.361  1.00  0.00    -0.206 F 
ATOM     86  C   UNL A   1      43.974  22.356  26.226  1.00  0.00     0.060 A 
BRANCH  86  87
ATOM     87  S   UNL A   1      44.358  21.025  25.067  1.00  0.00     0.124 S 
ATOM     88  O   UNL A   1      43.273  20.087  25.328  1.00  0.00    -0.237 OA
ATOM     89  O   UNL A   1      44.311  21.718  23.782  1.00  0.00    -0.237 OA
ATOM     90  O   UNL A   1      45.687  20.589  25.487  1.00  0.00    -0.744 OA
ENDBRANCH  86  87
ENDBRANCH  54  79
BRANCH  66  91
ATOM     91  C   UNL A   1      46.582  27.155  33.604  1.00  0.00     0.058 A 
ATOM     92  C   UNL A   1      46.595  26.230  34.660  1.00  0.00     0.135 A 
ATOM     93  C   UNL A   1      47.807  27.721  33.213  1.00  0.00     0.135 A 
ATOM     94  F   UNL A   1      45.452  25.657  35.071  1.00  0.00    -0.206 F 
ATOM     95  C   UNL A   1      47.768  25.919  35.339  1.00  0.00     0.059 A 
ATOM     96  C   UNL A   1      48.998  27.397  33.854  1.00  0.00     0.059 A 
ATOM     97  F   UNL A   1      47.855  28.594  32.196  1.00  0.00    -0.206 F 
ATOM     98  C   UNL A   1      48.964  26.514  34.932  1.00  0.00     0.060 A 
BRANCH  98  99
ATOM     99  S   UNL A   1      50.476  26.116  35.832  1.00  0.00     0.124 S 
ATOM    100  O   UNL A   1      51.500  26.597  34.909  1.00  0.00    -0.237 OA
ATOM    101  O   UNL A   1      50.320  26.884  37.063  1.00  0.00    -0.237 OA
ATOM    102  O   UNL A   1      50.405  24.667  35.991  1.00  0.00    -0.744 OA
ENDBRANCH  98  99
ENDBRANCH  66  91
ENDBRANCH  40  41
ENDBRANCH  33  35
ENDBRANCH  32  33
ENDBRANCH  31  32
ENDBRANCH  30  31
ENDBRANCH  29  30
ENDBRANCH   1  29
TORSDOF 23
ENDMDL
MODEL 3
REMARK VINA RESULT:     -10.8      1.259      2.224
REMARK SMILES O=C(CS[C@H](C(=O)Nc1ccc(C(F)(F)F)cc1)c1ccccc1)OCCOCCOC(=O)c1ccc(-c2c3nc(c(-c4c(F)cc(S(=O)(=O)[O-])cc4F)c4ccc([nH]4)c(-c4c(F)cc(S(=O)(=O)[O-])cc4F)c4nc(c(-c5c(F)cc(S(=O)(=O)[O-])cc5F)c5ccc2[nH]5)C=C4)C=C3)cc1
REMARK SMILES IDX 27 1 26 2 25 3 2 4 1 5 3 6 4 7 5 8 19 9 20 10 24 11 21 12
REMARK SMILES IDX 23 13 22 14 6 15 7 16 8 17 9 19 10 20 18 21 11 22 17 23
REMARK SMILES IDX 12 24 13 25 14 26 15 27 16 28 28 29 29 30 30 31 31 32 32 33
REMARK SMILES IDX 33 34 34 35 35 36 99 37 36 38 98 39 37 40 38 41 39 42 92 43
REMARK SMILES IDX 40 44 97 45 91 46 93 47 41 48 96 49 90 50 89 51 42 53 76 54
REMARK SMILES IDX 55 55 75 56 56 57 59 58 74 59 94 60 57 61 58 62 73 64 95 65
REMARK SMILES IDX 60 66 43 67 44 68 53 69 45 70 46 71 52 72 54 73 47 74 48 75
REMARK SMILES IDX 49 76 50 77 51 78 77 79 78 80 87 81 79 82 80 83 86 84 88 85
REMARK SMILES IDX 81 86 82 87 83 88 84 89 85 90 61 91 62 92 71 93 63 94 64 95
REMARK SMILES IDX 70 96 72 97 65 98 66 99 67 100 68 101 69 102
REMARK H PARENT 8 18 93 52 59 63
REMARK Flexibility Score: inf
ROOT
ATOM      1  C   UNL A   1      31.758  29.324  27.146  1.00  0.00     0.202 C 
ENDROOT
BRANCH   1   2
ATOM      2  C   UNL A   1      32.208  27.831  27.284  1.00  0.00     0.261 C 
BRANCH   2   3
ATOM      3  O   UNL A   1      31.331  26.611  26.933  1.00  0.00    -0.463 OA
BRANCH   3   4
ATOM      4  C   UNL A   1      30.951  25.434  26.374  1.00  0.00     0.316 C 
ATOM      5  O   UNL A   1      30.906  24.474  27.166  1.00  0.00    -0.251 OA
BRANCH   4   6
ATOM      6  C   UNL A   1      30.707  25.008  24.898  1.00  0.00     0.193 C 
BRANCH   6   7
ATOM      7  S   UNL A   1      31.415  23.636  23.984  1.00  0.00    -0.132 SA
BRANCH   7   8
ATOM      8  C   UNL A   1      33.070  24.291  23.832  1.00  0.00     0.166 C 
BRANCH   8   9
ATOM      9  C   UNL A   1      33.061  25.819  23.379  1.00  0.00    -0.026 A 
ATOM     10  C   UNL A   1      32.179  26.291  22.368  1.00  0.00     0.005 A 
ATOM     11  C   UNL A   1      33.855  26.825  23.955  1.00  0.00     0.005 A 
ATOM     12  C   UNL A   1      31.791  27.632  22.270  1.00  0.00     0.000 A 
ATOM     13  C   UNL A   1      33.489  28.188  23.844  1.00  0.00     0.000 A 
ATOM     14  C   UNL A   1      32.400  28.579  23.068  1.00  0.00     0.000 A 
ENDBRANCH   8   9
BRANCH   8  15
ATOM     15  C   UNL A   1      33.877  23.640  25.094  1.00  0.00     0.242 C 
ATOM     16  O   UNL A   1      34.023  24.393  26.082  1.00  0.00    -0.273 OA
ATOM     17  N   UNL A   1      34.594  22.420  25.218  1.00  0.00    -0.325 N 
ATOM     18  H   UNL A   1      35.454  22.589  25.667  1.00  0.00     0.169 HD
BRANCH  17  19
ATOM     19  C   UNL A   1      34.480  20.995  24.902  1.00  0.00     0.041 A 
ATOM     20  C   UNL A   1      35.520  20.053  24.962  1.00  0.00     0.027 A 
ATOM     21  C   UNL A   1      33.326  20.478  24.318  1.00  0.00     0.027 A 
ATOM     22  C   UNL A   1      35.422  18.682  24.740  1.00  0.00     0.015 A 
ATOM     23  C   UNL A   1      33.184  19.072  24.086  1.00  0.00     0.015 A 
ATOM     24  C   UNL A   1      34.214  18.154  24.366  1.00  0.00     0.056 A 
BRANCH  24  25
ATOM     25  C   UNL A   1      34.113  16.654  24.279  1.00  0.00     0.416 C 
ATOM     26  F   UNL A   1      33.038  16.164  24.955  1.00  0.00    -0.166 F 
ATOM     27  F   UNL A   1      33.966  16.207  22.996  1.00  0.00    -0.166 F 
ATOM     28  F   UNL A   1      35.204  16.010  24.770  1.00  0.00    -0.166 F 
ENDBRANCH  24  25
ENDBRANCH  17  19
ENDBRANCH   8  15
ENDBRANCH   7   8
ENDBRANCH   6   7
ENDBRANCH   4   6
ENDBRANCH   3   4
ENDBRANCH   2   3
ENDBRANCH   1   2
BRANCH   1  29
ATOM     29  O   UNL A   1      32.782  30.312  27.058  1.00  0.00    -0.374 OA
BRANCH  29  30
ATOM     30  C   UNL A   1      34.172  29.955  27.123  1.00  0.00     0.202 C 
BRANCH  30  31
ATOM     31  C   UNL A   1      35.018  30.289  28.374  1.00  0.00     0.261 C 
BRANCH  31  32
ATOM     32  O   UNL A   1      35.932  29.264  28.777  1.00  0.00    -0.460 OA
BRANCH  32  33
ATOM     33  C   UNL A   1      36.624  29.536  29.913  1.00  0.00     0.338 C 
ATOM     34  O   UNL A   1      36.200  29.500  31.039  1.00  0.00    -0.246 OA
BRANCH  33  35
ATOM     35  C   UNL A   1      38.064  29.569  29.551  1.00  0.00     0.060 A 
ATOM     36  C   UNL A   1      38.360  29.672  28.187  1.00  0.00     0.016 A 
ATOM     37  C   UNL A   1      39.087  29.595  30.506  1.00  0.00     0.016 A 
ATOM     38  C   UNL A   1      39.680  29.722  27.767  1.00  0.00     0.010 A 
ATOM     39  C   UNL A   1      40.418  29.607  30.084  1.00  0.00     0.010 A 
ATOM     40  C   UNL A   1      40.707  29.598  28.710  1.00  0.00    -0.014 A 
BRANCH  40  41
ATOM     41  C   UNL A   1      41.997  29.083  28.204  1.00  0.00     0.031 A 
ATOM     42  C   UNL A   1      43.142  30.061  28.153  1.00  0.00     0.074 A 
ATOM     43  C   UNL A   1      42.185  27.774  27.972  1.00  0.00     0.049 A 
ATOM     44  N   UNL A   1      44.402  29.853  27.889  1.00  0.00    -0.248 NA
ATOM     45  C   UNL A   1      42.821  31.467  28.464  1.00  0.00     0.031 C 
ATOM     46  C   UNL A   1      41.151  26.743  28.049  1.00  0.00     0.029 A 
ATOM     47  N   UNL A   1      43.325  27.086  27.651  1.00  0.00    -0.354 N 
ATOM     48  C   UNL A   1      45.022  31.091  28.022  1.00  0.00     0.074 A 
ATOM     49  C   UNL A   1      43.998  32.055  28.340  1.00  0.00     0.031 C 
ATOM     50  C   UNL A   1      41.708  25.548  27.782  1.00  0.00     0.029 A 
ATOM     51  C   UNL A   1      43.130  25.736  27.498  1.00  0.00     0.049 A 
ATOM     52  H   UNL A   1      44.202  27.520  27.539  1.00  0.00     0.167 HD
ATOM     53  C   UNL A   1      46.335  31.392  27.912  1.00  0.00     0.037 A 
ATOM     54  C   UNL A   1      44.006  24.771  27.153  1.00  0.00     0.037 A 
ATOM     55  C   UNL A   1      47.343  30.426  27.578  1.00  0.00     0.049 A 
ATOM     56  C   UNL A   1      45.454  25.148  26.953  1.00  0.00     0.074 A 
ATOM     57  C   UNL A   1      48.699  30.621  27.400  1.00  0.00     0.029 A 
ATOM     58  N   UNL A   1      47.098  29.076  27.368  1.00  0.00    -0.354 N 
ATOM     59  N   UNL A   1      46.027  26.323  27.078  1.00  0.00    -0.248 NA
ATOM     60  C   UNL A   1      46.375  24.068  26.579  1.00  0.00     0.031 C 
ATOM     61  C   UNL A   1      49.268  29.396  27.033  1.00  0.00     0.029 A 
ATOM     62  C   UNL A   1      48.275  28.428  27.042  1.00  0.00     0.049 A 
ATOM     63  H   UNL A   1      46.217  28.644  27.439  1.00  0.00     0.167 HD
ATOM     64  C   UNL A   1      47.379  26.120  26.813  1.00  0.00     0.074 A 
ATOM     65  C   UNL A   1      47.537  24.702  26.553  1.00  0.00     0.031 C 
ATOM     66  C   UNL A   1      48.398  27.016  26.779  1.00  0.00     0.037 A 
BRANCH  53  67
ATOM     67  C   UNL A   1      46.737  32.825  28.128  1.00  0.00     0.058 A 
ATOM     68  C   UNL A   1      46.657  33.779  27.099  1.00  0.00     0.135 A 
ATOM     69  C   UNL A   1      47.195  33.254  29.383  1.00  0.00     0.135 A 
ATOM     70  F   UNL A   1      46.260  33.415  25.869  1.00  0.00    -0.206 F 
ATOM     71  C   UNL A   1      47.028  35.103  27.304  1.00  0.00     0.059 A 
ATOM     72  C   UNL A   1      47.545  34.579  29.619  1.00  0.00     0.059 A 
ATOM     73  F   UNL A   1      47.309  32.380  30.395  1.00  0.00    -0.206 F 
ATOM     74  C   UNL A   1      47.466  35.495  28.570  1.00  0.00     0.060 A 
BRANCH  74  75
ATOM     75  S   UNL A   1      47.918  37.223  28.828  1.00  0.00     0.124 S 
ATOM     76  O   UNL A   1      47.453  37.447  30.193  1.00  0.00    -0.237 OA
ATOM     77  O   UNL A   1      49.365  37.196  28.647  1.00  0.00    -0.237 OA
ATOM     78  O   UNL A   1      47.173  37.929  27.790  1.00  0.00    -0.744 OA
ENDBRANCH  74  75
ENDBRANCH  53  67
BRANCH  54  79
ATOM     79  C   UNL A   1      43.537  23.374  26.942  1.00  0.00     0.058 A 
ATOM     80  C   UNL A   1      43.356  22.483  28.009  1.00  0.00     0.135 A 
ATOM     81  C   UNL A   1      43.279  22.896  25.647  1.00  0.00     0.135 A 
ATOM     82  F   UNL A   1      43.596  22.885  29.267  1.00  0.00    -0.206 F 
ATOM     83  C   UNL A   1      42.963  21.163  27.801  1.00  0.00     0.059 A 
ATOM     84  C   UNL A   1      42.855  21.592  25.414  1.00  0.00     0.059 A 
ATOM     85  F   UNL A   1      43.425  23.709  24.588  1.00  0.00    -0.206 F 
ATOM     86  C   UNL A   1      42.715  20.727  26.498  1.00  0.00     0.060 A 
BRANCH  86  87
ATOM     87  S   UNL A   1      42.179  19.022  26.236  1.00  0.00     0.124 S 
ATOM     88  O   UNL A   1      42.285  18.471  27.581  1.00  0.00    -0.237 OA
ATOM     89  O   UNL A   1      40.824  19.204  25.724  1.00  0.00    -0.237 OA
ATOM     90  O   UNL A   1      43.145  18.514  25.266  1.00  0.00    -0.744 OA
ENDBRANCH  86  87
ENDBRANCH  54  79
BRANCH  66  91
ATOM     91  C   UNL A   1      49.769  26.480  26.470  1.00  0.00     0.058 A 
ATOM     92  C   UNL A   1      50.249  26.397  25.153  1.00  0.00     0.135 A 
ATOM     93  C   UNL A   1      50.620  26.061  27.506  1.00  0.00     0.135 A 
ATOM     94  F   UNL A   1      49.477  26.788  24.127  1.00  0.00    -0.206 F 
ATOM     95  C   UNL A   1      51.502  25.867  24.870  1.00  0.00     0.059 A 
ATOM     96  C   UNL A   1      51.891  25.561  27.248  1.00  0.00     0.059 A 
ATOM     97  F   UNL A   1      50.219  26.139  28.784  1.00  0.00    -0.206 F 
ATOM     98  C   UNL A   1      52.314  25.445  25.925  1.00  0.00     0.060 A 
BRANCH  98  99
ATOM     99  S   UNL A   1      53.931  24.743  25.543  1.00  0.00     0.124 S 
ATOM    100  O   UNL A   1      53.566  23.415  25.061  1.00  0.00    -0.237 OA
ATOM    101  O   UNL A   1      54.444  25.666  24.535  1.00  0.00    -0.237 OA
ATOM    102  O   UNL A   1      54.627  24.776  26.826  1.00  0.00    -0.744 OA
ENDBRANCH  98  99
ENDBRANCH  66  91
ENDBRANCH  40  41
ENDBRANCH  33  35
ENDBRANCH  32  33
ENDBRANCH  31  32
ENDBRANCH  30  31
ENDBRANCH  29  30
ENDBRANCH   1  29
TORSDOF 23
ENDMDL
