MODEL 1
REMARK VINA RESULT:      -9.8      0.000      0.000
REMARK SMILES CC(=O)NCCc1c[nH]c2ccc(C(=O)OCCOCCOC(=O)c3ccc(-c4c5nc(c(-c6c(F)cc(S(=O)(=O)[O-])cc6F)c6ccc([nH]6)c(-c6c(F)cc(S(=O)(=O)[O-])cc6F)c6nc(c(-c7c(F)cc(S(=O)(=O)[O-])cc7F)c7ccc4[nH]7)C=C6)C=C5)cc3)cc12
REMARK SMILES IDX 19 1 18 2 17 3 16 4 14 5 15 6 13 7 7 8 8 9 92 10 9 11 10 12
REMARK SMILES IDX 91 13 11 15 12 16 6 17 5 18 4 19 1 20 2 21 3 22 20 24 21 25
REMARK SMILES IDX 22 26 23 27 24 28 25 29 26 30 90 31 27 32 89 33 28 34 29 35
REMARK SMILES IDX 30 36 83 37 31 38 88 39 82 40 84 41 32 42 87 43 81 44 80 45
REMARK SMILES IDX 33 47 67 48 46 49 66 50 47 51 50 52 65 53 85 54 48 55 49 56
REMARK SMILES IDX 64 58 86 59 51 60 34 61 35 62 44 63 36 64 37 65 43 66 45 67
REMARK SMILES IDX 38 68 39 69 40 70 41 71 42 72 68 73 69 74 78 75 70 76 71 77
REMARK SMILES IDX 77 78 79 79 72 80 73 81 74 82 75 83 76 84 52 85 53 86 62 87
REMARK SMILES IDX 54 88 55 89 61 90 63 91 56 92 57 93 58 94 59 95 60 96
REMARK H PARENT 9 14 4 23 84 46 50 57
REMARK Flexibility Score: inf
ROOT
ATOM      1  O   UNL A   1      32.738  35.038  29.237  1.00  0.00    -0.374 OA
ENDROOT
BRANCH   1   2
ATOM      2  C   UNL A   1      32.907  36.153  30.111  1.00  0.00     0.202 C 
BRANCH   2   3
ATOM      3  C   UNL A   1      32.704  35.895  31.608  1.00  0.00     0.261 C 
BRANCH   3   4
ATOM      4  O   UNL A   1      33.501  34.797  32.075  1.00  0.00    -0.460 OA
BRANCH   4   5
ATOM      5  C   UNL A   1      34.639  35.159  32.713  1.00  0.00     0.338 C 
ATOM      6  O   UNL A   1      34.873  36.239  33.237  1.00  0.00    -0.246 OA
BRANCH   5   7
ATOM      7  C   UNL A   1      35.544  33.998  32.866  1.00  0.00     0.060 A 
ATOM      8  C   UNL A   1      39.075  33.172  34.074  1.00  0.00    -0.021 A 
ATOM      9  C   UNL A   1      39.500  31.869  33.908  1.00  0.00     0.087 A 
ATOM     10  C   UNL A   1      37.745  33.234  33.551  1.00  0.00     0.003 A 
ATOM     11  N   UNL A   1      38.473  31.143  33.364  1.00  0.00    -0.361 N 
ATOM     12  C   UNL A   1      37.374  31.947  33.165  1.00  0.00     0.046 A 
ATOM     13  C   UNL A   1      36.817  34.276  33.385  1.00  0.00     0.026 A 
ATOM     14  H   UNL A   1      38.515  30.183  33.148  1.00  0.00     0.166 HD
ATOM     15  C   UNL A   1      36.099  31.641  32.670  1.00  0.00     0.027 A 
ATOM     16  C   UNL A   1      35.178  32.691  32.536  1.00  0.00     0.018 A 
BRANCH   8  17
ATOM     17  C   UNL A   1      39.855  34.308  34.670  1.00  0.00     0.059 C 
BRANCH  17  18
ATOM     18  C   UNL A   1      39.863  34.308  36.205  1.00  0.00     0.120 C 
BRANCH  18  19
ATOM     19  N   UNL A   1      39.716  35.645  36.763  1.00  0.00    -0.356 N 
ATOM     20  C   UNL A   1      39.695  34.954  39.124  1.00  0.00     0.114 C 
ATOM     21  C   UNL A   1      39.648  36.023  38.070  1.00  0.00     0.216 C 
ATOM     22  O   UNL A   1      39.546  37.214  38.358  1.00  0.00    -0.275 OA
ATOM     23  H   UNL A   1      39.657  36.375  36.105  1.00  0.00     0.163 HD
ENDBRANCH  18  19
ENDBRANCH  17  18
ENDBRANCH   8  17
ENDBRANCH   5   7
ENDBRANCH   4   5
ENDBRANCH   3   4
ENDBRANCH   2   3
ENDBRANCH   1   2
BRANCH   1  24
ATOM     24  C   UNL A   1      33.900  34.545  28.568  1.00  0.00     0.202 C 
BRANCH  24  25
ATOM     25  C   UNL A   1      34.425  33.169  28.998  1.00  0.00     0.261 C 
BRANCH  25  26
ATOM     26  O   UNL A   1      34.901  32.393  27.883  1.00  0.00    -0.460 OA
BRANCH  26  27
ATOM     27  C   UNL A   1      34.658  31.064  27.962  1.00  0.00     0.338 C 
ATOM     28  O   UNL A   1      33.602  30.489  27.730  1.00  0.00    -0.246 OA
BRANCH  27  29
ATOM     29  C   UNL A   1      35.926  30.346  28.185  1.00  0.00     0.060 A 
ATOM     30  C   UNL A   1      36.156  29.787  29.450  1.00  0.00     0.016 A 
ATOM     31  C   UNL A   1      36.900  30.276  27.188  1.00  0.00     0.016 A 
ATOM     32  C   UNL A   1      37.382  29.191  29.739  1.00  0.00     0.010 A 
ATOM     33  C   UNL A   1      38.133  29.690  27.483  1.00  0.00     0.010 A 
ATOM     34  C   UNL A   1      38.391  29.177  28.768  1.00  0.00    -0.014 A 
BRANCH  34  35
ATOM     35  C   UNL A   1      39.777  28.790  29.122  1.00  0.00     0.031 A 
ATOM     36  C   UNL A   1      40.672  29.830  29.737  1.00  0.00     0.074 A 
ATOM     37  C   UNL A   1      40.241  27.554  28.865  1.00  0.00     0.049 A 
ATOM     38  N   UNL A   1      41.958  29.790  29.963  1.00  0.00    -0.248 NA
ATOM     39  C   UNL A   1      40.026  31.091  30.142  1.00  0.00     0.031 C 
ATOM     40  C   UNL A   1      39.453  26.450  28.324  1.00  0.00     0.029 A 
ATOM     41  N   UNL A   1      41.504  27.034  29.001  1.00  0.00    -0.354 N 
ATOM     42  C   UNL A   1      42.282  31.026  30.509  1.00  0.00     0.074 A 
ATOM     43  C   UNL A   1      41.061  31.799  30.567  1.00  0.00     0.031 C 
ATOM     44  C   UNL A   1      40.257  25.387  28.145  1.00  0.00     0.029 A 
ATOM     45  C   UNL A   1      41.624  25.753  28.514  1.00  0.00     0.049 A 
ATOM     46  H   UNL A   1      42.251  27.530  29.407  1.00  0.00     0.167 HD
ATOM     47  C   UNL A   1      43.491  31.473  30.923  1.00  0.00     0.037 A 
ATOM     48  C   UNL A   1      42.718  24.984  28.350  1.00  0.00     0.037 A 
ATOM     49  C   UNL A   1      44.698  30.691  30.863  1.00  0.00     0.049 A 
ATOM     50  C   UNL A   1      44.067  25.525  28.754  1.00  0.00     0.074 A 
ATOM     51  C   UNL A   1      45.973  31.046  31.261  1.00  0.00     0.029 A 
ATOM     52  N   UNL A   1      44.777  29.397  30.368  1.00  0.00    -0.354 N 
ATOM     53  N   UNL A   1      44.365  26.696  29.266  1.00  0.00    -0.248 NA
ATOM     54  C   UNL A   1      45.227  24.644  28.559  1.00  0.00     0.031 C 
ATOM     55  C   UNL A   1      46.833  29.984  30.965  1.00  0.00     0.029 A 
ATOM     56  C   UNL A   1      46.082  28.945  30.436  1.00  0.00     0.049 A 
ATOM     57  H   UNL A   1      44.016  28.878  30.019  1.00  0.00     0.167 HD
ATOM     58  C   UNL A   1      45.738  26.674  29.494  1.00  0.00     0.074 A 
ATOM     59  C   UNL A   1      46.213  25.379  29.056  1.00  0.00     0.031 C 
ATOM     60  C   UNL A   1      46.531  27.637  30.025  1.00  0.00     0.037 A 
BRANCH  47  61
ATOM     61  C   UNL A   1      43.574  32.881  31.444  1.00  0.00     0.058 A 
ATOM     62  C   UNL A   1      43.351  33.186  32.796  1.00  0.00     0.135 A 
ATOM     63  C   UNL A   1      43.907  33.938  30.581  1.00  0.00     0.135 A 
ATOM     64  F   UNL A   1      43.010  32.217  33.661  1.00  0.00    -0.206 F 
ATOM     65  C   UNL A   1      43.429  34.492  33.269  1.00  0.00     0.059 A 
ATOM     66  C   UNL A   1      44.019  35.248  31.038  1.00  0.00     0.059 A 
ATOM     67  F   UNL A   1      44.126  33.703  29.278  1.00  0.00    -0.206 F 
ATOM     68  C   UNL A   1      43.764  35.517  32.381  1.00  0.00     0.060 A 
BRANCH  68  69
ATOM     69  S   UNL A   1      43.861  37.206  33.010  1.00  0.00     0.124 S 
ATOM     70  O   UNL A   1      45.156  37.192  33.684  1.00  0.00    -0.237 OA
ATOM     71  O   UNL A   1      43.793  37.999  31.786  1.00  0.00    -0.237 OA
ATOM     72  O   UNL A   1      42.699  37.310  33.887  1.00  0.00    -0.744 OA
ENDBRANCH  68  69
ENDBRANCH  47  61
BRANCH  48  73
ATOM     73  C   UNL A   1      42.588  23.626  27.758  1.00  0.00     0.058 A 
ATOM     74  C   UNL A   1      42.436  22.495  28.573  1.00  0.00     0.135 A 
ATOM     75  C   UNL A   1      42.608  23.430  26.369  1.00  0.00     0.135 A 
ATOM     76  F   UNL A   1      42.422  22.627  29.908  1.00  0.00    -0.206 F 
ATOM     77  C   UNL A   1      42.319  21.217  28.033  1.00  0.00     0.059 A 
ATOM     78  C   UNL A   1      42.467  22.167  25.804  1.00  0.00     0.059 A 
ATOM     79  F   UNL A   1      42.741  24.480  25.543  1.00  0.00    -0.206 F 
ATOM     80  C   UNL A   1      42.331  21.064  26.647  1.00  0.00     0.060 A 
BRANCH  80  81
ATOM     81  S   UNL A   1      42.128  19.407  25.956  1.00  0.00     0.124 S 
ATOM     82  O   UNL A   1      42.943  19.489  24.750  1.00  0.00    -0.237 OA
ATOM     83  O   UNL A   1      42.653  18.565  27.026  1.00  0.00    -0.237 OA
ATOM     84  O   UNL A   1      40.687  19.309  25.741  1.00  0.00    -0.744 OA
ENDBRANCH  80  81
ENDBRANCH  48  73
BRANCH  60  85
ATOM     85  C   UNL A   1      47.985  27.316  30.241  1.00  0.00     0.058 A 
ATOM     86  C   UNL A   1      48.962  27.602  29.277  1.00  0.00     0.135 A 
ATOM     87  C   UNL A   1      48.412  26.808  31.479  1.00  0.00     0.135 A 
ATOM     88  F   UNL A   1      48.606  28.083  28.076  1.00  0.00    -0.206 F 
ATOM     89  C   UNL A   1      50.314  27.394  29.533  1.00  0.00     0.059 A 
ATOM     90  C   UNL A   1      49.760  26.616  31.765  1.00  0.00     0.059 A 
ATOM     91  F   UNL A   1      47.517  26.525  32.440  1.00  0.00    -0.206 F 
ATOM     92  C   UNL A   1      50.704  26.910  30.784  1.00  0.00     0.060 A 
BRANCH  92  93
ATOM     93  S   UNL A   1      52.466  26.715  31.128  1.00  0.00     0.124 S 
ATOM     94  O   UNL A   1      52.495  25.413  31.786  1.00  0.00    -0.237 OA
ATOM     95  O   UNL A   1      53.051  26.763  29.791  1.00  0.00    -0.237 OA
ATOM     96  O   UNL A   1      52.774  27.858  31.982  1.00  0.00    -0.744 OA
ENDBRANCH  92  93
ENDBRANCH  60  85
ENDBRANCH  34  35
ENDBRANCH  27  29
ENDBRANCH  26  27
ENDBRANCH  25  26
ENDBRANCH  24  25
ENDBRANCH   1  24
TORSDOF 20
ENDMDL
MODEL 2
REMARK VINA RESULT:      -9.7      4.299     10.769
REMARK SMILES CC(=O)NCCc1c[nH]c2ccc(C(=O)OCCOCCOC(=O)c3ccc(-c4c5nc(c(-c6c(F)cc(S(=O)(=O)[O-])cc6F)c6ccc([nH]6)c(-c6c(F)cc(S(=O)(=O)[O-])cc6F)c6nc(c(-c7c(F)cc(S(=O)(=O)[O-])cc7F)c7ccc4[nH]7)C=C6)C=C5)cc3)cc12
REMARK SMILES IDX 19 1 18 2 17 3 16 4 14 5 15 6 13 7 7 8 8 9 92 10 9 11 10 12
REMARK SMILES IDX 91 13 11 15 12 16 6 17 5 18 4 19 1 20 2 21 3 22 20 24 21 25
REMARK SMILES IDX 22 26 23 27 24 28 25 29 26 30 90 31 27 32 89 33 28 34 29 35
REMARK SMILES IDX 30 36 83 37 31 38 88 39 82 40 84 41 32 42 87 43 81 44 80 45
REMARK SMILES IDX 33 47 67 48 46 49 66 50 47 51 50 52 65 53 85 54 48 55 49 56
REMARK SMILES IDX 64 58 86 59 51 60 34 61 35 62 44 63 36 64 37 65 43 66 45 67
REMARK SMILES IDX 38 68 39 69 40 70 41 71 42 72 68 73 69 74 78 75 70 76 71 77
REMARK SMILES IDX 77 78 79 79 72 80 73 81 74 82 75 83 76 84 52 85 53 86 62 87
REMARK SMILES IDX 54 88 55 89 61 90 63 91 56 92 57 93 58 94 59 95 60 96
REMARK H PARENT 9 14 4 23 84 46 50 57
REMARK Flexibility Score: inf
ROOT
ATOM      1  O   UNL A   1      35.293  33.210  28.901  1.00  0.00    -0.374 OA
ENDROOT
BRANCH   1   2
ATOM      2  C   UNL A   1      34.411  32.517  28.020  1.00  0.00     0.202 C 
BRANCH   2   3
ATOM      3  C   UNL A   1      34.424  30.986  28.090  1.00  0.00     0.261 C 
BRANCH   3   4
ATOM      4  O   UNL A   1      33.576  30.398  27.093  1.00  0.00    -0.460 OA
BRANCH   4   5
ATOM      5  C   UNL A   1      33.951  29.160  26.694  1.00  0.00     0.338 C 
ATOM      6  O   UNL A   1      35.037  28.629  26.879  1.00  0.00    -0.246 OA
BRANCH   5   7
ATOM      7  C   UNL A   1      32.797  28.420  26.137  1.00  0.00     0.060 A 
ATOM      8  C   UNL A   1      30.361  28.573  23.196  1.00  0.00    -0.021 A 
ATOM      9  C   UNL A   1      29.342  27.640  23.182  1.00  0.00     0.087 A 
ATOM     10  C   UNL A   1      31.127  28.319  24.377  1.00  0.00     0.003 A 
ATOM     11  N   UNL A   1      29.497  26.812  24.264  1.00  0.00    -0.361 N 
ATOM     12  C   UNL A   1      30.601  27.186  24.995  1.00  0.00     0.046 A 
ATOM     13  C   UNL A   1      32.233  28.951  24.967  1.00  0.00     0.026 A 
ATOM     14  H   UNL A   1      28.904  26.059  24.486  1.00  0.00     0.166 HD
ATOM     15  C   UNL A   1      31.164  26.622  26.149  1.00  0.00     0.027 A 
ATOM     16  C   UNL A   1      32.285  27.252  26.708  1.00  0.00     0.018 A 
BRANCH   8  17
ATOM     17  C   UNL A   1      30.610  29.652  22.183  1.00  0.00     0.059 C 
BRANCH  17  18
ATOM     18  C   UNL A   1      29.324  30.247  21.591  1.00  0.00     0.120 C 
BRANCH  18  19
ATOM     19  N   UNL A   1      29.238  31.688  21.781  1.00  0.00    -0.356 N 
ATOM     20  C   UNL A   1      27.606  31.623  23.621  1.00  0.00     0.114 C 
ATOM     21  C   UNL A   1      28.499  32.389  22.685  1.00  0.00     0.216 C 
ATOM     22  O   UNL A   1      28.570  33.616  22.717  1.00  0.00    -0.275 OA
ATOM     23  H   UNL A   1      29.790  32.230  21.172  1.00  0.00     0.163 HD
ENDBRANCH  18  19
ENDBRANCH  17  18
ENDBRANCH   8  17
ENDBRANCH   5   7
ENDBRANCH   4   5
ENDBRANCH   3   4
ENDBRANCH   2   3
ENDBRANCH   1   2
BRANCH   1  24
ATOM     24  C   UNL A   1      34.862  33.393  30.252  1.00  0.00     0.202 C 
BRANCH  24  25
ATOM     25  C   UNL A   1      35.926  33.262  31.349  1.00  0.00     0.261 C 
BRANCH  25  26
ATOM     26  O   UNL A   1      37.101  32.568  30.891  1.00  0.00    -0.460 OA
BRANCH  26  27
ATOM     27  C   UNL A   1      37.166  31.259  31.231  1.00  0.00     0.338 C 
ATOM     28  O   UNL A   1      36.324  30.610  31.839  1.00  0.00    -0.246 OA
BRANCH  27  29
ATOM     29  C   UNL A   1      38.337  30.642  30.585  1.00  0.00     0.060 A 
ATOM     30  C   UNL A   1      39.376  30.176  31.403  1.00  0.00     0.016 A 
ATOM     31  C   UNL A   1      38.444  30.578  29.195  1.00  0.00     0.016 A 
ATOM     32  C   UNL A   1      40.547  29.681  30.835  1.00  0.00     0.010 A 
ATOM     33  C   UNL A   1      39.624  30.093  28.626  1.00  0.00     0.010 A 
ATOM     34  C   UNL A   1      40.692  29.676  29.443  1.00  0.00    -0.014 A 
BRANCH  34  35
ATOM     35  C   UNL A   1      42.009  29.403  28.819  1.00  0.00     0.031 A 
ATOM     36  C   UNL A   1      42.294  28.007  28.339  1.00  0.00     0.074 A 
ATOM     37  C   UNL A   1      42.944  30.365  28.720  1.00  0.00     0.049 A 
ATOM     38  N   UNL A   1      43.420  27.483  27.932  1.00  0.00    -0.248 NA
ATOM     39  C   UNL A   1      41.154  27.075  28.327  1.00  0.00     0.031 C 
ATOM     40  C   UNL A   1      42.762  31.764  29.099  1.00  0.00     0.029 A 
ATOM     41  N   UNL A   1      44.246  30.296  28.293  1.00  0.00    -0.354 N 
ATOM     42  C   UNL A   1      43.132  26.154  27.643  1.00  0.00     0.074 A 
ATOM     43  C   UNL A   1      41.731  25.949  27.935  1.00  0.00     0.031 C 
ATOM     44  C   UNL A   1      43.922  32.419  28.917  1.00  0.00     0.029 A 
ATOM     45  C   UNL A   1      44.937  31.474  28.453  1.00  0.00     0.049 A 
ATOM     46  H   UNL A   1      44.647  29.482  27.910  1.00  0.00     0.167 HD
ATOM     47  C   UNL A   1      43.966  25.195  27.176  1.00  0.00     0.037 A 
ATOM     48  C   UNL A   1      46.247  31.745  28.282  1.00  0.00     0.037 A 
ATOM     49  C   UNL A   1      45.358  25.415  26.887  1.00  0.00     0.049 A 
ATOM     50  C   UNL A   1      47.173  30.645  27.827  1.00  0.00     0.074 A 
ATOM     51  C   UNL A   1      46.289  24.513  26.406  1.00  0.00     0.029 A 
ATOM     52  N   UNL A   1      46.019  26.623  27.057  1.00  0.00    -0.354 N 
ATOM     53  N   UNL A   1      46.895  29.391  27.559  1.00  0.00    -0.248 NA
ATOM     54  C   UNL A   1      48.590  30.994  27.651  1.00  0.00     0.031 C 
ATOM     55  C   UNL A   1      47.525  25.163  26.328  1.00  0.00     0.029 A 
ATOM     56  C   UNL A   1      47.350  26.486  26.705  1.00  0.00     0.049 A 
ATOM     57  H   UNL A   1      45.602  27.454  27.381  1.00  0.00     0.167 HD
ATOM     58  C   UNL A   1      48.091  28.814  27.142  1.00  0.00     0.074 A 
ATOM     59  C   UNL A   1      49.097  29.854  27.202  1.00  0.00     0.031 C 
ATOM     60  C   UNL A   1      48.331  27.542  26.739  1.00  0.00     0.037 A 
BRANCH  47  61
ATOM     61  C   UNL A   1      43.402  23.814  26.984  1.00  0.00     0.058 A 
ATOM     62  C   UNL A   1      43.066  23.320  25.714  1.00  0.00     0.135 A 
ATOM     63  C   UNL A   1      43.221  22.962  28.087  1.00  0.00     0.135 A 
ATOM     64  F   UNL A   1      43.201  24.098  24.628  1.00  0.00    -0.206 F 
ATOM     65  C   UNL A   1      42.545  22.041  25.546  1.00  0.00     0.059 A 
ATOM     66  C   UNL A   1      42.728  21.669  27.939  1.00  0.00     0.059 A 
ATOM     67  F   UNL A   1      43.522  23.386  29.324  1.00  0.00    -0.206 F 
ATOM     68  C   UNL A   1      42.379  21.223  26.666  1.00  0.00     0.060 A 
BRANCH  68  69
ATOM     69  S   UNL A   1      41.702  19.567  26.432  1.00  0.00     0.124 S 
ATOM     70  O   UNL A   1      42.131  18.900  27.657  1.00  0.00    -0.237 OA
ATOM     71  O   UNL A   1      40.269  19.828  26.321  1.00  0.00    -0.237 OA
ATOM     72  O   UNL A   1      42.348  19.105  25.207  1.00  0.00    -0.744 OA
ENDBRANCH  68  69
ENDBRANCH  47  61
BRANCH  48  73
ATOM     73  C   UNL A   1      46.765  33.111  28.560  1.00  0.00     0.058 A 
ATOM     74  C   UNL A   1      47.280  33.446  29.821  1.00  0.00     0.135 A 
ATOM     75  C   UNL A   1      46.761  34.107  27.572  1.00  0.00     0.135 A 
ATOM     76  F   UNL A   1      47.295  32.532  30.803  1.00  0.00    -0.206 F 
ATOM     77  C   UNL A   1      47.762  34.722  30.096  1.00  0.00     0.059 A 
ATOM     78  C   UNL A   1      47.261  35.383  27.814  1.00  0.00     0.059 A 
ATOM     79  F   UNL A   1      46.288  33.837  26.345  1.00  0.00    -0.206 F 
ATOM     80  C   UNL A   1      47.752  35.682  29.085  1.00  0.00     0.060 A 
BRANCH  80  81
ATOM     81  S   UNL A   1      48.427  37.320  29.439  1.00  0.00     0.124 S 
ATOM     82  O   UNL A   1      48.854  37.755  28.115  1.00  0.00    -0.237 OA
ATOM     83  O   UNL A   1      47.269  38.013  29.997  1.00  0.00    -0.237 OA
ATOM     84  O   UNL A   1      49.500  37.041  30.390  1.00  0.00    -0.744 OA
ENDBRANCH  80  81
ENDBRANCH  48  73
BRANCH  60  85
ATOM     85  C   UNL A   1      49.715  27.205  26.255  1.00  0.00     0.058 A 
ATOM     86  C   UNL A   1      50.728  26.785  27.128  1.00  0.00     0.135 A 
ATOM     87  C   UNL A   1      49.991  27.203  24.877  1.00  0.00     0.135 A 
ATOM     88  F   UNL A   1      50.517  26.774  28.453  1.00  0.00    -0.206 F 
ATOM     89  C   UNL A   1      51.971  26.377  26.652  1.00  0.00     0.059 A 
ATOM     90  C   UNL A   1      51.218  26.776  24.378  1.00  0.00     0.059 A 
ATOM     91  F   UNL A   1      49.052  27.588  23.997  1.00  0.00    -0.206 F 
ATOM     92  C   UNL A   1      52.203  26.367  25.274  1.00  0.00     0.060 A 
BRANCH  92  93
ATOM     93  S   UNL A   1      53.794  25.765  24.667  1.00  0.00     0.124 S 
ATOM     94  O   UNL A   1      53.610  24.320  24.744  1.00  0.00    -0.237 OA
ATOM     95  O   UNL A   1      53.846  26.328  23.320  1.00  0.00    -0.237 OA
ATOM     96  O   UNL A   1      54.753  26.328  25.612  1.00  0.00    -0.744 OA
ENDBRANCH  92  93
ENDBRANCH  60  85
ENDBRANCH  34  35
ENDBRANCH  27  29
ENDBRANCH  26  27
ENDBRANCH  25  26
ENDBRANCH  24  25
ENDBRANCH   1  24
TORSDOF 20
ENDMDL
MODEL 3
REMARK VINA RESULT:      -9.6      5.119     11.776
REMARK SMILES CC(=O)NCCc1c[nH]c2ccc(C(=O)OCCOCCOC(=O)c3ccc(-c4c5nc(c(-c6c(F)cc(S(=O)(=O)[O-])cc6F)c6ccc([nH]6)c(-c6c(F)cc(S(=O)(=O)[O-])cc6F)c6nc(c(-c7c(F)cc(S(=O)(=O)[O-])cc7F)c7ccc4[nH]7)C=C6)C=C5)cc3)cc12
REMARK SMILES IDX 19 1 18 2 17 3 16 4 14 5 15 6 13 7 7 8 8 9 92 10 9 11 10 12
REMARK SMILES IDX 91 13 11 15 12 16 6 17 5 18 4 19 1 20 2 21 3 22 20 24 21 25
REMARK SMILES IDX 22 26 23 27 24 28 25 29 26 30 90 31 27 32 89 33 28 34 29 35
REMARK SMILES IDX 30 36 83 37 31 38 88 39 82 40 84 41 32 42 87 43 81 44 80 45
REMARK SMILES IDX 33 47 67 48 46 49 66 50 47 51 50 52 65 53 85 54 48 55 49 56
REMARK SMILES IDX 64 58 86 59 51 60 34 61 35 62 44 63 36 64 37 65 43 66 45 67
REMARK SMILES IDX 38 68 39 69 40 70 41 71 42 72 68 73 69 74 78 75 70 76 71 77
REMARK SMILES IDX 77 78 79 79 72 80 73 81 74 82 75 83 76 84 52 85 53 86 62 87
REMARK SMILES IDX 54 88 55 89 61 90 63 91 56 92 57 93 58 94 59 95 60 96
REMARK H PARENT 9 14 4 23 84 46 50 57
REMARK Flexibility Score: inf
ROOT
ATOM      1  O   UNL A   1      34.108  30.214  27.147  1.00  0.00    -0.374 OA
ENDROOT
BRANCH   1   2
ATOM      2  C   UNL A   1      34.401  28.948  26.561  1.00  0.00     0.202 C 
BRANCH   2   3
ATOM      3  C   UNL A   1      33.272  27.912  26.550  1.00  0.00     0.261 C 
BRANCH   3   4
ATOM      4  O   UNL A   1      33.744  26.611  26.170  1.00  0.00    -0.460 OA
BRANCH   4   5
ATOM      5  C   UNL A   1      33.481  26.270  24.886  1.00  0.00     0.338 C 
ATOM      6  O   UNL A   1      34.275  25.828  24.068  1.00  0.00    -0.246 OA
BRANCH   5   7
ATOM      7  C   UNL A   1      32.027  26.330  24.618  1.00  0.00     0.060 A 
ATOM      8  C   UNL A   1      29.467  28.525  22.818  1.00  0.00    -0.021 A 
ATOM      9  C   UNL A   1      28.139  28.173  22.956  1.00  0.00     0.087 A 
ATOM     10  C   UNL A   1      30.220  27.572  23.573  1.00  0.00     0.003 A 
ATOM     11  N   UNL A   1      28.069  27.030  23.709  1.00  0.00    -0.361 N 
ATOM     12  C   UNL A   1      29.331  26.621  24.072  1.00  0.00     0.046 A 
ATOM     13  C   UNL A   1      31.586  27.428  23.864  1.00  0.00     0.026 A 
ATOM     14  H   UNL A   1      27.235  26.566  23.953  1.00  0.00     0.166 HD
ATOM     15  C   UNL A   1      29.751  25.502  24.805  1.00  0.00     0.027 A 
ATOM     16  C   UNL A   1      31.123  25.362  25.062  1.00  0.00     0.018 A 
BRANCH   8  17
ATOM     17  C   UNL A   1      30.017  29.687  22.043  1.00  0.00     0.059 C 
BRANCH  17  18
ATOM     18  C   UNL A   1      28.943  30.491  21.297  1.00  0.00     0.120 C 
BRANCH  18  19
ATOM     19  N   UNL A   1      28.966  31.905  21.640  1.00  0.00    -0.356 N 
ATOM     20  C   UNL A   1      27.610  31.711  23.684  1.00  0.00     0.114 C 
ATOM     21  C   UNL A   1      28.402  32.535  22.709  1.00  0.00     0.216 C 
ATOM     22  O   UNL A   1      28.546  33.747  22.852  1.00  0.00    -0.275 OA
ATOM     23  H   UNL A   1      29.455  32.486  21.014  1.00  0.00     0.163 HD
ENDBRANCH  18  19
ENDBRANCH  17  18
ENDBRANCH   8  17
ENDBRANCH   5   7
ENDBRANCH   4   5
ENDBRANCH   3   4
ENDBRANCH   2   3
ENDBRANCH   1   2
BRANCH   1  24
ATOM     24  C   UNL A   1      32.733  30.592  27.243  1.00  0.00     0.202 C 
BRANCH  24  25
ATOM     25  C   UNL A   1      32.398  32.076  27.043  1.00  0.00     0.261 C 
BRANCH  25  26
ATOM     26  O   UNL A   1      33.546  32.924  27.234  1.00  0.00    -0.460 OA
BRANCH  26  27
ATOM     27  C   UNL A   1      33.433  33.827  28.236  1.00  0.00     0.338 C 
ATOM     28  O   UNL A   1      32.493  34.583  28.449  1.00  0.00    -0.246 OA
BRANCH  27  29
ATOM     29  C   UNL A   1      34.544  33.646  29.188  1.00  0.00     0.060 A 
ATOM     30  C   UNL A   1      35.792  34.193  28.859  1.00  0.00     0.016 A 
ATOM     31  C   UNL A   1      34.380  32.897  30.354  1.00  0.00     0.016 A 
ATOM     32  C   UNL A   1      36.896  33.958  29.676  1.00  0.00     0.010 A 
ATOM     33  C   UNL A   1      35.489  32.652  31.164  1.00  0.00     0.010 A 
ATOM     34  C   UNL A   1      36.757  33.151  30.812  1.00  0.00    -0.014 A 
BRANCH  34  35
ATOM     35  C   UNL A   1      37.949  32.672  31.550  1.00  0.00     0.031 A 
ATOM     36  C   UNL A   1      38.695  31.485  31.006  1.00  0.00     0.074 A 
ATOM     37  C   UNL A   1      38.335  33.253  32.700  1.00  0.00     0.049 A 
ATOM     38  N   UNL A   1      39.643  30.776  31.558  1.00  0.00    -0.248 NA
ATOM     39  C   UNL A   1      38.307  31.031  29.660  1.00  0.00     0.031 C 
ATOM     40  C   UNL A   1      37.726  34.440  33.294  1.00  0.00     0.029 A 
ATOM     41  N   UNL A   1      39.320  32.898  33.588  1.00  0.00    -0.354 N 
ATOM     42  C   UNL A   1      39.947  29.777  30.641  1.00  0.00     0.074 A 
ATOM     43  C   UNL A   1      39.073  29.962  29.504  1.00  0.00     0.031 C 
ATOM     44  C   UNL A   1      38.331  34.701  34.466  1.00  0.00     0.029 A 
ATOM     45  C   UNL A   1      39.337  33.671  34.725  1.00  0.00     0.049 A 
ATOM     46  H   UNL A   1      39.953  32.161  33.426  1.00  0.00     0.167 HD
ATOM     47  C   UNL A   1      40.873  28.795  30.742  1.00  0.00     0.037 A 
ATOM     48  C   UNL A   1      40.054  33.536  35.858  1.00  0.00     0.037 A 
ATOM     49  C   UNL A   1      41.739  28.624  31.878  1.00  0.00     0.049 A 
ATOM     50  C   UNL A   1      41.032  32.395  35.979  1.00  0.00     0.074 A 
ATOM     51  C   UNL A   1      42.715  27.666  32.080  1.00  0.00     0.029 A 
ATOM     52  N   UNL A   1      41.729  29.430  33.008  1.00  0.00    -0.354 N 
ATOM     53  N   UNL A   1      41.311  31.452  35.109  1.00  0.00    -0.248 NA
ATOM     54  C   UNL A   1      41.793  32.296  37.233  1.00  0.00     0.031 C 
ATOM     55  C   UNL A   1      43.264  27.864  33.350  1.00  0.00     0.029 A 
ATOM     56  C   UNL A   1      42.671  28.982  33.916  1.00  0.00     0.049 A 
ATOM     57  H   UNL A   1      41.138  30.206  33.142  1.00  0.00     0.167 HD
ATOM     58  C   UNL A   1      42.309  30.676  35.694  1.00  0.00     0.074 A 
ATOM     59  C   UNL A   1      42.578  31.254  36.994  1.00  0.00     0.031 C 
ATOM     60  C   UNL A   1      42.948  29.591  35.194  1.00  0.00     0.037 A 
BRANCH  47  61
ATOM     61  C   UNL A   1      40.972  27.809  29.610  1.00  0.00     0.058 A 
ATOM     62  C   UNL A   1      42.028  27.843  28.687  1.00  0.00     0.135 A 
ATOM     63  C   UNL A   1      40.007  26.798  29.464  1.00  0.00     0.135 A 
ATOM     64  F   UNL A   1      42.966  28.800  28.768  1.00  0.00    -0.206 F 
ATOM     65  C   UNL A   1      42.111  26.928  27.643  1.00  0.00     0.059 A 
ATOM     66  C   UNL A   1      40.086  25.854  28.445  1.00  0.00     0.059 A 
ATOM     67  F   UNL A   1      38.974  26.722  30.317  1.00  0.00    -0.206 F 
ATOM     68  C   UNL A   1      41.134  25.936  27.530  1.00  0.00     0.060 A 
BRANCH  68  69
ATOM     69  S   UNL A   1      41.255  24.756  26.170  1.00  0.00     0.124 S 
ATOM     70  O   UNL A   1      40.183  23.822  26.499  1.00  0.00    -0.237 OA
ATOM     71  O   UNL A   1      41.023  25.601  25.002  1.00  0.00    -0.237 OA
ATOM     72  O   UNL A   1      42.610  24.227  26.298  1.00  0.00    -0.744 OA
ENDBRANCH  68  69
ENDBRANCH  47  61
BRANCH  48  73
ATOM     73  C   UNL A   1      39.861  34.496  36.977  1.00  0.00     0.058 A 
ATOM     74  C   UNL A   1      40.491  35.749  36.970  1.00  0.00     0.135 A 
ATOM     75  C   UNL A   1      39.040  34.185  38.072  1.00  0.00     0.135 A 
ATOM     76  F   UNL A   1      41.295  36.090  35.952  1.00  0.00    -0.206 F 
ATOM     77  C   UNL A   1      40.324  36.655  38.013  1.00  0.00     0.059 A 
ATOM     78  C   UNL A   1      38.837  35.084  39.114  1.00  0.00     0.059 A 
ATOM     79  F   UNL A   1      38.406  33.003  38.123  1.00  0.00    -0.206 F 
ATOM     80  C   UNL A   1      39.491  36.315  39.079  1.00  0.00     0.060 A 
BRANCH  80  81
ATOM     81  S   UNL A   1      39.242  37.519  40.403  1.00  0.00     0.124 S 
ATOM     82  O   UNL A   1      40.538  38.186  40.441  1.00  0.00    -0.237 OA
ATOM     83  O   UNL A   1      38.130  38.311  39.889  1.00  0.00    -0.237 OA
ATOM     84  O   UNL A   1      38.926  36.684  41.559  1.00  0.00    -0.744 OA
ENDBRANCH  80  81
ENDBRANCH  48  73
BRANCH  60  85
ATOM     85  C   UNL A   1      44.059  28.987  36.011  1.00  0.00     0.058 A 
ATOM     86  C   UNL A   1      43.853  27.880  36.845  1.00  0.00     0.135 A 
ATOM     87  C   UNL A   1      45.371  29.469  35.868  1.00  0.00     0.135 A 
ATOM     88  F   UNL A   1      42.617  27.386  37.020  1.00  0.00    -0.206 F 
ATOM     89  C   UNL A   1      44.910  27.270  37.513  1.00  0.00     0.059 A 
ATOM     90  C   UNL A   1      46.446  28.859  36.507  1.00  0.00     0.059 A 
ATOM     91  F   UNL A   1      45.624  30.522  35.074  1.00  0.00    -0.206 F 
ATOM     92  C   UNL A   1      46.206  27.761  37.330  1.00  0.00     0.060 A 
BRANCH  92  93
ATOM     93  S   UNL A   1      47.577  26.914  38.144  1.00  0.00     0.124 S 
ATOM     94  O   UNL A   1      47.465  25.570  37.588  1.00  0.00    -0.237 OA
ATOM     95  O   UNL A   1      48.731  27.692  37.699  1.00  0.00    -0.237 OA
ATOM     96  O   UNL A   1      47.257  27.036  39.563  1.00  0.00    -0.744 OA
ENDBRANCH  92  93
ENDBRANCH  60  85
ENDBRANCH  34  35
ENDBRANCH  27  29
ENDBRANCH  26  27
ENDBRANCH  25  26
ENDBRANCH  24  25
ENDBRANCH   1  24
TORSDOF 20
ENDMDL
