MODEL 1
REMARK VINA RESULT:     -11.1      0.000      0.000
REMARK SMILES COc1ccc2c(c1)[C@@](NC=O)(C(=O)OCCOCCOC(=O)c1ccc(-c3c4nc(c(-c5c(F)cc(S(=O)(=O)[O-])cc5F)c5ccc([nH]5)c(-c5c(F)cc(S(=O)(=O)[O-])cc5F)c5nc(c(-c6c(F)cc(S(=O)(=O)[O-])cc6F)c6ccc3[nH]6)C=C5)C=C4)cc1)CCC2
REMARK SMILES IDX 19 1 18 2 17 3 16 4 15 5 13 6 14 7 9 8 3 9 4 10 8 11 5 12
REMARK SMILES IDX 7 13 6 14 92 15 90 16 91 17 2 18 1 19 10 20 11 21 12 23
REMARK SMILES IDX 20 24 21 25 22 26 23 27 24 28 25 29 89 30 26 31 88 32 27 33
REMARK SMILES IDX 28 34 29 35 82 36 30 37 87 38 81 39 83 40 31 41 86 42 80 43
REMARK SMILES IDX 79 44 32 46 66 47 45 48 65 49 46 50 49 51 64 52 84 53 47 54
REMARK SMILES IDX 48 55 63 57 85 58 50 59 33 60 34 61 43 62 35 63 36 64 42 65
REMARK SMILES IDX 44 66 37 67 38 68 39 69 40 70 41 71 67 72 68 73 77 74 69 75
REMARK SMILES IDX 70 76 76 77 78 78 71 79 72 80 73 81 74 82 75 83 51 84 52 85
REMARK SMILES IDX 61 86 53 87 54 88 60 89 62 90 55 91 56 92 57 93 58 94 59 95
REMARK H PARENT 10 22 83 45 49 56
REMARK Flexibility Score: inf
ROOT
ATOM      1  C   UNL A   1      33.936  31.648  27.881  1.00  0.00     0.202 C 
ENDROOT
BRANCH   1   2
ATOM      2  O   UNL A   1      33.417  30.458  27.283  1.00  0.00    -0.374 OA
BRANCH   2   3
ATOM      3  C   UNL A   1      32.221  30.572  26.517  1.00  0.00     0.202 C 
BRANCH   3   4
ATOM      4  C   UNL A   1      31.869  29.431  25.556  1.00  0.00     0.261 C 
BRANCH   4   5
ATOM      5  O   UNL A   1      32.506  28.184  25.873  1.00  0.00    -0.461 OA
BRANCH   5   6
ATOM      6  C   UNL A   1      31.707  27.301  26.536  1.00  0.00     0.336 C 
ATOM      7  O   UNL A   1      31.313  27.497  27.686  1.00  0.00    -0.249 OA
BRANCH   6   8
ATOM      8  C   UNL A   1      31.491  25.940  25.783  1.00  0.00     0.164 C 
ATOM      9  C   UNL A   1      35.003  24.406  25.204  1.00  0.00     0.119 A 
ATOM     10  C   UNL A   1      34.957  24.077  23.857  1.00  0.00     0.047 A 
ATOM     11  C   UNL A   1      33.904  25.020  25.818  1.00  0.00     0.053 A 
ATOM     12  C   UNL A   1      33.801  24.319  23.128  1.00  0.00     0.008 A 
ATOM     13  C   UNL A   1      32.728  25.323  25.091  1.00  0.00    -0.004 A 
ATOM     14  C   UNL A   1      32.682  24.922  23.731  1.00  0.00    -0.042 A 
ATOM     15  C   UNL A   1      31.473  25.136  22.854  1.00  0.00     0.036 C 
ATOM     16  C   UNL A   1      30.377  26.295  24.750  1.00  0.00     0.046 C 
ATOM     17  C   UNL A   1      30.185  25.282  23.641  1.00  0.00     0.008 C 
BRANCH   9  18
ATOM     18  O   UNL A   1      36.191  24.152  25.834  1.00  0.00    -0.497 OA
ATOM     19  C   UNL A   1      37.121  23.427  25.033  1.00  0.00     0.278 C 
ENDBRANCH   9  18
BRANCH   8  20
ATOM     20  N   UNL A   1      30.968  25.013  26.803  1.00  0.00    -0.339 N 
ATOM     21  C   UNL A   1      30.517  23.748  26.596  1.00  0.00     0.338 C 
ATOM     22  H   UNL A   1      30.943  25.344  27.731  1.00  0.00     0.164 HD
ATOM     23  O   UNL A   1      30.019  23.071  27.483  1.00  0.00    -0.279 OA
ENDBRANCH   8  20
ENDBRANCH   6   8
ENDBRANCH   5   6
ENDBRANCH   4   5
ENDBRANCH   3   4
ENDBRANCH   2   3
ENDBRANCH   1   2
BRANCH   1  24
ATOM     24  C   UNL A   1      35.262  31.548  28.643  1.00  0.00     0.261 C 
BRANCH  24  25
ATOM     25  O   UNL A   1      35.704  30.185  28.777  1.00  0.00    -0.460 OA
BRANCH  25  26
ATOM     26  C   UNL A   1      36.418  29.922  29.896  1.00  0.00     0.338 C 
ATOM     27  O   UNL A   1      35.979  29.623  30.999  1.00  0.00    -0.246 OA
BRANCH  26  28
ATOM     28  C   UNL A   1      37.851  29.833  29.564  1.00  0.00     0.060 A 
ATOM     29  C   UNL A   1      38.198  29.726  28.210  1.00  0.00     0.016 A 
ATOM     30  C   UNL A   1      38.832  29.785  30.556  1.00  0.00     0.016 A 
ATOM     31  C   UNL A   1      39.525  29.517  27.845  1.00  0.00     0.010 A 
ATOM     32  C   UNL A   1      40.163  29.562  30.187  1.00  0.00     0.010 A 
ATOM     33  C   UNL A   1      40.509  29.391  28.834  1.00  0.00    -0.014 A 
BRANCH  33  34
ATOM     34  C   UNL A   1      41.865  28.927  28.456  1.00  0.00     0.031 A 
ATOM     35  C   UNL A   1      42.992  29.924  28.425  1.00  0.00     0.074 A 
ATOM     36  C   UNL A   1      42.098  27.631  28.179  1.00  0.00     0.049 A 
ATOM     37  N   UNL A   1      44.243  29.751  28.092  1.00  0.00    -0.248 NA
ATOM     38  C   UNL A   1      42.659  31.302  28.823  1.00  0.00     0.031 C 
ATOM     39  C   UNL A   1      41.097  26.566  28.222  1.00  0.00     0.029 A 
ATOM     40  N   UNL A   1      43.252  26.994  27.802  1.00  0.00    -0.354 N 
ATOM     41  C   UNL A   1      44.849  30.994  28.236  1.00  0.00     0.074 A 
ATOM     42  C   UNL A   1      43.821  31.919  28.659  1.00  0.00     0.031 C 
ATOM     43  C   UNL A   1      41.681  25.406  27.875  1.00  0.00     0.029 A 
ATOM     44  C   UNL A   1      43.086  25.653  27.555  1.00  0.00     0.049 A 
ATOM     45  H   UNL A   1      44.119  27.454  27.716  1.00  0.00     0.167 HD
ATOM     46  C   UNL A   1      46.146  31.331  28.043  1.00  0.00     0.037 A 
ATOM     47  C   UNL A   1      43.965  24.735  27.103  1.00  0.00     0.037 A 
ATOM     48  C   UNL A   1      47.166  30.406  27.621  1.00  0.00     0.049 A 
ATOM     49  C   UNL A   1      45.387  25.148  26.826  1.00  0.00     0.074 A 
ATOM     50  C   UNL A   1      48.511  30.646  27.403  1.00  0.00     0.029 A 
ATOM     51  N   UNL A   1      46.952  29.063  27.348  1.00  0.00    -0.354 N 
ATOM     52  N   UNL A   1      45.948  26.325  26.975  1.00  0.00    -0.248 NA
ATOM     53  C   UNL A   1      46.294  24.109  26.319  1.00  0.00     0.031 C 
ATOM     54  C   UNL A   1      49.101  29.460  26.956  1.00  0.00     0.029 A 
ATOM     55  C   UNL A   1      48.134  28.466  26.943  1.00  0.00     0.049 A 
ATOM     56  H   UNL A   1      46.086  28.600  27.431  1.00  0.00     0.167 HD
ATOM     57  C   UNL A   1      47.280  26.161  26.609  1.00  0.00     0.074 A 
ATOM     58  C   UNL A   1      47.442  24.770  26.238  1.00  0.00     0.031 C 
ATOM     59  C   UNL A   1      48.280  27.078  26.585  1.00  0.00     0.037 A 
BRANCH  46  60
ATOM     60  C   UNL A   1      46.532  32.766  28.265  1.00  0.00     0.058 A 
ATOM     61  C   UNL A   1      46.993  33.224  29.510  1.00  0.00     0.135 A 
ATOM     62  C   UNL A   1      46.466  33.693  27.210  1.00  0.00     0.135 A 
ATOM     63  F   UNL A   1      47.058  32.386  30.556  1.00  0.00    -0.206 F 
ATOM     64  C   UNL A   1      47.352  34.553  29.708  1.00  0.00     0.059 A 
ATOM     65  C   UNL A   1      46.844  35.021  27.380  1.00  0.00     0.059 A 
ATOM     66  F   UNL A   1      46.029  33.309  26.001  1.00  0.00    -0.206 F 
ATOM     67  C   UNL A   1      47.272  35.445  28.637  1.00  0.00     0.060 A 
BRANCH  67  68
ATOM     68  S   UNL A   1      47.745  37.166  28.910  1.00  0.00     0.124 S 
ATOM     69  O   UNL A   1      46.472  37.756  29.314  1.00  0.00    -0.237 OA
ATOM     70  O   UNL A   1      48.751  37.052  29.959  1.00  0.00    -0.237 OA
ATOM     71  O   UNL A   1      48.247  37.591  27.607  1.00  0.00    -0.744 OA
ENDBRANCH  67  68
ENDBRANCH  46  60
BRANCH  47  72
ATOM     72  C   UNL A   1      43.522  23.333  26.877  1.00  0.00     0.058 A 
ATOM     73  C   UNL A   1      43.331  22.835  25.581  1.00  0.00     0.135 A 
ATOM     74  C   UNL A   1      43.282  22.465  27.953  1.00  0.00     0.135 A 
ATOM     75  F   UNL A   1      43.536  23.630  24.519  1.00  0.00    -0.206 F 
ATOM     76  C   UNL A   1      42.905  21.529  25.357  1.00  0.00     0.059 A 
ATOM     77  C   UNL A   1      42.880  21.148  27.756  1.00  0.00     0.059 A 
ATOM     78  F   UNL A   1      43.461  22.891  29.214  1.00  0.00    -0.206 F 
ATOM     79  C   UNL A   1      42.684  20.691  26.453  1.00  0.00     0.060 A 
BRANCH  79  80
ATOM     80  S   UNL A   1      42.181  18.984  26.151  1.00  0.00     0.124 S 
ATOM     81  O   UNL A   1      43.082  18.599  25.071  1.00  0.00    -0.237 OA
ATOM     82  O   UNL A   1      42.432  18.357  27.445  1.00  0.00    -0.237 OA
ATOM     83  O   UNL A   1      40.774  19.109  25.787  1.00  0.00    -0.744 OA
ENDBRANCH  79  80
ENDBRANCH  47  72
BRANCH  59  84
ATOM     84  C   UNL A   1      49.648  26.602  26.179  1.00  0.00     0.058 A 
ATOM     85  C   UNL A   1      50.150  26.811  24.885  1.00  0.00     0.135 A 
ATOM     86  C   UNL A   1      50.489  25.979  27.115  1.00  0.00     0.135 A 
ATOM     87  F   UNL A   1      49.384  27.398  23.951  1.00  0.00    -0.206 F 
ATOM     88  C   UNL A   1      51.429  26.400  24.527  1.00  0.00     0.059 A 
ATOM     89  C   UNL A   1      51.781  25.582  26.787  1.00  0.00     0.059 A 
ATOM     90  F   UNL A   1      50.063  25.765  28.370  1.00  0.00    -0.206 F 
ATOM     91  C   UNL A   1      52.239  25.788  25.485  1.00  0.00     0.060 A 
BRANCH  91  92
ATOM     92  S   UNL A   1      53.911  25.289  25.019  1.00  0.00     0.124 S 
ATOM     93  O   UNL A   1      54.088  26.001  23.757  1.00  0.00    -0.237 OA
ATOM     94  O   UNL A   1      54.707  25.777  26.140  1.00  0.00    -0.237 OA
ATOM     95  O   UNL A   1      53.815  23.836  24.912  1.00  0.00    -0.744 OA
ENDBRANCH  91  92
ENDBRANCH  59  84
ENDBRANCH  33  34
ENDBRANCH  26  28
ENDBRANCH  25  26
ENDBRANCH  24  25
ENDBRANCH   1  24
TORSDOF 19
ENDMDL
MODEL 2
REMARK VINA RESULT:     -11.0      1.735      3.091
REMARK SMILES COc1ccc2c(c1)[C@@](NC=O)(C(=O)OCCOCCOC(=O)c1ccc(-c3c4nc(c(-c5c(F)cc(S(=O)(=O)[O-])cc5F)c5ccc([nH]5)c(-c5c(F)cc(S(=O)(=O)[O-])cc5F)c5nc(c(-c6c(F)cc(S(=O)(=O)[O-])cc6F)c6ccc3[nH]6)C=C5)C=C4)cc1)CCC2
REMARK SMILES IDX 19 1 18 2 17 3 16 4 15 5 13 6 14 7 9 8 3 9 4 10 8 11 5 12
REMARK SMILES IDX 7 13 6 14 92 15 90 16 91 17 2 18 1 19 10 20 11 21 12 23
REMARK SMILES IDX 20 24 21 25 22 26 23 27 24 28 25 29 89 30 26 31 88 32 27 33
REMARK SMILES IDX 28 34 29 35 82 36 30 37 87 38 81 39 83 40 31 41 86 42 80 43
REMARK SMILES IDX 79 44 32 46 66 47 45 48 65 49 46 50 49 51 64 52 84 53 47 54
REMARK SMILES IDX 48 55 63 57 85 58 50 59 33 60 34 61 43 62 35 63 36 64 42 65
REMARK SMILES IDX 44 66 37 67 38 68 39 69 40 70 41 71 67 72 68 73 77 74 69 75
REMARK SMILES IDX 70 76 76 77 78 78 71 79 72 80 73 81 74 82 75 83 51 84 52 85
REMARK SMILES IDX 61 86 53 87 54 88 60 89 62 90 55 91 56 92 57 93 58 94 59 95
REMARK H PARENT 10 22 83 45 49 56
REMARK Flexibility Score: inf
ROOT
ATOM      1  C   UNL A   1      33.339  30.181  27.721  1.00  0.00     0.202 C 
ENDROOT
BRANCH   1   2
ATOM      2  O   UNL A   1      32.436  30.950  26.924  1.00  0.00    -0.374 OA
BRANCH   2   3
ATOM      3  C   UNL A   1      31.970  30.370  25.710  1.00  0.00     0.202 C 
BRANCH   3   4
ATOM      4  C   UNL A   1      31.696  28.862  25.690  1.00  0.00     0.261 C 
BRANCH   4   5
ATOM      5  O   UNL A   1      32.707  28.094  25.019  1.00  0.00    -0.461 OA
BRANCH   5   6
ATOM      6  C   UNL A   1      32.667  28.185  23.660  1.00  0.00     0.336 C 
ATOM      7  O   UNL A   1      33.436  28.902  23.020  1.00  0.00    -0.249 OA
BRANCH   6   8
ATOM      8  C   UNL A   1      31.446  27.449  23.003  1.00  0.00     0.164 C 
ATOM      9  C   UNL A   1      28.899  30.189  21.985  1.00  0.00     0.119 A 
ATOM     10  C   UNL A   1      27.714  29.691  22.506  1.00  0.00     0.047 A 
ATOM     11  C   UNL A   1      30.097  29.484  22.159  1.00  0.00     0.053 A 
ATOM     12  C   UNL A   1      27.711  28.469  23.165  1.00  0.00     0.008 A 
ATOM     13  C   UNL A   1      30.136  28.259  22.868  1.00  0.00    -0.004 A 
ATOM     14  C   UNL A   1      28.902  27.740  23.338  1.00  0.00    -0.042 A 
ATOM     15  C   UNL A   1      28.790  26.422  24.062  1.00  0.00     0.036 C 
ATOM     16  C   UNL A   1      31.255  26.209  23.930  1.00  0.00     0.046 C 
ATOM     17  C   UNL A   1      29.939  25.479  23.761  1.00  0.00     0.008 C 
BRANCH   9  18
ATOM     18  O   UNL A   1      28.809  31.409  21.372  1.00  0.00    -0.497 OA
ATOM     19  C   UNL A   1      28.706  32.501  22.282  1.00  0.00     0.278 C 
ENDBRANCH   9  18
BRANCH   8  20
ATOM     20  N   UNL A   1      31.919  27.027  21.671  1.00  0.00    -0.339 N 
ATOM     21  C   UNL A   1      32.635  25.910  21.380  1.00  0.00     0.338 C 
ATOM     22  H   UNL A   1      31.692  27.616  20.915  1.00  0.00     0.164 HD
ATOM     23  O   UNL A   1      33.063  25.673  20.260  1.00  0.00    -0.279 OA
ENDBRANCH   8  20
ENDBRANCH   6   8
ENDBRANCH   5   6
ENDBRANCH   4   5
ENDBRANCH   3   4
ENDBRANCH   2   3
ENDBRANCH   1   2
BRANCH   1  24
ATOM     24  C   UNL A   1      34.772  30.701  27.886  1.00  0.00     0.261 C 
BRANCH  24  25
ATOM     25  O   UNL A   1      35.692  29.645  28.222  1.00  0.00    -0.460 OA
BRANCH  25  26
ATOM     26  C   UNL A   1      36.370  29.825  29.379  1.00  0.00     0.338 C 
ATOM     27  O   UNL A   1      35.901  29.874  30.509  1.00  0.00    -0.246 OA
BRANCH  26  28
ATOM     28  C   UNL A   1      37.819  29.743  29.126  1.00  0.00     0.060 A 
ATOM     29  C   UNL A   1      38.241  29.668  27.792  1.00  0.00     0.016 A 
ATOM     30  C   UNL A   1      38.743  29.671  30.170  1.00  0.00     0.016 A 
ATOM     31  C   UNL A   1      39.587  29.467  27.496  1.00  0.00     0.010 A 
ATOM     32  C   UNL A   1      40.093  29.457  29.871  1.00  0.00     0.010 A 
ATOM     33  C   UNL A   1      40.515  29.319  28.536  1.00  0.00    -0.014 A 
BRANCH  33  34
ATOM     34  C   UNL A   1      41.890  28.863  28.224  1.00  0.00     0.031 A 
ATOM     35  C   UNL A   1      43.007  29.872  28.226  1.00  0.00     0.074 A 
ATOM     36  C   UNL A   1      42.148  27.566  27.977  1.00  0.00     0.049 A 
ATOM     37  N   UNL A   1      44.273  29.708  27.950  1.00  0.00    -0.248 NA
ATOM     38  C   UNL A   1      42.644  31.252  28.589  1.00  0.00     0.031 C 
ATOM     39  C   UNL A   1      41.156  26.491  27.993  1.00  0.00     0.029 A 
ATOM     40  N   UNL A   1      43.324  26.936  27.660  1.00  0.00    -0.354 N 
ATOM     41  C   UNL A   1      44.860  30.959  28.102  1.00  0.00     0.074 A 
ATOM     42  C   UNL A   1      43.805  31.879  28.466  1.00  0.00     0.031 C 
ATOM     43  C   UNL A   1      41.767  25.333  27.689  1.00  0.00     0.029 A 
ATOM     44  C   UNL A   1      43.182  25.590  27.426  1.00  0.00     0.049 A 
ATOM     45  H   UNL A   1      44.188  27.404  27.604  1.00  0.00     0.167 HD
ATOM     46  C   UNL A   1      46.161  31.307  27.959  1.00  0.00     0.037 A 
ATOM     47  C   UNL A   1      44.088  24.675  27.026  1.00  0.00     0.037 A 
ATOM     48  C   UNL A   1      47.207  30.386  27.596  1.00  0.00     0.049 A 
ATOM     49  C   UNL A   1      45.516  25.099  26.804  1.00  0.00     0.074 A 
ATOM     50  C   UNL A   1      48.558  30.638  27.432  1.00  0.00     0.029 A 
ATOM     51  N   UNL A   1      47.018  29.037  27.334  1.00  0.00    -0.354 N 
ATOM     52  N   UNL A   1      46.059  26.284  26.959  1.00  0.00    -0.248 NA
ATOM     53  C   UNL A   1      46.456  24.063  26.352  1.00  0.00     0.031 C 
ATOM     54  C   UNL A   1      49.178  29.451  27.028  1.00  0.00     0.029 A 
ATOM     55  C   UNL A   1      48.223  28.447  26.990  1.00  0.00     0.049 A 
ATOM     56  H   UNL A   1      46.154  28.567  27.387  1.00  0.00     0.167 HD
ATOM     57  C   UNL A   1      47.408  26.129  26.654  1.00  0.00     0.074 A 
ATOM     58  C   UNL A   1      47.599  24.734  26.310  1.00  0.00     0.031 C 
ATOM     59  C   UNL A   1      48.398  27.056  26.658  1.00  0.00     0.037 A 
BRANCH  46  60
ATOM     60  C   UNL A   1      46.522  32.749  28.176  1.00  0.00     0.058 A 
ATOM     61  C   UNL A   1      46.965  33.221  29.422  1.00  0.00     0.135 A 
ATOM     62  C   UNL A   1      46.452  33.668  27.115  1.00  0.00     0.135 A 
ATOM     63  F   UNL A   1      47.032  32.391  30.474  1.00  0.00    -0.206 F 
ATOM     64  C   UNL A   1      47.301  34.557  29.616  1.00  0.00     0.059 A 
ATOM     65  C   UNL A   1      46.807  35.003  27.280  1.00  0.00     0.059 A 
ATOM     66  F   UNL A   1      46.031  33.270  25.904  1.00  0.00    -0.206 F 
ATOM     67  C   UNL A   1      47.217  35.442  28.539  1.00  0.00     0.060 A 
BRANCH  67  68
ATOM     68  S   UNL A   1      47.660  37.171  28.805  1.00  0.00     0.124 S 
ATOM     69  O   UNL A   1      46.505  37.858  28.236  1.00  0.00    -0.237 OA
ATOM     70  O   UNL A   1      47.787  37.242  30.256  1.00  0.00    -0.237 OA
ATOM     71  O   UNL A   1      48.907  37.321  28.062  1.00  0.00    -0.744 OA
ENDBRANCH  67  68
ENDBRANCH  46  60
BRANCH  47  72
ATOM     72  C   UNL A   1      43.670  23.265  26.801  1.00  0.00     0.058 A 
ATOM     73  C   UNL A   1      43.342  22.427  27.876  1.00  0.00     0.135 A 
ATOM     74  C   UNL A   1      43.591  22.729  25.506  1.00  0.00     0.135 A 
ATOM     75  F   UNL A   1      43.413  22.889  29.134  1.00  0.00    -0.206 F 
ATOM     76  C   UNL A   1      42.962  21.103  27.678  1.00  0.00     0.059 A 
ATOM     77  C   UNL A   1      43.191  21.417  25.281  1.00  0.00     0.059 A 
ATOM     78  F   UNL A   1      43.886  23.494  24.443  1.00  0.00    -0.206 F 
ATOM     79  C   UNL A   1      42.887  20.607  26.374  1.00  0.00     0.060 A 
BRANCH  79  80
ATOM     80  S   UNL A   1      42.345  18.904  26.125  1.00  0.00     0.124 S 
ATOM     81  O   UNL A   1      43.289  18.439  25.115  1.00  0.00    -0.237 OA
ATOM     82  O   UNL A   1      42.504  18.332  27.459  1.00  0.00    -0.237 OA
ATOM     83  O   UNL A   1      40.964  19.054  25.678  1.00  0.00    -0.744 OA
ENDBRANCH  79  80
ENDBRANCH  47  72
BRANCH  59  84
ATOM     84  C   UNL A   1      49.787  26.589  26.319  1.00  0.00     0.058 A 
ATOM     85  C   UNL A   1      50.328  26.750  25.034  1.00  0.00     0.135 A 
ATOM     86  C   UNL A   1      50.607  26.024  27.309  1.00  0.00     0.135 A 
ATOM     87  F   UNL A   1      49.583  27.281  24.050  1.00  0.00    -0.206 F 
ATOM     88  C   UNL A   1      51.625  26.348  24.737  1.00  0.00     0.059 A 
ATOM     89  C   UNL A   1      51.917  25.638  27.041  1.00  0.00     0.059 A 
ATOM     90  F   UNL A   1      50.143  25.858  28.558  1.00  0.00    -0.206 F 
ATOM     91  C   UNL A   1      52.413  25.794  25.747  1.00  0.00     0.060 A 
BRANCH  91  92
ATOM     92  S   UNL A   1      54.109  25.307  25.358  1.00  0.00     0.124 S 
ATOM     93  O   UNL A   1      54.216  25.711  23.960  1.00  0.00    -0.237 OA
ATOM     94  O   UNL A   1      54.886  26.097  26.308  1.00  0.00    -0.237 OA
ATOM     95  O   UNL A   1      54.113  23.868  25.599  1.00  0.00    -0.744 OA
ENDBRANCH  91  92
ENDBRANCH  59  84
ENDBRANCH  33  34
ENDBRANCH  26  28
ENDBRANCH  25  26
ENDBRANCH  24  25
ENDBRANCH   1  24
TORSDOF 19
ENDMDL
MODEL 3
REMARK VINA RESULT:     -11.0      6.835     12.117
REMARK SMILES COc1ccc2c(c1)[C@@](NC=O)(C(=O)OCCOCCOC(=O)c1ccc(-c3c4nc(c(-c5c(F)cc(S(=O)(=O)[O-])cc5F)c5ccc([nH]5)c(-c5c(F)cc(S(=O)(=O)[O-])cc5F)c5nc(c(-c6c(F)cc(S(=O)(=O)[O-])cc6F)c6ccc3[nH]6)C=C5)C=C4)cc1)CCC2
REMARK SMILES IDX 19 1 18 2 17 3 16 4 15 5 13 6 14 7 9 8 3 9 4 10 8 11 5 12
REMARK SMILES IDX 7 13 6 14 92 15 90 16 91 17 2 18 1 19 10 20 11 21 12 23
REMARK SMILES IDX 20 24 21 25 22 26 23 27 24 28 25 29 89 30 26 31 88 32 27 33
REMARK SMILES IDX 28 34 29 35 82 36 30 37 87 38 81 39 83 40 31 41 86 42 80 43
REMARK SMILES IDX 79 44 32 46 66 47 45 48 65 49 46 50 49 51 64 52 84 53 47 54
REMARK SMILES IDX 48 55 63 57 85 58 50 59 33 60 34 61 43 62 35 63 36 64 42 65
REMARK SMILES IDX 44 66 37 67 38 68 39 69 40 70 41 71 67 72 68 73 77 74 69 75
REMARK SMILES IDX 70 76 76 77 78 78 71 79 72 80 73 81 74 82 75 83 51 84 52 85
REMARK SMILES IDX 61 86 53 87 54 88 60 89 62 90 55 91 56 92 57 93 58 94 59 95
REMARK H PARENT 10 22 83 45 49 56
REMARK Flexibility Score: inf
ROOT
ATOM      1  C   UNL A   1      40.390  21.678  26.218  1.00  0.00     0.202 C 
ENDROOT
BRANCH   1   2
ATOM      2  O   UNL A   1      38.978  21.788  26.410  1.00  0.00    -0.374 OA
BRANCH   2   3
ATOM      3  C   UNL A   1      38.131  21.275  25.387  1.00  0.00     0.202 C 
BRANCH   3   4
ATOM      4  C   UNL A   1      37.006  22.175  24.863  1.00  0.00     0.261 C 
BRANCH   4   5
ATOM      5  O   UNL A   1      35.732  21.521  24.768  1.00  0.00    -0.461 OA
BRANCH   5   6
ATOM      6  C   UNL A   1      34.760  22.074  25.548  1.00  0.00     0.336 C 
ATOM      7  O   UNL A   1      35.011  22.677  26.591  1.00  0.00    -0.249 OA
BRANCH   6   8
ATOM      8  C   UNL A   1      33.298  21.714  25.104  1.00  0.00     0.164 C 
ATOM      9  C   UNL A   1      33.107  17.848  24.894  1.00  0.00     0.119 A 
ATOM     10  C   UNL A   1      32.526  17.654  23.648  1.00  0.00     0.047 A 
ATOM     11  C   UNL A   1      33.372  19.144  25.353  1.00  0.00     0.053 A 
ATOM     12  C   UNL A   1      32.170  18.751  22.876  1.00  0.00     0.008 A 
ATOM     13  C   UNL A   1      33.065  20.282  24.569  1.00  0.00    -0.004 A 
ATOM     14  C   UNL A   1      32.417  20.060  23.327  1.00  0.00    -0.042 A 
ATOM     15  C   UNL A   1      31.987  21.183  22.415  1.00  0.00     0.036 C 
ATOM     16  C   UNL A   1      33.000  22.786  24.009  1.00  0.00     0.046 C 
ATOM     17  C   UNL A   1      31.792  22.498  23.143  1.00  0.00     0.008 C 
BRANCH   9  18
ATOM     18  O   UNL A   1      33.444  16.709  25.573  1.00  0.00    -0.497 OA
ATOM     19  C   UNL A   1      34.696  16.154  25.176  1.00  0.00     0.278 C 
ENDBRANCH   9  18
BRANCH   8  20
ATOM     20  N   UNL A   1      32.462  21.951  26.295  1.00  0.00    -0.339 N 
ATOM     21  C   UNL A   1      31.515  22.913  26.445  1.00  0.00     0.338 C 
ATOM     22  H   UNL A   1      32.605  21.349  27.062  1.00  0.00     0.164 HD
ATOM     23  O   UNL A   1      30.922  23.098  27.498  1.00  0.00    -0.279 OA
ENDBRANCH   8  20
ENDBRANCH   6   8
ENDBRANCH   5   6
ENDBRANCH   4   5
ENDBRANCH   3   4
ENDBRANCH   2   3
ENDBRANCH   1   2
BRANCH   1  24
ATOM     24  C   UNL A   1      41.249  22.920  26.484  1.00  0.00     0.261 C 
BRANCH  24  25
ATOM     25  O   UNL A   1      40.471  24.131  26.443  1.00  0.00    -0.460 OA
BRANCH  25  26
ATOM     26  C   UNL A   1      41.183  25.260  26.218  1.00  0.00     0.338 C 
ATOM     27  O   UNL A   1      41.570  25.686  25.138  1.00  0.00    -0.246 OA
BRANCH  26  28
ATOM     28  C   UNL A   1      41.260  26.054  27.456  1.00  0.00     0.060 A 
ATOM     29  C   UNL A   1      40.220  25.912  28.386  1.00  0.00     0.016 A 
ATOM     30  C   UNL A   1      42.290  26.972  27.676  1.00  0.00     0.016 A 
ATOM     31  C   UNL A   1      40.177  26.725  29.515  1.00  0.00     0.010 A 
ATOM     32  C   UNL A   1      42.237  27.796  28.806  1.00  0.00     0.010 A 
ATOM     33  C   UNL A   1      41.164  27.701  29.709  1.00  0.00    -0.014 A 
BRANCH  33  34
ATOM     34  C   UNL A   1      40.980  28.719  30.771  1.00  0.00     0.031 A 
ATOM     35  C   UNL A   1      41.895  28.694  31.966  1.00  0.00     0.074 A 
ATOM     36  C   UNL A   1      40.038  29.671  30.658  1.00  0.00     0.049 A 
ATOM     37  N   UNL A   1      41.897  29.459  33.025  1.00  0.00    -0.248 NA
ATOM     38  C   UNL A   1      42.950  27.667  31.963  1.00  0.00     0.031 C 
ATOM     39  C   UNL A   1      39.125  29.825  29.526  1.00  0.00     0.029 A 
ATOM     40  N   UNL A   1      39.691  30.688  31.511  1.00  0.00    -0.354 N 
ATOM     41  C   UNL A   1      42.947  29.008  33.817  1.00  0.00     0.074 A 
ATOM     42  C   UNL A   1      43.541  27.883  33.130  1.00  0.00     0.031 C 
ATOM     43  C   UNL A   1      38.314  30.871  29.760  1.00  0.00     0.029 A 
ATOM     44  C   UNL A   1      38.629  31.439  31.069  1.00  0.00     0.049 A 
ATOM     45  H   UNL A   1      40.158  30.862  32.360  1.00  0.00     0.167 HD
ATOM     46  C   UNL A   1      43.380  29.494  35.005  1.00  0.00     0.037 A 
ATOM     47  C   UNL A   1      37.975  32.457  31.665  1.00  0.00     0.037 A 
ATOM     48  C   UNL A   1      42.783  30.614  35.684  1.00  0.00     0.049 A 
ATOM     49  C   UNL A   1      38.430  32.935  33.019  1.00  0.00     0.074 A 
ATOM     50  C   UNL A   1      43.153  31.187  36.889  1.00  0.00     0.029 A 
ATOM     51  N   UNL A   1      41.688  31.328  35.222  1.00  0.00    -0.354 N 
ATOM     52  N   UNL A   1      39.429  32.505  33.753  1.00  0.00    -0.248 NA
ATOM     53  C   UNL A   1      37.669  34.035  33.627  1.00  0.00     0.031 C 
ATOM     54  C   UNL A   1      42.253  32.219  37.175  1.00  0.00     0.029 A 
ATOM     55  C   UNL A   1      41.354  32.323  36.125  1.00  0.00     0.049 A 
ATOM     56  H   UNL A   1      41.217  31.154  34.374  1.00  0.00     0.167 HD
ATOM     57  C   UNL A   1      39.435  33.301  34.894  1.00  0.00     0.074 A 
ATOM     58  C   UNL A   1      38.344  34.243  34.750  1.00  0.00     0.031 C 
ATOM     59  C   UNL A   1      40.269  33.258  35.964  1.00  0.00     0.037 A 
BRANCH  46  60
ATOM     60  C   UNL A   1      44.544  28.800  35.655  1.00  0.00     0.058 A 
ATOM     61  C   UNL A   1      45.870  29.189  35.405  1.00  0.00     0.135 A 
ATOM     62  C   UNL A   1      44.330  27.750  36.564  1.00  0.00     0.135 A 
ATOM     63  F   UNL A   1      46.132  30.173  34.531  1.00  0.00    -0.206 F 
ATOM     64  C   UNL A   1      46.943  28.545  36.013  1.00  0.00     0.059 A 
ATOM     65  C   UNL A   1      45.387  27.110  37.203  1.00  0.00     0.059 A 
ATOM     66  F   UNL A   1      43.083  27.337  36.836  1.00  0.00    -0.206 F 
ATOM     67  C   UNL A   1      46.692  27.505  36.909  1.00  0.00     0.060 A 
BRANCH  67  68
ATOM     68  S   UNL A   1      48.095  26.683  37.693  1.00  0.00     0.124 S 
ATOM     69  O   UNL A   1      47.463  26.084  38.865  1.00  0.00    -0.237 OA
ATOM     70  O   UNL A   1      48.527  25.749  36.659  1.00  0.00    -0.237 OA
ATOM     71  O   UNL A   1      49.019  27.778  37.970  1.00  0.00    -0.744 OA
ENDBRANCH  67  68
ENDBRANCH  46  60
BRANCH  47  72
ATOM     72  C   UNL A   1      36.813  33.090  30.987  1.00  0.00     0.058 A 
ATOM     73  C   UNL A   1      35.502  32.848  31.419  1.00  0.00     0.135 A 
ATOM     74  C   UNL A   1      36.992  33.951  29.891  1.00  0.00     0.135 A 
ATOM     75  F   UNL A   1      35.278  32.024  32.455  1.00  0.00    -0.206 F 
ATOM     76  C   UNL A   1      34.407  33.425  30.784  1.00  0.00     0.059 A 
ATOM     77  C   UNL A   1      35.915  34.559  29.255  1.00  0.00     0.059 A 
ATOM     78  F   UNL A   1      38.229  34.222  29.445  1.00  0.00    -0.206 F 
ATOM     79  C   UNL A   1      34.624  34.282  29.703  1.00  0.00     0.060 A 
BRANCH  79  80
ATOM     80  S   UNL A   1      33.199  35.066  28.918  1.00  0.00     0.124 S 
ATOM     81  O   UNL A   1      32.326  35.301  30.062  1.00  0.00    -0.237 OA
ATOM     82  O   UNL A   1      33.796  36.253  28.315  1.00  0.00    -0.237 OA
ATOM     83  O   UNL A   1      32.741  34.055  27.971  1.00  0.00    -0.744 OA
ENDBRANCH  79  80
ENDBRANCH  47  72
BRANCH  59  84
ATOM     84  C   UNL A   1      40.062  34.280  37.047  1.00  0.00     0.058 A 
ATOM     85  C   UNL A   1      40.607  35.570  36.960  1.00  0.00     0.135 A 
ATOM     86  C   UNL A   1      39.261  33.981  38.161  1.00  0.00     0.135 A 
ATOM     87  F   UNL A   1      41.384  35.906  35.917  1.00  0.00    -0.206 F 
ATOM     88  C   UNL A   1      40.382  36.522  37.949  1.00  0.00     0.059 A 
ATOM     89  C   UNL A   1      39.001  34.924  39.150  1.00  0.00     0.059 A 
ATOM     90  F   UNL A   1      38.706  32.765  38.288  1.00  0.00    -0.206 F 
ATOM     91  C   UNL A   1      39.576  36.191  39.040  1.00  0.00     0.060 A 
BRANCH  91  92
ATOM     92  S   UNL A   1      39.263  37.445  40.301  1.00  0.00     0.124 S 
ATOM     93  O   UNL A   1      40.601  37.989  40.512  1.00  0.00    -0.237 OA
ATOM     94  O   UNL A   1      38.317  38.331  39.632  1.00  0.00    -0.237 OA
ATOM     95  O   UNL A   1      38.714  36.678  41.415  1.00  0.00    -0.744 OA
ENDBRANCH  91  92
ENDBRANCH  59  84
ENDBRANCH  33  34
ENDBRANCH  26  28
ENDBRANCH  25  26
ENDBRANCH  24  25
ENDBRANCH   1  24
TORSDOF 19
ENDMDL
