MODEL 1
REMARK VINA RESULT:     -10.2      0.000      0.000
REMARK SMILES CCC(CC)([NH2+]Cc1ccc(Cl)cc1[N+](=O)[O-])C(=O)OCCOCCOC(=O)c1ccc(-c2c3nc(c(-c4c(F)cc(S(=O)(=O)[O-])cc4F)c4ccc([nH]4)c(-c4c(F)cc(S(=O)(=O)[O-])cc4F)c4nc(c(-c5c(F)cc(S(=O)(=O)[O-])cc5F)c5ccc2[nH]5)C=C4)C=C3)cc1
REMARK SMILES IDX 22 1 21 2 20 3 18 4 19 5 3 6 2 7 1 8 4 9 5 10 6 11 7 14 8 15
REMARK SMILES IDX 9 16 14 17 10 18 13 19 11 20 12 21 15 22 16 23 17 24 23 25
REMARK SMILES IDX 24 26 25 27 26 28 27 29 28 30 29 31 30 32 94 33 31 34 93 35
REMARK SMILES IDX 32 36 33 37 34 38 87 39 35 40 92 41 86 42 88 43 36 44 91 45
REMARK SMILES IDX 85 46 84 47 37 49 71 50 50 51 70 52 51 53 54 54 69 55 89 56
REMARK SMILES IDX 52 57 53 58 68 60 90 61 55 62 38 63 39 64 48 65 40 66 41 67
REMARK SMILES IDX 47 68 49 69 42 70 43 71 44 72 45 73 46 74 72 75 73 76 82 77
REMARK SMILES IDX 74 78 75 79 81 80 83 81 76 82 77 83 78 84 79 85 80 86 56 87
REMARK SMILES IDX 57 88 66 89 58 90 59 91 65 92 67 93 60 94 61 95 62 96 63 97
REMARK SMILES IDX 64 98
REMARK H PARENT 6 12 6 13 88 48 54 59
REMARK Flexibility Score: inf
ROOT
ATOM      1  C   UNL A   1      37.992  21.450  25.030  1.00  0.00     0.202 C 
ENDROOT
BRANCH   1   2
ATOM      2  C   UNL A   1      36.514  21.069  25.114  1.00  0.00     0.261 C 
BRANCH   2   3
ATOM      3  O   UNL A   1      35.687  22.208  24.813  1.00  0.00    -0.459 OA
BRANCH   3   4
ATOM      4  C   UNL A   1      34.707  22.482  25.700  1.00  0.00     0.368 C 
ATOM      5  O   UNL A   1      34.637  21.935  26.801  1.00  0.00    -0.245 OA
BRANCH   4   6
ATOM      6  C   UNL A   1      33.656  23.539  25.246  1.00  0.00     0.194 C 
BRANCH   6   7
ATOM      7  C   UNL A   1      32.380  22.751  24.774  1.00  0.00     0.077 C 
ATOM      8  C   UNL A   1      32.587  21.503  23.918  1.00  0.00     0.011 C 
ENDBRANCH   6   7
BRANCH   6   9
ATOM      9  C   UNL A   1      34.314  24.285  24.054  1.00  0.00     0.077 C 
ATOM     10  C   UNL A   1      33.361  24.960  23.072  1.00  0.00     0.011 C 
ENDBRANCH   6   9
BRANCH   6  11
ATOM     11  N   UNL A   1      33.067  24.462  26.267  1.00  0.00    -0.328 N 
ATOM     12  H   UNL A   1      33.571  25.340  26.143  1.00  0.00     0.347 HD
ATOM     13  H   UNL A   1      33.150  23.857  27.086  1.00  0.00     0.347 HD
BRANCH  11  14
ATOM     14  C   UNL A   1      31.668  24.856  26.426  1.00  0.00     0.305 C 
BRANCH  14  15
ATOM     15  C   UNL A   1      31.099  25.989  25.586  1.00  0.00     0.084 A 
ATOM     16  C   UNL A   1      30.166  25.735  24.572  1.00  0.00     0.018 A 
ATOM     17  C   UNL A   1      31.452  27.351  25.775  1.00  0.00     0.279 A 
ATOM     18  C   UNL A   1      29.791  26.704  23.639  1.00  0.00     0.021 A 
ATOM     19  C   UNL A   1      31.075  28.339  24.839  1.00  0.00     0.106 A 
ATOM     20  C   UNL A   1      30.284  27.993  23.751  1.00  0.00     0.047 A 
ATOM     21  Cl  UNL A   1      29.862  29.169  22.573  1.00  0.00    -0.084 Cl
BRANCH  17  22
ATOM     22  N   UNL A   1      32.101  27.839  27.010  1.00  0.00     0.063 N 
ATOM     23  O   UNL A   1      31.393  27.940  28.022  1.00  0.00    -0.258 OA
ATOM     24  O   UNL A   1      33.315  28.066  26.996  1.00  0.00    -0.258 OA
ENDBRANCH  17  22
ENDBRANCH  14  15
ENDBRANCH  11  14
ENDBRANCH   6  11
ENDBRANCH   4   6
ENDBRANCH   3   4
ENDBRANCH   2   3
ENDBRANCH   1   2
BRANCH   1  25
ATOM     25  O   UNL A   1      38.490  22.217  26.129  1.00  0.00    -0.374 OA
BRANCH  25  26
ATOM     26  C   UNL A   1      39.877  22.060  26.436  1.00  0.00     0.202 C 
BRANCH  26  27
ATOM     27  C   UNL A   1      40.369  22.735  27.719  1.00  0.00     0.261 C 
BRANCH  27  28
ATOM     28  O   UNL A   1      41.695  23.266  27.558  1.00  0.00    -0.460 OA
BRANCH  28  29
ATOM     29  C   UNL A   1      41.752  24.438  26.879  1.00  0.00     0.338 C 
ATOM     30  O   UNL A   1      41.977  24.585  25.691  1.00  0.00    -0.246 OA
BRANCH  29  31
ATOM     31  C   UNL A   1      41.300  25.548  27.744  1.00  0.00     0.060 A 
ATOM     32  C   UNL A   1      42.216  26.581  27.978  1.00  0.00     0.016 A 
ATOM     33  C   UNL A   1      40.042  25.566  28.350  1.00  0.00     0.016 A 
ATOM     34  C   UNL A   1      41.900  27.604  28.868  1.00  0.00     0.010 A 
ATOM     35  C   UNL A   1      39.727  26.594  29.247  1.00  0.00     0.010 A 
ATOM     36  C   UNL A   1      40.671  27.593  29.541  1.00  0.00    -0.014 A 
BRANCH  36  37
ATOM     37  C   UNL A   1      40.461  28.551  30.653  1.00  0.00     0.031 A 
ATOM     38  C   UNL A   1      41.332  28.446  31.877  1.00  0.00     0.074 A 
ATOM     39  C   UNL A   1      39.570  29.551  30.535  1.00  0.00     0.049 A 
ATOM     40  N   UNL A   1      41.369  29.214  32.935  1.00  0.00    -0.248 NA
ATOM     41  C   UNL A   1      42.294  27.331  31.910  1.00  0.00     0.031 C 
ATOM     42  C   UNL A   1      38.691  29.768  29.387  1.00  0.00     0.029 A 
ATOM     43  N   UNL A   1      39.262  30.576  31.394  1.00  0.00    -0.354 N 
ATOM     44  C   UNL A   1      42.363  28.687  33.751  1.00  0.00     0.074 A 
ATOM     45  C   UNL A   1      42.878  27.510  33.086  1.00  0.00     0.031 C 
ATOM     46  C   UNL A   1      37.937  30.859  29.614  1.00  0.00     0.029 A 
ATOM     47  C   UNL A   1      38.269  31.405  30.929  1.00  0.00     0.049 A 
ATOM     48  H   UNL A   1      39.710  30.707  32.260  1.00  0.00     0.167 HD
ATOM     49  C   UNL A   1      42.818  29.151  34.940  1.00  0.00     0.037 A 
ATOM     50  C   UNL A   1      37.687  32.475  31.506  1.00  0.00     0.037 A 
ATOM     51  C   UNL A   1      42.297  30.318  35.603  1.00  0.00     0.049 A 
ATOM     52  C   UNL A   1      38.174  32.939  32.856  1.00  0.00     0.074 A 
ATOM     53  C   UNL A   1      42.689  30.869  36.811  1.00  0.00     0.029 A 
ATOM     54  N   UNL A   1      41.270  31.113  35.117  1.00  0.00    -0.354 N 
ATOM     55  N   UNL A   1      39.131  32.442  33.603  1.00  0.00    -0.248 NA
ATOM     56  C   UNL A   1      37.508  34.114  33.433  1.00  0.00     0.031 C 
ATOM     57  C   UNL A   1      41.873  31.975  37.073  1.00  0.00     0.029 A 
ATOM     58  C   UNL A   1      41.003  32.140  36.008  1.00  0.00     0.049 A 
ATOM     59  H   UNL A   1      40.799  30.968  34.264  1.00  0.00     0.167 HD
ATOM     60  C   UNL A   1      39.193  33.256  34.731  1.00  0.00     0.074 A 
ATOM     61  C   UNL A   1      38.193  34.289  34.554  1.00  0.00     0.031 C 
ATOM     62  C   UNL A   1      40.001  33.158  35.816  1.00  0.00     0.037 A 
BRANCH  49  63
ATOM     63  C   UNL A   1      43.932  28.393  35.605  1.00  0.00     0.058 A 
ATOM     64  C   UNL A   1      43.673  27.359  36.519  1.00  0.00     0.135 A 
ATOM     65  C   UNL A   1      45.272  28.665  35.285  1.00  0.00     0.135 A 
ATOM     66  F   UNL A   1      42.410  27.074  36.874  1.00  0.00    -0.206 F 
ATOM     67  C   UNL A   1      44.702  26.626  37.099  1.00  0.00     0.059 A 
ATOM     68  C   UNL A   1      46.317  27.928  35.836  1.00  0.00     0.059 A 
ATOM     69  F   UNL A   1      45.575  29.647  34.422  1.00  0.00    -0.206 F 
ATOM     70  C   UNL A   1      46.022  26.916  36.747  1.00  0.00     0.060 A 
BRANCH  70  71
ATOM     71  S   UNL A   1      47.346  25.932  37.483  1.00  0.00     0.124 S 
ATOM     72  O   UNL A   1      47.711  26.748  38.636  1.00  0.00    -0.237 OA
ATOM     73  O   UNL A   1      46.669  24.674  37.786  1.00  0.00    -0.237 OA
ATOM     74  O   UNL A   1      48.346  25.860  36.423  1.00  0.00    -0.744 OA
ENDBRANCH  70  71
ENDBRANCH  49  63
BRANCH  50  75
ATOM     75  C   UNL A   1      36.566  33.175  30.825  1.00  0.00     0.058 A 
ATOM     76  C   UNL A   1      36.786  34.001  29.714  1.00  0.00     0.135 A 
ATOM     77  C   UNL A   1      35.249  33.049  31.295  1.00  0.00     0.135 A 
ATOM     78  F   UNL A   1      38.029  34.162  29.233  1.00  0.00    -0.206 F 
ATOM     79  C   UNL A   1      35.747  34.701  29.109  1.00  0.00     0.059 A 
ATOM     80  C   UNL A   1      34.189  33.717  30.690  1.00  0.00     0.059 A 
ATOM     81  F   UNL A   1      34.982  32.259  32.346  1.00  0.00    -0.206 F 
ATOM     82  C   UNL A   1      34.451  34.555  29.607  1.00  0.00     0.060 A 
BRANCH  82  83
ATOM     83  S   UNL A   1      33.101  35.444  28.802  1.00  0.00     0.124 S 
ATOM     84  O   UNL A   1      32.313  35.880  29.948  1.00  0.00    -0.237 OA
ATOM     85  O   UNL A   1      33.811  36.493  28.077  1.00  0.00    -0.237 OA
ATOM     86  O   UNL A   1      32.484  34.422  27.961  1.00  0.00    -0.744 OA
ENDBRANCH  82  83
ENDBRANCH  50  75
BRANCH  62  87
ATOM     87  C   UNL A   1      39.847  34.206  36.883  1.00  0.00     0.058 A 
ATOM     88  C   UNL A   1      40.466  35.461  36.775  1.00  0.00     0.135 A 
ATOM     89  C   UNL A   1      39.056  33.960  38.017  1.00  0.00     0.135 A 
ATOM     90  F   UNL A   1      41.235  35.746  35.712  1.00  0.00    -0.206 F 
ATOM     91  C   UNL A   1      40.341  36.421  37.774  1.00  0.00     0.059 A 
ATOM     92  C   UNL A   1      38.894  34.916  39.015  1.00  0.00     0.059 A 
ATOM     93  F   UNL A   1      38.429  32.782  38.162  1.00  0.00    -0.206 F 
ATOM     94  C   UNL A   1      39.558  36.137  38.894  1.00  0.00     0.060 A 
BRANCH  94  95
ATOM     95  S   UNL A   1      39.404  37.387  40.186  1.00  0.00     0.124 S 
ATOM     96  O   UNL A   1      40.785  37.836  40.326  1.00  0.00    -0.237 OA
ATOM     97  O   UNL A   1      38.483  38.349  39.586  1.00  0.00    -0.237 OA
ATOM     98  O   UNL A   1      38.868  36.639  41.320  1.00  0.00    -0.744 OA
ENDBRANCH  94  95
ENDBRANCH  62  87
ENDBRANCH  36  37
ENDBRANCH  29  31
ENDBRANCH  28  29
ENDBRANCH  27  28
ENDBRANCH  26  27
ENDBRANCH  25  26
ENDBRANCH   1  25
TORSDOF 23
ENDMDL
MODEL 2
REMARK VINA RESULT:     -10.1      1.556      8.382
REMARK SMILES CCC(CC)([NH2+]Cc1ccc(Cl)cc1[N+](=O)[O-])C(=O)OCCOCCOC(=O)c1ccc(-c2c3nc(c(-c4c(F)cc(S(=O)(=O)[O-])cc4F)c4ccc([nH]4)c(-c4c(F)cc(S(=O)(=O)[O-])cc4F)c4nc(c(-c5c(F)cc(S(=O)(=O)[O-])cc5F)c5ccc2[nH]5)C=C4)C=C3)cc1
REMARK SMILES IDX 22 1 21 2 20 3 18 4 19 5 3 6 2 7 1 8 4 9 5 10 6 11 7 14 8 15
REMARK SMILES IDX 9 16 14 17 10 18 13 19 11 20 12 21 15 22 16 23 17 24 23 25
REMARK SMILES IDX 24 26 25 27 26 28 27 29 28 30 29 31 30 32 94 33 31 34 93 35
REMARK SMILES IDX 32 36 33 37 34 38 87 39 35 40 92 41 86 42 88 43 36 44 91 45
REMARK SMILES IDX 85 46 84 47 37 49 71 50 50 51 70 52 51 53 54 54 69 55 89 56
REMARK SMILES IDX 52 57 53 58 68 60 90 61 55 62 38 63 39 64 48 65 40 66 41 67
REMARK SMILES IDX 47 68 49 69 42 70 43 71 44 72 45 73 46 74 72 75 73 76 82 77
REMARK SMILES IDX 74 78 75 79 81 80 83 81 76 82 77 83 78 84 79 85 80 86 56 87
REMARK SMILES IDX 57 88 66 89 58 90 59 91 65 92 67 93 60 94 61 95 62 96 63 97
REMARK SMILES IDX 64 98
REMARK H PARENT 6 12 6 13 88 48 54 59
REMARK Flexibility Score: inf
ROOT
ATOM      1  C   UNL A   1      39.755  22.651  26.546  1.00  0.00     0.202 C 
ENDROOT
BRANCH   1   2
ATOM      2  C   UNL A   1      38.666  21.800  25.891  1.00  0.00     0.261 C 
BRANCH   2   3
ATOM      3  O   UNL A   1      37.381  22.429  26.046  1.00  0.00    -0.459 OA
BRANCH   3   4
ATOM      4  C   UNL A   1      36.549  22.349  24.985  1.00  0.00     0.368 C 
ATOM      5  O   UNL A   1      36.957  22.268  23.827  1.00  0.00    -0.245 OA
BRANCH   4   6
ATOM      6  C   UNL A   1      35.026  22.368  25.315  1.00  0.00     0.194 C 
BRANCH   6   7
ATOM      7  C   UNL A   1      34.858  21.783  26.765  1.00  0.00     0.077 C 
ATOM      8  C   UNL A   1      33.781  22.391  27.661  1.00  0.00     0.011 C 
ENDBRANCH   6   7
BRANCH   6   9
ATOM      9  C   UNL A   1      34.367  21.434  24.265  1.00  0.00     0.077 C 
ATOM     10  C   UNL A   1      33.753  20.144  24.801  1.00  0.00     0.011 C 
ENDBRANCH   6   9
BRANCH   6  11
ATOM     11  N   UNL A   1      34.330  23.686  25.451  1.00  0.00    -0.328 N 
ATOM     12  H   UNL A   1      35.054  24.329  25.770  1.00  0.00     0.347 HD
ATOM     13  H   UNL A   1      33.535  23.383  26.015  1.00  0.00     0.347 HD
BRANCH  11  14
ATOM     14  C   UNL A   1      33.599  24.431  24.426  1.00  0.00     0.305 C 
BRANCH  14  15
ATOM     15  C   UNL A   1      33.317  25.913  24.620  1.00  0.00     0.084 A 
ATOM     16  C   UNL A   1      33.612  26.548  25.834  1.00  0.00     0.018 A 
ATOM     17  C   UNL A   1      32.764  26.739  23.608  1.00  0.00     0.279 A 
ATOM     18  C   UNL A   1      33.168  27.839  26.130  1.00  0.00     0.021 A 
ATOM     19  C   UNL A   1      32.315  28.046  23.897  1.00  0.00     0.106 A 
ATOM     20  C   UNL A   1      32.481  28.567  25.173  1.00  0.00     0.047 A 
ATOM     21  Cl  UNL A   1      31.892  30.133  25.558  1.00  0.00    -0.084 Cl
BRANCH  17  22
ATOM     22  N   UNL A   1      32.752  26.347  22.182  1.00  0.00     0.063 N 
ATOM     23  O   UNL A   1      31.678  25.946  21.712  1.00  0.00    -0.258 OA
ATOM     24  O   UNL A   1      33.782  26.491  21.515  1.00  0.00    -0.258 OA
ENDBRANCH  17  22
ENDBRANCH  14  15
ENDBRANCH  11  14
ENDBRANCH   6  11
ENDBRANCH   4   6
ENDBRANCH   3   4
ENDBRANCH   2   3
ENDBRANCH   1   2
BRANCH   1  25
ATOM     25  O   UNL A   1      40.385  22.065  27.688  1.00  0.00    -0.374 OA
BRANCH  25  26
ATOM     26  C   UNL A   1      41.777  21.764  27.561  1.00  0.00     0.202 C 
BRANCH  26  27
ATOM     27  C   UNL A   1      42.570  22.623  26.573  1.00  0.00     0.261 C 
BRANCH  27  28
ATOM     28  O   UNL A   1      43.090  23.805  27.205  1.00  0.00    -0.460 OA
BRANCH  28  29
ATOM     29  C   UNL A   1      42.781  24.963  26.570  1.00  0.00     0.338 C 
ATOM     30  O   UNL A   1      42.755  25.153  25.367  1.00  0.00    -0.246 OA
BRANCH  29  31
ATOM     31  C   UNL A   1      42.274  25.954  27.541  1.00  0.00     0.060 A 
ATOM     32  C   UNL A   1      42.952  27.177  27.610  1.00  0.00     0.016 A 
ATOM     33  C   UNL A   1      41.201  25.691  28.395  1.00  0.00     0.016 A 
ATOM     34  C   UNL A   1      42.599  28.116  28.575  1.00  0.00     0.010 A 
ATOM     35  C   UNL A   1      40.848  26.636  29.367  1.00  0.00     0.010 A 
ATOM     36  C   UNL A   1      41.574  27.833  29.487  1.00  0.00    -0.014 A 
BRANCH  36  37
ATOM     37  C   UNL A   1      41.383  28.739  30.646  1.00  0.00     0.031 A 
ATOM     38  C   UNL A   1      40.267  29.748  30.604  1.00  0.00     0.074 A 
ATOM     39  C   UNL A   1      42.138  28.603  31.751  1.00  0.00     0.049 A 
ATOM     40  N   UNL A   1      39.876  30.589  31.527  1.00  0.00    -0.248 NA
ATOM     41  C   UNL A   1      39.480  29.812  29.361  1.00  0.00     0.031 C 
ATOM     42  C   UNL A   1      43.230  27.644  31.916  1.00  0.00     0.029 A 
ATOM     43  N   UNL A   1      42.093  29.271  32.948  1.00  0.00    -0.354 N 
ATOM     44  C   UNL A   1      38.794  31.271  30.984  1.00  0.00     0.074 A 
ATOM     45  C   UNL A   1      38.613  30.775  29.637  1.00  0.00     0.031 C 
ATOM     46  C   UNL A   1      43.757  27.790  33.145  1.00  0.00     0.029 A 
ATOM     47  C   UNL A   1      43.051  28.861  33.845  1.00  0.00     0.049 A 
ATOM     48  H   UNL A   1      41.437  29.978  33.147  1.00  0.00     0.167 HD
ATOM     49  C   UNL A   1      38.011  32.214  31.560  1.00  0.00     0.037 A 
ATOM     50  C   UNL A   1      43.331  29.310  35.085  1.00  0.00     0.037 A 
ATOM     51  C   UNL A   1      38.199  32.712  32.899  1.00  0.00     0.049 A 
ATOM     52  C   UNL A   1      42.479  30.400  35.684  1.00  0.00     0.074 A 
ATOM     53  C   UNL A   1      37.460  33.667  33.574  1.00  0.00     0.029 A 
ATOM     54  N   UNL A   1      39.199  32.295  33.764  1.00  0.00    -0.354 N 
ATOM     55  N   UNL A   1      41.444  31.018  35.165  1.00  0.00    -0.248 NA
ATOM     56  C   UNL A   1      42.826  30.844  37.040  1.00  0.00     0.031 C 
ATOM     57  C   UNL A   1      38.037  33.856  34.835  1.00  0.00     0.029 A 
ATOM     58  C   UNL A   1      39.108  32.986  34.961  1.00  0.00     0.049 A 
ATOM     59  H   UNL A   1      39.876  31.609  33.558  1.00  0.00     0.167 HD
ATOM     60  C   UNL A   1      41.007  31.911  36.138  1.00  0.00     0.074 A 
ATOM     61  C   UNL A   1      41.875  31.734  37.285  1.00  0.00     0.031 C 
ATOM     62  C   UNL A   1      39.983  32.799  36.091  1.00  0.00     0.037 A 
BRANCH  49  63
ATOM     63  C   UNL A   1      36.879  32.776  30.746  1.00  0.00     0.058 A 
ATOM     64  C   UNL A   1      37.076  33.843  29.856  1.00  0.00     0.135 A 
ATOM     65  C   UNL A   1      35.597  32.206  30.814  1.00  0.00     0.135 A 
ATOM     66  F   UNL A   1      38.277  34.437  29.768  1.00  0.00    -0.206 F 
ATOM     67  C   UNL A   1      36.040  34.332  29.067  1.00  0.00     0.059 A 
ATOM     68  C   UNL A   1      34.552  32.664  30.018  1.00  0.00     0.059 A 
ATOM     69  F   UNL A   1      35.355  31.187  31.654  1.00  0.00    -0.206 F 
ATOM     70  C   UNL A   1      34.782  33.732  29.152  1.00  0.00     0.060 A 
BRANCH  70  71
ATOM     71  S   UNL A   1      33.456  34.356  28.096  1.00  0.00     0.124 S 
ATOM     72  O   UNL A   1      32.849  33.116  27.624  1.00  0.00    -0.237 OA
ATOM     73  O   UNL A   1      32.653  35.138  29.032  1.00  0.00    -0.237 OA
ATOM     74  O   UNL A   1      34.164  35.134  27.085  1.00  0.00    -0.744 OA
ENDBRANCH  70  71
ENDBRANCH  49  63
BRANCH  50  75
ATOM     75  C   UNL A   1      44.481  28.747  35.842  1.00  0.00     0.058 A 
ATOM     76  C   UNL A   1      45.778  29.254  35.686  1.00  0.00     0.135 A 
ATOM     77  C   UNL A   1      44.302  27.668  36.721  1.00  0.00     0.135 A 
ATOM     78  F   UNL A   1      46.002  30.279  34.850  1.00  0.00    -0.206 F 
ATOM     79  C   UNL A   1      46.864  28.693  36.351  1.00  0.00     0.059 A 
ATOM     80  C   UNL A   1      45.368  27.108  37.418  1.00  0.00     0.059 A 
ATOM     81  F   UNL A   1      43.078  27.154  36.917  1.00  0.00    -0.206 F 
ATOM     82  C   UNL A   1      46.649  27.617  37.213  1.00  0.00     0.060 A 
BRANCH  82  83
ATOM     83  S   UNL A   1      48.058  26.910  38.095  1.00  0.00     0.124 S 
ATOM     84  O   UNL A   1      48.978  26.628  37.000  1.00  0.00    -0.237 OA
ATOM     85  O   UNL A   1      48.441  27.999  38.987  1.00  0.00    -0.237 OA
ATOM     86  O   UNL A   1      47.484  25.742  38.757  1.00  0.00    -0.744 OA
ENDBRANCH  82  83
ENDBRANCH  50  75
BRANCH  62  87
ATOM     87  C   UNL A   1      39.738  33.630  37.319  1.00  0.00     0.058 A 
ATOM     88  C   UNL A   1      38.849  33.214  38.322  1.00  0.00     0.135 A 
ATOM     89  C   UNL A   1      40.413  34.847  37.504  1.00  0.00     0.135 A 
ATOM     90  F   UNL A   1      38.176  32.060  38.193  1.00  0.00    -0.206 F 
ATOM     91  C   UNL A   1      38.606  33.995  39.448  1.00  0.00     0.059 A 
ATOM     92  C   UNL A   1      40.206  35.631  38.636  1.00  0.00     0.059 A 
ATOM     93  F   UNL A   1      41.285  35.284  36.584  1.00  0.00    -0.206 F 
ATOM     94  C   UNL A   1      39.285  35.206  39.592  1.00  0.00     0.060 A 
BRANCH  94  95
ATOM     95  S   UNL A   1      38.962  36.214  41.054  1.00  0.00     0.124 S 
ATOM     96  O   UNL A   1      38.650  37.507  40.455  1.00  0.00    -0.237 OA
ATOM     97  O   UNL A   1      37.839  35.517  41.676  1.00  0.00    -0.237 OA
ATOM     98  O   UNL A   1      40.219  36.151  41.795  1.00  0.00    -0.744 OA
ENDBRANCH  94  95
ENDBRANCH  62  87
ENDBRANCH  36  37
ENDBRANCH  29  31
ENDBRANCH  28  29
ENDBRANCH  27  28
ENDBRANCH  26  27
ENDBRANCH  25  26
ENDBRANCH   1  25
TORSDOF 23
ENDMDL
MODEL 3
REMARK VINA RESULT:     -10.0      2.961      9.122
REMARK SMILES CCC(CC)([NH2+]Cc1ccc(Cl)cc1[N+](=O)[O-])C(=O)OCCOCCOC(=O)c1ccc(-c2c3nc(c(-c4c(F)cc(S(=O)(=O)[O-])cc4F)c4ccc([nH]4)c(-c4c(F)cc(S(=O)(=O)[O-])cc4F)c4nc(c(-c5c(F)cc(S(=O)(=O)[O-])cc5F)c5ccc2[nH]5)C=C4)C=C3)cc1
REMARK SMILES IDX 22 1 21 2 20 3 18 4 19 5 3 6 2 7 1 8 4 9 5 10 6 11 7 14 8 15
REMARK SMILES IDX 9 16 14 17 10 18 13 19 11 20 12 21 15 22 16 23 17 24 23 25
REMARK SMILES IDX 24 26 25 27 26 28 27 29 28 30 29 31 30 32 94 33 31 34 93 35
REMARK SMILES IDX 32 36 33 37 34 38 87 39 35 40 92 41 86 42 88 43 36 44 91 45
REMARK SMILES IDX 85 46 84 47 37 49 71 50 50 51 70 52 51 53 54 54 69 55 89 56
REMARK SMILES IDX 52 57 53 58 68 60 90 61 55 62 38 63 39 64 48 65 40 66 41 67
REMARK SMILES IDX 47 68 49 69 42 70 43 71 44 72 45 73 46 74 72 75 73 76 82 77
REMARK SMILES IDX 74 78 75 79 81 80 83 81 76 82 77 83 78 84 79 85 80 86 56 87
REMARK SMILES IDX 57 88 66 89 58 90 59 91 65 92 67 93 60 94 61 95 62 96 63 97
REMARK SMILES IDX 64 98
REMARK H PARENT 6 12 6 13 88 48 54 59
REMARK Flexibility Score: inf
ROOT
ATOM      1  C   UNL A   1      31.993  27.524  26.645  1.00  0.00     0.202 C 
ENDROOT
BRANCH   1   2
ATOM      2  C   UNL A   1      31.663  26.032  26.579  1.00  0.00     0.261 C 
BRANCH   2   3
ATOM      3  O   UNL A   1      32.823  25.281  26.177  1.00  0.00    -0.459 OA
BRANCH   3   4
ATOM      4  C   UNL A   1      32.724  23.938  26.277  1.00  0.00     0.368 C 
ATOM      5  O   UNL A   1      32.296  23.378  27.287  1.00  0.00    -0.245 OA
BRANCH   4   6
ATOM      6  C   UNL A   1      33.191  23.129  25.030  1.00  0.00     0.194 C 
BRANCH   6   7
ATOM      7  C   UNL A   1      33.272  21.619  25.461  1.00  0.00     0.077 C 
ATOM      8  C   UNL A   1      32.524  20.593  24.613  1.00  0.00     0.011 C 
ENDBRANCH   6   7
BRANCH   6   9
ATOM      9  C   UNL A   1      34.602  23.680  24.688  1.00  0.00     0.077 C 
ATOM     10  C   UNL A   1      35.583  22.687  24.072  1.00  0.00     0.011 C 
ENDBRANCH   6   9
BRANCH   6  11
ATOM     11  N   UNL A   1      32.286  23.044  23.841  1.00  0.00    -0.328 N 
ATOM     12  H   UNL A   1      31.350  22.952  24.234  1.00  0.00     0.347 HD
ATOM     13  H   UNL A   1      32.774  22.308  23.328  1.00  0.00     0.347 HD
BRANCH  11  14
ATOM     14  C   UNL A   1      32.137  24.008  22.750  1.00  0.00     0.305 C 
BRANCH  14  15
ATOM     15  C   UNL A   1      31.358  25.294  22.976  1.00  0.00     0.084 A 
ATOM     16  C   UNL A   1      30.169  25.294  23.717  1.00  0.00     0.018 A 
ATOM     17  C   UNL A   1      31.778  26.556  22.479  1.00  0.00     0.279 A 
ATOM     18  C   UNL A   1      29.314  26.398  23.759  1.00  0.00     0.021 A 
ATOM     19  C   UNL A   1      30.921  27.678  22.520  1.00  0.00     0.106 A 
ATOM     20  C   UNL A   1      29.675  27.573  23.121  1.00  0.00     0.047 A 
ATOM     21  Cl  UNL A   1      28.598  28.910  23.132  1.00  0.00    -0.084 Cl
BRANCH  17  22
ATOM     22  N   UNL A   1      33.162  26.809  22.025  1.00  0.00     0.063 N 
ATOM     23  O   UNL A   1      33.655  26.002  21.226  1.00  0.00    -0.258 OA
ATOM     24  O   UNL A   1      33.737  27.833  22.410  1.00  0.00    -0.258 OA
ENDBRANCH  17  22
ENDBRANCH  14  15
ENDBRANCH  11  14
ENDBRANCH   6  11
ENDBRANCH   4   6
ENDBRANCH   3   4
ENDBRANCH   2   3
ENDBRANCH   1   2
BRANCH   1  25
ATOM     25  O   UNL A   1      32.886  27.998  25.633  1.00  0.00    -0.374 OA
BRANCH  25  26
ATOM     26  C   UNL A   1      32.877  29.406  25.387  1.00  0.00     0.202 C 
BRANCH  26  27
ATOM     27  C   UNL A   1      32.365  30.291  26.526  1.00  0.00     0.261 C 
BRANCH  27  28
ATOM     28  O   UNL A   1      33.292  30.319  27.625  1.00  0.00    -0.460 OA
BRANCH  28  29
ATOM     29  C   UNL A   1      34.131  31.384  27.625  1.00  0.00     0.338 C 
ATOM     30  O   UNL A   1      33.823  32.558  27.512  1.00  0.00    -0.246 OA
BRANCH  29  31
ATOM     31  C   UNL A   1      35.498  30.954  27.984  1.00  0.00     0.060 A 
ATOM     32  C   UNL A   1      35.665  29.608  28.335  1.00  0.00     0.016 A 
ATOM     33  C   UNL A   1      36.579  31.836  28.026  1.00  0.00     0.016 A 
ATOM     34  C   UNL A   1      36.901  29.156  28.789  1.00  0.00     0.010 A 
ATOM     35  C   UNL A   1      37.821  31.380  28.486  1.00  0.00     0.010 A 
ATOM     36  C   UNL A   1      37.974  30.048  28.909  1.00  0.00    -0.014 A 
BRANCH  36  37
ATOM     37  C   UNL A   1      39.197  29.600  29.617  1.00  0.00     0.031 A 
ATOM     38  C   UNL A   1      39.571  30.265  30.915  1.00  0.00     0.074 A 
ATOM     39  C   UNL A   1      39.911  28.558  29.155  1.00  0.00     0.049 A 
ATOM     40  N   UNL A   1      40.554  29.990  31.733  1.00  0.00    -0.248 NA
ATOM     41  C   UNL A   1      38.720  31.384  31.354  1.00  0.00     0.031 C 
ATOM     42  C   UNL A   1      39.630  27.819  27.925  1.00  0.00     0.029 A 
ATOM     43  N   UNL A   1      41.019  27.937  29.674  1.00  0.00    -0.354 N 
ATOM     44  C   UNL A   1      40.433  30.889  32.786  1.00  0.00     0.074 A 
ATOM     45  C   UNL A   1      39.305  31.744  32.486  1.00  0.00     0.031 C 
ATOM     46  C   UNL A   1      40.546  26.846  27.780  1.00  0.00     0.029 A 
ATOM     47  C   UNL A   1      41.486  26.904  28.898  1.00  0.00     0.049 A 
ATOM     48  H   UNL A   1      41.440  28.205  30.522  1.00  0.00     0.167 HD
ATOM     49  C   UNL A   1      41.182  30.983  33.911  1.00  0.00     0.037 A 
ATOM     50  C   UNL A   1      42.559  26.104  29.066  1.00  0.00     0.037 A 
ATOM     51  C   UNL A   1      42.309  30.134  34.202  1.00  0.00     0.049 A 
ATOM     52  C   UNL A   1      43.410  26.265  30.300  1.00  0.00     0.074 A 
ATOM     53  C   UNL A   1      43.134  30.150  35.314  1.00  0.00     0.029 A 
ATOM     54  N   UNL A   1      42.772  29.120  33.377  1.00  0.00    -0.354 N 
ATOM     55  N   UNL A   1      43.268  27.105  31.298  1.00  0.00    -0.248 NA
ATOM     56  C   UNL A   1      44.561  25.362  30.434  1.00  0.00     0.031 C 
ATOM     57  C   UNL A   1      44.118  29.171  35.143  1.00  0.00     0.029 A 
ATOM     58  C   UNL A   1      43.880  28.515  33.946  1.00  0.00     0.049 A 
ATOM     59  H   UNL A   1      42.370  28.868  32.513  1.00  0.00     0.167 HD
ATOM     60  C   UNL A   1      44.300  26.819  32.186  1.00  0.00     0.074 A 
ATOM     61  C   UNL A   1      45.044  25.713  31.618  1.00  0.00     0.031 C 
ATOM     62  C   UNL A   1      44.609  27.417  33.363  1.00  0.00     0.037 A 
BRANCH  49  63
ATOM     63  C   UNL A   1      40.813  32.042  34.910  1.00  0.00     0.058 A 
ATOM     64  C   UNL A   1      39.929  31.776  35.967  1.00  0.00     0.135 A 
ATOM     65  C   UNL A   1      41.392  33.320  34.845  1.00  0.00     0.135 A 
ATOM     66  F   UNL A   1      39.332  30.577  36.064  1.00  0.00    -0.206 F 
ATOM     67  C   UNL A   1      39.624  32.742  36.920  1.00  0.00     0.059 A 
ATOM     68  C   UNL A   1      41.118  34.295  35.800  1.00  0.00     0.059 A 
ATOM     69  F   UNL A   1      42.239  33.628  33.851  1.00  0.00    -0.206 F 
ATOM     70  C   UNL A   1      40.227  33.998  36.831  1.00  0.00     0.060 A 
BRANCH  70  71
ATOM     71  S   UNL A   1      39.847  35.230  38.095  1.00  0.00     0.124 S 
ATOM     72  O   UNL A   1      41.052  35.188  38.917  1.00  0.00    -0.237 OA
ATOM     73  O   UNL A   1      39.662  36.443  37.304  1.00  0.00    -0.237 OA
ATOM     74  O   UNL A   1      38.639  34.708  38.726  1.00  0.00    -0.744 OA
ENDBRANCH  70  71
ENDBRANCH  49  63
BRANCH  50  75
ATOM     75  C   UNL A   1      42.905  25.089  28.035  1.00  0.00     0.058 A 
ATOM     76  C   UNL A   1      42.455  23.765  28.133  1.00  0.00     0.135 A 
ATOM     77  C   UNL A   1      43.718  25.424  26.943  1.00  0.00     0.135 A 
ATOM     78  F   UNL A   1      41.682  23.393  29.164  1.00  0.00    -0.206 F 
ATOM     79  C   UNL A   1      42.823  22.801  27.200  1.00  0.00     0.059 A 
ATOM     80  C   UNL A   1      44.077  24.484  25.982  1.00  0.00     0.059 A 
ATOM     81  F   UNL A   1      44.164  26.682  26.795  1.00  0.00    -0.206 F 
ATOM     82  C   UNL A   1      43.638  23.170  26.129  1.00  0.00     0.060 A 
BRANCH  82  83
ATOM     83  S   UNL A   1      44.090  21.921  24.905  1.00  0.00     0.124 S 
ATOM     84  O   UNL A   1      43.211  20.818  25.274  1.00  0.00    -0.237 OA
ATOM     85  O   UNL A   1      43.779  22.594  23.648  1.00  0.00    -0.237 OA
ATOM     86  O   UNL A   1      45.512  21.707  25.156  1.00  0.00    -0.744 OA
ENDBRANCH  82  83
ENDBRANCH  50  75
BRANCH  62  87
ATOM     87  C   UNL A   1      45.788  26.872  34.121  1.00  0.00     0.058 A 
ATOM     88  C   UNL A   1      47.082  27.381  33.932  1.00  0.00     0.135 A 
ATOM     89  C   UNL A   1      45.619  25.841  35.059  1.00  0.00     0.135 A 
ATOM     90  F   UNL A   1      47.298  28.365  33.045  1.00  0.00    -0.206 F 
ATOM     91  C   UNL A   1      48.175  26.860  34.618  1.00  0.00     0.059 A 
ATOM     92  C   UNL A   1      46.694  25.324  35.776  1.00  0.00     0.059 A 
ATOM     93  F   UNL A   1      44.401  25.328  35.290  1.00  0.00    -0.206 F 
ATOM     94  C   UNL A   1      47.972  25.827  35.533  1.00  0.00     0.060 A 
BRANCH  94  95
ATOM     95  S   UNL A   1      49.396  25.155  36.415  1.00  0.00     0.124 S 
ATOM     96  O   UNL A   1      50.496  25.891  35.801  1.00  0.00    -0.237 OA
ATOM     97  O   UNL A   1      49.100  25.501  37.803  1.00  0.00    -0.237 OA
ATOM     98  O   UNL A   1      49.344  23.729  36.108  1.00  0.00    -0.744 OA
ENDBRANCH  94  95
ENDBRANCH  62  87
ENDBRANCH  36  37
ENDBRANCH  29  31
ENDBRANCH  28  29
ENDBRANCH  27  28
ENDBRANCH  26  27
ENDBRANCH  25  26
ENDBRANCH   1  25
TORSDOF 23
ENDMDL
