MODEL 1
REMARK VINA RESULT:     -10.4      0.000      0.000
REMARK SMILES CC(C)[NH2+][C@](C)(C[N@@H+]1CCC(C)(C)C1)C(=O)OCCOCCOC(=O)c1ccc(-c2c3nc(c(-c4c(F)cc(S(=O)(=O)[O-])cc4F)c4ccc([nH]4)c(-c4c(F)cc(S(=O)(=O)[O-])cc4F)c4nc(c(-c5c(F)cc(S(=O)(=O)[O-])cc5F)c5ccc2[nH]5)C=C4)C=C3)cc1
REMARK SMILES IDX 21 1 20 2 19 3 18 4 17 5 15 6 16 7 5 8 6 9 4 10 2 13 1 14
REMARK SMILES IDX 3 15 7 16 8 17 9 18 14 19 10 21 11 22 12 23 13 24 22 25
REMARK SMILES IDX 23 26 24 27 25 28 26 29 27 30 91 31 28 32 90 33 29 34 30 35
REMARK SMILES IDX 31 36 84 37 32 38 89 39 83 40 85 41 33 42 88 43 82 44 81 45
REMARK SMILES IDX 34 47 68 48 47 49 67 50 48 51 51 52 66 53 86 54 49 55 50 56
REMARK SMILES IDX 65 58 87 59 52 60 35 61 36 62 45 63 37 64 38 65 44 66 46 67
REMARK SMILES IDX 39 68 40 69 41 70 42 71 43 72 69 73 70 74 79 75 71 76 72 77
REMARK SMILES IDX 78 78 80 79 73 80 74 81 75 82 76 83 77 84 53 85 54 86 63 87
REMARK SMILES IDX 55 88 56 89 62 90 64 91 57 92 58 93 59 94 60 95 61 96
REMARK H PARENT 4 11 4 12 8 20 85 46 51 57
REMARK Flexibility Score: inf
ROOT
ATOM      1  C   UNL A   1      40.444  22.026  26.742  1.00  0.00     0.202 C 
ENDROOT
BRANCH   1   2
ATOM      2  O   UNL A   1      39.627  21.516  25.698  1.00  0.00    -0.374 OA
BRANCH   2   3
ATOM      3  C   UNL A   1      38.212  21.565  25.876  1.00  0.00     0.202 C 
BRANCH   3   4
ATOM      4  C   UNL A   1      37.397  22.522  24.995  1.00  0.00     0.261 C 
BRANCH   4   5
ATOM      5  O   UNL A   1      36.007  22.673  25.349  1.00  0.00    -0.458 OA
BRANCH   5   6
ATOM      6  C   UNL A   1      35.130  22.509  24.317  1.00  0.00     0.373 C 
ATOM      7  O   UNL A   1      35.354  22.895  23.167  1.00  0.00    -0.244 OA
BRANCH   6   8
ATOM      8  C   UNL A   1      33.715  21.996  24.742  1.00  0.00     0.240 C 
ATOM      9  C   UNL A   1      32.941  21.797  23.421  1.00  0.00     0.099 C 
BRANCH   8  10
ATOM     10  N   UNL A   1      33.169  23.198  25.435  1.00  0.00    -0.326 N 
ATOM     11  H   UNL A   1      33.317  23.031  26.430  1.00  0.00     0.347 HD
ATOM     12  H   UNL A   1      33.665  23.942  24.944  1.00  0.00     0.347 HD
BRANCH  10  13
ATOM     13  C   UNL A   1      31.798  23.660  25.315  1.00  0.00     0.177 C 
ATOM     14  C   UNL A   1      30.997  22.849  26.351  1.00  0.00     0.075 C 
ATOM     15  C   UNL A   1      31.566  25.144  25.581  1.00  0.00     0.075 C 
ENDBRANCH  10  13
ENDBRANCH   8  10
BRANCH   8  16
ATOM     16  C   UNL A   1      33.768  20.669  25.596  1.00  0.00     0.343 C 
BRANCH  16  17
ATOM     17  N   UNL A   1      33.422  19.381  24.925  1.00  0.00    -0.329 N 
ATOM     18  C   UNL A   1      32.693  18.425  25.769  1.00  0.00     0.263 C 
ATOM     19  C   UNL A   1      34.629  18.610  24.534  1.00  0.00     0.269 C 
ATOM     20  H   UNL A   1      32.856  19.699  24.139  1.00  0.00     0.348 HD
ATOM     21  C   UNL A   1      32.724  17.166  24.913  1.00  0.00     0.073 C 
ATOM     22  C   UNL A   1      34.143  17.148  24.328  1.00  0.00     0.019 C 
ATOM     23  C   UNL A   1      35.030  16.153  25.092  1.00  0.00     0.017 C 
ATOM     24  C   UNL A   1      34.124  16.706  22.859  1.00  0.00     0.017 C 
ENDBRANCH  16  17
ENDBRANCH   8  16
ENDBRANCH   6   8
ENDBRANCH   5   6
ENDBRANCH   4   5
ENDBRANCH   3   4
ENDBRANCH   2   3
ENDBRANCH   1   2
BRANCH   1  25
ATOM     25  C   UNL A   1      41.212  23.320  26.474  1.00  0.00     0.261 C 
BRANCH  25  26
ATOM     26  O   UNL A   1      40.371  24.455  26.233  1.00  0.00    -0.460 OA
BRANCH  26  27
ATOM     27  C   UNL A   1      41.035  25.631  26.157  1.00  0.00     0.338 C 
ATOM     28  O   UNL A   1      41.474  26.167  25.156  1.00  0.00    -0.246 OA
BRANCH  27  29
ATOM     29  C   UNL A   1      41.037  26.290  27.473  1.00  0.00     0.060 A 
ATOM     30  C   UNL A   1      39.986  25.995  28.345  1.00  0.00     0.016 A 
ATOM     31  C   UNL A   1      41.961  27.292  27.782  1.00  0.00     0.016 A 
ATOM     32  C   UNL A   1      39.829  26.740  29.512  1.00  0.00     0.010 A 
ATOM     33  C   UNL A   1      41.809  28.027  28.968  1.00  0.00     0.010 A 
ATOM     34  C   UNL A   1      40.720  27.782  29.820  1.00  0.00    -0.014 A 
BRANCH  34  35
ATOM     35  C   UNL A   1      40.430  28.631  31.007  1.00  0.00     0.031 A 
ATOM     36  C   UNL A   1      41.275  28.515  32.248  1.00  0.00     0.074 A 
ATOM     37  C   UNL A   1      39.480  29.581  30.932  1.00  0.00     0.049 A 
ATOM     38  N   UNL A   1      41.316  29.300  33.295  1.00  0.00    -0.248 NA
ATOM     39  C   UNL A   1      42.193  27.368  32.322  1.00  0.00     0.031 C 
ATOM     40  C   UNL A   1      38.583  29.786  29.795  1.00  0.00     0.029 A 
ATOM     41  N   UNL A   1      39.130  30.569  31.818  1.00  0.00    -0.354 N 
ATOM     42  C   UNL A   1      42.275  28.759  34.143  1.00  0.00     0.074 A 
ATOM     43  C   UNL A   1      42.758  27.549  33.509  1.00  0.00     0.031 C 
ATOM     44  C   UNL A   1      37.807  30.855  30.039  1.00  0.00     0.029 A 
ATOM     45  C   UNL A   1      38.150  31.409  31.347  1.00  0.00     0.049 A 
ATOM     46  H   UNL A   1      39.544  30.668  32.707  1.00  0.00     0.167 HD
ATOM     47  C   UNL A   1      42.728  29.234  35.328  1.00  0.00     0.037 A 
ATOM     48  C   UNL A   1      37.605  32.513  31.894  1.00  0.00     0.037 A 
ATOM     49  C   UNL A   1      42.245  30.435  35.963  1.00  0.00     0.049 A 
ATOM     50  C   UNL A   1      38.123  33.021  33.212  1.00  0.00     0.074 A 
ATOM     51  C   UNL A   1      42.663  31.011  37.150  1.00  0.00     0.029 A 
ATOM     52  N   UNL A   1      41.232  31.241  35.466  1.00  0.00    -0.354 N 
ATOM     53  N   UNL A   1      39.078  32.535  33.966  1.00  0.00    -0.248 NA
ATOM     54  C   UNL A   1      37.499  34.243  33.742  1.00  0.00     0.031 C 
ATOM     55  C   UNL A   1      41.877  32.145  37.391  1.00  0.00     0.029 A 
ATOM     56  C   UNL A   1      40.997  32.298  36.332  1.00  0.00     0.049 A 
ATOM     57  H   UNL A   1      40.749  31.085  34.622  1.00  0.00     0.167 HD
ATOM     58  C   UNL A   1      39.184  33.400  35.051  1.00  0.00     0.074 A 
ATOM     59  C   UNL A   1      38.206  34.449  34.844  1.00  0.00     0.031 C 
ATOM     60  C   UNL A   1      40.015  33.332  36.121  1.00  0.00     0.037 A 
BRANCH  47  61
ATOM     61  C   UNL A   1      43.808  28.451  36.023  1.00  0.00     0.058 A 
ATOM     62  C   UNL A   1      43.504  27.350  36.840  1.00  0.00     0.135 A 
ATOM     63  C   UNL A   1      45.161  28.779  35.843  1.00  0.00     0.135 A 
ATOM     64  F   UNL A   1      42.225  27.001  37.056  1.00  0.00    -0.206 F 
ATOM     65  C   UNL A   1      44.502  26.616  37.473  1.00  0.00     0.059 A 
ATOM     66  C   UNL A   1      46.176  28.046  36.450  1.00  0.00     0.059 A 
ATOM     67  F   UNL A   1      45.506  29.821  35.071  1.00  0.00    -0.206 F 
ATOM     68  C   UNL A   1      45.836  26.975  37.274  1.00  0.00     0.060 A 
BRANCH  68  69
ATOM     69  S   UNL A   1      47.124  26.016  38.103  1.00  0.00     0.124 S 
ATOM     70  O   UNL A   1      46.571  25.891  39.449  1.00  0.00    -0.237 OA
ATOM     71  O   UNL A   1      47.158  24.789  37.316  1.00  0.00    -0.237 OA
ATOM     72  O   UNL A   1      48.306  26.865  37.987  1.00  0.00    -0.744 OA
ENDBRANCH  68  69
ENDBRANCH  47  61
BRANCH  48  73
ATOM     73  C   UNL A   1      36.528  33.237  31.171  1.00  0.00     0.058 A 
ATOM     74  C   UNL A   1      36.798  33.964  30.003  1.00  0.00     0.135 A 
ATOM     75  C   UNL A   1      35.203  33.201  31.630  1.00  0.00     0.135 A 
ATOM     76  F   UNL A   1      38.052  34.033  29.531  1.00  0.00    -0.206 F 
ATOM     77  C   UNL A   1      35.794  34.642  29.319  1.00  0.00     0.059 A 
ATOM     78  C   UNL A   1      34.178  33.852  30.952  1.00  0.00     0.059 A 
ATOM     79  F   UNL A   1      34.893  32.506  32.736  1.00  0.00    -0.206 F 
ATOM     80  C   UNL A   1      34.485  34.577  29.802  1.00  0.00     0.060 A 
BRANCH  80  81
ATOM     81  S   UNL A   1      33.174  35.409  28.879  1.00  0.00     0.124 S 
ATOM     82  O   UNL A   1      32.328  35.909  29.956  1.00  0.00    -0.237 OA
ATOM     83  O   UNL A   1      33.915  36.418  28.129  1.00  0.00    -0.237 OA
ATOM     84  O   UNL A   1      32.603  34.335  28.071  1.00  0.00    -0.744 OA
ENDBRANCH  80  81
ENDBRANCH  48  73
BRANCH  60  85
ATOM     85  C   UNL A   1      39.909  34.430  37.142  1.00  0.00     0.058 A 
ATOM     86  C   UNL A   1      40.603  35.642  36.992  1.00  0.00     0.135 A 
ATOM     87  C   UNL A   1      39.098  34.276  38.277  1.00  0.00     0.135 A 
ATOM     88  F   UNL A   1      41.395  35.839  35.926  1.00  0.00    -0.206 F 
ATOM     89  C   UNL A   1      40.525  36.648  37.949  1.00  0.00     0.059 A 
ATOM     90  C   UNL A   1      38.987  35.278  39.237  1.00  0.00     0.059 A 
ATOM     91  F   UNL A   1      38.403  33.143  38.462  1.00  0.00    -0.206 F 
ATOM     92  C   UNL A   1      39.720  36.454  39.074  1.00  0.00     0.060 A 
BRANCH  92  93
ATOM     93  S   UNL A   1      39.624  37.763  40.314  1.00  0.00     0.124 S 
ATOM     94  O   UNL A   1      39.015  37.057  41.437  1.00  0.00    -0.237 OA
ATOM     95  O   UNL A   1      41.024  38.139  40.488  1.00  0.00    -0.237 OA
ATOM     96  O   UNL A   1      38.785  38.772  39.675  1.00  0.00    -0.744 OA
ENDBRANCH  92  93
ENDBRANCH  60  85
ENDBRANCH  34  35
ENDBRANCH  27  29
ENDBRANCH  26  27
ENDBRANCH  25  26
ENDBRANCH   1  25
TORSDOF 21
ENDMDL
MODEL 2
REMARK VINA RESULT:     -10.4      2.525      4.455
REMARK SMILES CC(C)[NH2+][C@](C)(C[N@@H+]1CCC(C)(C)C1)C(=O)OCCOCCOC(=O)c1ccc(-c2c3nc(c(-c4c(F)cc(S(=O)(=O)[O-])cc4F)c4ccc([nH]4)c(-c4c(F)cc(S(=O)(=O)[O-])cc4F)c4nc(c(-c5c(F)cc(S(=O)(=O)[O-])cc5F)c5ccc2[nH]5)C=C4)C=C3)cc1
REMARK SMILES IDX 21 1 20 2 19 3 18 4 17 5 15 6 16 7 5 8 6 9 4 10 2 13 1 14
REMARK SMILES IDX 3 15 7 16 8 17 9 18 14 19 10 21 11 22 12 23 13 24 22 25
REMARK SMILES IDX 23 26 24 27 25 28 26 29 27 30 91 31 28 32 90 33 29 34 30 35
REMARK SMILES IDX 31 36 84 37 32 38 89 39 83 40 85 41 33 42 88 43 82 44 81 45
REMARK SMILES IDX 34 47 68 48 47 49 67 50 48 51 51 52 66 53 86 54 49 55 50 56
REMARK SMILES IDX 65 58 87 59 52 60 35 61 36 62 45 63 37 64 38 65 44 66 46 67
REMARK SMILES IDX 39 68 40 69 41 70 42 71 43 72 69 73 70 74 79 75 71 76 72 77
REMARK SMILES IDX 78 78 80 79 73 80 74 81 75 82 76 83 77 84 53 85 54 86 63 87
REMARK SMILES IDX 55 88 56 89 62 90 64 91 57 92 58 93 59 94 60 95 61 96
REMARK H PARENT 4 11 4 12 8 20 85 46 51 57
REMARK Flexibility Score: inf
ROOT
ATOM      1  C   UNL A   1      45.291  23.750  24.712  1.00  0.00     0.202 C 
ENDROOT
BRANCH   1   2
ATOM      2  O   UNL A   1      46.287  22.860  25.195  1.00  0.00    -0.374 OA
BRANCH   2   3
ATOM      3  C   UNL A   1      46.190  21.487  24.819  1.00  0.00     0.202 C 
BRANCH   3   4
ATOM      4  C   UNL A   1      44.794  20.866  24.671  1.00  0.00     0.261 C 
BRANCH   4   5
ATOM      5  O   UNL A   1      44.171  20.420  25.893  1.00  0.00    -0.458 OA
BRANCH   5   6
ATOM      6  C   UNL A   1      42.814  20.287  25.832  1.00  0.00     0.373 C 
ATOM      7  O   UNL A   1      42.247  19.400  25.190  1.00  0.00    -0.244 OA
BRANCH   6   8
ATOM      8  C   UNL A   1      42.016  21.480  26.453  1.00  0.00     0.240 C 
ATOM      9  C   UNL A   1      42.304  22.685  25.532  1.00  0.00     0.099 C 
BRANCH   8  10
ATOM     10  N   UNL A   1      42.746  21.679  27.737  1.00  0.00    -0.326 N 
ATOM     11  H   UNL A   1      42.104  21.373  28.468  1.00  0.00     0.347 HD
ATOM     12  H   UNL A   1      43.609  21.170  27.545  1.00  0.00     0.347 HD
BRANCH  10  13
ATOM     13  C   UNL A   1      43.276  22.953  28.189  1.00  0.00     0.177 C 
ATOM     14  C   UNL A   1      42.603  23.221  29.547  1.00  0.00     0.075 C 
ATOM     15  C   UNL A   1      44.788  23.020  28.378  1.00  0.00     0.075 C 
ENDBRANCH  10  13
ENDBRANCH   8  10
BRANCH   8  16
ATOM     16  C   UNL A   1      40.467  21.193  26.574  1.00  0.00     0.343 C 
BRANCH  16  17
ATOM     17  N   UNL A   1      39.518  22.139  25.916  1.00  0.00    -0.329 N 
ATOM     18  C   UNL A   1      39.011  23.206  26.789  1.00  0.00     0.263 C 
ATOM     19  C   UNL A   1      38.271  21.465  25.473  1.00  0.00     0.269 C 
ATOM     20  H   UNL A   1      40.086  22.511  25.155  1.00  0.00     0.348 HD
ATOM     21  C   UNL A   1      37.911  23.815  25.930  1.00  0.00     0.073 C 
ATOM     22  C   UNL A   1      37.227  22.601  25.285  1.00  0.00     0.019 C 
ATOM     23  C   UNL A   1      35.912  22.274  26.010  1.00  0.00     0.017 C 
ATOM     24  C   UNL A   1      36.880  22.883  23.818  1.00  0.00     0.017 C 
ENDBRANCH  16  17
ENDBRANCH   8  16
ENDBRANCH   6   8
ENDBRANCH   5   6
ENDBRANCH   4   5
ENDBRANCH   3   4
ENDBRANCH   2   3
ENDBRANCH   1   2
BRANCH   1  25
ATOM     25  C   UNL A   1      45.348  25.202  25.186  1.00  0.00     0.261 C 
BRANCH  25  26
ATOM     26  O   UNL A   1      44.369  25.526  26.183  1.00  0.00    -0.460 OA
BRANCH  26  27
ATOM     27  C   UNL A   1      43.244  26.093  25.691  1.00  0.00     0.338 C 
ATOM     28  O   UNL A   1      42.778  25.962  24.574  1.00  0.00    -0.246 OA
BRANCH  27  29
ATOM     29  C   UNL A   1      42.536  26.810  26.765  1.00  0.00     0.060 A 
ATOM     30  C   UNL A   1      42.978  28.096  27.085  1.00  0.00     0.016 A 
ATOM     31  C   UNL A   1      41.566  26.174  27.545  1.00  0.00     0.016 A 
ATOM     32  C   UNL A   1      42.481  28.733  28.220  1.00  0.00     0.010 A 
ATOM     33  C   UNL A   1      41.056  26.827  28.678  1.00  0.00     0.010 A 
ATOM     34  C   UNL A   1      41.539  28.094  29.044  1.00  0.00    -0.014 A 
BRANCH  34  35
ATOM     35  C   UNL A   1      41.143  28.761  30.313  1.00  0.00     0.031 A 
ATOM     36  C   UNL A   1      41.969  28.575  31.558  1.00  0.00     0.074 A 
ATOM     37  C   UNL A   1      40.106  29.618  30.321  1.00  0.00     0.049 A 
ATOM     38  N   UNL A   1      41.911  29.227  32.693  1.00  0.00    -0.248 NA
ATOM     39  C   UNL A   1      42.994  27.521  31.526  1.00  0.00     0.031 C 
ATOM     40  C   UNL A   1      39.217  29.874  29.188  1.00  0.00     0.029 A 
ATOM     41  N   UNL A   1      39.643  30.454  31.307  1.00  0.00    -0.354 N 
ATOM     42  C   UNL A   1      42.901  28.681  33.500  1.00  0.00     0.074 A 
ATOM     43  C   UNL A   1      43.513  27.609  32.743  1.00  0.00     0.031 C 
ATOM     44  C   UNL A   1      38.335  30.827  29.532  1.00  0.00     0.029 A 
ATOM     45  C   UNL A   1      38.595  31.247  30.908  1.00  0.00     0.049 A 
ATOM     46  H   UNL A   1      40.026  30.483  32.214  1.00  0.00     0.167 HD
ATOM     47  C   UNL A   1      43.280  29.049  34.748  1.00  0.00     0.037 A 
ATOM     48  C   UNL A   1      37.933  32.221  31.564  1.00  0.00     0.037 A 
ATOM     49  C   UNL A   1      42.669  30.113  35.505  1.00  0.00     0.049 A 
ATOM     50  C   UNL A   1      38.371  32.612  32.949  1.00  0.00     0.074 A 
ATOM     51  C   UNL A   1      43.004  30.577  36.766  1.00  0.00     0.029 A 
ATOM     52  N   UNL A   1      41.592  30.874  35.075  1.00  0.00    -0.354 N 
ATOM     53  N   UNL A   1      39.354  32.130  33.671  1.00  0.00    -0.248 NA
ATOM     54  C   UNL A   1      37.619  33.695  33.601  1.00  0.00     0.031 C 
ATOM     55  C   UNL A   1      42.105  31.594  37.113  1.00  0.00     0.029 A 
ATOM     56  C   UNL A   1      41.237  31.790  36.052  1.00  0.00     0.049 A 
ATOM     57  H   UNL A   1      41.145  30.776  34.203  1.00  0.00     0.167 HD
ATOM     58  C   UNL A   1      39.351  32.862  34.854  1.00  0.00     0.074 A 
ATOM     59  C   UNL A   1      38.280  33.832  34.742  1.00  0.00     0.031 C 
ATOM     60  C   UNL A   1      40.163  32.744  35.934  1.00  0.00     0.037 A 
BRANCH  47  61
ATOM     61  C   UNL A   1      44.417  28.294  35.379  1.00  0.00     0.058 A 
ATOM     62  C   UNL A   1      45.753  28.680  35.181  1.00  0.00     0.135 A 
ATOM     63  C   UNL A   1      44.171  27.198  36.220  1.00  0.00     0.135 A 
ATOM     64  F   UNL A   1      46.045  29.714  34.376  1.00  0.00    -0.206 F 
ATOM     65  C   UNL A   1      46.806  27.991  35.775  1.00  0.00     0.059 A 
ATOM     66  C   UNL A   1      45.207  26.506  36.841  1.00  0.00     0.059 A 
ATOM     67  F   UNL A   1      42.912  26.789  36.445  1.00  0.00    -0.206 F 
ATOM     68  C   UNL A   1      46.522  26.902  36.601  1.00  0.00     0.060 A 
BRANCH  68  69
ATOM     69  S   UNL A   1      47.897  26.013  37.365  1.00  0.00     0.124 S 
ATOM     70  O   UNL A   1      47.704  24.667  36.832  1.00  0.00    -0.237 OA
ATOM     71  O   UNL A   1      49.059  26.734  36.857  1.00  0.00    -0.237 OA
ATOM     72  O   UNL A   1      47.645  26.163  38.795  1.00  0.00    -0.744 OA
ENDBRANCH  68  69
ENDBRANCH  47  61
BRANCH  48  73
ATOM     73  C   UNL A   1      36.805  32.921  30.897  1.00  0.00     0.058 A 
ATOM     74  C   UNL A   1      37.033  33.923  29.943  1.00  0.00     0.135 A 
ATOM     75  C   UNL A   1      35.475  32.589  31.195  1.00  0.00     0.135 A 
ATOM     76  F   UNL A   1      38.290  34.278  29.632  1.00  0.00    -0.206 F 
ATOM     77  C   UNL A   1      35.983  34.581  29.313  1.00  0.00     0.059 A 
ATOM     78  C   UNL A   1      34.407  33.218  30.564  1.00  0.00     0.059 A 
ATOM     79  F   UNL A   1      35.207  31.628  32.092  1.00  0.00    -0.206 F 
ATOM     80  C   UNL A   1      34.671  34.219  29.630  1.00  0.00     0.060 A 
BRANCH  80  81
ATOM     81  S   UNL A   1      33.310  35.034  28.767  1.00  0.00     0.124 S 
ATOM     82  O   UNL A   1      32.482  35.480  29.880  1.00  0.00    -0.237 OA
ATOM     83  O   UNL A   1      33.999  36.083  28.023  1.00  0.00    -0.237 OA
ATOM     84  O   UNL A   1      32.747  33.964  27.948  1.00  0.00    -0.744 OA
ENDBRANCH  80  81
ENDBRANCH  48  73
BRANCH  60  85
ATOM     85  C   UNL A   1      39.928  33.695  37.075  1.00  0.00     0.058 A 
ATOM     86  C   UNL A   1      39.037  33.388  38.115  1.00  0.00     0.135 A 
ATOM     87  C   UNL A   1      40.610  34.921  37.136  1.00  0.00     0.135 A 
ATOM     88  F   UNL A   1      38.357  32.230  38.103  1.00  0.00    -0.206 F 
ATOM     89  C   UNL A   1      38.801  34.280  39.157  1.00  0.00     0.059 A 
ATOM     90  C   UNL A   1      40.406  35.818  38.180  1.00  0.00     0.059 A 
ATOM     91  F   UNL A   1      41.482  35.258  36.173  1.00  0.00    -0.206 F 
ATOM     92  C   UNL A   1      39.485  35.497  39.177  1.00  0.00     0.060 A 
BRANCH  92  93
ATOM     93  S   UNL A   1      39.174  36.650  40.531  1.00  0.00     0.124 S 
ATOM     94  O   UNL A   1      40.517  36.841  41.066  1.00  0.00    -0.237 OA
ATOM     95  O   UNL A   1      38.598  37.801  39.842  1.00  0.00    -0.237 OA
ATOM     96  O   UNL A   1      38.251  35.918  41.393  1.00  0.00    -0.744 OA
ENDBRANCH  92  93
ENDBRANCH  60  85
ENDBRANCH  34  35
ENDBRANCH  27  29
ENDBRANCH  26  27
ENDBRANCH  25  26
ENDBRANCH   1  25
TORSDOF 21
ENDMDL
MODEL 3
REMARK VINA RESULT:     -10.2      5.365      9.979
REMARK SMILES CC(C)[NH2+][C@](C)(C[N@@H+]1CCC(C)(C)C1)C(=O)OCCOCCOC(=O)c1ccc(-c2c3nc(c(-c4c(F)cc(S(=O)(=O)[O-])cc4F)c4ccc([nH]4)c(-c4c(F)cc(S(=O)(=O)[O-])cc4F)c4nc(c(-c5c(F)cc(S(=O)(=O)[O-])cc5F)c5ccc2[nH]5)C=C4)C=C3)cc1
REMARK SMILES IDX 21 1 20 2 19 3 18 4 17 5 15 6 16 7 5 8 6 9 4 10 2 13 1 14
REMARK SMILES IDX 3 15 7 16 8 17 9 18 14 19 10 21 11 22 12 23 13 24 22 25
REMARK SMILES IDX 23 26 24 27 25 28 26 29 27 30 91 31 28 32 90 33 29 34 30 35
REMARK SMILES IDX 31 36 84 37 32 38 89 39 83 40 85 41 33 42 88 43 82 44 81 45
REMARK SMILES IDX 34 47 68 48 47 49 67 50 48 51 51 52 66 53 86 54 49 55 50 56
REMARK SMILES IDX 65 58 87 59 52 60 35 61 36 62 45 63 37 64 38 65 44 66 46 67
REMARK SMILES IDX 39 68 40 69 41 70 42 71 43 72 69 73 70 74 79 75 71 76 72 77
REMARK SMILES IDX 78 78 80 79 73 80 74 81 75 82 76 83 77 84 53 85 54 86 63 87
REMARK SMILES IDX 55 88 56 89 62 90 64 91 57 92 58 93 59 94 60 95 61 96
REMARK H PARENT 4 11 4 12 8 20 85 46 51 57
REMARK Flexibility Score: inf
ROOT
ATOM      1  C   UNL A   1      32.259  29.451  25.534  1.00  0.00     0.202 C 
ENDROOT
BRANCH   1   2
ATOM      2  O   UNL A   1      32.105  29.007  24.194  1.00  0.00    -0.374 OA
BRANCH   2   3
ATOM      3  C   UNL A   1      33.131  29.341  23.261  1.00  0.00     0.202 C 
BRANCH   3   4
ATOM      4  C   UNL A   1      33.697  28.228  22.368  1.00  0.00     0.261 C 
BRANCH   4   5
ATOM      5  O   UNL A   1      34.047  27.000  23.038  1.00  0.00    -0.458 OA
BRANCH   5   6
ATOM      6  C   UNL A   1      33.378  25.894  22.599  1.00  0.00     0.373 C 
ATOM      7  O   UNL A   1      33.311  25.569  21.411  1.00  0.00    -0.244 OA
BRANCH   6   8
ATOM      8  C   UNL A   1      32.506  25.186  23.687  1.00  0.00     0.240 C 
ATOM      9  C   UNL A   1      32.015  23.880  23.028  1.00  0.00     0.099 C 
BRANCH   8  10
ATOM     10  N   UNL A   1      31.356  26.128  23.791  1.00  0.00    -0.326 N 
ATOM     11  H   UNL A   1      31.660  26.864  24.427  1.00  0.00     0.347 HD
ATOM     12  H   UNL A   1      31.178  26.320  22.806  1.00  0.00     0.347 HD
BRANCH  10  13
ATOM     13  C   UNL A   1      30.026  25.750  24.238  1.00  0.00     0.177 C 
ATOM     14  C   UNL A   1      30.070  25.828  25.775  1.00  0.00     0.075 C 
ATOM     15  C   UNL A   1      28.880  26.625  23.743  1.00  0.00     0.075 C 
ENDBRANCH  10  13
ENDBRANCH   8  10
BRANCH   8  16
ATOM     16  C   UNL A   1      33.295  24.906  25.026  1.00  0.00     0.343 C 
BRANCH  16  17
ATOM     17  N   UNL A   1      34.217  23.733  25.073  1.00  0.00    -0.329 N 
ATOM     18  C   UNL A   1      34.394  23.144  26.407  1.00  0.00     0.263 C 
ATOM     19  C   UNL A   1      35.606  24.095  24.694  1.00  0.00     0.269 C 
ATOM     20  H   UNL A   1      33.763  23.084  24.430  1.00  0.00     0.348 HD
ATOM     21  C   UNL A   1      35.548  22.178  26.171  1.00  0.00     0.073 C 
ATOM     22  C   UNL A   1      36.503  22.956  25.255  1.00  0.00     0.019 C 
ATOM     23  C   UNL A   1      37.682  23.522  26.060  1.00  0.00     0.017 C 
ATOM     24  C   UNL A   1      37.088  22.042  24.171  1.00  0.00     0.017 C 
ENDBRANCH  16  17
ENDBRANCH   8  16
ENDBRANCH   6   8
ENDBRANCH   5   6
ENDBRANCH   4   5
ENDBRANCH   3   4
ENDBRANCH   2   3
ENDBRANCH   1   2
BRANCH   1  25
ATOM     25  C   UNL A   1      33.604  29.198  26.215  1.00  0.00     0.261 C 
BRANCH  25  26
ATOM     26  O   UNL A   1      33.606  29.485  27.620  1.00  0.00    -0.460 OA
BRANCH  26  27
ATOM     27  C   UNL A   1      34.469  30.461  27.985  1.00  0.00     0.338 C 
ATOM     28  O   UNL A   1      34.202  31.613  28.274  1.00  0.00    -0.246 OA
BRANCH  27  29
ATOM     29  C   UNL A   1      35.821  29.900  28.139  1.00  0.00     0.060 A 
ATOM     30  C   UNL A   1      36.181  29.418  29.401  1.00  0.00     0.016 A 
ATOM     31  C   UNL A   1      36.766  29.989  27.113  1.00  0.00     0.016 A 
ATOM     32  C   UNL A   1      37.506  29.068  29.652  1.00  0.00     0.010 A 
ATOM     33  C   UNL A   1      38.095  29.618  27.366  1.00  0.00     0.010 A 
ATOM     34  C   UNL A   1      38.481  29.193  28.649  1.00  0.00    -0.014 A 
BRANCH  34  35
ATOM     35  C   UNL A   1      39.901  28.934  29.008  1.00  0.00     0.031 A 
ATOM     36  C   UNL A   1      40.541  27.614  28.670  1.00  0.00     0.074 A 
ATOM     37  C   UNL A   1      40.646  29.921  29.539  1.00  0.00     0.049 A 
ATOM     38  N   UNL A   1      41.806  27.275  28.710  1.00  0.00    -0.248 NA
ATOM     39  C   UNL A   1      39.645  26.534  28.230  1.00  0.00     0.031 C 
ATOM     40  C   UNL A   1      40.143  31.239  29.927  1.00  0.00     0.029 A 
ATOM     41  N   UNL A   1      41.989  29.979  29.815  1.00  0.00    -0.354 N 
ATOM     42  C   UNL A   1      41.862  25.954  28.281  1.00  0.00     0.074 A 
ATOM     43  C   UNL A   1      40.498  25.537  28.033  1.00  0.00     0.031 C 
ATOM     44  C   UNL A   1      41.171  31.987  30.362  1.00  0.00     0.029 A 
ATOM     45  C   UNL A   1      42.402  31.203  30.284  1.00  0.00     0.049 A 
ATOM     46  H   UNL A   1      42.600  29.217  29.687  1.00  0.00     0.167 HD
ATOM     47  C   UNL A   1      42.950  25.167  28.092  1.00  0.00     0.037 A 
ATOM     48  C   UNL A   1      43.633  31.653  30.594  1.00  0.00     0.037 A 
ATOM     49  C   UNL A   1      44.308  25.580  28.343  1.00  0.00     0.049 A 
ATOM     50  C   UNL A   1      44.826  30.761  30.378  1.00  0.00     0.074 A 
ATOM     51  C   UNL A   1      45.476  24.862  28.154  1.00  0.00     0.029 A 
ATOM     52  N   UNL A   1      44.680  26.818  28.845  1.00  0.00    -0.354 N 
ATOM     53  N   UNL A   1      44.867  29.538  29.906  1.00  0.00    -0.248 NA
ATOM     54  C   UNL A   1      46.143  31.321  30.716  1.00  0.00     0.031 C 
ATOM     55  C   UNL A   1      46.552  25.652  28.576  1.00  0.00     0.029 A 
ATOM     56  C   UNL A   1      46.057  26.877  28.991  1.00  0.00     0.049 A 
ATOM     57  H   UNL A   1      44.057  27.548  29.066  1.00  0.00     0.167 HD
ATOM     58  C   UNL A   1      46.213  29.187  29.875  1.00  0.00     0.074 A 
ATOM     59  C   UNL A   1      46.954  30.336  30.357  1.00  0.00     0.031 C 
ATOM     60  C   UNL A   1      46.784  28.022  29.481  1.00  0.00     0.037 A 
BRANCH  47  61
ATOM     61  C   UNL A   1      42.716  23.771  27.584  1.00  0.00     0.058 A 
ATOM     62  C   UNL A   1      42.717  23.482  26.209  1.00  0.00     0.135 A 
ATOM     63  C   UNL A   1      42.527  22.705  28.477  1.00  0.00     0.135 A 
ATOM     64  F   UNL A   1      42.880  24.467  25.311  1.00  0.00    -0.206 F 
ATOM     65  C   UNL A   1      42.514  22.189  25.737  1.00  0.00     0.059 A 
ATOM     66  C   UNL A   1      42.343  21.401  28.028  1.00  0.00     0.059 A 
ATOM     67  F   UNL A   1      42.520  22.927  29.800  1.00  0.00    -0.206 F 
ATOM     68  C   UNL A   1      42.324  21.155  26.656  1.00  0.00     0.060 A 
BRANCH  68  69
ATOM     69  S   UNL A   1      42.060  19.480  26.032  1.00  0.00     0.124 S 
ATOM     70  O   UNL A   1      40.621  19.488  25.780  1.00  0.00    -0.237 OA
ATOM     71  O   UNL A   1      42.910  19.448  24.847  1.00  0.00    -0.237 OA
ATOM     72  O   UNL A   1      42.497  18.633  27.138  1.00  0.00    -0.744 OA
ENDBRANCH  68  69
ENDBRANCH  47  61
BRANCH  48  73
ATOM     73  C   UNL A   1      43.803  33.036  31.110  1.00  0.00     0.058 A 
ATOM     74  C   UNL A   1      43.983  34.119  30.239  1.00  0.00     0.135 A 
ATOM     75  C   UNL A   1      43.775  33.299  32.488  1.00  0.00     0.135 A 
ATOM     76  F   UNL A   1      44.025  33.914  28.913  1.00  0.00    -0.206 F 
ATOM     77  C   UNL A   1      44.140  35.417  30.714  1.00  0.00     0.059 A 
ATOM     78  C   UNL A   1      43.908  34.590  32.987  1.00  0.00     0.059 A 
ATOM     79  F   UNL A   1      43.592  32.296  33.360  1.00  0.00    -0.206 F 
ATOM     80  C   UNL A   1      44.099  35.642  32.092  1.00  0.00     0.060 A 
BRANCH  80  81
ATOM     81  S   UNL A   1      44.243  37.336  32.702  1.00  0.00     0.124 S 
ATOM     82  O   UNL A   1      44.069  38.105  31.477  1.00  0.00    -0.237 OA
ATOM     83  O   UNL A   1      43.150  37.412  33.666  1.00  0.00    -0.237 OA
ATOM     84  O   UNL A   1      45.582  37.366  33.284  1.00  0.00    -0.744 OA
ENDBRANCH  80  81
ENDBRANCH  48  73
BRANCH  60  85
ATOM     85  C   UNL A   1      48.284  27.937  29.545  1.00  0.00     0.058 A 
ATOM     86  C   UNL A   1      49.088  28.319  28.460  1.00  0.00     0.135 A 
ATOM     87  C   UNL A   1      48.925  27.480  30.708  1.00  0.00     0.135 A 
ATOM     88  F   UNL A   1      48.524  28.759  27.323  1.00  0.00    -0.206 F 
ATOM     89  C   UNL A   1      50.475  28.216  28.511  1.00  0.00     0.059 A 
ATOM     90  C   UNL A   1      50.311  27.391  30.789  1.00  0.00     0.059 A 
ATOM     91  F   UNL A   1      48.203  27.115  31.778  1.00  0.00    -0.206 F 
ATOM     92  C   UNL A   1      51.078  27.742  29.678  1.00  0.00     0.060 A 
BRANCH  92  93
ATOM     93  S   UNL A   1      52.877  27.610  29.738  1.00  0.00     0.124 S 
ATOM     94  O   UNL A   1      53.236  28.827  30.459  1.00  0.00    -0.237 OA
ATOM     95  O   UNL A   1      53.080  26.360  30.465  1.00  0.00    -0.237 OA
ATOM     96  O   UNL A   1      53.260  27.576  28.329  1.00  0.00    -0.744 OA
ENDBRANCH  92  93
ENDBRANCH  60  85
ENDBRANCH  34  35
ENDBRANCH  27  29
ENDBRANCH  26  27
ENDBRANCH  25  26
ENDBRANCH   1  25
TORSDOF 21
ENDMDL
