MODEL 1
REMARK VINA RESULT:     -11.3      0.000      0.000
REMARK SMILES C=C(C(=O)OCCOCCOC(=O)c1ccc(-c2c3nc(c(-c4c(F)cc(S(=O)(=O)[O-])cc4F)c4ccc([nH]4)c(-c4c(F)cc(S(=O)(=O)[O-])cc4F)c4nc(c(-c5c(F)cc(S(=O)(=O)[O-])cc5F)c5ccc2[nH]5)C=C4)C=C3)cc1)[C@@H]1CC[C@]2(C)CCCC(=C)[C@H]2[C@H]1O
REMARK SMILES IDX 9 1 8 2 7 3 6 4 5 5 3 6 4 7 2 8 1 9 80 10 81 11 91 12 82 13
REMARK SMILES IDX 90 14 83 15 88 16 84 17 85 18 87 19 89 20 86 21 92 22 10 24
REMARK SMILES IDX 11 25 12 26 13 27 14 28 15 29 79 30 16 31 78 32 17 33 18 34
REMARK SMILES IDX 19 35 72 36 20 37 77 38 71 39 73 40 21 41 76 42 70 43 69 44
REMARK SMILES IDX 22 46 56 47 35 48 55 49 36 50 39 51 54 52 74 53 37 54 38 55
REMARK SMILES IDX 53 57 75 58 40 59 23 60 24 61 33 62 25 63 26 64 32 65 34 66
REMARK SMILES IDX 27 67 28 68 29 69 30 70 31 71 57 72 58 73 67 74 59 75 60 76
REMARK SMILES IDX 66 77 68 78 61 79 62 80 63 81 64 82 65 83 41 84 42 85 51 86
REMARK SMILES IDX 43 87 44 88 50 89 52 90 45 91 46 92 47 93 48 94 49 95
REMARK H PARENT 92 23 73 45 39 56
REMARK Flexibility Score: inf
ROOT
ATOM      1  C   UNL A   1      40.018  22.025  26.815  1.00  0.00     0.202 C 
ENDROOT
BRANCH   1   2
ATOM      2  O   UNL A   1      39.261  21.414  25.775  1.00  0.00    -0.374 OA
BRANCH   2   3
ATOM      3  C   UNL A   1      37.920  21.858  25.554  1.00  0.00     0.202 C 
BRANCH   3   4
ATOM      4  C   UNL A   1      36.911  20.847  25.006  1.00  0.00     0.261 C 
BRANCH   4   5
ATOM      5  O   UNL A   1      35.614  21.124  25.553  1.00  0.00    -0.460 OA
BRANCH   5   6
ATOM      6  C   UNL A   1      34.560  20.585  24.891  1.00  0.00     0.333 C 
ATOM      7  O   UNL A   1      34.439  19.409  24.586  1.00  0.00    -0.247 OA
BRANCH   6   8
ATOM      8  C   UNL A   1      33.481  21.619  24.766  1.00  0.00     0.036 C 
ATOM      9  C   UNL A   1      32.532  21.588  25.722  1.00  0.00     0.020 C 
BRANCH   8  10
ATOM     10  C   UNL A   1      33.492  22.551  23.535  1.00  0.00     0.055 C 
ATOM     11  C   UNL A   1      34.757  23.430  23.377  1.00  0.00     0.012 C 
ATOM     12  C   UNL A   1      32.250  23.492  23.434  1.00  0.00     0.129 C 
ATOM     13  C   UNL A   1      34.861  24.482  24.479  1.00  0.00     0.008 C 
ATOM     14  C   UNL A   1      32.314  24.566  24.556  1.00  0.00     0.050 C 
ATOM     15  C   UNL A   1      33.626  25.418  24.546  1.00  0.00    -0.024 C 
ATOM     16  C   UNL A   1      31.097  25.455  24.770  1.00  0.00    -0.071 C 
ATOM     17  C   UNL A   1      33.688  26.416  23.366  1.00  0.00     0.012 C 
ATOM     18  C   UNL A   1      33.698  26.216  25.881  1.00  0.00     0.008 C 
ATOM     19  C   UNL A   1      31.155  26.201  26.084  1.00  0.00     0.031 C 
ATOM     20  C   UNL A   1      30.059  25.595  23.931  1.00  0.00     0.008 C 
ATOM     21  C   UNL A   1      32.435  27.030  26.186  1.00  0.00     0.005 C 
BRANCH  12  22
ATOM     22  O   UNL A   1      32.133  24.082  22.132  1.00  0.00    -0.392 OA
ATOM     23  H   UNL A   1      31.610  23.499  21.559  1.00  0.00     0.211 HD
ENDBRANCH  12  22
ENDBRANCH   8  10
ENDBRANCH   6   8
ENDBRANCH   5   6
ENDBRANCH   4   5
ENDBRANCH   3   4
ENDBRANCH   2   3
ENDBRANCH   1   2
BRANCH   1  24
ATOM     24  C   UNL A   1      40.924  23.221  26.484  1.00  0.00     0.261 C 
BRANCH  24  25
ATOM     25  O   UNL A   1      40.220  24.437  26.188  1.00  0.00    -0.460 OA
BRANCH  25  26
ATOM     26  C   UNL A   1      41.029  25.521  26.075  1.00  0.00     0.338 C 
ATOM     27  O   UNL A   1      41.527  25.964  25.053  1.00  0.00    -0.246 OA
BRANCH  26  28
ATOM     28  C   UNL A   1      41.097  26.246  27.356  1.00  0.00     0.060 A 
ATOM     29  C   UNL A   1      40.087  25.986  28.289  1.00  0.00     0.016 A 
ATOM     30  C   UNL A   1      42.056  27.230  27.600  1.00  0.00     0.016 A 
ATOM     31  C   UNL A   1      40.004  26.741  29.452  1.00  0.00     0.010 A 
ATOM     32  C   UNL A   1      41.966  27.995  28.770  1.00  0.00     0.010 A 
ATOM     33  C   UNL A   1      40.917  27.779  29.682  1.00  0.00    -0.014 A 
BRANCH  33  34
ATOM     34  C   UNL A   1      40.669  28.693  30.824  1.00  0.00     0.031 A 
ATOM     35  C   UNL A   1      41.519  28.583  32.061  1.00  0.00     0.074 A 
ATOM     36  C   UNL A   1      39.758  29.677  30.712  1.00  0.00     0.049 A 
ATOM     37  N   UNL A   1      41.519  29.330  33.134  1.00  0.00    -0.248 NA
ATOM     38  C   UNL A   1      42.504  27.488  32.090  1.00  0.00     0.031 C 
ATOM     39  C   UNL A   1      38.891  29.894  29.552  1.00  0.00     0.029 A 
ATOM     40  N   UNL A   1      39.417  30.684  31.579  1.00  0.00    -0.354 N 
ATOM     41  C   UNL A   1      42.507  28.806  33.962  1.00  0.00     0.074 A 
ATOM     42  C   UNL A   1      43.052  27.649  33.288  1.00  0.00     0.031 C 
ATOM     43  C   UNL A   1      38.120  30.970  29.779  1.00  0.00     0.029 A 
ATOM     44  C   UNL A   1      38.419  31.502  31.107  1.00  0.00     0.049 A 
ATOM     45  H   UNL A   1      39.848  30.809  32.455  1.00  0.00     0.167 HD
ATOM     46  C   UNL A   1      42.935  29.263  35.164  1.00  0.00     0.037 A 
ATOM     47  C   UNL A   1      37.806  32.552  31.687  1.00  0.00     0.037 A 
ATOM     48  C   UNL A   1      42.382  30.415  35.832  1.00  0.00     0.049 A 
ATOM     49  C   UNL A   1      38.264  33.010  33.047  1.00  0.00     0.074 A 
ATOM     50  C   UNL A   1      42.744  30.958  37.053  1.00  0.00     0.029 A 
ATOM     51  N   UNL A   1      41.349  31.200  35.339  1.00  0.00    -0.354 N 
ATOM     52  N   UNL A   1      39.214  32.517  33.806  1.00  0.00    -0.248 NA
ATOM     53  C   UNL A   1      37.578  34.174  33.620  1.00  0.00     0.031 C 
ATOM     54  C   UNL A   1      41.897  32.040  37.321  1.00  0.00     0.029 A 
ATOM     55  C   UNL A   1      41.046  32.209  36.240  1.00  0.00     0.049 A 
ATOM     56  H   UNL A   1      40.897  31.059  34.476  1.00  0.00     0.167 HD
ATOM     57  C   UNL A   1      39.251  33.323  34.940  1.00  0.00     0.074 A 
ATOM     58  C   UNL A   1      38.250  34.352  34.749  1.00  0.00     0.031 C 
ATOM     59  C   UNL A   1      40.039  33.221  36.041  1.00  0.00     0.037 A 
BRANCH  46  60
ATOM     60  C   UNL A   1      44.051  28.513  35.841  1.00  0.00     0.058 A 
ATOM     61  C   UNL A   1      45.399  28.846  35.629  1.00  0.00     0.135 A 
ATOM     62  C   UNL A   1      43.770  27.479  36.750  1.00  0.00     0.135 A 
ATOM     63  F   UNL A   1      45.728  29.813  34.758  1.00  0.00    -0.206 F 
ATOM     64  C   UNL A   1      46.428  28.170  36.278  1.00  0.00     0.059 A 
ATOM     65  C   UNL A   1      44.782  26.808  37.431  1.00  0.00     0.059 A 
ATOM     66  F   UNL A   1      42.500  27.115  36.988  1.00  0.00    -0.206 F 
ATOM     67  C   UNL A   1      46.109  27.153  37.181  1.00  0.00     0.060 A 
BRANCH  67  68
ATOM     68  S   UNL A   1      47.455  26.302  38.030  1.00  0.00     0.124 S 
ATOM     69  O   UNL A   1      46.819  25.935  39.292  1.00  0.00    -0.237 OA
ATOM     70  O   UNL A   1      47.746  25.197  37.122  1.00  0.00    -0.237 OA
ATOM     71  O   UNL A   1      48.496  27.321  38.127  1.00  0.00    -0.744 OA
ENDBRANCH  67  68
ENDBRANCH  46  60
BRANCH  47  72
ATOM     72  C   UNL A   1      36.679  33.230  30.990  1.00  0.00     0.058 A 
ATOM     73  C   UNL A   1      36.893  34.079  29.895  1.00  0.00     0.135 A 
ATOM     74  C   UNL A   1      35.354  33.043  31.420  1.00  0.00     0.135 A 
ATOM     75  F   UNL A   1      38.140  34.298  29.450  1.00  0.00    -0.206 F 
ATOM     76  C   UNL A   1      35.842  34.737  29.265  1.00  0.00     0.059 A 
ATOM     77  C   UNL A   1      34.283  33.663  30.786  1.00  0.00     0.059 A 
ATOM     78  F   UNL A   1      35.090  32.230  32.455  1.00  0.00    -0.206 F 
ATOM     79  C   UNL A   1      34.538  34.520  29.718  1.00  0.00     0.060 A 
BRANCH  79  80
ATOM     80  S   UNL A   1      33.176  35.347  28.870  1.00  0.00     0.124 S 
ATOM     81  O   UNL A   1      33.887  36.318  28.048  1.00  0.00    -0.237 OA
ATOM     82  O   UNL A   1      32.545  34.242  28.155  1.00  0.00    -0.237 OA
ATOM     83  O   UNL A   1      32.389  35.904  29.967  1.00  0.00    -0.744 OA
ENDBRANCH  79  80
ENDBRANCH  47  72
BRANCH  59  84
ATOM     84  C   UNL A   1      39.858  34.266  37.112  1.00  0.00     0.058 A 
ATOM     85  C   UNL A   1      39.111  34.014  38.274  1.00  0.00     0.135 A 
ATOM     86  C   UNL A   1      40.443  35.536  36.974  1.00  0.00     0.135 A 
ATOM     87  F   UNL A   1      38.529  32.818  38.457  1.00  0.00    -0.206 F 
ATOM     88  C   UNL A   1      38.905  35.000  39.234  1.00  0.00     0.059 A 
ATOM     89  C   UNL A   1      40.281  36.525  37.940  1.00  0.00     0.059 A 
ATOM     90  F   UNL A   1      41.183  35.828  35.893  1.00  0.00    -0.206 F 
ATOM     91  C   UNL A   1      39.488  36.254  39.056  1.00  0.00     0.060 A 
BRANCH  91  92
ATOM     92  S   UNL A   1      39.200  37.529  40.300  1.00  0.00     0.124 S 
ATOM     93  O   UNL A   1      38.570  36.759  41.368  1.00  0.00    -0.237 OA
ATOM     94  O   UNL A   1      40.551  38.009  40.575  1.00  0.00    -0.237 OA
ATOM     95  O   UNL A   1      38.329  38.481  39.617  1.00  0.00    -0.744 OA
ENDBRANCH  91  92
ENDBRANCH  59  84
ENDBRANCH  33  34
ENDBRANCH  26  28
ENDBRANCH  25  26
ENDBRANCH  24  25
ENDBRANCH   1  24
TORSDOF 19
ENDMDL
MODEL 2
REMARK VINA RESULT:     -11.2      0.923      1.603
REMARK SMILES C=C(C(=O)OCCOCCOC(=O)c1ccc(-c2c3nc(c(-c4c(F)cc(S(=O)(=O)[O-])cc4F)c4ccc([nH]4)c(-c4c(F)cc(S(=O)(=O)[O-])cc4F)c4nc(c(-c5c(F)cc(S(=O)(=O)[O-])cc5F)c5ccc2[nH]5)C=C4)C=C3)cc1)[C@@H]1CC[C@]2(C)CCCC(=C)[C@H]2[C@H]1O
REMARK SMILES IDX 9 1 8 2 7 3 6 4 5 5 3 6 4 7 2 8 1 9 80 10 81 11 91 12 82 13
REMARK SMILES IDX 90 14 83 15 88 16 84 17 85 18 87 19 89 20 86 21 92 22 10 24
REMARK SMILES IDX 11 25 12 26 13 27 14 28 15 29 79 30 16 31 78 32 17 33 18 34
REMARK SMILES IDX 19 35 72 36 20 37 77 38 71 39 73 40 21 41 76 42 70 43 69 44
REMARK SMILES IDX 22 46 56 47 35 48 55 49 36 50 39 51 54 52 74 53 37 54 38 55
REMARK SMILES IDX 53 57 75 58 40 59 23 60 24 61 33 62 25 63 26 64 32 65 34 66
REMARK SMILES IDX 27 67 28 68 29 69 30 70 31 71 57 72 58 73 67 74 59 75 60 76
REMARK SMILES IDX 66 77 68 78 61 79 62 80 63 81 64 82 65 83 41 84 42 85 51 86
REMARK SMILES IDX 43 87 44 88 50 89 52 90 45 91 46 92 47 93 48 94 49 95
REMARK H PARENT 92 23 73 45 39 56
REMARK Flexibility Score: inf
ROOT
ATOM      1  C   UNL A   1      39.422  21.939  26.457  1.00  0.00     0.202 C 
ENDROOT
BRANCH   1   2
ATOM      2  O   UNL A   1      38.541  21.841  25.343  1.00  0.00    -0.374 OA
BRANCH   2   3
ATOM      3  C   UNL A   1      37.199  21.405  25.568  1.00  0.00     0.202 C 
BRANCH   3   4
ATOM      4  C   UNL A   1      36.097  22.466  25.606  1.00  0.00     0.261 C 
BRANCH   4   5
ATOM      5  O   UNL A   1      35.048  22.096  24.700  1.00  0.00    -0.460 OA
BRANCH   5   6
ATOM      6  C   UNL A   1      34.827  22.946  23.666  1.00  0.00     0.333 C 
ATOM      7  O   UNL A   1      35.690  23.468  22.978  1.00  0.00    -0.247 OA
BRANCH   6   8
ATOM      8  C   UNL A   1      33.357  22.990  23.375  1.00  0.00     0.036 C 
ATOM      9  C   UNL A   1      33.002  22.657  22.118  1.00  0.00     0.020 C 
BRANCH   8  10
ATOM     10  C   UNL A   1      32.401  23.487  24.481  1.00  0.00     0.055 C 
ATOM     11  C   UNL A   1      30.947  23.768  24.027  1.00  0.00     0.012 C 
ATOM     12  C   UNL A   1      32.907  24.751  25.244  1.00  0.00     0.129 C 
ATOM     13  C   UNL A   1      30.866  24.964  23.080  1.00  0.00     0.008 C 
ATOM     14  C   UNL A   1      32.857  25.987  24.302  1.00  0.00     0.050 C 
ATOM     15  C   UNL A   1      31.443  26.266  23.695  1.00  0.00    -0.024 C 
ATOM     16  C   UNL A   1      33.503  27.281  24.778  1.00  0.00    -0.071 C 
ATOM     17  C   UNL A   1      30.438  26.817  24.735  1.00  0.00     0.012 C 
ATOM     18  C   UNL A   1      31.602  27.310  22.551  1.00  0.00     0.008 C 
ATOM     19  C   UNL A   1      33.688  28.277  23.657  1.00  0.00     0.031 C 
ATOM     20  C   UNL A   1      33.892  27.558  26.032  1.00  0.00     0.008 C 
ATOM     21  C   UNL A   1      32.357  28.578  22.968  1.00  0.00     0.005 C 
BRANCH  12  22
ATOM     22  O   UNL A   1      32.174  24.971  26.457  1.00  0.00    -0.392 OA
ATOM     23  H   UNL A   1      32.464  24.334  27.130  1.00  0.00     0.211 HD
ENDBRANCH  12  22
ENDBRANCH   8  10
ENDBRANCH   6   8
ENDBRANCH   5   6
ENDBRANCH   4   5
ENDBRANCH   3   4
ENDBRANCH   2   3
ENDBRANCH   1   2
BRANCH   1  24
ATOM     24  C   UNL A   1      40.390  23.128  26.550  1.00  0.00     0.261 C 
BRANCH  24  25
ATOM     25  O   UNL A   1      39.773  24.413  26.379  1.00  0.00    -0.460 OA
BRANCH  25  26
ATOM     26  C   UNL A   1      40.660  25.432  26.251  1.00  0.00     0.338 C 
ATOM     27  O   UNL A   1      41.204  25.811  25.226  1.00  0.00    -0.246 OA
BRANCH  26  28
ATOM     28  C   UNL A   1      40.766  26.182  27.515  1.00  0.00     0.060 A 
ATOM     29  C   UNL A   1      39.762  25.969  28.467  1.00  0.00     0.016 A 
ATOM     30  C   UNL A   1      41.752  27.147  27.724  1.00  0.00     0.016 A 
ATOM     31  C   UNL A   1      39.715  26.750  29.614  1.00  0.00     0.010 A 
ATOM     32  C   UNL A   1      41.697  27.939  28.878  1.00  0.00     0.010 A 
ATOM     33  C   UNL A   1      40.657  27.769  29.809  1.00  0.00    -0.014 A 
BRANCH  33  34
ATOM     34  C   UNL A   1      40.448  28.714  30.934  1.00  0.00     0.031 A 
ATOM     35  C   UNL A   1      41.315  28.610  32.159  1.00  0.00     0.074 A 
ATOM     36  C   UNL A   1      39.558  29.716  30.814  1.00  0.00     0.049 A 
ATOM     37  N   UNL A   1      41.349  29.381  33.216  1.00  0.00    -0.248 NA
ATOM     38  C   UNL A   1      42.275  27.494  32.199  1.00  0.00     0.031 C 
ATOM     39  C   UNL A   1      38.679  29.927  29.663  1.00  0.00     0.029 A 
ATOM     40  N   UNL A   1      39.255  30.749  31.663  1.00  0.00    -0.354 N 
ATOM     41  C   UNL A   1      42.338  28.853  34.040  1.00  0.00     0.074 A 
ATOM     42  C   UNL A   1      42.845  27.668  33.384  1.00  0.00     0.031 C 
ATOM     43  C   UNL A   1      37.937  31.026  29.878  1.00  0.00     0.029 A 
ATOM     44  C   UNL A   1      38.268  31.580  31.189  1.00  0.00     0.049 A 
ATOM     45  H   UNL A   1      39.703  30.883  32.529  1.00  0.00     0.167 HD
ATOM     46  C   UNL A   1      42.795  29.326  35.225  1.00  0.00     0.037 A 
ATOM     47  C   UNL A   1      37.689  32.657  31.754  1.00  0.00     0.037 A 
ATOM     48  C   UNL A   1      42.280  30.504  35.876  1.00  0.00     0.049 A 
ATOM     49  C   UNL A   1      38.179  33.133  33.097  1.00  0.00     0.074 A 
ATOM     50  C   UNL A   1      42.673  31.066  37.079  1.00  0.00     0.029 A 
ATOM     51  N   UNL A   1      41.258  31.302  35.381  1.00  0.00    -0.354 N 
ATOM     52  N   UNL A   1      39.129  32.635  33.852  1.00  0.00    -0.248 NA
ATOM     53  C   UNL A   1      37.530  34.326  33.654  1.00  0.00     0.031 C 
ATOM     54  C   UNL A   1      41.856  32.172  37.335  1.00  0.00     0.029 A 
ATOM     55  C   UNL A   1      40.993  32.338  36.264  1.00  0.00     0.049 A 
ATOM     56  H   UNL A   1      40.789  31.154  34.529  1.00  0.00     0.167 HD
ATOM     57  C   UNL A   1      39.204  33.465  34.967  1.00  0.00     0.074 A 
ATOM     58  C   UNL A   1      38.223  34.513  34.768  1.00  0.00     0.031 C 
ATOM     59  C   UNL A   1      40.006  33.369  36.058  1.00  0.00     0.037 A 
BRANCH  46  60
ATOM     60  C   UNL A   1      43.904  28.564  35.901  1.00  0.00     0.058 A 
ATOM     61  C   UNL A   1      45.255  28.895  35.702  1.00  0.00     0.135 A 
ATOM     62  C   UNL A   1      43.614  27.522  36.797  1.00  0.00     0.135 A 
ATOM     63  F   UNL A   1      45.592  29.870  34.843  1.00  0.00    -0.206 F 
ATOM     64  C   UNL A   1      46.277  28.208  36.350  1.00  0.00     0.059 A 
ATOM     65  C   UNL A   1      44.619  26.840  37.478  1.00  0.00     0.059 A 
ATOM     66  F   UNL A   1      42.341  27.159  37.023  1.00  0.00    -0.206 F 
ATOM     67  C   UNL A   1      45.949  27.183  37.240  1.00  0.00     0.060 A 
BRANCH  67  68
ATOM     68  S   UNL A   1      47.286  26.318  38.089  1.00  0.00     0.124 S 
ATOM     69  O   UNL A   1      46.759  26.229  39.448  1.00  0.00    -0.237 OA
ATOM     70  O   UNL A   1      47.359  25.060  37.353  1.00  0.00    -0.237 OA
ATOM     71  O   UNL A   1      48.430  27.209  37.919  1.00  0.00    -0.744 OA
ENDBRANCH  67  68
ENDBRANCH  46  60
BRANCH  47  72
ATOM     72  C   UNL A   1      36.567  33.346  31.060  1.00  0.00     0.058 A 
ATOM     73  C   UNL A   1      36.779  34.138  29.923  1.00  0.00     0.135 A 
ATOM     74  C   UNL A   1      35.250  33.227  31.535  1.00  0.00     0.135 A 
ATOM     75  F   UNL A   1      38.020  34.290  29.434  1.00  0.00    -0.206 F 
ATOM     76  C   UNL A   1      35.734  34.807  29.294  1.00  0.00     0.059 A 
ATOM     77  C   UNL A   1      34.184  33.859  30.904  1.00  0.00     0.059 A 
ATOM     78  F   UNL A   1      34.988  32.470  32.612  1.00  0.00    -0.206 F 
ATOM     79  C   UNL A   1      34.438  34.658  29.792  1.00  0.00     0.060 A 
BRANCH  79  80
ATOM     80  S   UNL A   1      33.082  35.498  28.947  1.00  0.00     0.124 S 
ATOM     81  O   UNL A   1      32.509  34.414  28.159  1.00  0.00    -0.237 OA
ATOM     82  O   UNL A   1      32.273  35.974  30.065  1.00  0.00    -0.237 OA
ATOM     83  O   UNL A   1      33.759  36.543  28.184  1.00  0.00    -0.744 OA
ENDBRANCH  79  80
ENDBRANCH  47  72
BRANCH  59  84
ATOM     84  C   UNL A   1      39.866  34.441  37.107  1.00  0.00     0.058 A 
ATOM     85  C   UNL A   1      39.029  34.281  38.223  1.00  0.00     0.135 A 
ATOM     86  C   UNL A   1      40.583  35.644  36.997  1.00  0.00     0.135 A 
ATOM     87  F   UNL A   1      38.320  33.151  38.379  1.00  0.00    -0.206 F 
ATOM     88  C   UNL A   1      38.865  35.295  39.162  1.00  0.00     0.059 A 
ATOM     89  C   UNL A   1      40.462  36.658  37.943  1.00  0.00     0.059 A 
ATOM     90  F   UNL A   1      41.412  35.846  35.961  1.00  0.00    -0.206 F 
ATOM     91  C   UNL A   1      39.581  36.482  39.010  1.00  0.00     0.060 A 
BRANCH  91  92
ATOM     92  S   UNL A   1      39.346  37.796  40.225  1.00  0.00     0.124 S 
ATOM     93  O   UNL A   1      39.030  37.031  41.427  1.00  0.00    -0.237 OA
ATOM     94  O   UNL A   1      40.646  38.462  40.219  1.00  0.00    -0.237 OA
ATOM     95  O   UNL A   1      38.245  38.579  39.672  1.00  0.00    -0.744 OA
ENDBRANCH  91  92
ENDBRANCH  59  84
ENDBRANCH  33  34
ENDBRANCH  26  28
ENDBRANCH  25  26
ENDBRANCH  24  25
ENDBRANCH   1  24
TORSDOF 19
ENDMDL
MODEL 3
REMARK VINA RESULT:     -11.1      6.595     12.136
REMARK SMILES C=C(C(=O)OCCOCCOC(=O)c1ccc(-c2c3nc(c(-c4c(F)cc(S(=O)(=O)[O-])cc4F)c4ccc([nH]4)c(-c4c(F)cc(S(=O)(=O)[O-])cc4F)c4nc(c(-c5c(F)cc(S(=O)(=O)[O-])cc5F)c5ccc2[nH]5)C=C4)C=C3)cc1)[C@@H]1CC[C@]2(C)CCCC(=C)[C@H]2[C@H]1O
REMARK SMILES IDX 9 1 8 2 7 3 6 4 5 5 3 6 4 7 2 8 1 9 80 10 81 11 91 12 82 13
REMARK SMILES IDX 90 14 83 15 88 16 84 17 85 18 87 19 89 20 86 21 92 22 10 24
REMARK SMILES IDX 11 25 12 26 13 27 14 28 15 29 79 30 16 31 78 32 17 33 18 34
REMARK SMILES IDX 19 35 72 36 20 37 77 38 71 39 73 40 21 41 76 42 70 43 69 44
REMARK SMILES IDX 22 46 56 47 35 48 55 49 36 50 39 51 54 52 74 53 37 54 38 55
REMARK SMILES IDX 53 57 75 58 40 59 23 60 24 61 33 62 25 63 26 64 32 65 34 66
REMARK SMILES IDX 27 67 28 68 29 69 30 70 31 71 57 72 58 73 67 74 59 75 60 76
REMARK SMILES IDX 66 77 68 78 61 79 62 80 63 81 64 82 65 83 41 84 42 85 51 86
REMARK SMILES IDX 43 87 44 88 50 89 52 90 45 91 46 92 47 93 48 94 49 95
REMARK H PARENT 92 23 73 45 39 56
REMARK Flexibility Score: inf
ROOT
ATOM      1  C   UNL A   1      34.334  32.157  28.441  1.00  0.00     0.202 C 
ENDROOT
BRANCH   1   2
ATOM      2  O   UNL A   1      34.238  31.227  27.367  1.00  0.00    -0.374 OA
BRANCH   2   3
ATOM      3  C   UNL A   1      33.076  30.399  27.280  1.00  0.00     0.202 C 
BRANCH   3   4
ATOM      4  C   UNL A   1      32.252  30.453  25.992  1.00  0.00     0.261 C 
BRANCH   4   5
ATOM      5  O   UNL A   1      31.378  29.317  25.938  1.00  0.00    -0.460 OA
BRANCH   5   6
ATOM      6  C   UNL A   1      31.234  28.734  24.721  1.00  0.00     0.333 C 
ATOM      7  O   UNL A   1      31.454  29.269  23.646  1.00  0.00    -0.247 OA
BRANCH   6   8
ATOM      8  C   UNL A   1      30.950  27.274  24.910  1.00  0.00     0.036 C 
ATOM      9  C   UNL A   1      30.050  26.741  24.058  1.00  0.00     0.020 C 
BRANCH   8  10
ATOM     10  C   UNL A   1      31.621  26.538  26.090  1.00  0.00     0.055 C 
ATOM     11  C   UNL A   1      33.150  26.747  26.221  1.00  0.00     0.012 C 
ATOM     12  C   UNL A   1      31.352  25.001  26.122  1.00  0.00     0.129 C 
ATOM     13  C   UNL A   1      33.914  26.102  25.067  1.00  0.00     0.008 C 
ATOM     14  C   UNL A   1      32.101  24.314  24.945  1.00  0.00     0.050 C 
ATOM     15  C   UNL A   1      33.642  24.581  24.931  1.00  0.00    -0.024 C 
ATOM     16  C   UNL A   1      31.808  22.846  24.665  1.00  0.00    -0.071 C 
ATOM     17  C   UNL A   1      34.395  23.835  26.058  1.00  0.00     0.012 C 
ATOM     18  C   UNL A   1      34.205  24.112  23.557  1.00  0.00     0.008 C 
ATOM     19  C   UNL A   1      32.324  22.404  23.315  1.00  0.00     0.031 C 
ATOM     20  C   UNL A   1      31.162  21.997  25.480  1.00  0.00     0.008 C 
ATOM     21  C   UNL A   1      33.825  22.672  23.190  1.00  0.00     0.005 C 
BRANCH  12  22
ATOM     22  O   UNL A   1      31.699  24.425  27.388  1.00  0.00    -0.392 OA
ATOM     23  H   UNL A   1      32.158  25.087  27.929  1.00  0.00     0.211 HD
ENDBRANCH  12  22
ENDBRANCH   8  10
ENDBRANCH   6   8
ENDBRANCH   5   6
ENDBRANCH   4   5
ENDBRANCH   3   4
ENDBRANCH   2   3
ENDBRANCH   1   2
BRANCH   1  24
ATOM     24  C   UNL A   1      35.169  31.795  29.679  1.00  0.00     0.261 C 
BRANCH  24  25
ATOM     25  O   UNL A   1      35.838  30.527  29.596  1.00  0.00    -0.460 OA
BRANCH  25  26
ATOM     26  C   UNL A   1      36.639  30.262  30.659  1.00  0.00     0.338 C 
ATOM     27  O   UNL A   1      36.286  29.975  31.792  1.00  0.00    -0.246 OA
BRANCH  26  28
ATOM     28  C   UNL A   1      38.046  30.178  30.233  1.00  0.00     0.060 A 
ATOM     29  C   UNL A   1      38.293  30.144  28.856  1.00  0.00     0.016 A 
ATOM     30  C   UNL A   1      39.090  30.027  31.147  1.00  0.00     0.016 A 
ATOM     31  C   UNL A   1      39.579  29.915  28.385  1.00  0.00     0.010 A 
ATOM     32  C   UNL A   1      40.385  29.787  30.671  1.00  0.00     0.010 A 
ATOM     33  C   UNL A   1      40.628  29.693  29.289  1.00  0.00    -0.014 A 
BRANCH  33  34
ATOM     34  C   UNL A   1      41.936  29.245  28.750  1.00  0.00     0.031 A 
ATOM     35  C   UNL A   1      43.078  30.220  28.669  1.00  0.00     0.074 A 
ATOM     36  C   UNL A   1      42.124  27.950  28.434  1.00  0.00     0.049 A 
ATOM     37  N   UNL A   1      44.318  30.015  28.305  1.00  0.00    -0.248 NA
ATOM     38  C   UNL A   1      42.788  31.612  29.052  1.00  0.00     0.031 C 
ATOM     39  C   UNL A   1      41.096  26.911  28.494  1.00  0.00     0.029 A 
ATOM     40  N   UNL A   1      43.248  27.287  28.010  1.00  0.00    -0.354 N 
ATOM     41  C   UNL A   1      44.959  31.244  28.425  1.00  0.00     0.074 A 
ATOM     42  C   UNL A   1      43.960  32.200  28.849  1.00  0.00     0.031 C 
ATOM     43  C   UNL A   1      41.638  25.739  28.124  1.00  0.00     0.029 A 
ATOM     44  C   UNL A   1      43.041  25.949  27.775  1.00  0.00     0.049 A 
ATOM     45  H   UNL A   1      44.119  27.728  27.887  1.00  0.00     0.167 HD
ATOM     46  C   UNL A   1      46.265  31.541  28.222  1.00  0.00     0.037 A 
ATOM     47  C   UNL A   1      43.886  25.004  27.319  1.00  0.00     0.037 A 
ATOM     48  C   UNL A   1      47.253  30.583  27.794  1.00  0.00     0.049 A 
ATOM     49  C   UNL A   1      45.322  25.371  27.051  1.00  0.00     0.074 A 
ATOM     50  C   UNL A   1      48.603  30.785  27.558  1.00  0.00     0.029 A 
ATOM     51  N   UNL A   1      47.001  29.243  27.535  1.00  0.00    -0.354 N 
ATOM     52  N   UNL A   1      45.916  26.532  27.190  1.00  0.00    -0.248 NA
ATOM     53  C   UNL A   1      46.204  24.296  26.579  1.00  0.00     0.031 C 
ATOM     54  C   UNL A   1      49.155  29.580  27.108  1.00  0.00     0.029 A 
ATOM     55  C   UNL A   1      48.164  28.611  27.122  1.00  0.00     0.049 A 
ATOM     56  H   UNL A   1      46.124  28.806  27.630  1.00  0.00     0.167 HD
ATOM     57  C   UNL A   1      47.247  26.323  26.840  1.00  0.00     0.074 A 
ATOM     58  C   UNL A   1      47.373  24.918  26.514  1.00  0.00     0.031 C 
ATOM     59  C   UNL A   1      48.272  27.212  26.790  1.00  0.00     0.037 A 
BRANCH  46  60
ATOM     60  C   UNL A   1      46.702  32.964  28.453  1.00  0.00     0.058 A 
ATOM     61  C   UNL A   1      46.675  33.920  27.425  1.00  0.00     0.135 A 
ATOM     62  C   UNL A   1      47.108  33.389  29.729  1.00  0.00     0.135 A 
ATOM     63  F   UNL A   1      46.314  33.566  26.182  1.00  0.00    -0.206 F 
ATOM     64  C   UNL A   1      47.052  35.241  27.648  1.00  0.00     0.059 A 
ATOM     65  C   UNL A   1      47.463  34.712  29.982  1.00  0.00     0.059 A 
ATOM     66  F   UNL A   1      47.158  32.517  30.748  1.00  0.00    -0.206 F 
ATOM     67  C   UNL A   1      47.441  35.629  28.932  1.00  0.00     0.060 A 
BRANCH  67  68
ATOM     68  S   UNL A   1      47.906  37.351  29.208  1.00  0.00     0.124 S 
ATOM     69  O   UNL A   1      48.450  37.293  30.562  1.00  0.00    -0.237 OA
ATOM     70  O   UNL A   1      48.878  37.585  28.144  1.00  0.00    -0.237 OA
ATOM     71  O   UNL A   1      46.644  38.071  29.071  1.00  0.00    -0.744 OA
ENDBRANCH  67  68
ENDBRANCH  46  60
BRANCH  47  72
ATOM     72  C   UNL A   1      43.389  23.623  27.068  1.00  0.00     0.058 A 
ATOM     73  C   UNL A   1      43.143  22.727  28.118  1.00  0.00     0.135 A 
ATOM     74  C   UNL A   1      43.157  23.172  25.758  1.00  0.00     0.135 A 
ATOM     75  F   UNL A   1      43.356  23.105  29.388  1.00  0.00    -0.206 F 
ATOM     76  C   UNL A   1      42.709  21.427  27.880  1.00  0.00     0.059 A 
ATOM     77  C   UNL A   1      42.691  21.888  25.496  1.00  0.00     0.059 A 
ATOM     78  F   UNL A   1      43.362  23.994  24.716  1.00  0.00    -0.206 F 
ATOM     79  C   UNL A   1      42.483  21.018  26.564  1.00  0.00     0.060 A 
BRANCH  79  80
ATOM     80  S   UNL A   1      41.882  19.342  26.266  1.00  0.00     0.124 S 
ATOM     81  O   UNL A   1      42.300  18.659  27.484  1.00  0.00    -0.237 OA
ATOM     82  O   UNL A   1      40.447  19.555  26.111  1.00  0.00    -0.237 OA
ATOM     83  O   UNL A   1      42.584  18.946  25.048  1.00  0.00    -0.744 OA
ENDBRANCH  79  80
ENDBRANCH  47  72
BRANCH  59  84
ATOM     84  C   UNL A   1      49.622  26.679  26.385  1.00  0.00     0.058 A 
ATOM     85  C   UNL A   1      50.455  26.007  27.295  1.00  0.00     0.135 A 
ATOM     86  C   UNL A   1      50.088  26.839  25.070  1.00  0.00     0.135 A 
ATOM     87  F   UNL A   1      50.061  25.826  28.566  1.00  0.00    -0.206 F 
ATOM     88  C   UNL A   1      51.722  25.562  26.929  1.00  0.00     0.059 A 
ATOM     89  C   UNL A   1      51.336  26.370  24.673  1.00  0.00     0.059 A 
ATOM     90  F   UNL A   1      49.327  27.458  24.153  1.00  0.00    -0.206 F 
ATOM     91  C   UNL A   1      52.157  25.754  25.618  1.00  0.00     0.060 A 
BRANCH  91  92
ATOM     92  S   UNL A   1      53.808  25.188  25.162  1.00  0.00     0.124 S 
ATOM     93  O   UNL A   1      54.611  25.706  26.265  1.00  0.00    -0.237 OA
ATOM     94  O   UNL A   1      53.642  23.738  25.123  1.00  0.00    -0.237 OA
ATOM     95  O   UNL A   1      54.039  25.821  23.866  1.00  0.00    -0.744 OA
ENDBRANCH  91  92
ENDBRANCH  59  84
ENDBRANCH  33  34
ENDBRANCH  26  28
ENDBRANCH  25  26
ENDBRANCH  24  25
ENDBRANCH   1  24
TORSDOF 19
ENDMDL
