MODEL 1
REMARK VINA RESULT:     -10.7      0.000      0.000
REMARK SMILES O=C(OCCOCCOC(=O)[C@@H]1CC[C@@H](CNC(=O)N2CC[NH2+]CC2)O1)c1ccc(-c2c3nc(c(-c4c(F)cc(S(=O)(=O)[O-])cc4F)c4ccc([nH]4)c(-c4c(F)cc(S(=O)(=O)[O-])cc4F)c4nc(c(-c5c(F)cc(S(=O)(=O)[O-])cc5F)c5ccc2[nH]5)C=C4)C=C3)cc1
REMARK SMILES IDX 5 1 4 2 3 3 2 4 1 5 27 6 28 7 92 8 29 9 91 10 30 11 31 12
REMARK SMILES IDX 32 13 85 14 33 15 90 16 84 17 86 18 34 19 89 20 83 21 82 22
REMARK SMILES IDX 35 24 69 25 48 26 68 27 49 28 52 29 67 30 87 31 50 32 51 33
REMARK SMILES IDX 66 35 88 36 53 37 36 38 37 39 46 40 38 41 39 42 45 43 47 44
REMARK SMILES IDX 40 45 41 46 42 47 43 48 44 49 70 50 71 51 80 52 72 53 73 54
REMARK SMILES IDX 79 55 81 56 74 57 75 58 76 59 77 60 78 61 54 62 55 63 64 64
REMARK SMILES IDX 56 65 57 66 63 67 65 68 58 69 59 70 60 71 61 72 62 73 6 74
REMARK SMILES IDX 7 75 8 76 9 77 10 78 11 79 12 80 13 81 26 82 14 83 15 84
REMARK SMILES IDX 16 85 17 86 18 87 19 89 20 90 21 91 25 92 22 93 24 94 23 95
REMARK H PARENT 86 23 52 34 17 88 23 96 23 97
REMARK Flexibility Score: inf
ROOT
ATOM      1  C   UNL A   1      37.086  23.409  25.636  1.00  0.00     0.202 C 
ENDROOT
BRANCH   1   2
ATOM      2  C   UNL A   1      38.508  23.365  26.209  1.00  0.00     0.261 C 
BRANCH   2   3
ATOM      3  O   UNL A   1      39.135  24.656  26.086  1.00  0.00    -0.460 OA
BRANCH   3   4
ATOM      4  C   UNL A   1      40.269  25.098  26.678  1.00  0.00     0.338 C 
ATOM      5  O   UNL A   1      41.350  24.722  26.225  1.00  0.00    -0.246 OA
BRANCH   4   6
ATOM      6  C   UNL A   1      40.289  26.046  27.835  1.00  0.00     0.060 A 
ATOM      7  C   UNL A   1      39.409  26.005  28.916  1.00  0.00     0.016 A 
ATOM      8  C   UNL A   1      41.325  26.995  27.869  1.00  0.00     0.016 A 
ATOM      9  C   UNL A   1      39.507  26.892  29.971  1.00  0.00     0.010 A 
ATOM     10  C   UNL A   1      41.455  27.878  28.946  1.00  0.00     0.010 A 
ATOM     11  C   UNL A   1      40.532  27.829  29.995  1.00  0.00    -0.014 A 
BRANCH  11  12
ATOM     12  C   UNL A   1      40.521  28.796  31.101  1.00  0.00     0.031 A 
ATOM     13  C   UNL A   1      39.489  29.877  31.082  1.00  0.00     0.074 A 
ATOM     14  C   UNL A   1      41.315  28.576  32.165  1.00  0.00     0.049 A 
ATOM     15  N   UNL A   1      39.285  30.837  31.938  1.00  0.00    -0.248 NA
ATOM     16  C   UNL A   1      38.544  29.864  29.951  1.00  0.00     0.031 C 
ATOM     17  C   UNL A   1      42.244  27.450  32.303  1.00  0.00     0.029 A 
ATOM     18  N   UNL A   1      41.441  29.257  33.345  1.00  0.00    -0.354 N 
ATOM     19  C   UNL A   1      38.208  31.558  31.440  1.00  0.00     0.074 A 
ATOM     20  C   UNL A   1      37.799  30.928  30.207  1.00  0.00     0.031 C 
ATOM     21  C   UNL A   1      42.829  27.508  33.510  1.00  0.00     0.029 A 
ATOM     22  C   UNL A   1      42.369  28.708  34.197  1.00  0.00     0.049 A 
ATOM     23  H   UNL A   1      40.917  30.061  33.562  1.00  0.00     0.167 HD
ATOM     24  C   UNL A   1      37.630  32.657  31.976  1.00  0.00     0.037 A 
ATOM     25  C   UNL A   1      42.815  29.157  35.386  1.00  0.00     0.037 A 
ATOM     26  C   UNL A   1      38.073  33.248  33.208  1.00  0.00     0.049 A 
ATOM     27  C   UNL A   1      42.220  30.436  35.912  1.00  0.00     0.074 A 
ATOM     28  C   UNL A   1      37.629  34.401  33.825  1.00  0.00     0.029 A 
ATOM     29  N   UNL A   1      39.073  32.717  34.016  1.00  0.00    -0.354 N 
ATOM     30  N   UNL A   1      41.257  31.167  35.394  1.00  0.00    -0.248 NA
ATOM     31  C   UNL A   1      42.772  30.963  37.163  1.00  0.00     0.031 C 
ATOM     32  C   UNL A   1      38.391  34.590  34.983  1.00  0.00     0.029 A 
ATOM     33  C   UNL A   1      39.273  33.527  35.117  1.00  0.00     0.049 A 
ATOM     34  H   UNL A   1      39.565  31.885  33.830  1.00  0.00     0.167 HD
ATOM     35  C   UNL A   1      41.078  32.234  36.264  1.00  0.00     0.074 A 
ATOM     36  C   UNL A   1      42.021  32.039  37.351  1.00  0.00     0.031 C 
ATOM     37  C   UNL A   1      40.220  33.281  36.179  1.00  0.00     0.037 A 
BRANCH  24  38
ATOM     38  C   UNL A   1      36.531  33.309  31.186  1.00  0.00     0.058 A 
ATOM     39  C   UNL A   1      36.780  34.023  30.003  1.00  0.00     0.135 A 
ATOM     40  C   UNL A   1      35.205  33.246  31.643  1.00  0.00     0.135 A 
ATOM     41  F   UNL A   1      38.033  34.146  29.539  1.00  0.00    -0.206 F 
ATOM     42  C   UNL A   1      35.757  34.673  29.316  1.00  0.00     0.059 A 
ATOM     43  C   UNL A   1      34.163  33.867  30.961  1.00  0.00     0.059 A 
ATOM     44  F   UNL A   1      34.912  32.591  32.778  1.00  0.00    -0.206 F 
ATOM     45  C   UNL A   1      34.452  34.591  29.805  1.00  0.00     0.060 A 
BRANCH  45  46
ATOM     46  S   UNL A   1      33.137  35.452  28.915  1.00  0.00     0.124 S 
ATOM     47  O   UNL A   1      33.899  36.427  28.140  1.00  0.00    -0.237 OA
ATOM     48  O   UNL A   1      32.522  34.375  28.148  1.00  0.00    -0.237 OA
ATOM     49  O   UNL A   1      32.312  36.010  29.983  1.00  0.00    -0.744 OA
ENDBRANCH  45  46
ENDBRANCH  24  38
BRANCH  25  50
ATOM     50  C   UNL A   1      43.903  28.439  36.105  1.00  0.00     0.058 A 
ATOM     51  C   UNL A   1      43.634  27.372  36.973  1.00  0.00     0.135 A 
ATOM     52  C   UNL A   1      45.249  28.812  35.936  1.00  0.00     0.135 A 
ATOM     53  F   UNL A   1      42.367  26.977  37.178  1.00  0.00    -0.206 F 
ATOM     54  C   UNL A   1      44.651  26.712  37.659  1.00  0.00     0.059 A 
ATOM     55  C   UNL A   1      46.285  28.149  36.587  1.00  0.00     0.059 A 
ATOM     56  F   UNL A   1      45.569  29.821  35.111  1.00  0.00    -0.206 F 
ATOM     57  C   UNL A   1      45.975  27.109  37.460  1.00  0.00     0.060 A 
BRANCH  57  58
ATOM     58  S   UNL A   1      47.292  26.236  38.337  1.00  0.00     0.124 S 
ATOM     59  O   UNL A   1      46.638  24.975  38.668  1.00  0.00    -0.237 OA
ATOM     60  O   UNL A   1      48.341  26.165  37.326  1.00  0.00    -0.237 OA
ATOM     61  O   UNL A   1      47.581  27.113  39.469  1.00  0.00    -0.744 OA
ENDBRANCH  57  58
ENDBRANCH  25  50
BRANCH  37  62
ATOM     62  C   UNL A   1      40.246  34.271  37.306  1.00  0.00     0.058 A 
ATOM     63  C   UNL A   1      41.050  35.418  37.258  1.00  0.00     0.135 A 
ATOM     64  C   UNL A   1      39.401  34.098  38.412  1.00  0.00     0.135 A 
ATOM     65  F   UNL A   1      41.880  35.620  36.222  1.00  0.00    -0.206 F 
ATOM     66  C   UNL A   1      41.027  36.357  38.280  1.00  0.00     0.059 A 
ATOM     67  C   UNL A   1      39.341  35.038  39.433  1.00  0.00     0.059 A 
ATOM     68  F   UNL A   1      38.605  33.020  38.496  1.00  0.00    -0.206 F 
ATOM     69  C   UNL A   1      40.165  36.161  39.362  1.00  0.00     0.060 A 
BRANCH  69  70
ATOM     70  S   UNL A   1      40.106  37.413  40.658  1.00  0.00     0.124 S 
ATOM     71  O   UNL A   1      39.102  36.858  41.558  1.00  0.00    -0.237 OA
ATOM     72  O   UNL A   1      41.478  37.410  41.159  1.00  0.00    -0.237 OA
ATOM     73  O   UNL A   1      39.710  38.623  39.944  1.00  0.00    -0.744 OA
ENDBRANCH  69  70
ENDBRANCH  37  62
ENDBRANCH  11  12
ENDBRANCH   4   6
ENDBRANCH   3   4
ENDBRANCH   2   3
ENDBRANCH   1   2
BRANCH   1  74
ATOM     74  O   UNL A   1      36.308  22.243  25.911  1.00  0.00    -0.374 OA
BRANCH  74  75
ATOM     75  C   UNL A   1      36.380  21.208  24.929  1.00  0.00     0.202 C 
BRANCH  75  76
ATOM     76  C   UNL A   1      35.103  20.373  24.963  1.00  0.00     0.261 C 
BRANCH  76  77
ATOM     77  O   UNL A   1      34.198  20.956  25.920  1.00  0.00    -0.461 OA
BRANCH  77  78
ATOM     78  C   UNL A   1      32.913  21.128  25.495  1.00  0.00     0.335 C 
ATOM     79  O   UNL A   1      32.160  20.226  25.145  1.00  0.00    -0.249 OA
BRANCH  78  80
ATOM     80  C   UNL A   1      32.485  22.601  25.558  1.00  0.00     0.228 C 
ATOM     81  C   UNL A   1      31.263  22.897  26.423  1.00  0.00     0.047 C 
ATOM     82  O   UNL A   1      32.205  23.164  24.259  1.00  0.00    -0.361 OA
ATOM     83  C   UNL A   1      30.648  24.090  25.730  1.00  0.00     0.037 C 
ATOM     84  C   UNL A   1      30.885  23.736  24.275  1.00  0.00     0.138 C 
BRANCH  84  85
ATOM     85  C   UNL A   1      30.769  24.924  23.310  1.00  0.00     0.149 C 
BRANCH  85  86
ATOM     86  N   UNL A   1      31.804  24.874  22.287  1.00  0.00    -0.335 N 
ATOM     87  C   UNL A   1      32.788  25.713  21.917  1.00  0.00     0.317 C 
ATOM     88  H   UNL A   1      31.778  24.049  21.750  1.00  0.00     0.165 HD
ATOM     89  O   UNL A   1      33.164  25.637  20.746  1.00  0.00    -0.249 OA
ATOM     90  N   UNL A   1      33.306  26.627  22.780  1.00  0.00    -0.314 N 
ATOM     91  C   UNL A   1      34.036  27.772  22.233  1.00  0.00     0.182 C 
ATOM     92  C   UNL A   1      33.364  26.558  24.237  1.00  0.00     0.182 C 
ATOM     93  C   UNL A   1      33.498  29.077  22.855  1.00  0.00     0.282 C 
ATOM     94  C   UNL A   1      32.828  27.867  24.847  1.00  0.00     0.282 C 
ATOM     95  N   UNL A   1      33.521  29.070  24.337  1.00  0.00    -0.343 N 
ATOM     96  H   UNL A   1      33.049  29.905  24.685  1.00  0.00     0.346 HD
ATOM     97  H   UNL A   1      34.489  29.062  24.657  1.00  0.00     0.346 HD
ENDBRANCH  85  86
ENDBRANCH  84  85
ENDBRANCH  78  80
ENDBRANCH  77  78
ENDBRANCH  76  77
ENDBRANCH  75  76
ENDBRANCH  74  75
ENDBRANCH   1  74
TORSDOF 19
ENDMDL
MODEL 2
REMARK VINA RESULT:     -10.6      1.671      8.793
REMARK SMILES O=C(OCCOCCOC(=O)[C@@H]1CC[C@@H](CNC(=O)N2CC[NH2+]CC2)O1)c1ccc(-c2c3nc(c(-c4c(F)cc(S(=O)(=O)[O-])cc4F)c4ccc([nH]4)c(-c4c(F)cc(S(=O)(=O)[O-])cc4F)c4nc(c(-c5c(F)cc(S(=O)(=O)[O-])cc5F)c5ccc2[nH]5)C=C4)C=C3)cc1
REMARK SMILES IDX 5 1 4 2 3 3 2 4 1 5 27 6 28 7 92 8 29 9 91 10 30 11 31 12
REMARK SMILES IDX 32 13 85 14 33 15 90 16 84 17 86 18 34 19 89 20 83 21 82 22
REMARK SMILES IDX 35 24 69 25 48 26 68 27 49 28 52 29 67 30 87 31 50 32 51 33
REMARK SMILES IDX 66 35 88 36 53 37 36 38 37 39 46 40 38 41 39 42 45 43 47 44
REMARK SMILES IDX 40 45 41 46 42 47 43 48 44 49 70 50 71 51 80 52 72 53 73 54
REMARK SMILES IDX 79 55 81 56 74 57 75 58 76 59 77 60 78 61 54 62 55 63 64 64
REMARK SMILES IDX 56 65 57 66 63 67 65 68 58 69 59 70 60 71 61 72 62 73 6 74
REMARK SMILES IDX 7 75 8 76 9 77 10 78 11 79 12 80 13 81 26 82 14 83 15 84
REMARK SMILES IDX 16 85 17 86 18 87 19 89 20 90 21 91 25 92 22 93 24 94 23 95
REMARK H PARENT 86 23 52 34 17 88 23 96 23 97
REMARK Flexibility Score: inf
ROOT
ATOM      1  C   UNL A   1      43.589  22.156  25.888  1.00  0.00     0.202 C 
ENDROOT
BRANCH   1   2
ATOM      2  C   UNL A   1      43.541  23.681  25.736  1.00  0.00     0.261 C 
BRANCH   2   3
ATOM      3  O   UNL A   1      42.249  24.180  26.129  1.00  0.00    -0.460 OA
BRANCH   3   4
ATOM      4  C   UNL A   1      41.787  25.452  26.074  1.00  0.00     0.338 C 
ATOM      5  O   UNL A   1      41.528  25.932  24.970  1.00  0.00    -0.246 OA
BRANCH   4   6
ATOM      6  C   UNL A   1      41.543  26.301  27.280  1.00  0.00     0.060 A 
ATOM      7  C   UNL A   1      40.628  26.011  28.291  1.00  0.00     0.016 A 
ATOM      8  C   UNL A   1      42.360  27.435  27.442  1.00  0.00     0.016 A 
ATOM      9  C   UNL A   1      40.479  26.824  29.398  1.00  0.00     0.010 A 
ATOM     10  C   UNL A   1      42.241  28.249  28.573  1.00  0.00     0.010 A 
ATOM     11  C   UNL A   1      41.287  27.944  29.548  1.00  0.00    -0.014 A 
BRANCH  11  12
ATOM     12  C   UNL A   1      41.013  28.809  30.703  1.00  0.00     0.031 A 
ATOM     13  C   UNL A   1      41.945  28.743  31.870  1.00  0.00     0.074 A 
ATOM     14  C   UNL A   1      40.049  29.743  30.602  1.00  0.00     0.049 A 
ATOM     15  N   UNL A   1      41.908  29.403  32.993  1.00  0.00    -0.248 NA
ATOM     16  C   UNL A   1      43.087  27.820  31.748  1.00  0.00     0.031 C 
ATOM     17  C   UNL A   1      39.199  29.951  29.426  1.00  0.00     0.029 A 
ATOM     18  N   UNL A   1      39.650  30.715  31.477  1.00  0.00    -0.354 N 
ATOM     19  C   UNL A   1      43.003  28.958  33.722  1.00  0.00     0.074 A 
ATOM     20  C   UNL A   1      43.687  27.972  32.919  1.00  0.00     0.031 C 
ATOM     21  C   UNL A   1      38.392  31.000  29.646  1.00  0.00     0.029 A 
ATOM     22  C   UNL A   1      38.620  31.491  31.000  1.00  0.00     0.049 A 
ATOM     23  H   UNL A   1      40.059  30.847  32.362  1.00  0.00     0.167 HD
ATOM     24  C   UNL A   1      43.384  29.344  34.961  1.00  0.00     0.037 A 
ATOM     25  C   UNL A   1      37.922  32.465  31.615  1.00  0.00     0.037 A 
ATOM     26  C   UNL A   1      42.669  30.332  35.723  1.00  0.00     0.049 A 
ATOM     27  C   UNL A   1      38.308  32.807  33.029  1.00  0.00     0.074 A 
ATOM     28  C   UNL A   1      42.899  30.762  37.015  1.00  0.00     0.029 A 
ATOM     29  N   UNL A   1      41.576  31.048  35.246  1.00  0.00    -0.354 N 
ATOM     30  N   UNL A   1      39.293  32.322  33.751  1.00  0.00    -0.248 NA
ATOM     31  C   UNL A   1      37.488  33.808  33.719  1.00  0.00     0.031 C 
ATOM     32  C   UNL A   1      41.917  31.707  37.334  1.00  0.00     0.029 A 
ATOM     33  C   UNL A   1      41.109  31.905  36.223  1.00  0.00     0.049 A 
ATOM     34  H   UNL A   1      41.193  30.958  34.344  1.00  0.00     0.167 HD
ATOM     35  C   UNL A   1      39.221  32.969  34.978  1.00  0.00     0.074 A 
ATOM     36  C   UNL A   1      38.106  33.894  34.889  1.00  0.00     0.031 C 
ATOM     37  C   UNL A   1      39.998  32.816  36.079  1.00  0.00     0.037 A 
BRANCH  24  38
ATOM     38  C   UNL A   1      44.560  28.637  35.570  1.00  0.00     0.058 A 
ATOM     39  C   UNL A   1      45.870  29.130  35.463  1.00  0.00     0.135 A 
ATOM     40  C   UNL A   1      44.374  27.421  36.248  1.00  0.00     0.135 A 
ATOM     41  F   UNL A   1      46.110  30.270  34.796  1.00  0.00    -0.206 F 
ATOM     42  C   UNL A   1      46.957  28.430  35.983  1.00  0.00     0.059 A 
ATOM     43  C   UNL A   1      45.441  26.716  36.796  1.00  0.00     0.059 A 
ATOM     44  F   UNL A   1      43.144  26.895  36.366  1.00  0.00    -0.206 F 
ATOM     45  C   UNL A   1      46.731  27.221  36.644  1.00  0.00     0.060 A 
BRANCH  45  46
ATOM     46  S   UNL A   1      48.150  26.314  37.298  1.00  0.00     0.124 S 
ATOM     47  O   UNL A   1      48.452  27.077  38.507  1.00  0.00    -0.237 OA
ATOM     48  O   UNL A   1      47.596  24.982  37.513  1.00  0.00    -0.237 OA
ATOM     49  O   UNL A   1      49.140  26.415  36.231  1.00  0.00    -0.744 OA
ENDBRANCH  45  46
ENDBRANCH  24  38
BRANCH  25  50
ATOM     50  C   UNL A   1      36.774  33.120  30.929  1.00  0.00     0.058 A 
ATOM     51  C   UNL A   1      35.446  32.797  31.242  1.00  0.00     0.135 A 
ATOM     52  C   UNL A   1      36.986  34.093  29.936  1.00  0.00     0.135 A 
ATOM     53  F   UNL A   1      35.184  31.870  32.177  1.00  0.00    -0.206 F 
ATOM     54  C   UNL A   1      34.373  33.397  30.587  1.00  0.00     0.059 A 
ATOM     55  C   UNL A   1      35.931  34.728  29.288  1.00  0.00     0.059 A 
ATOM     56  F   UNL A   1      38.235  34.451  29.600  1.00  0.00    -0.206 F 
ATOM     57  C   UNL A   1      34.625  34.362  29.610  1.00  0.00     0.060 A 
BRANCH  57  58
ATOM     58  S   UNL A   1      33.229  35.152  28.779  1.00  0.00     0.124 S 
ATOM     59  O   UNL A   1      33.898  36.204  28.019  1.00  0.00    -0.237 OA
ATOM     60  O   UNL A   1      32.675  34.053  27.995  1.00  0.00    -0.237 OA
ATOM     61  O   UNL A   1      32.393  35.609  29.885  1.00  0.00    -0.744 OA
ENDBRANCH  57  58
ENDBRANCH  25  50
BRANCH  37  62
ATOM     62  C   UNL A   1      39.682  33.690  37.257  1.00  0.00     0.058 A 
ATOM     63  C   UNL A   1      38.824  33.264  38.280  1.00  0.00     0.135 A 
ATOM     64  C   UNL A   1      40.305  34.941  37.390  1.00  0.00     0.135 A 
ATOM     65  F   UNL A   1      38.201  32.078  38.190  1.00  0.00    -0.206 F 
ATOM     66  C   UNL A   1      38.580  34.056  39.393  1.00  0.00     0.059 A 
ATOM     67  C   UNL A   1      40.097  35.738  38.508  1.00  0.00     0.059 A 
ATOM     68  F   UNL A   1      41.143  35.386  36.440  1.00  0.00    -0.206 F 
ATOM     69  C   UNL A   1      39.226  35.291  39.501  1.00  0.00     0.060 A 
BRANCH  69  70
ATOM     70  S   UNL A   1      38.941  36.289  40.976  1.00  0.00     0.124 S 
ATOM     71  O   UNL A   1      37.852  35.561  41.617  1.00  0.00    -0.237 OA
ATOM     72  O   UNL A   1      40.233  36.224  41.653  1.00  0.00    -0.237 OA
ATOM     73  O   UNL A   1      38.589  37.599  40.437  1.00  0.00    -0.744 OA
ENDBRANCH  69  70
ENDBRANCH  37  62
ENDBRANCH  11  12
ENDBRANCH   4   6
ENDBRANCH   3   4
ENDBRANCH   2   3
ENDBRANCH   1   2
BRANCH   1  74
ATOM     74  O   UNL A   1      42.358  21.497  25.585  1.00  0.00    -0.374 OA
BRANCH  74  75
ATOM     75  C   UNL A   1      42.003  20.423  26.456  1.00  0.00     0.202 C 
BRANCH  75  76
ATOM     76  C   UNL A   1      40.556  20.584  26.913  1.00  0.00     0.261 C 
BRANCH  76  77
ATOM     77  O   UNL A   1      39.787  21.126  25.824  1.00  0.00    -0.461 OA
BRANCH  77  78
ATOM     78  C   UNL A   1      38.972  22.175  26.134  1.00  0.00     0.335 C 
ATOM     79  O   UNL A   1      39.247  23.069  26.928  1.00  0.00    -0.249 OA
BRANCH  78  80
ATOM     80  C   UNL A   1      37.669  22.145  25.323  1.00  0.00     0.228 C 
ATOM     81  C   UNL A   1      37.011  23.501  25.082  1.00  0.00     0.047 C 
ATOM     82  O   UNL A   1      36.657  21.304  25.911  1.00  0.00    -0.361 OA
ATOM     83  C   UNL A   1      35.543  23.147  25.013  1.00  0.00     0.037 C 
ATOM     84  C   UNL A   1      35.452  22.073  26.078  1.00  0.00     0.138 C 
BRANCH  84  85
ATOM     85  C   UNL A   1      34.198  21.194  25.982  1.00  0.00     0.149 C 
BRANCH  85  86
ATOM     86  N   UNL A   1      33.101  21.753  26.759  1.00  0.00    -0.335 N 
ATOM     87  C   UNL A   1      32.153  22.672  26.502  1.00  0.00     0.317 C 
ATOM     88  H   UNL A   1      33.040  21.378  27.667  1.00  0.00     0.165 HD
ATOM     89  O   UNL A   1      31.700  23.281  27.472  1.00  0.00    -0.249 OA
ATOM     90  N   UNL A   1      31.750  22.943  25.232  1.00  0.00    -0.314 N 
ATOM     91  C   UNL A   1      31.064  24.210  24.970  1.00  0.00     0.182 C 
ATOM     92  C   UNL A   1      31.779  22.059  24.070  1.00  0.00     0.182 C 
ATOM     93  C   UNL A   1      31.723  24.920  23.771  1.00  0.00     0.282 C 
ATOM     94  C   UNL A   1      32.436  22.780  22.878  1.00  0.00     0.282 C 
ATOM     95  N   UNL A   1      31.793  24.073  22.556  1.00  0.00    -0.343 N 
ATOM     96  H   UNL A   1      32.339  24.554  21.841  1.00  0.00     0.346 HD
ATOM     97  H   UNL A   1      30.848  23.903  22.212  1.00  0.00     0.346 HD
ENDBRANCH  85  86
ENDBRANCH  84  85
ENDBRANCH  78  80
ENDBRANCH  77  78
ENDBRANCH  76  77
ENDBRANCH  75  76
ENDBRANCH  74  75
ENDBRANCH   1  74
TORSDOF 19
ENDMDL
MODEL 3
REMARK VINA RESULT:     -10.5      6.897     11.705
REMARK SMILES O=C(OCCOCCOC(=O)[C@@H]1CC[C@@H](CNC(=O)N2CC[NH2+]CC2)O1)c1ccc(-c2c3nc(c(-c4c(F)cc(S(=O)(=O)[O-])cc4F)c4ccc([nH]4)c(-c4c(F)cc(S(=O)(=O)[O-])cc4F)c4nc(c(-c5c(F)cc(S(=O)(=O)[O-])cc5F)c5ccc2[nH]5)C=C4)C=C3)cc1
REMARK SMILES IDX 5 1 4 2 3 3 2 4 1 5 27 6 28 7 92 8 29 9 91 10 30 11 31 12
REMARK SMILES IDX 32 13 85 14 33 15 90 16 84 17 86 18 34 19 89 20 83 21 82 22
REMARK SMILES IDX 35 24 69 25 48 26 68 27 49 28 52 29 67 30 87 31 50 32 51 33
REMARK SMILES IDX 66 35 88 36 53 37 36 38 37 39 46 40 38 41 39 42 45 43 47 44
REMARK SMILES IDX 40 45 41 46 42 47 43 48 44 49 70 50 71 51 80 52 72 53 73 54
REMARK SMILES IDX 79 55 81 56 74 57 75 58 76 59 77 60 78 61 54 62 55 63 64 64
REMARK SMILES IDX 56 65 57 66 63 67 65 68 58 69 59 70 60 71 61 72 62 73 6 74
REMARK SMILES IDX 7 75 8 76 9 77 10 78 11 79 12 80 13 81 26 82 14 83 15 84
REMARK SMILES IDX 16 85 17 86 18 87 19 89 20 90 21 91 25 92 22 93 24 94 23 95
REMARK H PARENT 86 23 52 34 17 88 23 96 23 97
REMARK Flexibility Score: inf
ROOT
ATOM      1  C   UNL A   1      33.857  32.113  27.688  1.00  0.00     0.202 C 
ENDROOT
BRANCH   1   2
ATOM      2  C   UNL A   1      34.998  32.193  28.710  1.00  0.00     0.261 C 
BRANCH   2   3
ATOM      3  O   UNL A   1      35.506  30.877  28.995  1.00  0.00    -0.460 OA
BRANCH   3   4
ATOM      4  C   UNL A   1      36.462  30.521  29.885  1.00  0.00     0.338 C 
ATOM      5  O   UNL A   1      36.178  30.530  31.082  1.00  0.00    -0.246 OA
BRANCH   4   6
ATOM      6  C   UNL A   1      37.839  30.083  29.497  1.00  0.00     0.060 A 
ATOM      7  C   UNL A   1      38.848  29.733  30.392  1.00  0.00     0.016 A 
ATOM      8  C   UNL A   1      38.102  29.939  28.123  1.00  0.00     0.016 A 
ATOM      9  C   UNL A   1      40.089  29.302  29.962  1.00  0.00     0.010 A 
ATOM     10  C   UNL A   1      39.343  29.474  27.675  1.00  0.00     0.010 A 
ATOM     11  C   UNL A   1      40.342  29.166  28.603  1.00  0.00    -0.014 A 
BRANCH  11  12
ATOM     12  C   UNL A   1      41.708  28.790  28.217  1.00  0.00     0.031 A 
ATOM     13  C   UNL A   1      42.779  29.828  28.316  1.00  0.00     0.074 A 
ATOM     14  C   UNL A   1      41.980  27.497  27.959  1.00  0.00     0.049 A 
ATOM     15  N   UNL A   1      44.047  29.734  28.033  1.00  0.00    -0.248 NA
ATOM     16  C   UNL A   1      42.369  31.150  28.822  1.00  0.00     0.031 C 
ATOM     17  C   UNL A   1      40.996  26.410  27.989  1.00  0.00     0.029 A 
ATOM     18  N   UNL A   1      43.159  26.871  27.664  1.00  0.00    -0.354 N 
ATOM     19  C   UNL A   1      44.583  30.987  28.299  1.00  0.00     0.074 A 
ATOM     20  C   UNL A   1      43.505  31.828  28.767  1.00  0.00     0.031 C 
ATOM     21  C   UNL A   1      41.620  25.246  27.742  1.00  0.00     0.029 A 
ATOM     22  C   UNL A   1      43.026  25.517  27.470  1.00  0.00     0.049 A 
ATOM     23  H   UNL A   1      44.019  27.344  27.597  1.00  0.00     0.167 HD
ATOM     24  C   UNL A   1      45.866  31.387  28.151  1.00  0.00     0.037 A 
ATOM     25  C   UNL A   1      43.943  24.611  27.078  1.00  0.00     0.037 A 
ATOM     26  C   UNL A   1      46.905  30.512  27.681  1.00  0.00     0.049 A 
ATOM     27  C   UNL A   1      45.342  25.105  26.828  1.00  0.00     0.074 A 
ATOM     28  C   UNL A   1      48.228  30.804  27.412  1.00  0.00     0.029 A 
ATOM     29  N   UNL A   1      46.727  29.159  27.413  1.00  0.00    -0.354 N 
ATOM     30  N   UNL A   1      45.829  26.314  26.998  1.00  0.00    -0.248 NA
ATOM     31  C   UNL A   1      46.312  24.130  26.320  1.00  0.00     0.031 C 
ATOM     32  C   UNL A   1      48.838  29.637  26.940  1.00  0.00     0.029 A 
ATOM     33  C   UNL A   1      47.911  28.605  26.965  1.00  0.00     0.049 A 
ATOM     34  H   UNL A   1      45.881  28.668  27.527  1.00  0.00     0.167 HD
ATOM     35  C   UNL A   1      47.166  26.243  26.632  1.00  0.00     0.074 A 
ATOM     36  C   UNL A   1      47.414  24.865  26.249  1.00  0.00     0.031 C 
ATOM     37  C   UNL A   1      48.106  27.220  26.607  1.00  0.00     0.037 A 
BRANCH  24  38
ATOM     38  C   UNL A   1      46.171  32.833  28.421  1.00  0.00     0.058 A 
ATOM     39  C   UNL A   1      46.550  33.295  29.691  1.00  0.00     0.135 A 
ATOM     40  C   UNL A   1      46.048  33.780  27.391  1.00  0.00     0.135 A 
ATOM     41  F   UNL A   1      46.649  32.439  30.720  1.00  0.00    -0.206 F 
ATOM     42  C   UNL A   1      46.771  34.649  29.937  1.00  0.00     0.059 A 
ATOM     43  C   UNL A   1      46.286  35.134  27.608  1.00  0.00     0.059 A 
ATOM     44  F   UNL A   1      45.672  33.396  26.161  1.00  0.00    -0.206 F 
ATOM     45  C   UNL A   1      46.633  35.560  28.889  1.00  0.00     0.060 A 
BRANCH  45  46
ATOM     46  S   UNL A   1      46.904  37.314  29.225  1.00  0.00     0.124 S 
ATOM     47  O   UNL A   1      47.844  37.672  28.166  1.00  0.00    -0.237 OA
ATOM     48  O   UNL A   1      45.561  37.869  29.093  1.00  0.00    -0.237 OA
ATOM     49  O   UNL A   1      47.453  37.321  30.577  1.00  0.00    -0.744 OA
ENDBRANCH  45  46
ENDBRANCH  24  38
BRANCH  25  50
ATOM     50  C   UNL A   1      43.552  23.194  26.844  1.00  0.00     0.058 A 
ATOM     51  C   UNL A   1      43.472  22.655  25.552  1.00  0.00     0.135 A 
ATOM     52  C   UNL A   1      43.247  22.341  27.920  1.00  0.00     0.135 A 
ATOM     53  F   UNL A   1      43.746  23.424  24.486  1.00  0.00    -0.206 F 
ATOM     54  C   UNL A   1      43.089  21.333  25.332  1.00  0.00     0.059 A 
ATOM     55  C   UNL A   1      42.891  21.010  27.728  1.00  0.00     0.059 A 
ATOM     56  F   UNL A   1      43.315  22.798  29.180  1.00  0.00    -0.206 F 
ATOM     57  C   UNL A   1      42.800  20.518  26.428  1.00  0.00     0.060 A 
BRANCH  57  58
ATOM     58  S   UNL A   1      42.324  18.799  26.139  1.00  0.00     0.124 S 
ATOM     59  O   UNL A   1      43.245  18.415  25.074  1.00  0.00    -0.237 OA
ATOM     60  O   UNL A   1      42.563  18.189  27.442  1.00  0.00    -0.237 OA
ATOM     61  O   UNL A   1      40.919  18.900  25.751  1.00  0.00    -0.744 OA
ENDBRANCH  57  58
ENDBRANCH  25  50
BRANCH  37  62
ATOM     62  C   UNL A   1      49.488  26.819  26.183  1.00  0.00     0.058 A 
ATOM     63  C   UNL A   1      50.431  26.345  27.106  1.00  0.00     0.135 A 
ATOM     64  C   UNL A   1      49.843  26.846  24.826  1.00  0.00     0.135 A 
ATOM     65  F   UNL A   1      50.138  26.310  28.416  1.00  0.00    -0.206 F 
ATOM     66  C   UNL A   1      51.690  25.924  26.698  1.00  0.00     0.059 A 
ATOM     67  C   UNL A   1      51.086  26.404  24.392  1.00  0.00     0.059 A 
ATOM     68  F   UNL A   1      48.968  27.282  23.905  1.00  0.00    -0.206 F 
ATOM     69  C   UNL A   1      52.006  25.953  25.337  1.00  0.00     0.060 A 
BRANCH  69  70
ATOM     70  S   UNL A   1      53.625  25.355  24.815  1.00  0.00     0.124 S 
ATOM     71  O   UNL A   1      53.747  25.955  23.491  1.00  0.00    -0.237 OA
ATOM     72  O   UNL A   1      54.508  25.900  25.843  1.00  0.00    -0.237 OA
ATOM     73  O   UNL A   1      53.474  23.903  24.835  1.00  0.00    -0.744 OA
ENDBRANCH  69  70
ENDBRANCH  37  62
ENDBRANCH  11  12
ENDBRANCH   4   6
ENDBRANCH   3   4
ENDBRANCH   2   3
ENDBRANCH   1   2
BRANCH   1  74
ATOM     74  O   UNL A   1      33.237  30.828  27.603  1.00  0.00    -0.374 OA
BRANCH  74  75
ATOM     75  C   UNL A   1      32.250  30.688  26.580  1.00  0.00     0.202 C 
BRANCH  75  76
ATOM     76  C   UNL A   1      32.522  29.424  25.769  1.00  0.00     0.261 C 
BRANCH  76  77
ATOM     77  O   UNL A   1      31.282  28.713  25.594  1.00  0.00    -0.461 OA
BRANCH  77  78
ATOM     78  C   UNL A   1      31.339  27.363  25.779  1.00  0.00     0.335 C 
ATOM     79  O   UNL A   1      31.380  26.803  26.869  1.00  0.00    -0.249 OA
BRANCH  78  80
ATOM     80  C   UNL A   1      31.287  26.603  24.446  1.00  0.00     0.228 C 
ATOM     81  C   UNL A   1      30.093  25.668  24.266  1.00  0.00     0.047 C 
ATOM     82  O   UNL A   1      32.464  25.806  24.205  1.00  0.00    -0.361 OA
ATOM     83  C   UNL A   1      30.657  24.581  23.380  1.00  0.00     0.037 C 
ATOM     84  C   UNL A   1      32.061  24.450  23.936  1.00  0.00     0.138 C 
BRANCH  84  85
ATOM     85  C   UNL A   1      33.047  23.740  22.999  1.00  0.00     0.149 C 
BRANCH  85  86
ATOM     86  N   UNL A   1      34.418  23.885  23.467  1.00  0.00    -0.335 N 
ATOM     87  C   UNL A   1      35.106  23.376  24.505  1.00  0.00     0.317 C 
ATOM     88  H   UNL A   1      34.958  24.486  22.903  1.00  0.00     0.165 HD
ATOM     89  O   UNL A   1      36.054  24.045  24.917  1.00  0.00    -0.249 OA
ATOM     90  N   UNL A   1      34.742  22.206  25.094  1.00  0.00    -0.314 N 
ATOM     91  C   UNL A   1      35.228  21.922  26.445  1.00  0.00     0.182 C 
ATOM     92  C   UNL A   1      34.023  21.083  24.499  1.00  0.00     0.182 C 
ATOM     93  C   UNL A   1      34.048  21.501  27.344  1.00  0.00     0.282 C 
ATOM     94  C   UNL A   1      32.850  20.670  25.407  1.00  0.00     0.282 C 
ATOM     95  N   UNL A   1      33.268  20.368  26.793  1.00  0.00    -0.343 N 
ATOM     96  H   UNL A   1      32.441  20.216  27.370  1.00  0.00     0.346 HD
ATOM     97  H   UNL A   1      33.848  19.530  26.795  1.00  0.00     0.346 HD
ENDBRANCH  85  86
ENDBRANCH  84  85
ENDBRANCH  78  80
ENDBRANCH  77  78
ENDBRANCH  76  77
ENDBRANCH  75  76
ENDBRANCH  74  75
ENDBRANCH   1  74
TORSDOF 19
ENDMDL
