MODEL 1
REMARK VINA RESULT:     -11.2      0.000      0.000
REMARK SMILES C[C@@H]1[C@@H](C(=O)OCCOCCOC(=O)c2ccc(-c3c4nc(c(-c5c(F)cc(S(=O)(=O)[O-])cc5F)c5ccc([nH]5)c(-c5c(F)cc(S(=O)(=O)[O-])cc5F)c5nc(c(-c6c(F)cc(S(=O)(=O)[O-])cc6F)c6ccc3[nH]6)C=C5)C=C4)cc2)CCN1C(=O)N1CCC[C@H]2CCC[C@@H]21
REMARK SMILES IDX 10 1 9 2 8 3 7 4 6 5 4 6 5 7 3 8 1 9 2 10 83 11 81 12 82 13
REMARK SMILES IDX 84 14 85 15 86 16 87 17 94 18 88 19 90 20 93 21 89 22 91 23
REMARK SMILES IDX 92 24 11 25 12 26 13 27 14 28 15 29 16 30 80 31 17 32 79 33
REMARK SMILES IDX 18 34 19 35 20 36 73 37 21 38 78 39 72 40 74 41 22 42 77 43
REMARK SMILES IDX 71 44 70 45 23 47 57 48 36 49 56 50 37 51 40 52 55 53 75 54
REMARK SMILES IDX 38 55 39 56 54 58 76 59 41 60 24 61 25 62 34 63 26 64 27 65
REMARK SMILES IDX 33 66 35 67 28 68 29 69 30 70 31 71 32 72 58 73 59 74 68 75
REMARK SMILES IDX 60 76 61 77 67 78 69 79 62 80 63 81 64 82 65 83 66 84 42 85
REMARK SMILES IDX 43 86 52 87 44 88 45 89 51 90 53 91 46 92 47 93 48 94 49 95
REMARK SMILES IDX 50 96
REMARK H PARENT 74 46 40 57
REMARK Flexibility Score: inf
ROOT
ATOM      1  C   UNL A   1      39.648  21.536  26.213  1.00  0.00     0.202 C 
ENDROOT
BRANCH   1   2
ATOM      2  O   UNL A   1      38.291  21.795  25.852  1.00  0.00    -0.374 OA
BRANCH   2   3
ATOM      3  C   UNL A   1      37.668  20.906  24.926  1.00  0.00     0.202 C 
BRANCH   3   4
ATOM      4  C   UNL A   1      36.161  20.676  25.079  1.00  0.00     0.261 C 
BRANCH   4   5
ATOM      5  O   UNL A   1      35.486  21.839  25.589  1.00  0.00    -0.463 OA
BRANCH   5   6
ATOM      6  C   UNL A   1      34.250  21.585  26.104  1.00  0.00     0.311 C 
ATOM      7  O   UNL A   1      34.021  21.412  27.291  1.00  0.00    -0.252 OA
BRANCH   6   8
ATOM      8  C   UNL A   1      33.189  21.714  25.024  1.00  0.00     0.123 C 
ATOM      9  C   UNL A   1      32.946  22.643  22.692  1.00  0.00     0.032 C 
ATOM     10  C   UNL A   1      33.568  22.858  24.075  1.00  0.00     0.098 C 
ATOM     11  N   UNL A   1      33.038  24.042  24.765  1.00  0.00    -0.321 N 
ATOM     12  C   UNL A   1      31.832  22.150  25.565  1.00  0.00     0.039 C 
ATOM     13  C   UNL A   1      31.965  23.666  25.680  1.00  0.00     0.122 C 
BRANCH  11  14
ATOM     14  C   UNL A   1      33.761  25.195  25.057  1.00  0.00     0.320 C 
ATOM     15  O   UNL A   1      34.803  25.171  25.711  1.00  0.00    -0.248 OA
BRANCH  14  16
ATOM     16  N   UNL A   1      33.302  26.348  24.464  1.00  0.00    -0.321 N 
ATOM     17  C   UNL A   1      33.281  26.486  23.014  1.00  0.00     0.121 C 
ATOM     18  C   UNL A   1      32.388  27.249  25.146  1.00  0.00     0.090 C 
ATOM     19  C   UNL A   1      33.613  27.917  22.580  1.00  0.00     0.022 C 
ATOM     20  C   UNL A   1      32.850  28.679  24.843  1.00  0.00     0.012 C 
ATOM     21  C   UNL A   1      32.315  27.266  26.670  1.00  0.00     0.025 C 
ATOM     22  C   UNL A   1      32.785  28.964  23.345  1.00  0.00     0.007 C 
ATOM     23  C   UNL A   1      31.969  29.525  25.745  1.00  0.00     0.006 C 
ATOM     24  C   UNL A   1      31.805  28.675  27.012  1.00  0.00     0.002 C 
ENDBRANCH  14  16
ENDBRANCH  11  14
ENDBRANCH   6   8
ENDBRANCH   5   6
ENDBRANCH   4   5
ENDBRANCH   3   4
ENDBRANCH   2   3
ENDBRANCH   1   2
BRANCH   1  25
ATOM     25  C   UNL A   1      40.553  22.745  26.474  1.00  0.00     0.261 C 
BRANCH  25  26
ATOM     26  O   UNL A   1      39.805  23.964  26.625  1.00  0.00    -0.460 OA
BRANCH  26  27
ATOM     27  C   UNL A   1      40.513  25.092  26.382  1.00  0.00     0.338 C 
ATOM     28  O   UNL A   1      40.881  25.509  25.292  1.00  0.00    -0.246 OA
BRANCH  27  29
ATOM     29  C   UNL A   1      40.638  25.890  27.614  1.00  0.00     0.060 A 
ATOM     30  C   UNL A   1      39.587  25.818  28.538  1.00  0.00     0.016 A 
ATOM     31  C   UNL A   1      41.718  26.749  27.832  1.00  0.00     0.016 A 
ATOM     32  C   UNL A   1      39.584  26.645  29.657  1.00  0.00     0.010 A 
ATOM     33  C   UNL A   1      41.708  27.587  28.952  1.00  0.00     0.010 A 
ATOM     34  C   UNL A   1      40.622  27.566  29.848  1.00  0.00    -0.014 A 
BRANCH  34  35
ATOM     35  C   UNL A   1      40.489  28.605  30.896  1.00  0.00     0.031 A 
ATOM     36  C   UNL A   1      41.381  28.535  32.107  1.00  0.00     0.074 A 
ATOM     37  C   UNL A   1      39.616  29.617  30.754  1.00  0.00     0.049 A 
ATOM     38  N   UNL A   1      41.423  29.319  33.152  1.00  0.00    -0.248 NA
ATOM     39  C   UNL A   1      42.355  27.432  32.143  1.00  0.00     0.031 C 
ATOM     40  C   UNL A   1      38.728  29.812  29.608  1.00  0.00     0.029 A 
ATOM     41  N   UNL A   1      39.328  30.671  31.586  1.00  0.00    -0.354 N 
ATOM     42  C   UNL A   1      42.421  28.805  33.972  1.00  0.00     0.074 A 
ATOM     43  C   UNL A   1      42.939  27.623  33.317  1.00  0.00     0.031 C 
ATOM     44  C   UNL A   1      37.986  30.914  29.815  1.00  0.00     0.029 A 
ATOM     45  C   UNL A   1      38.326  31.485  31.117  1.00  0.00     0.049 A 
ATOM     46  H   UNL A   1      39.797  30.828  32.437  1.00  0.00     0.167 HD
ATOM     47  C   UNL A   1      42.870  29.279  35.158  1.00  0.00     0.037 A 
ATOM     48  C   UNL A   1      37.737  32.556  31.684  1.00  0.00     0.037 A 
ATOM     49  C   UNL A   1      42.353  30.457  35.803  1.00  0.00     0.049 A 
ATOM     50  C   UNL A   1      38.213  33.031  33.033  1.00  0.00     0.074 A 
ATOM     51  C   UNL A   1      42.752  31.030  36.998  1.00  0.00     0.029 A 
ATOM     52  N   UNL A   1      41.320  31.241  35.310  1.00  0.00    -0.354 N 
ATOM     53  N   UNL A   1      39.170  32.547  33.788  1.00  0.00    -0.248 NA
ATOM     54  C   UNL A   1      37.531  34.201  33.606  1.00  0.00     0.031 C 
ATOM     55  C   UNL A   1      41.930  32.133  37.250  1.00  0.00     0.029 A 
ATOM     56  C   UNL A   1      41.052  32.279  36.187  1.00  0.00     0.049 A 
ATOM     57  H   UNL A   1      40.847  31.082  34.461  1.00  0.00     0.167 HD
ATOM     58  C   UNL A   1      39.224  33.367  34.910  1.00  0.00     0.074 A 
ATOM     59  C   UNL A   1      38.208  34.384  34.731  1.00  0.00     0.031 C 
ATOM     60  C   UNL A   1      40.041  33.288  35.991  1.00  0.00     0.037 A 
BRANCH  47  61
ATOM     61  C   UNL A   1      43.963  28.510  35.846  1.00  0.00     0.058 A 
ATOM     62  C   UNL A   1      45.317  28.843  35.684  1.00  0.00     0.135 A 
ATOM     63  C   UNL A   1      43.650  27.441  36.702  1.00  0.00     0.135 A 
ATOM     64  F   UNL A   1      45.674  29.844  34.863  1.00  0.00    -0.206 F 
ATOM     65  C   UNL A   1      46.323  28.129  36.328  1.00  0.00     0.059 A 
ATOM     66  C   UNL A   1      44.638  26.730  37.376  1.00  0.00     0.059 A 
ATOM     67  F   UNL A   1      42.371  27.077  36.889  1.00  0.00    -0.206 F 
ATOM     68  C   UNL A   1      45.973  27.073  37.171  1.00  0.00     0.060 A 
BRANCH  68  69
ATOM     69  S   UNL A   1      47.290  26.158  38.001  1.00  0.00     0.124 S 
ATOM     70  O   UNL A   1      47.701  25.226  36.956  1.00  0.00    -0.237 OA
ATOM     71  O   UNL A   1      48.248  27.210  38.324  1.00  0.00    -0.237 OA
ATOM     72  O   UNL A   1      46.616  25.556  39.147  1.00  0.00    -0.744 OA
ENDBRANCH  68  69
ENDBRANCH  47  61
BRANCH  48  73
ATOM     73  C   UNL A   1      36.623  33.250  30.984  1.00  0.00     0.058 A 
ATOM     74  C   UNL A   1      36.863  34.073  29.875  1.00  0.00     0.135 A 
ATOM     75  C   UNL A   1      35.295  33.099  31.413  1.00  0.00     0.135 A 
ATOM     76  F   UNL A   1      38.118  34.256  29.435  1.00  0.00    -0.206 F 
ATOM     77  C   UNL A   1      35.829  34.736  29.223  1.00  0.00     0.059 A 
ATOM     78  C   UNL A   1      34.241  33.732  30.761  1.00  0.00     0.059 A 
ATOM     79  F   UNL A   1      35.011  32.313  32.463  1.00  0.00    -0.206 F 
ATOM     80  C   UNL A   1      34.519  34.556  29.673  1.00  0.00     0.060 A 
BRANCH  80  81
ATOM     81  S   UNL A   1      33.177  35.383  28.790  1.00  0.00     0.124 S 
ATOM     82  O   UNL A   1      32.573  34.270  28.066  1.00  0.00    -0.237 OA
ATOM     83  O   UNL A   1      32.388  35.938  29.885  1.00  0.00    -0.237 OA
ATOM     84  O   UNL A   1      33.875  36.367  27.969  1.00  0.00    -0.744 OA
ENDBRANCH  80  81
ENDBRANCH  48  73
BRANCH  60  85
ATOM     85  C   UNL A   1      39.898  34.347  37.048  1.00  0.00     0.058 A 
ATOM     86  C   UNL A   1      40.571  35.575  36.958  1.00  0.00     0.135 A 
ATOM     87  C   UNL A   1      39.036  34.150  38.139  1.00  0.00     0.135 A 
ATOM     88  F   UNL A   1      41.412  35.812  35.939  1.00  0.00    -0.206 F 
ATOM     89  C   UNL A   1      40.411  36.563  37.924  1.00  0.00     0.059 A 
ATOM     90  C   UNL A   1      38.840  35.134  39.103  1.00  0.00     0.059 A 
ATOM     91  F   UNL A   1      38.360  32.998  38.267  1.00  0.00    -0.206 F 
ATOM     92  C   UNL A   1      39.542  36.334  38.992  1.00  0.00     0.060 A 
BRANCH  92  93
ATOM     93  S   UNL A   1      39.317  37.637  40.221  1.00  0.00     0.124 S 
ATOM     94  O   UNL A   1      38.963  36.865  41.408  1.00  0.00    -0.237 OA
ATOM     95  O   UNL A   1      40.630  38.274  40.247  1.00  0.00    -0.237 OA
ATOM     96  O   UNL A   1      38.244  38.453  39.660  1.00  0.00    -0.744 OA
ENDBRANCH  92  93
ENDBRANCH  60  85
ENDBRANCH  34  35
ENDBRANCH  27  29
ENDBRANCH  26  27
ENDBRANCH  25  26
ENDBRANCH   1  25
TORSDOF 19
ENDMDL
MODEL 2
REMARK VINA RESULT:     -11.1      1.005      1.790
REMARK SMILES C[C@@H]1[C@@H](C(=O)OCCOCCOC(=O)c2ccc(-c3c4nc(c(-c5c(F)cc(S(=O)(=O)[O-])cc5F)c5ccc([nH]5)c(-c5c(F)cc(S(=O)(=O)[O-])cc5F)c5nc(c(-c6c(F)cc(S(=O)(=O)[O-])cc6F)c6ccc3[nH]6)C=C5)C=C4)cc2)CCN1C(=O)N1CCC[C@H]2CCC[C@@H]21
REMARK SMILES IDX 10 1 9 2 8 3 7 4 6 5 4 6 5 7 3 8 1 9 2 10 83 11 81 12 82 13
REMARK SMILES IDX 84 14 85 15 86 16 87 17 94 18 88 19 90 20 93 21 89 22 91 23
REMARK SMILES IDX 92 24 11 25 12 26 13 27 14 28 15 29 16 30 80 31 17 32 79 33
REMARK SMILES IDX 18 34 19 35 20 36 73 37 21 38 78 39 72 40 74 41 22 42 77 43
REMARK SMILES IDX 71 44 70 45 23 47 57 48 36 49 56 50 37 51 40 52 55 53 75 54
REMARK SMILES IDX 38 55 39 56 54 58 76 59 41 60 24 61 25 62 34 63 26 64 27 65
REMARK SMILES IDX 33 66 35 67 28 68 29 69 30 70 31 71 32 72 58 73 59 74 68 75
REMARK SMILES IDX 60 76 61 77 67 78 69 79 62 80 63 81 64 82 65 83 66 84 42 85
REMARK SMILES IDX 43 86 52 87 44 88 45 89 51 90 53 91 46 92 47 93 48 94 49 95
REMARK SMILES IDX 50 96
REMARK H PARENT 74 46 40 57
REMARK Flexibility Score: inf
ROOT
ATOM      1  C   UNL A   1      39.053  21.843  26.074  1.00  0.00     0.202 C 
ENDROOT
BRANCH   1   2
ATOM      2  O   UNL A   1      38.214  22.952  25.750  1.00  0.00    -0.374 OA
BRANCH   2   3
ATOM      3  C   UNL A   1      36.818  22.706  25.594  1.00  0.00     0.202 C 
BRANCH   3   4
ATOM      4  C   UNL A   1      36.391  21.781  24.449  1.00  0.00     0.261 C 
BRANCH   4   5
ATOM      5  O   UNL A   1      34.962  21.643  24.370  1.00  0.00    -0.463 OA
BRANCH   5   6
ATOM      6  C   UNL A   1      34.349  22.604  23.623  1.00  0.00     0.311 C 
ATOM      7  O   UNL A   1      34.838  23.120  22.630  1.00  0.00    -0.252 OA
BRANCH   6   8
ATOM      8  C   UNL A   1      32.923  22.817  24.100  1.00  0.00     0.123 C 
ATOM      9  C   UNL A   1      30.728  23.692  23.214  1.00  0.00     0.032 C 
ATOM     10  C   UNL A   1      32.248  23.879  23.221  1.00  0.00     0.098 C 
ATOM     11  N   UNL A   1      32.668  25.138  23.852  1.00  0.00    -0.321 N 
ATOM     12  C   UNL A   1      32.841  23.424  25.496  1.00  0.00     0.039 C 
ATOM     13  C   UNL A   1      33.030  24.917  25.248  1.00  0.00     0.122 C 
BRANCH  11  14
ATOM     14  C   UNL A   1      33.264  26.210  23.192  1.00  0.00     0.320 C 
ATOM     15  O   UNL A   1      33.896  26.070  22.146  1.00  0.00    -0.248 OA
BRANCH  14  16
ATOM     16  N   UNL A   1      32.997  27.452  23.719  1.00  0.00    -0.321 N 
ATOM     17  C   UNL A   1      34.016  28.186  24.456  1.00  0.00     0.121 C 
ATOM     18  C   UNL A   1      31.942  28.298  23.189  1.00  0.00     0.090 C 
ATOM     19  C   UNL A   1      33.411  28.974  25.622  1.00  0.00     0.022 C 
ATOM     20  C   UNL A   1      31.230  28.940  24.385  1.00  0.00     0.012 C 
ATOM     21  C   UNL A   1      30.771  27.685  22.426  1.00  0.00     0.025 C 
ATOM     22  C   UNL A   1      32.194  29.809  25.187  1.00  0.00     0.007 C 
ATOM     23  C   UNL A   1      30.040  29.635  23.747  1.00  0.00     0.006 C 
ATOM     24  C   UNL A   1      29.628  28.698  22.604  1.00  0.00     0.002 C 
ENDBRANCH  14  16
ENDBRANCH  11  14
ENDBRANCH   6   8
ENDBRANCH   5   6
ENDBRANCH   4   5
ENDBRANCH   3   4
ENDBRANCH   2   3
ENDBRANCH   1   2
BRANCH   1  25
ATOM     25  C   UNL A   1      40.491  22.149  26.510  1.00  0.00     0.261 C 
BRANCH  25  26
ATOM     26  O   UNL A   1      40.553  23.214  27.475  1.00  0.00    -0.460 OA
BRANCH  26  27
ATOM     27  C   UNL A   1      41.343  24.253  27.114  1.00  0.00     0.338 C 
ATOM     28  O   UNL A   1      42.125  24.291  26.173  1.00  0.00    -0.246 OA
BRANCH  27  29
ATOM     29  C   UNL A   1      41.004  25.449  27.906  1.00  0.00     0.060 A 
ATOM     30  C   UNL A   1      42.006  26.415  28.075  1.00  0.00     0.016 A 
ATOM     31  C   UNL A   1      39.765  25.592  28.535  1.00  0.00     0.016 A 
ATOM     32  C   UNL A   1      41.792  27.500  28.918  1.00  0.00     0.010 A 
ATOM     33  C   UNL A   1      39.556  26.679  29.391  1.00  0.00     0.010 A 
ATOM     34  C   UNL A   1      40.582  27.616  29.615  1.00  0.00    -0.014 A 
BRANCH  34  35
ATOM     35  C   UNL A   1      40.456  28.629  30.691  1.00  0.00     0.031 A 
ATOM     36  C   UNL A   1      41.358  28.529  31.891  1.00  0.00     0.074 A 
ATOM     37  C   UNL A   1      39.580  29.642  30.582  1.00  0.00     0.049 A 
ATOM     38  N   UNL A   1      41.408  29.285  32.957  1.00  0.00    -0.248 NA
ATOM     39  C   UNL A   1      42.334  27.426  31.891  1.00  0.00     0.031 C 
ATOM     40  C   UNL A   1      38.683  29.866  29.449  1.00  0.00     0.029 A 
ATOM     41  N   UNL A   1      39.298  30.674  31.443  1.00  0.00    -0.354 N 
ATOM     42  C   UNL A   1      42.413  28.752  33.754  1.00  0.00     0.074 A 
ATOM     43  C   UNL A   1      42.928  27.588  33.064  1.00  0.00     0.031 C 
ATOM     44  C   UNL A   1      37.941  30.961  29.690  1.00  0.00     0.029 A 
ATOM     45  C   UNL A   1      38.291  31.498  31.003  1.00  0.00     0.049 A 
ATOM     46  H   UNL A   1      39.774  30.810  32.294  1.00  0.00     0.167 HD
ATOM     47  C   UNL A   1      42.872  29.195  34.948  1.00  0.00     0.037 A 
ATOM     48  C   UNL A   1      37.706  32.553  31.603  1.00  0.00     0.037 A 
ATOM     49  C   UNL A   1      42.358  30.356  35.628  1.00  0.00     0.049 A 
ATOM     50  C   UNL A   1      38.192  32.994  32.960  1.00  0.00     0.074 A 
ATOM     51  C   UNL A   1      42.767  30.898  36.834  1.00  0.00     0.029 A 
ATOM     52  N   UNL A   1      41.320  31.150  35.164  1.00  0.00    -0.354 N 
ATOM     53  N   UNL A   1      39.156  32.492  33.694  1.00  0.00    -0.248 NA
ATOM     54  C   UNL A   1      37.514  34.148  33.568  1.00  0.00     0.031 C 
ATOM     55  C   UNL A   1      41.945  31.993  37.121  1.00  0.00     0.029 A 
ATOM     56  C   UNL A   1      41.058  32.165  36.070  1.00  0.00     0.049 A 
ATOM     57  H   UNL A   1      40.840  31.013  34.315  1.00  0.00     0.167 HD
ATOM     58  C   UNL A   1      39.218  33.282  34.837  1.00  0.00     0.074 A 
ATOM     59  C   UNL A   1      38.200  34.303  34.692  1.00  0.00     0.031 C 
ATOM     60  C   UNL A   1      40.044  33.177  35.908  1.00  0.00     0.037 A 
BRANCH  47  61
ATOM     61  C   UNL A   1      43.972  28.410  35.608  1.00  0.00     0.058 A 
ATOM     62  C   UNL A   1      43.699  27.397  36.539  1.00  0.00     0.135 A 
ATOM     63  C   UNL A   1      45.315  28.658  35.282  1.00  0.00     0.135 A 
ATOM     64  F   UNL A   1      42.434  27.132  36.901  1.00  0.00    -0.206 F 
ATOM     65  C   UNL A   1      44.722  26.671  37.143  1.00  0.00     0.059 A 
ATOM     66  C   UNL A   1      46.352  27.927  35.855  1.00  0.00     0.059 A 
ATOM     67  F   UNL A   1      45.631  29.619  34.400  1.00  0.00    -0.206 F 
ATOM     68  C   UNL A   1      46.046  26.945  36.795  1.00  0.00     0.060 A 
BRANCH  68  69
ATOM     69  S   UNL A   1      47.361  25.994  37.585  1.00  0.00     0.124 S 
ATOM     70  O   UNL A   1      47.583  24.936  36.604  1.00  0.00    -0.237 OA
ATOM     71  O   UNL A   1      48.431  26.979  37.706  1.00  0.00    -0.237 OA
ATOM     72  O   UNL A   1      46.762  25.565  38.844  1.00  0.00    -0.744 OA
ENDBRANCH  68  69
ENDBRANCH  47  61
BRANCH  48  73
ATOM     73  C   UNL A   1      36.585  33.263  30.930  1.00  0.00     0.058 A 
ATOM     74  C   UNL A   1      36.807  34.067  29.803  1.00  0.00     0.135 A 
ATOM     75  C   UNL A   1      35.268  33.148  31.404  1.00  0.00     0.135 A 
ATOM     76  F   UNL A   1      38.050  34.216  29.320  1.00  0.00    -0.206 F 
ATOM     77  C   UNL A   1      35.766  34.745  29.177  1.00  0.00     0.059 A 
ATOM     78  C   UNL A   1      34.208  33.796  30.779  1.00  0.00     0.059 A 
ATOM     79  F   UNL A   1      35.002  32.382  32.473  1.00  0.00    -0.206 F 
ATOM     80  C   UNL A   1      34.468  34.600  29.671  1.00  0.00     0.060 A 
BRANCH  80  81
ATOM     81  S   UNL A   1      33.117  35.446  28.822  1.00  0.00     0.124 S 
ATOM     82  O   UNL A   1      32.325  35.934  29.945  1.00  0.00    -0.237 OA
ATOM     83  O   UNL A   1      33.827  36.460  28.050  1.00  0.00    -0.237 OA
ATOM     84  O   UNL A   1      32.504  34.383  28.031  1.00  0.00    -0.744 OA
ENDBRANCH  80  81
ENDBRANCH  48  73
BRANCH  60  85
ATOM     85  C   UNL A   1      39.909  34.208  36.994  1.00  0.00     0.058 A 
ATOM     86  C   UNL A   1      40.559  35.450  36.917  1.00  0.00     0.135 A 
ATOM     87  C   UNL A   1      39.077  33.971  38.100  1.00  0.00     0.135 A 
ATOM     88  F   UNL A   1      41.370  35.725  35.884  1.00  0.00    -0.206 F 
ATOM     89  C   UNL A   1      40.405  36.412  37.910  1.00  0.00     0.059 A 
ATOM     90  C   UNL A   1      38.887  34.929  39.091  1.00  0.00     0.059 A 
ATOM     91  F   UNL A   1      38.423  32.804  38.216  1.00  0.00    -0.206 F 
ATOM     92  C   UNL A   1      39.566  36.143  38.993  1.00  0.00     0.060 A 
BRANCH  92  93
ATOM     93  S   UNL A   1      39.348  37.412  40.258  1.00  0.00     0.124 S 
ATOM     94  O   UNL A   1      40.727  37.818  40.508  1.00  0.00    -0.237 OA
ATOM     95  O   UNL A   1      38.512  38.395  39.575  1.00  0.00    -0.237 OA
ATOM     96  O   UNL A   1      38.696  36.696  41.350  1.00  0.00    -0.744 OA
ENDBRANCH  92  93
ENDBRANCH  60  85
ENDBRANCH  34  35
ENDBRANCH  27  29
ENDBRANCH  26  27
ENDBRANCH  25  26
ENDBRANCH   1  25
TORSDOF 19
ENDMDL
MODEL 3
REMARK VINA RESULT:     -11.1      1.081      1.983
REMARK SMILES C[C@@H]1[C@@H](C(=O)OCCOCCOC(=O)c2ccc(-c3c4nc(c(-c5c(F)cc(S(=O)(=O)[O-])cc5F)c5ccc([nH]5)c(-c5c(F)cc(S(=O)(=O)[O-])cc5F)c5nc(c(-c6c(F)cc(S(=O)(=O)[O-])cc6F)c6ccc3[nH]6)C=C5)C=C4)cc2)CCN1C(=O)N1CCC[C@H]2CCC[C@@H]21
REMARK SMILES IDX 10 1 9 2 8 3 7 4 6 5 4 6 5 7 3 8 1 9 2 10 83 11 81 12 82 13
REMARK SMILES IDX 84 14 85 15 86 16 87 17 94 18 88 19 90 20 93 21 89 22 91 23
REMARK SMILES IDX 92 24 11 25 12 26 13 27 14 28 15 29 16 30 80 31 17 32 79 33
REMARK SMILES IDX 18 34 19 35 20 36 73 37 21 38 78 39 72 40 74 41 22 42 77 43
REMARK SMILES IDX 71 44 70 45 23 47 57 48 36 49 56 50 37 51 40 52 55 53 75 54
REMARK SMILES IDX 38 55 39 56 54 58 76 59 41 60 24 61 25 62 34 63 26 64 27 65
REMARK SMILES IDX 33 66 35 67 28 68 29 69 30 70 31 71 32 72 58 73 59 74 68 75
REMARK SMILES IDX 60 76 61 77 67 78 69 79 62 80 63 81 64 82 65 83 66 84 42 85
REMARK SMILES IDX 43 86 52 87 44 88 45 89 51 90 53 91 46 92 47 93 48 94 49 95
REMARK SMILES IDX 50 96
REMARK H PARENT 74 46 40 57
REMARK Flexibility Score: inf
ROOT
ATOM      1  C   UNL A   1      39.637  22.221  26.534  1.00  0.00     0.202 C 
ENDROOT
BRANCH   1   2
ATOM      2  O   UNL A   1      38.868  21.524  25.554  1.00  0.00    -0.374 OA
BRANCH   2   3
ATOM      3  C   UNL A   1      37.465  21.775  25.507  1.00  0.00     0.202 C 
BRANCH   3   4
ATOM      4  C   UNL A   1      36.878  22.239  24.170  1.00  0.00     0.261 C 
BRANCH   4   5
ATOM      5  O   UNL A   1      35.441  22.235  24.180  1.00  0.00    -0.463 OA
BRANCH   5   6
ATOM      6  C   UNL A   1      34.878  23.473  24.108  1.00  0.00     0.311 C 
ATOM      7  O   UNL A   1      35.114  24.383  24.889  1.00  0.00    -0.252 OA
BRANCH   6   8
ATOM      8  C   UNL A   1      34.055  23.610  22.838  1.00  0.00     0.123 C 
ATOM      9  C   UNL A   1      32.849  25.400  21.532  1.00  0.00     0.032 C 
ATOM     10  C   UNL A   1      33.189  24.872  22.929  1.00  0.00     0.098 C 
ATOM     11  N   UNL A   1      32.008  24.404  23.668  1.00  0.00    -0.321 N 
ATOM     12  C   UNL A   1      33.026  22.498  22.667  1.00  0.00     0.039 C 
ATOM     13  C   UNL A   1      31.856  22.959  23.531  1.00  0.00     0.122 C 
BRANCH  11  14
ATOM     14  C   UNL A   1      31.482  25.003  24.810  1.00  0.00     0.320 C 
ATOM     15  O   UNL A   1      31.437  24.425  25.895  1.00  0.00    -0.248 OA
BRANCH  14  16
ATOM     16  N   UNL A   1      31.126  26.325  24.675  1.00  0.00    -0.321 N 
ATOM     17  C   UNL A   1      29.800  26.698  24.205  1.00  0.00     0.121 C 
ATOM     18  C   UNL A   1      31.795  27.377  25.421  1.00  0.00     0.090 C 
ATOM     19  C   UNL A   1      29.847  27.949  23.321  1.00  0.00     0.022 C 
ATOM     20  C   UNL A   1      31.995  28.557  24.462  1.00  0.00     0.012 C 
ATOM     21  C   UNL A   1      33.211  27.168  25.950  1.00  0.00     0.025 C 
ATOM     22  C   UNL A   1      30.652  29.088  23.970  1.00  0.00     0.007 C 
ATOM     23  C   UNL A   1      32.863  29.510  25.264  1.00  0.00     0.006 C 
ATOM     24  C   UNL A   1      33.788  28.588  26.069  1.00  0.00     0.002 C 
ENDBRANCH  14  16
ENDBRANCH  11  14
ENDBRANCH   6   8
ENDBRANCH   5   6
ENDBRANCH   4   5
ENDBRANCH   3   4
ENDBRANCH   2   3
ENDBRANCH   1   2
BRANCH   1  25
ATOM     25  C   UNL A   1      41.145  22.351  26.288  1.00  0.00     0.261 C 
BRANCH  25  26
ATOM     26  O   UNL A   1      41.761  23.303  27.173  1.00  0.00    -0.460 OA
BRANCH  26  27
ATOM     27  C   UNL A   1      42.029  24.503  26.607  1.00  0.00     0.338 C 
ATOM     28  O   UNL A   1      42.452  24.706  25.476  1.00  0.00    -0.246 OA
BRANCH  27  29
ATOM     29  C   UNL A   1      41.560  25.594  27.480  1.00  0.00     0.060 A 
ATOM     30  C   UNL A   1      42.355  26.745  27.559  1.00  0.00     0.016 A 
ATOM     31  C   UNL A   1      40.410  25.469  28.264  1.00  0.00     0.016 A 
ATOM     32  C   UNL A   1      42.035  27.753  28.463  1.00  0.00     0.010 A 
ATOM     33  C   UNL A   1      40.096  26.479  29.179  1.00  0.00     0.010 A 
ATOM     34  C   UNL A   1      40.929  27.607  29.309  1.00  0.00    -0.014 A 
BRANCH  34  35
ATOM     35  C   UNL A   1      40.739  28.559  30.430  1.00  0.00     0.031 A 
ATOM     36  C   UNL A   1      41.620  28.435  31.645  1.00  0.00     0.074 A 
ATOM     37  C   UNL A   1      39.826  29.541  30.351  1.00  0.00     0.049 A 
ATOM     38  N   UNL A   1      41.617  29.139  32.746  1.00  0.00    -0.248 NA
ATOM     39  C   UNL A   1      42.640  27.373  31.613  1.00  0.00     0.031 C 
ATOM     40  C   UNL A   1      38.943  29.785  29.210  1.00  0.00     0.029 A 
ATOM     41  N   UNL A   1      39.484  30.516  31.255  1.00  0.00    -0.354 N 
ATOM     42  C   UNL A   1      42.626  28.607  33.539  1.00  0.00     0.074 A 
ATOM     43  C   UNL A   1      43.202  27.500  32.805  1.00  0.00     0.031 C 
ATOM     44  C   UNL A   1      38.153  30.836  29.488  1.00  0.00     0.029 A 
ATOM     45  C   UNL A   1      38.454  31.321  30.834  1.00  0.00     0.049 A 
ATOM     46  H   UNL A   1      39.936  30.629  32.122  1.00  0.00     0.167 HD
ATOM     47  C   UNL A   1      43.042  29.009  34.764  1.00  0.00     0.037 A 
ATOM     48  C   UNL A   1      37.813  32.321  31.470  1.00  0.00     0.037 A 
ATOM     49  C   UNL A   1      42.467  30.113  35.487  1.00  0.00     0.049 A 
ATOM     50  C   UNL A   1      38.253  32.713  32.858  1.00  0.00     0.074 A 
ATOM     51  C   UNL A   1      42.828  30.610  36.728  1.00  0.00     0.029 A 
ATOM     52  N   UNL A   1      41.407  30.887  35.039  1.00  0.00    -0.354 N 
ATOM     53  N   UNL A   1      39.222  32.214  33.588  1.00  0.00    -0.248 NA
ATOM     54  C   UNL A   1      37.516  33.807  33.506  1.00  0.00     0.031 C 
ATOM     55  C   UNL A   1      41.957  31.656  37.049  1.00  0.00     0.029 A 
ATOM     56  C   UNL A   1      41.085  31.844  35.988  1.00  0.00     0.049 A 
ATOM     57  H   UNL A   1      40.951  30.774  34.175  1.00  0.00     0.167 HD
ATOM     58  C   UNL A   1      39.227  32.948  34.769  1.00  0.00     0.074 A 
ATOM     59  C   UNL A   1      38.172  33.933  34.652  1.00  0.00     0.031 C 
ATOM     60  C   UNL A   1      40.035  32.822  35.852  1.00  0.00     0.037 A 
BRANCH  47  61
ATOM     61  C   UNL A   1      44.159  28.236  35.409  1.00  0.00     0.058 A 
ATOM     62  C   UNL A   1      45.504  28.595  35.232  1.00  0.00     0.135 A 
ATOM     63  C   UNL A   1      43.877  27.137  36.237  1.00  0.00     0.135 A 
ATOM     64  F   UNL A   1      45.830  29.626  34.436  1.00  0.00    -0.206 F 
ATOM     65  C   UNL A   1      46.533  27.878  35.836  1.00  0.00     0.059 A 
ATOM     66  C   UNL A   1      44.888  26.422  36.871  1.00  0.00     0.059 A 
ATOM     67  F   UNL A   1      42.607  26.748  36.436  1.00  0.00    -0.206 F 
ATOM     68  C   UNL A   1      46.214  26.791  36.652  1.00  0.00     0.060 A 
BRANCH  68  69
ATOM     69  S   UNL A   1      47.559  25.872  37.431  1.00  0.00     0.124 S 
ATOM     70  O   UNL A   1      48.058  25.082  36.310  1.00  0.00    -0.237 OA
ATOM     71  O   UNL A   1      48.441  26.939  37.894  1.00  0.00    -0.237 OA
ATOM     72  O   UNL A   1      46.890  25.115  38.483  1.00  0.00    -0.744 OA
ENDBRANCH  68  69
ENDBRANCH  47  61
BRANCH  48  73
ATOM     73  C   UNL A   1      36.679  33.018  30.808  1.00  0.00     0.058 A 
ATOM     74  C   UNL A   1      35.353  32.780  31.195  1.00  0.00     0.135 A 
ATOM     75  C   UNL A   1      36.903  33.939  29.771  1.00  0.00     0.135 A 
ATOM     76  F   UNL A   1      35.088  31.900  32.174  1.00  0.00    -0.206 F 
ATOM     77  C   UNL A   1      34.286  33.418  30.571  1.00  0.00     0.059 A 
ATOM     78  C   UNL A   1      35.854  34.608  29.149  1.00  0.00     0.059 A 
ATOM     79  F   UNL A   1      38.155  34.210  29.370  1.00  0.00    -0.206 F 
ATOM     80  C   UNL A   1      34.548  34.334  29.550  1.00  0.00     0.060 A 
BRANCH  80  81
ATOM     81  S   UNL A   1      33.159  35.193  28.777  1.00  0.00     0.124 S 
ATOM     82  O   UNL A   1      32.382  35.600  29.942  1.00  0.00    -0.237 OA
ATOM     83  O   UNL A   1      33.830  36.264  28.048  1.00  0.00    -0.237 OA
ATOM     84  O   UNL A   1      32.553  34.161  27.941  1.00  0.00    -0.744 OA
ENDBRANCH  80  81
ENDBRANCH  48  73
BRANCH  60  85
ATOM     85  C   UNL A   1      39.836  33.792  36.984  1.00  0.00     0.058 A 
ATOM     86  C   UNL A   1      39.030  33.481  38.090  1.00  0.00     0.135 A 
ATOM     87  C   UNL A   1      40.503  35.028  36.986  1.00  0.00     0.135 A 
ATOM     88  F   UNL A   1      38.365  32.316  38.135  1.00  0.00    -0.206 F 
ATOM     89  C   UNL A   1      38.874  34.370  39.149  1.00  0.00     0.059 A 
ATOM     90  C   UNL A   1      40.384  35.921  38.046  1.00  0.00     0.059 A 
ATOM     91  F   UNL A   1      41.295  35.370  35.959  1.00  0.00    -0.206 F 
ATOM     92  C   UNL A   1      39.557  35.588  39.118  1.00  0.00     0.060 A 
BRANCH  92  93
ATOM     93  S   UNL A   1      39.374  36.719  40.513  1.00  0.00     0.124 S 
ATOM     94  O   UNL A   1      38.936  37.940  39.846  1.00  0.00    -0.237 OA
ATOM     95  O   UNL A   1      38.370  36.047  41.332  1.00  0.00    -0.237 OA
ATOM     96  O   UNL A   1      40.714  36.765  41.091  1.00  0.00    -0.744 OA
ENDBRANCH  92  93
ENDBRANCH  60  85
ENDBRANCH  34  35
ENDBRANCH  27  29
ENDBRANCH  26  27
ENDBRANCH  25  26
ENDBRANCH   1  25
TORSDOF 19
ENDMDL
