MODEL 1
REMARK VINA RESULT:     -11.2      0.000      0.000
REMARK SMILES O=C(OCCOCCOC(=O)[C@@H]1CCn2c(C(=O)c3ccccc3)ccc21)c1ccc(-c2c3nc(c(-c4c(F)cc(S(=O)(=O)[O-])cc4F)c4ccc([nH]4)c(-c4c(F)cc(S(=O)(=O)[O-])cc4F)c4nc(c(-c5c(F)cc(S(=O)(=O)[O-])cc5F)c5ccc2[nH]5)C=C4)C=C3)cc1
REMARK SMILES IDX 5 1 4 2 3 3 2 4 1 5 28 6 29 7 93 8 30 9 92 10 31 11 32 12
REMARK SMILES IDX 33 13 86 14 34 15 91 16 85 17 87 18 35 19 90 20 84 21 83 22
REMARK SMILES IDX 36 24 70 25 49 26 69 27 50 28 53 29 68 30 88 31 51 32 52 33
REMARK SMILES IDX 67 35 89 36 54 37 37 38 38 39 47 40 39 41 40 42 46 43 48 44
REMARK SMILES IDX 41 45 42 46 43 47 44 48 45 49 71 50 72 51 81 52 73 53 74 54
REMARK SMILES IDX 80 55 82 56 75 57 76 58 77 59 78 60 79 61 55 62 56 63 65 64
REMARK SMILES IDX 57 65 58 66 64 67 66 68 59 69 60 70 61 71 62 72 63 73 6 74
REMARK SMILES IDX 7 75 8 76 9 77 10 78 11 79 12 80 13 81 27 82 14 83 15 84
REMARK SMILES IDX 26 85 16 86 25 87 17 88 18 89 19 90 20 91 24 92 21 93 23 94
REMARK SMILES IDX 22 95
REMARK H PARENT 87 23 53 34
REMARK Flexibility Score: inf
ROOT
ATOM      1  C   UNL A   1      39.227  21.921  26.146  1.00  0.00     0.202 C 
ENDROOT
BRANCH   1   2
ATOM      2  C   UNL A   1      40.055  23.001  26.842  1.00  0.00     0.261 C 
BRANCH   2   3
ATOM      3  O   UNL A   1      39.624  24.301  26.431  1.00  0.00    -0.460 OA
BRANCH   3   4
ATOM      4  C   UNL A   1      40.369  25.432  26.481  1.00  0.00     0.338 C 
ATOM      5  O   UNL A   1      41.031  25.755  25.497  1.00  0.00    -0.246 OA
BRANCH   4   6
ATOM      6  C   UNL A   1      40.364  26.337  27.664  1.00  0.00     0.060 A 
ATOM      7  C   UNL A   1      39.519  26.190  28.764  1.00  0.00     0.016 A 
ATOM      8  C   UNL A   1      41.321  27.360  27.700  1.00  0.00     0.016 A 
ATOM      9  C   UNL A   1      39.560  27.043  29.840  1.00  0.00     0.010 A 
ATOM     10  C   UNL A   1      41.410  28.203  28.811  1.00  0.00     0.010 A 
ATOM     11  C   UNL A   1      40.522  28.037  29.879  1.00  0.00    -0.014 A 
BRANCH  11  12
ATOM     12  C   UNL A   1      40.462  28.932  31.035  1.00  0.00     0.031 A 
ATOM     13  C   UNL A   1      39.395  29.970  31.051  1.00  0.00     0.074 A 
ATOM     14  C   UNL A   1      41.232  28.655  32.103  1.00  0.00     0.049 A 
ATOM     15  N   UNL A   1      39.178  30.909  31.925  1.00  0.00    -0.248 NA
ATOM     16  C   UNL A   1      38.427  29.941  29.938  1.00  0.00     0.031 C 
ATOM     17  C   UNL A   1      42.166  27.524  32.201  1.00  0.00     0.029 A 
ATOM     18  N   UNL A   1      41.325  29.266  33.320  1.00  0.00    -0.354 N 
ATOM     19  C   UNL A   1      38.087  31.616  31.443  1.00  0.00     0.074 A 
ATOM     20  C   UNL A   1      37.671  30.993  30.208  1.00  0.00     0.031 C 
ATOM     21  C   UNL A   1      42.723  27.518  33.422  1.00  0.00     0.029 A 
ATOM     22  C   UNL A   1      42.261  28.692  34.148  1.00  0.00     0.049 A 
ATOM     23  H   UNL A   1      40.777  30.041  33.580  1.00  0.00     0.167 HD
ATOM     24  C   UNL A   1      37.512  32.707  31.994  1.00  0.00     0.037 A 
ATOM     25  C   UNL A   1      42.727  29.118  35.335  1.00  0.00     0.037 A 
ATOM     26  C   UNL A   1      37.970  33.273  33.233  1.00  0.00     0.049 A 
ATOM     27  C   UNL A   1      42.140  30.391  35.877  1.00  0.00     0.074 A 
ATOM     28  C   UNL A   1      37.534  34.413  33.878  1.00  0.00     0.029 A 
ATOM     29  N   UNL A   1      38.979  32.722  34.018  1.00  0.00    -0.354 N 
ATOM     30  N   UNL A   1      41.178  31.132  35.371  1.00  0.00    -0.248 NA
ATOM     31  C   UNL A   1      42.702  30.903  37.129  1.00  0.00     0.031 C 
ATOM     32  C   UNL A   1      38.318  34.581  35.025  1.00  0.00     0.029 A 
ATOM     33  C   UNL A   1      39.197  33.511  35.130  1.00  0.00     0.049 A 
ATOM     34  H   UNL A   1      39.466  31.893  33.810  1.00  0.00     0.167 HD
ATOM     35  C   UNL A   1      41.007  32.190  36.251  1.00  0.00     0.074 A 
ATOM     36  C   UNL A   1      41.956  31.980  37.330  1.00  0.00     0.031 C 
ATOM     37  C   UNL A   1      40.154  33.242  36.179  1.00  0.00     0.037 A 
BRANCH  24  38
ATOM     38  C   UNL A   1      36.427  33.384  31.209  1.00  0.00     0.058 A 
ATOM     39  C   UNL A   1      36.680  34.086  30.021  1.00  0.00     0.135 A 
ATOM     40  C   UNL A   1      35.106  33.359  31.685  1.00  0.00     0.135 A 
ATOM     41  F   UNL A   1      37.931  34.181  29.543  1.00  0.00    -0.206 F 
ATOM     42  C   UNL A   1      35.665  34.757  29.343  1.00  0.00     0.059 A 
ATOM     43  C   UNL A   1      34.072  34.001  31.012  1.00  0.00     0.059 A 
ATOM     44  F   UNL A   1      34.812  32.725  32.831  1.00  0.00    -0.206 F 
ATOM     45  C   UNL A   1      34.364  34.707  29.847  1.00  0.00     0.060 A 
BRANCH  45  46
ATOM     46  S   UNL A   1      33.058  35.580  28.957  1.00  0.00     0.124 S 
ATOM     47  O   UNL A   1      33.832  36.524  28.155  1.00  0.00    -0.237 OA
ATOM     48  O   UNL A   1      32.413  34.501  28.215  1.00  0.00    -0.237 OA
ATOM     49  O   UNL A   1      32.256  36.173  30.022  1.00  0.00    -0.744 OA
ENDBRANCH  45  46
ENDBRANCH  24  38
BRANCH  25  50
ATOM     50  C   UNL A   1      43.836  28.395  36.015  1.00  0.00     0.058 A 
ATOM     51  C   UNL A   1      45.178  28.737  35.802  1.00  0.00     0.135 A 
ATOM     52  C   UNL A   1      43.570  27.343  36.911  1.00  0.00     0.135 A 
ATOM     53  F   UNL A   1      45.490  29.730  34.955  1.00  0.00    -0.206 F 
ATOM     54  C   UNL A   1      46.215  28.055  36.436  1.00  0.00     0.059 A 
ATOM     55  C   UNL A   1      44.587  26.668  37.579  1.00  0.00     0.059 A 
ATOM     56  F   UNL A   1      42.304  26.976  37.165  1.00  0.00    -0.206 F 
ATOM     57  C   UNL A   1      45.909  27.023  37.324  1.00  0.00     0.060 A 
BRANCH  57  58
ATOM     58  S   UNL A   1      47.259  26.160  38.157  1.00  0.00     0.124 S 
ATOM     59  O   UNL A   1      46.869  26.286  39.556  1.00  0.00    -0.237 OA
ATOM     60  O   UNL A   1      47.166  24.820  37.585  1.00  0.00    -0.237 OA
ATOM     61  O   UNL A   1      48.441  26.921  37.762  1.00  0.00    -0.744 OA
ENDBRANCH  57  58
ENDBRANCH  25  50
BRANCH  37  62
ATOM     62  C   UNL A   1      40.187  34.212  37.322  1.00  0.00     0.058 A 
ATOM     63  C   UNL A   1      41.070  35.302  37.338  1.00  0.00     0.135 A 
ATOM     64  C   UNL A   1      39.271  34.082  38.377  1.00  0.00     0.135 A 
ATOM     65  F   UNL A   1      41.969  35.460  36.353  1.00  0.00    -0.206 F 
ATOM     66  C   UNL A   1      41.058  36.221  38.378  1.00  0.00     0.059 A 
ATOM     67  C   UNL A   1      39.219  35.008  39.409  1.00  0.00     0.059 A 
ATOM     68  F   UNL A   1      38.399  33.061  38.395  1.00  0.00    -0.206 F 
ATOM     69  C   UNL A   1      40.124  36.069  39.405  1.00  0.00     0.060 A 
BRANCH  69  70
ATOM     70  S   UNL A   1      40.087  37.297  40.724  1.00  0.00     0.124 S 
ATOM     71  O   UNL A   1      39.514  38.449  40.036  1.00  0.00    -0.237 OA
ATOM     72  O   UNL A   1      39.229  36.660  41.718  1.00  0.00    -0.237 OA
ATOM     73  O   UNL A   1      41.490  37.427  41.107  1.00  0.00    -0.744 OA
ENDBRANCH  69  70
ENDBRANCH  37  62
ENDBRANCH  11  12
ENDBRANCH   4   6
ENDBRANCH   3   4
ENDBRANCH   2   3
ENDBRANCH   1   2
BRANCH   1  74
ATOM     74  O   UNL A   1      37.915  22.296  25.739  1.00  0.00    -0.374 OA
BRANCH  74  75
ATOM     75  C   UNL A   1      37.360  21.603  24.624  1.00  0.00     0.202 C 
BRANCH  75  76
ATOM     76  C   UNL A   1      36.225  20.700  25.098  1.00  0.00     0.261 C 
BRANCH  76  77
ATOM     77  O   UNL A   1      34.990  21.439  25.054  1.00  0.00    -0.463 OA
BRANCH  77  78
ATOM     78  C   UNL A   1      33.897  20.712  24.675  1.00  0.00     0.315 C 
ATOM     79  O   UNL A   1      33.652  19.565  25.038  1.00  0.00    -0.251 OA
BRANCH  78  80
ATOM     80  C   UNL A   1      32.984  21.570  23.816  1.00  0.00     0.148 C 
ATOM     81  C   UNL A   1      33.762  22.719  23.133  1.00  0.00     0.043 C 
ATOM     82  C   UNL A   1      32.030  22.350  24.644  1.00  0.00     0.033 A 
ATOM     83  C   UNL A   1      32.821  23.920  23.103  1.00  0.00     0.124 C 
ATOM     84  N   UNL A   1      31.946  23.653  24.231  1.00  0.00    -0.341 N 
ATOM     85  C   UNL A   1      31.288  22.200  25.779  1.00  0.00     0.025 A 
ATOM     86  C   UNL A   1      31.198  24.400  25.088  1.00  0.00     0.090 A 
ATOM     87  C   UNL A   1      30.770  23.491  26.062  1.00  0.00     0.032 A 
BRANCH  86  88
ATOM     88  C   UNL A   1      30.927  25.830  25.100  1.00  0.00     0.209 C 
ATOM     89  O   UNL A   1      29.958  26.325  24.525  1.00  0.00    -0.287 OA
BRANCH  88  90
ATOM     90  C   UNL A   1      31.792  26.777  25.840  1.00  0.00     0.024 A 
ATOM     91  C   UNL A   1      33.138  26.873  25.466  1.00  0.00     0.012 A 
ATOM     92  C   UNL A   1      31.310  27.524  26.920  1.00  0.00     0.012 A 
ATOM     93  C   UNL A   1      33.987  27.751  26.140  1.00  0.00     0.001 A 
ATOM     94  C   UNL A   1      32.158  28.418  27.577  1.00  0.00     0.001 A 
ATOM     95  C   UNL A   1      33.493  28.531  27.186  1.00  0.00     0.000 A 
ENDBRANCH  88  90
ENDBRANCH  86  88
ENDBRANCH  78  80
ENDBRANCH  77  78
ENDBRANCH  76  77
ENDBRANCH  75  76
ENDBRANCH  74  75
ENDBRANCH   1  74
TORSDOF 19
ENDMDL
MODEL 2
REMARK VINA RESULT:     -11.0      0.562      8.346
REMARK SMILES O=C(OCCOCCOC(=O)[C@@H]1CCn2c(C(=O)c3ccccc3)ccc21)c1ccc(-c2c3nc(c(-c4c(F)cc(S(=O)(=O)[O-])cc4F)c4ccc([nH]4)c(-c4c(F)cc(S(=O)(=O)[O-])cc4F)c4nc(c(-c5c(F)cc(S(=O)(=O)[O-])cc5F)c5ccc2[nH]5)C=C4)C=C3)cc1
REMARK SMILES IDX 5 1 4 2 3 3 2 4 1 5 28 6 29 7 93 8 30 9 92 10 31 11 32 12
REMARK SMILES IDX 33 13 86 14 34 15 91 16 85 17 87 18 35 19 90 20 84 21 83 22
REMARK SMILES IDX 36 24 70 25 49 26 69 27 50 28 53 29 68 30 88 31 51 32 52 33
REMARK SMILES IDX 67 35 89 36 54 37 37 38 38 39 47 40 39 41 40 42 46 43 48 44
REMARK SMILES IDX 41 45 42 46 43 47 44 48 45 49 71 50 72 51 81 52 73 53 74 54
REMARK SMILES IDX 80 55 82 56 75 57 76 58 77 59 78 60 79 61 55 62 56 63 65 64
REMARK SMILES IDX 57 65 58 66 64 67 66 68 59 69 60 70 61 71 62 72 63 73 6 74
REMARK SMILES IDX 7 75 8 76 9 77 10 78 11 79 12 80 13 81 27 82 14 83 15 84
REMARK SMILES IDX 26 85 16 86 25 87 17 88 18 89 19 90 20 91 24 92 21 93 23 94
REMARK SMILES IDX 22 95
REMARK H PARENT 87 23 53 34
REMARK Flexibility Score: inf
ROOT
ATOM      1  C   UNL A   1      39.239  21.488  26.142  1.00  0.00     0.202 C 
ENDROOT
BRANCH   1   2
ATOM      2  C   UNL A   1      40.267  22.393  26.822  1.00  0.00     0.261 C 
BRANCH   2   3
ATOM      3  O   UNL A   1      40.002  23.764  26.517  1.00  0.00    -0.460 OA
BRANCH   3   4
ATOM      4  C   UNL A   1      40.881  24.787  26.653  1.00  0.00     0.338 C 
ATOM      5  O   UNL A   1      41.780  24.915  25.824  1.00  0.00    -0.246 OA
BRANCH   4   6
ATOM      6  C   UNL A   1      40.759  25.805  27.733  1.00  0.00     0.060 A 
ATOM      7  C   UNL A   1      41.597  26.912  27.870  1.00  0.00     0.016 A 
ATOM      8  C   UNL A   1      39.687  25.675  28.626  1.00  0.00     0.016 A 
ATOM      9  C   UNL A   1      41.437  27.832  28.877  1.00  0.00     0.010 A 
ATOM     10  C   UNL A   1      39.479  26.633  29.623  1.00  0.00     0.010 A 
ATOM     11  C   UNL A   1      40.363  27.711  29.741  1.00  0.00    -0.014 A 
BRANCH  11  12
ATOM     12  C   UNL A   1      40.297  28.703  30.814  1.00  0.00     0.031 A 
ATOM     13  C   UNL A   1      41.330  28.635  31.884  1.00  0.00     0.074 A 
ATOM     14  C   UNL A   1      39.444  29.736  30.683  1.00  0.00     0.049 A 
ATOM     15  N   UNL A   1      41.445  29.356  32.960  1.00  0.00    -0.248 NA
ATOM     16  C   UNL A   1      42.392  27.625  31.714  1.00  0.00     0.031 C 
ATOM     17  C   UNL A   1      38.536  29.943  29.546  1.00  0.00     0.029 A 
ATOM     18  N   UNL A   1      39.229  30.823  31.479  1.00  0.00    -0.354 N 
ATOM     19  C   UNL A   1      42.553  28.855  33.624  1.00  0.00     0.074 A 
ATOM     20  C   UNL A   1      43.093  27.779  32.826  1.00  0.00     0.031 C 
ATOM     21  C   UNL A   1      37.875  31.098  29.715  1.00  0.00     0.029 A 
ATOM     22  C   UNL A   1      38.239  31.655  31.010  1.00  0.00     0.049 A 
ATOM     23  H   UNL A   1      39.731  30.995  32.308  1.00  0.00     0.167 HD
ATOM     24  C   UNL A   1      43.049  29.263  34.813  1.00  0.00     0.037 A 
ATOM     25  C   UNL A   1      37.660  32.713  31.604  1.00  0.00     0.037 A 
ATOM     26  C   UNL A   1      42.469  30.350  35.553  1.00  0.00     0.049 A 
ATOM     27  C   UNL A   1      38.162  33.083  32.971  1.00  0.00     0.074 A 
ATOM     28  C   UNL A   1      42.815  30.830  36.800  1.00  0.00     0.029 A 
ATOM     29  N   UNL A   1      41.410  31.129  35.097  1.00  0.00    -0.354 N 
ATOM     30  N   UNL A   1      39.145  32.542  33.658  1.00  0.00    -0.248 NA
ATOM     31  C   UNL A   1      37.478  34.182  33.656  1.00  0.00     0.031 C 
ATOM     32  C   UNL A   1      41.929  31.865  37.120  1.00  0.00     0.029 A 
ATOM     33  C   UNL A   1      41.073  32.074  36.046  1.00  0.00     0.049 A 
ATOM     34  H   UNL A   1      40.965  31.022  34.225  1.00  0.00     0.167 HD
ATOM     35  C   UNL A   1      39.209  33.245  34.852  1.00  0.00     0.074 A 
ATOM     36  C   UNL A   1      38.175  34.263  34.781  1.00  0.00     0.031 C 
ATOM     37  C   UNL A   1      40.036  33.071  35.913  1.00  0.00     0.037 A 
BRANCH  24  38
ATOM     38  C   UNL A   1      44.180  28.469  35.397  1.00  0.00     0.058 A 
ATOM     39  C   UNL A   1      43.971  27.352  36.222  1.00  0.00     0.135 A 
ATOM     40  C   UNL A   1      45.505  28.864  35.154  1.00  0.00     0.135 A 
ATOM     41  F   UNL A   1      42.725  26.956  36.525  1.00  0.00    -0.206 F 
ATOM     42  C   UNL A   1      45.038  26.669  36.801  1.00  0.00     0.059 A 
ATOM     43  C   UNL A   1      46.586  28.181  35.702  1.00  0.00     0.059 A 
ATOM     44  F   UNL A   1      45.760  29.941  34.395  1.00  0.00    -0.206 F 
ATOM     45  C   UNL A   1      46.341  27.091  36.534  1.00  0.00     0.060 A 
BRANCH  45  46
ATOM     46  S   UNL A   1      47.713  26.193  37.290  1.00  0.00     0.124 S 
ATOM     47  O   UNL A   1      47.688  24.939  36.542  1.00  0.00    -0.237 OA
ATOM     48  O   UNL A   1      48.847  27.070  37.016  1.00  0.00    -0.237 OA
ATOM     49  O   UNL A   1      47.323  26.093  38.693  1.00  0.00    -0.744 OA
ENDBRANCH  45  46
ENDBRANCH  24  38
BRANCH  25  50
ATOM     50  C   UNL A   1      36.516  33.410  30.955  1.00  0.00     0.058 A 
ATOM     51  C   UNL A   1      35.206  33.281  31.438  1.00  0.00     0.135 A 
ATOM     52  C   UNL A   1      36.715  34.238  29.835  1.00  0.00     0.135 A 
ATOM     53  F   UNL A   1      34.958  32.501  32.501  1.00  0.00    -0.206 F 
ATOM     54  C   UNL A   1      34.135  33.930  30.827  1.00  0.00     0.059 A 
ATOM     55  C   UNL A   1      35.666  34.922  29.228  1.00  0.00     0.059 A 
ATOM     56  F   UNL A   1      37.948  34.410  29.335  1.00  0.00    -0.206 F 
ATOM     57  C   UNL A   1      34.376  34.750  29.723  1.00  0.00     0.060 A 
BRANCH  57  58
ATOM     58  S   UNL A   1      32.985  35.605  28.951  1.00  0.00     0.124 S 
ATOM     59  O   UNL A   1      32.228  36.046  30.117  1.00  0.00    -0.237 OA
ATOM     60  O   UNL A   1      33.654  36.655  28.189  1.00  0.00    -0.237 OA
ATOM     61  O   UNL A   1      32.352  34.564  28.147  1.00  0.00    -0.744 OA
ENDBRANCH  57  58
ENDBRANCH  25  50
BRANCH  37  62
ATOM     62  C   UNL A   1      39.876  34.030  37.053  1.00  0.00     0.058 A 
ATOM     63  C   UNL A   1      40.581  35.241  37.103  1.00  0.00     0.135 A 
ATOM     64  C   UNL A   1      38.949  33.758  38.072  1.00  0.00     0.135 A 
ATOM     65  F   UNL A   1      41.484  35.539  36.154  1.00  0.00    -0.206 F 
ATOM     66  C   UNL A   1      40.388  36.144  38.139  1.00  0.00     0.059 A 
ATOM     67  C   UNL A   1      38.716  34.662  39.098  1.00  0.00     0.059 A 
ATOM     68  F   UNL A   1      38.243  32.616  38.057  1.00  0.00    -0.206 F 
ATOM     69  C   UNL A   1      39.448  35.848  39.128  1.00  0.00     0.060 A 
BRANCH  69  70
ATOM     70  S   UNL A   1      39.171  37.051  40.442  1.00  0.00     0.124 S 
ATOM     71  O   UNL A   1      38.531  36.229  41.462  1.00  0.00    -0.237 OA
ATOM     72  O   UNL A   1      40.528  37.498  40.745  1.00  0.00    -0.237 OA
ATOM     73  O   UNL A   1      38.316  38.052  39.811  1.00  0.00    -0.744 OA
ENDBRANCH  69  70
ENDBRANCH  37  62
ENDBRANCH  11  12
ENDBRANCH   4   6
ENDBRANCH   3   4
ENDBRANCH   2   3
ENDBRANCH   1   2
BRANCH   1  74
ATOM     74  O   UNL A   1      38.153  22.143  25.494  1.00  0.00    -0.374 OA
BRANCH  74  75
ATOM     75  C   UNL A   1      37.366  21.360  24.601  1.00  0.00     0.202 C 
BRANCH  75  76
ATOM     76  C   UNL A   1      36.047  20.989  25.274  1.00  0.00     0.261 C 
BRANCH  76  77
ATOM     77  O   UNL A   1      34.965  21.619  24.561  1.00  0.00    -0.463 OA
BRANCH  77  78
ATOM     78  C   UNL A   1      33.862  20.834  24.378  1.00  0.00     0.315 C 
ATOM     79  O   UNL A   1      33.757  19.668  24.746  1.00  0.00    -0.251 OA
BRANCH  78  80
ATOM     80  C   UNL A   1      32.754  21.650  23.734  1.00  0.00     0.148 C 
ATOM     81  C   UNL A   1      33.322  22.846  22.935  1.00  0.00     0.043 C 
ATOM     82  C   UNL A   1      31.947  22.370  24.751  1.00  0.00     0.033 A 
ATOM     83  C   UNL A   1      32.334  23.996  23.117  1.00  0.00     0.124 C 
ATOM     84  N   UNL A   1      31.717  23.671  24.390  1.00  0.00    -0.341 N 
ATOM     85  C   UNL A   1      31.454  22.169  26.008  1.00  0.00     0.025 A 
ATOM     86  C   UNL A   1      31.117  24.367  25.394  1.00  0.00     0.090 A 
ATOM     87  C   UNL A   1      30.938  23.427  26.414  1.00  0.00     0.032 A 
BRANCH  86  88
ATOM     88  C   UNL A   1      30.783  25.780  25.490  1.00  0.00     0.209 C 
ATOM     89  O   UNL A   1      29.691  26.227  25.136  1.00  0.00    -0.287 OA
BRANCH  88  90
ATOM     90  C   UNL A   1      31.732  26.767  26.054  1.00  0.00     0.024 A 
ATOM     91  C   UNL A   1      31.226  27.761  26.900  1.00  0.00     0.012 A 
ATOM     92  C   UNL A   1      33.090  26.756  25.719  1.00  0.00     0.012 A 
ATOM     93  C   UNL A   1      32.086  28.712  27.449  1.00  0.00     0.001 A 
ATOM     94  C   UNL A   1      33.951  27.696  26.289  1.00  0.00     0.001 A 
ATOM     95  C   UNL A   1      33.448  28.670  27.153  1.00  0.00     0.000 A 
ENDBRANCH  88  90
ENDBRANCH  86  88
ENDBRANCH  78  80
ENDBRANCH  77  78
ENDBRANCH  76  77
ENDBRANCH  75  76
ENDBRANCH  74  75
ENDBRANCH   1  74
TORSDOF 19
ENDMDL
MODEL 3
REMARK VINA RESULT:     -11.0      6.824     12.276
REMARK SMILES O=C(OCCOCCOC(=O)[C@@H]1CCn2c(C(=O)c3ccccc3)ccc21)c1ccc(-c2c3nc(c(-c4c(F)cc(S(=O)(=O)[O-])cc4F)c4ccc([nH]4)c(-c4c(F)cc(S(=O)(=O)[O-])cc4F)c4nc(c(-c5c(F)cc(S(=O)(=O)[O-])cc5F)c5ccc2[nH]5)C=C4)C=C3)cc1
REMARK SMILES IDX 5 1 4 2 3 3 2 4 1 5 28 6 29 7 93 8 30 9 92 10 31 11 32 12
REMARK SMILES IDX 33 13 86 14 34 15 91 16 85 17 87 18 35 19 90 20 84 21 83 22
REMARK SMILES IDX 36 24 70 25 49 26 69 27 50 28 53 29 68 30 88 31 51 32 52 33
REMARK SMILES IDX 67 35 89 36 54 37 37 38 38 39 47 40 39 41 40 42 46 43 48 44
REMARK SMILES IDX 41 45 42 46 43 47 44 48 45 49 71 50 72 51 81 52 73 53 74 54
REMARK SMILES IDX 80 55 82 56 75 57 76 58 77 59 78 60 79 61 55 62 56 63 65 64
REMARK SMILES IDX 57 65 58 66 64 67 66 68 59 69 60 70 61 71 62 72 63 73 6 74
REMARK SMILES IDX 7 75 8 76 9 77 10 78 11 79 12 80 13 81 27 82 14 83 15 84
REMARK SMILES IDX 26 85 16 86 25 87 17 88 18 89 19 90 20 91 24 92 21 93 23 94
REMARK SMILES IDX 22 95
REMARK H PARENT 87 23 53 34
REMARK Flexibility Score: inf
ROOT
ATOM      1  C   UNL A   1      35.025  32.689  28.940  1.00  0.00     0.202 C 
ENDROOT
BRANCH   1   2
ATOM      2  C   UNL A   1      35.059  32.318  30.423  1.00  0.00     0.261 C 
BRANCH   2   3
ATOM      3  O   UNL A   1      36.404  32.078  30.844  1.00  0.00    -0.460 OA
BRANCH   3   4
ATOM      4  C   UNL A   1      36.957  30.861  31.068  1.00  0.00     0.338 C 
ATOM      5  O   UNL A   1      36.320  30.024  31.706  1.00  0.00    -0.246 OA
BRANCH   4   6
ATOM      6  C   UNL A   1      38.283  30.473  30.512  1.00  0.00     0.060 A 
ATOM      7  C   UNL A   1      39.383  30.100  31.285  1.00  0.00     0.016 A 
ATOM      8  C   UNL A   1      38.408  30.414  29.118  1.00  0.00     0.016 A 
ATOM      9  C   UNL A   1      40.584  29.738  30.727  1.00  0.00     0.010 A 
ATOM     10  C   UNL A   1      39.607  29.996  28.534  1.00  0.00     0.010 A 
ATOM     11  C   UNL A   1      40.692  29.659  29.350  1.00  0.00    -0.014 A 
BRANCH  11  12
ATOM     12  C   UNL A   1      42.019  29.316  28.837  1.00  0.00     0.031 A 
ATOM     13  C   UNL A   1      42.229  27.930  28.333  1.00  0.00     0.074 A 
ATOM     14  C   UNL A   1      42.917  30.303  28.663  1.00  0.00     0.049 A 
ATOM     15  N   UNL A   1      43.319  27.374  27.893  1.00  0.00    -0.248 NA
ATOM     16  C   UNL A   1      41.044  27.051  28.305  1.00  0.00     0.031 C 
ATOM     17  C   UNL A   1      42.684  31.721  28.973  1.00  0.00     0.029 A 
ATOM     18  N   UNL A   1      44.180  30.281  28.146  1.00  0.00    -0.354 N 
ATOM     19  C   UNL A   1      42.970  26.068  27.588  1.00  0.00     0.074 A 
ATOM     20  C   UNL A   1      41.563  25.912  27.875  1.00  0.00     0.031 C 
ATOM     21  C   UNL A   1      43.767  32.431  28.623  1.00  0.00     0.029 A 
ATOM     22  C   UNL A   1      44.795  31.511  28.160  1.00  0.00     0.049 A 
ATOM     23  H   UNL A   1      44.609  29.466  27.798  1.00  0.00     0.167 HD
ATOM     24  C   UNL A   1      43.781  25.091  27.127  1.00  0.00     0.037 A 
ATOM     25  C   UNL A   1      46.072  31.830  27.884  1.00  0.00     0.037 A 
ATOM     26  C   UNL A   1      45.173  25.316  26.852  1.00  0.00     0.049 A 
ATOM     27  C   UNL A   1      46.979  30.704  27.471  1.00  0.00     0.074 A 
ATOM     28  C   UNL A   1      46.134  24.410  26.450  1.00  0.00     0.029 A 
ATOM     29  N   UNL A   1      45.800  26.554  26.953  1.00  0.00    -0.354 N 
ATOM     30  N   UNL A   1      46.681  29.437  27.285  1.00  0.00    -0.248 NA
ATOM     31  C   UNL A   1      48.389  31.034  27.250  1.00  0.00     0.031 C 
ATOM     32  C   UNL A   1      47.353  25.091  26.360  1.00  0.00     0.029 A 
ATOM     33  C   UNL A   1      47.140  26.434  26.642  1.00  0.00     0.049 A 
ATOM     34  H   UNL A   1      45.353  27.394  27.209  1.00  0.00     0.167 HD
ATOM     35  C   UNL A   1      47.863  28.818  26.908  1.00  0.00     0.074 A 
ATOM     36  C   UNL A   1      48.876  29.858  26.877  1.00  0.00     0.031 C 
ATOM     37  C   UNL A   1      48.100  27.513  26.619  1.00  0.00     0.037 A 
BRANCH  24  38
ATOM     38  C   UNL A   1      43.199  23.713  27.006  1.00  0.00     0.058 A 
ATOM     39  C   UNL A   1      42.998  22.878  28.116  1.00  0.00     0.135 A 
ATOM     40  C   UNL A   1      42.873  23.205  25.738  1.00  0.00     0.135 A 
ATOM     41  F   UNL A   1      43.334  23.294  29.348  1.00  0.00    -0.206 F 
ATOM     42  C   UNL A   1      42.513  21.580  27.970  1.00  0.00     0.059 A 
ATOM     43  C   UNL A   1      42.364  21.922  25.571  1.00  0.00     0.059 A 
ATOM     44  F   UNL A   1      43.071  23.952  24.640  1.00  0.00    -0.206 F 
ATOM     45  C   UNL A   1      42.198  21.113  26.693  1.00  0.00     0.060 A 
BRANCH  45  46
ATOM     46  S   UNL A   1      41.568  19.430  26.520  1.00  0.00     0.124 S 
ATOM     47  O   UNL A   1      41.954  18.841  27.799  1.00  0.00    -0.237 OA
ATOM     48  O   UNL A   1      40.138  19.651  26.331  1.00  0.00    -0.237 OA
ATOM     49  O   UNL A   1      42.282  18.916  25.354  1.00  0.00    -0.744 OA
ENDBRANCH  45  46
ENDBRANCH  24  38
BRANCH  25  50
ATOM     50  C   UNL A   1      46.561  33.223  28.075  1.00  0.00     0.058 A 
ATOM     51  C   UNL A   1      47.091  33.656  29.298  1.00  0.00     0.135 A 
ATOM     52  C   UNL A   1      46.517  34.155  27.021  1.00  0.00     0.135 A 
ATOM     53  F   UNL A   1      47.153  32.811  30.338  1.00  0.00    -0.206 F 
ATOM     54  C   UNL A   1      47.543  34.962  29.476  1.00  0.00     0.059 A 
ATOM     55  C   UNL A   1      46.992  35.455  27.166  1.00  0.00     0.059 A 
ATOM     56  F   UNL A   1      46.031  33.795  25.823  1.00  0.00    -0.206 F 
ATOM     57  C   UNL A   1      47.491  35.853  28.404  1.00  0.00     0.060 A 
BRANCH  57  58
ATOM     58  S   UNL A   1      48.100  37.537  28.638  1.00  0.00     0.124 S 
ATOM     59  O   UNL A   1      47.710  37.801  30.018  1.00  0.00    -0.237 OA
ATOM     60  O   UNL A   1      49.531  37.382  28.397  1.00  0.00    -0.237 OA
ATOM     61  O   UNL A   1      47.380  38.301  27.623  1.00  0.00    -0.744 OA
ENDBRANCH  57  58
ENDBRANCH  25  50
BRANCH  37  62
ATOM     62  C   UNL A   1      49.497  27.161  26.205  1.00  0.00     0.058 A 
ATOM     63  C   UNL A   1      50.480  26.819  27.144  1.00  0.00     0.135 A 
ATOM     64  C   UNL A   1      49.827  27.098  24.842  1.00  0.00     0.135 A 
ATOM     65  F   UNL A   1      50.210  26.874  28.459  1.00  0.00    -0.206 F 
ATOM     66  C   UNL A   1      51.756  26.447  26.746  1.00  0.00     0.059 A 
ATOM     67  C   UNL A   1      51.087  26.696  24.421  1.00  0.00     0.059 A 
ATOM     68  F   UNL A   1      48.913  27.404  23.908  1.00  0.00    -0.206 F 
ATOM     69  C   UNL A   1      52.048  26.382  25.381  1.00  0.00     0.060 A 
BRANCH  69  70
ATOM     70  S   UNL A   1      53.694  25.850  24.877  1.00  0.00     0.124 S 
ATOM     71  O   UNL A   1      53.673  26.145  23.449  1.00  0.00    -0.237 OA
ATOM     72  O   UNL A   1      54.559  26.701  25.689  1.00  0.00    -0.237 OA
ATOM     73  O   UNL A   1      53.715  24.432  25.225  1.00  0.00    -0.744 OA
ENDBRANCH  69  70
ENDBRANCH  37  62
ENDBRANCH  11  12
ENDBRANCH   4   6
ENDBRANCH   3   4
ENDBRANCH   2   3
ENDBRANCH   1   2
BRANCH   1  74
ATOM     74  O   UNL A   1      33.970  32.121  28.172  1.00  0.00    -0.374 OA
BRANCH  74  75
ATOM     75  C   UNL A   1      34.236  30.880  27.525  1.00  0.00     0.202 C 
BRANCH  75  76
ATOM     76  C   UNL A   1      32.919  30.197  27.167  1.00  0.00     0.261 C 
BRANCH  76  77
ATOM     77  O   UNL A   1      32.579  30.521  25.805  1.00  0.00    -0.463 OA
BRANCH  77  78
ATOM     78  C   UNL A   1      32.146  29.466  25.053  1.00  0.00     0.315 C 
ATOM     79  O   UNL A   1      30.981  29.089  24.971  1.00  0.00    -0.251 OA
BRANCH  78  80
ATOM     80  C   UNL A   1      33.309  28.891  24.262  1.00  0.00     0.148 C 
ATOM     81  C   UNL A   1      32.905  28.586  22.800  1.00  0.00     0.043 C 
ATOM     82  C   UNL A   1      33.664  27.526  24.729  1.00  0.00     0.033 A 
ATOM     83  C   UNL A   1      33.653  27.317  22.401  1.00  0.00     0.124 C 
ATOM     84  N   UNL A   1      33.858  26.665  23.682  1.00  0.00    -0.341 N 
ATOM     85  C   UNL A   1      33.743  26.825  25.897  1.00  0.00     0.025 A 
ATOM     86  C   UNL A   1      34.024  25.386  24.115  1.00  0.00     0.090 A 
ATOM     87  C   UNL A   1      33.963  25.477  25.510  1.00  0.00     0.032 A 
BRANCH  86  88
ATOM     88  C   UNL A   1      34.157  24.147  23.363  1.00  0.00     0.209 C 
ATOM     89  O   UNL A   1      33.681  24.002  22.237  1.00  0.00    -0.287 OA
BRANCH  88  90
ATOM     90  C   UNL A   1      34.907  22.989  23.900  1.00  0.00     0.024 A 
ATOM     91  C   UNL A   1      34.180  21.943  24.482  1.00  0.00     0.012 A 
ATOM     92  C   UNL A   1      36.305  22.947  23.886  1.00  0.00     0.012 A 
ATOM     93  C   UNL A   1      34.849  20.837  25.003  1.00  0.00     0.001 A 
ATOM     94  C   UNL A   1      36.969  21.826  24.389  1.00  0.00     0.001 A 
ATOM     95  C   UNL A   1      36.241  20.774  24.945  1.00  0.00     0.000 A 
ENDBRANCH  88  90
ENDBRANCH  86  88
ENDBRANCH  78  80
ENDBRANCH  77  78
ENDBRANCH  76  77
ENDBRANCH  75  76
ENDBRANCH  74  75
ENDBRANCH   1  74
TORSDOF 19
ENDMDL
