MODEL 1
REMARK VINA RESULT:     -10.9      0.000      0.000
REMARK SMILES O=C(Cn1ccc(C(=O)NCCC[NH+]2CCOCC2)n1)OCCOCCOC(=O)c1ccc(-c2c3nc(c(-c4c(F)cc(S(=O)(=O)[O-])cc4F)c4ccc([nH]4)c(-c4c(F)cc(S(=O)(=O)[O-])cc4F)c4nc(c(-c5c(F)cc(S(=O)(=O)[O-])cc5F)c5ccc2[nH]5)C=C4)C=C3)cc1
REMARK SMILES IDX 22 1 21 2 2 3 1 4 3 5 4 6 5 7 20 8 6 9 7 10 8 11 9 12 10 13
REMARK SMILES IDX 11 15 12 16 13 17 14 18 15 19 19 20 16 22 18 23 17 24 23 25
REMARK SMILES IDX 24 26 25 27 26 28 27 29 28 30 29 31 30 32 31 33 95 34 32 35
REMARK SMILES IDX 94 36 33 37 34 38 35 39 88 40 36 41 93 42 87 43 89 44 37 45
REMARK SMILES IDX 92 46 86 47 85 48 38 50 72 51 51 52 71 53 52 54 55 55 70 56
REMARK SMILES IDX 90 57 53 58 54 59 69 61 91 62 56 63 39 64 40 65 49 66 41 67
REMARK SMILES IDX 42 68 48 69 50 70 43 71 44 72 45 73 46 74 47 75 73 76 74 77
REMARK SMILES IDX 83 78 75 79 76 80 82 81 84 82 77 83 78 84 79 85 80 86 81 87
REMARK SMILES IDX 57 88 58 89 67 90 59 91 60 92 66 93 68 94 61 95 62 96 63 97
REMARK SMILES IDX 64 98 65 99
REMARK H PARENT 10 14 14 21 89 49 55 60
REMARK Flexibility Score: inf
ROOT
ATOM      1  C   UNL A   1      37.378  20.971  25.037  1.00  0.00     0.261 C 
ENDROOT
BRANCH   1   2
ATOM      2  O   UNL A   1      36.027  21.181  24.611  1.00  0.00    -0.462 OA
BRANCH   2   3
ATOM      3  C   UNL A   1      35.274  22.160  25.168  1.00  0.00     0.327 C 
ATOM      4  O   UNL A   1      34.464  21.901  26.056  1.00  0.00    -0.250 OA
BRANCH   3   5
ATOM      5  C   UNL A   1      35.305  23.490  24.488  1.00  0.00     0.266 C 
BRANCH   5   6
ATOM      6  N   UNL A   1      34.221  23.708  23.559  1.00  0.00    -0.261 N 
ATOM      7  C   UNL A   1      33.298  22.763  23.219  1.00  0.00     0.110 A 
ATOM      8  N   UNL A   1      34.163  24.815  22.789  1.00  0.00    -0.167 NA
ATOM      9  C   UNL A   1      32.549  23.317  22.215  1.00  0.00     0.056 A 
ATOM     10  C   UNL A   1      33.123  24.596  21.958  1.00  0.00     0.150 A 
BRANCH  10  11
ATOM     11  C   UNL A   1      32.626  25.544  20.940  1.00  0.00     0.271 C 
ATOM     12  O   UNL A   1      33.034  25.500  19.777  1.00  0.00    -0.267 OA
ATOM     13  N   UNL A   1      31.719  26.532  21.258  1.00  0.00    -0.350 N 
ATOM     14  H   UNL A   1      31.425  27.101  20.510  1.00  0.00     0.163 HD
BRANCH  13  15
ATOM     15  C   UNL A   1      31.141  26.842  22.549  1.00  0.00     0.122 C 
BRANCH  15  16
ATOM     16  C   UNL A   1      31.528  28.218  23.098  1.00  0.00     0.083 C 
BRANCH  16  17
ATOM     17  C   UNL A   1      30.384  29.178  23.457  1.00  0.00     0.264 C 
BRANCH  17  18
ATOM     18  N   UNL A   1      29.258  29.407  22.555  1.00  0.00    -0.331 N 
ATOM     19  C   UNL A   1      29.440  30.478  21.560  1.00  0.00     0.291 C 
ATOM     20  C   UNL A   1      27.912  29.466  23.129  1.00  0.00     0.291 C 
ATOM     21  H   UNL A   1      29.294  28.514  22.064  1.00  0.00     0.348 HD
ATOM     22  C   UNL A   1      28.957  31.862  22.014  1.00  0.00     0.221 C 
ATOM     23  C   UNL A   1      27.461  30.879  23.542  1.00  0.00     0.221 C 
ATOM     24  O   UNL A   1      27.599  31.813  22.467  1.00  0.00    -0.370 OA
ENDBRANCH  17  18
ENDBRANCH  16  17
ENDBRANCH  15  16
ENDBRANCH  13  15
ENDBRANCH  10  11
ENDBRANCH   5   6
ENDBRANCH   3   5
ENDBRANCH   2   3
ENDBRANCH   1   2
BRANCH   1  25
ATOM     25  C   UNL A   1      37.933  19.537  25.023  1.00  0.00     0.202 C 
BRANCH  25  26
ATOM     26  O   UNL A   1      39.265  19.228  25.426  1.00  0.00    -0.374 OA
BRANCH  26  27
ATOM     27  C   UNL A   1      40.114  20.186  26.041  1.00  0.00     0.202 C 
BRANCH  27  28
ATOM     28  C   UNL A   1      41.492  19.709  26.433  1.00  0.00     0.261 C 
BRANCH  28  29
ATOM     29  O   UNL A   1      42.377  20.811  26.492  1.00  0.00    -0.460 OA
BRANCH  29  30
ATOM     30  C   UNL A   1      43.324  20.850  25.533  1.00  0.00     0.338 C 
ATOM     31  O   UNL A   1      43.769  19.909  24.884  1.00  0.00    -0.246 OA
BRANCH  30  32
ATOM     32  C   UNL A   1      43.901  22.192  25.570  1.00  0.00     0.060 A 
ATOM     33  C   UNL A   1      44.610  22.479  26.735  1.00  0.00     0.016 A 
ATOM     34  C   UNL A   1      43.358  23.194  24.744  1.00  0.00     0.016 A 
ATOM     35  C   UNL A   1      44.503  23.749  27.238  1.00  0.00     0.010 A 
ATOM     36  C   UNL A   1      43.230  24.456  25.264  1.00  0.00     0.010 A 
ATOM     37  C   UNL A   1      43.718  24.679  26.546  1.00  0.00    -0.014 A 
BRANCH  37  38
ATOM     38  C   UNL A   1      43.440  25.918  27.230  1.00  0.00     0.031 A 
ATOM     39  C   UNL A   1      44.477  26.943  27.024  1.00  0.00     0.074 A 
ATOM     40  C   UNL A   1      42.316  26.120  27.935  1.00  0.00     0.049 A 
ATOM     41  N   UNL A   1      45.312  27.418  27.885  1.00  0.00    -0.248 NA
ATOM     42  C   UNL A   1      44.713  27.368  25.637  1.00  0.00     0.031 C 
ATOM     43  C   UNL A   1      41.086  25.324  27.943  1.00  0.00     0.029 A 
ATOM     44  N   UNL A   1      42.011  27.178  28.729  1.00  0.00    -0.354 N 
ATOM     45  C   UNL A   1      46.050  28.363  27.186  1.00  0.00     0.074 A 
ATOM     46  C   UNL A   1      45.773  28.157  25.788  1.00  0.00     0.031 C 
ATOM     47  C   UNL A   1      40.104  26.048  28.527  1.00  0.00     0.029 A 
ATOM     48  C   UNL A   1      40.667  27.292  29.030  1.00  0.00     0.049 A 
ATOM     49  H   UNL A   1      42.690  27.810  29.060  1.00  0.00     0.167 HD
ATOM     50  C   UNL A   1      46.649  29.409  27.811  1.00  0.00     0.037 A 
ATOM     51  C   UNL A   1      40.068  28.392  29.547  1.00  0.00     0.037 A 
ATOM     52  C   UNL A   1      46.805  29.176  29.223  1.00  0.00     0.049 A 
ATOM     53  C   UNL A   1      41.134  29.229  30.172  1.00  0.00     0.074 A 
ATOM     54  C   UNL A   1      47.456  28.217  29.975  1.00  0.00     0.029 A 
ATOM     55  N   UNL A   1      45.936  29.801  30.085  1.00  0.00    -0.354 N 
ATOM     56  N   UNL A   1      41.819  28.885  31.228  1.00  0.00    -0.248 NA
ATOM     57  C   UNL A   1      41.735  30.282  29.364  1.00  0.00     0.031 C 
ATOM     58  C   UNL A   1      46.628  28.007  31.115  1.00  0.00     0.029 A 
ATOM     59  C   UNL A   1      45.533  28.864  31.006  1.00  0.00     0.049 A 
ATOM     60  H   UNL A   1      45.654  30.743  30.050  1.00  0.00     0.167 HD
ATOM     61  C   UNL A   1      43.099  29.381  31.011  1.00  0.00     0.074 A 
ATOM     62  C   UNL A   1      42.958  30.314  29.898  1.00  0.00     0.031 C 
ATOM     63  C   UNL A   1      44.199  28.792  31.567  1.00  0.00     0.037 A 
BRANCH  50  64
ATOM     64  C   UNL A   1      46.775  30.766  27.176  1.00  0.00     0.058 A 
ATOM     65  C   UNL A   1      48.036  31.378  27.079  1.00  0.00     0.135 A 
ATOM     66  C   UNL A   1      45.664  31.595  26.891  1.00  0.00     0.135 A 
ATOM     67  F   UNL A   1      49.153  30.686  27.355  1.00  0.00    -0.206 F 
ATOM     68  C   UNL A   1      48.181  32.731  26.774  1.00  0.00     0.059 A 
ATOM     69  C   UNL A   1      45.788  32.925  26.519  1.00  0.00     0.059 A 
ATOM     70  F   UNL A   1      44.400  31.184  27.059  1.00  0.00    -0.206 F 
ATOM     71  C   UNL A   1      47.047  33.498  26.512  1.00  0.00     0.060 A 
BRANCH  71  72
ATOM     72  S   UNL A   1      47.212  35.271  26.253  1.00  0.00     0.124 S 
ATOM     73  O   UNL A   1      48.452  35.333  25.489  1.00  0.00    -0.237 OA
ATOM     74  O   UNL A   1      45.990  35.589  25.521  1.00  0.00    -0.237 OA
ATOM     75  O   UNL A   1      47.278  35.802  27.612  1.00  0.00    -0.744 OA
ENDBRANCH  71  72
ENDBRANCH  50  64
BRANCH  51  76
ATOM     76  C   UNL A   1      38.727  28.922  29.192  1.00  0.00     0.058 A 
ATOM     77  C   UNL A   1      37.740  29.116  30.172  1.00  0.00     0.135 A 
ATOM     78  C   UNL A   1      38.467  29.491  27.927  1.00  0.00     0.135 A 
ATOM     79  F   UNL A   1      37.918  28.639  31.413  1.00  0.00    -0.206 F 
ATOM     80  C   UNL A   1      36.580  29.858  29.923  1.00  0.00     0.059 A 
ATOM     81  C   UNL A   1      37.312  30.218  27.650  1.00  0.00     0.059 A 
ATOM     82  F   UNL A   1      39.373  29.439  26.940  1.00  0.00    -0.206 F 
ATOM     83  C   UNL A   1      36.382  30.417  28.660  1.00  0.00     0.060 A 
BRANCH  83  84
ATOM     84  S   UNL A   1      34.967  31.504  28.376  1.00  0.00     0.124 S 
ATOM     85  O   UNL A   1      34.662  31.959  29.727  1.00  0.00    -0.237 OA
ATOM     86  O   UNL A   1      35.526  32.506  27.475  1.00  0.00    -0.237 OA
ATOM     87  O   UNL A   1      33.973  30.617  27.776  1.00  0.00    -0.744 OA
ENDBRANCH  83  84
ENDBRANCH  51  76
BRANCH  63  88
ATOM     88  C   UNL A   1      43.986  27.780  32.665  1.00  0.00     0.058 A 
ATOM     89  C   UNL A   1      43.915  26.393  32.447  1.00  0.00     0.135 A 
ATOM     90  C   UNL A   1      44.026  28.216  33.999  1.00  0.00     0.135 A 
ATOM     91  F   UNL A   1      43.981  25.888  31.207  1.00  0.00    -0.206 F 
ATOM     92  C   UNL A   1      43.852  25.484  33.503  1.00  0.00     0.059 A 
ATOM     93  C   UNL A   1      43.995  27.324  35.069  1.00  0.00     0.059 A 
ATOM     94  F   UNL A   1      44.159  29.525  34.275  1.00  0.00    -0.206 F 
ATOM     95  C   UNL A   1      43.898  25.958  34.814  1.00  0.00     0.060 A 
BRANCH  95  96
ATOM     96  S   UNL A   1      43.930  24.772  36.175  1.00  0.00     0.124 S 
ATOM     97  O   UNL A   1      45.229  24.131  35.994  1.00  0.00    -0.237 OA
ATOM     98  O   UNL A   1      43.807  25.630  37.351  1.00  0.00    -0.237 OA
ATOM     99  O   UNL A   1      42.771  23.921  35.914  1.00  0.00    -0.744 OA
ENDBRANCH  95  96
ENDBRANCH  63  88
ENDBRANCH  37  38
ENDBRANCH  30  32
ENDBRANCH  29  30
ENDBRANCH  28  29
ENDBRANCH  27  28
ENDBRANCH  26  27
ENDBRANCH  25  26
ENDBRANCH   1  25
TORSDOF 23
ENDMDL
MODEL 2
REMARK VINA RESULT:     -10.2      2.994      4.833
REMARK SMILES O=C(Cn1ccc(C(=O)NCCC[NH+]2CCOCC2)n1)OCCOCCOC(=O)c1ccc(-c2c3nc(c(-c4c(F)cc(S(=O)(=O)[O-])cc4F)c4ccc([nH]4)c(-c4c(F)cc(S(=O)(=O)[O-])cc4F)c4nc(c(-c5c(F)cc(S(=O)(=O)[O-])cc5F)c5ccc2[nH]5)C=C4)C=C3)cc1
REMARK SMILES IDX 22 1 21 2 2 3 1 4 3 5 4 6 5 7 20 8 6 9 7 10 8 11 9 12 10 13
REMARK SMILES IDX 11 15 12 16 13 17 14 18 15 19 19 20 16 22 18 23 17 24 23 25
REMARK SMILES IDX 24 26 25 27 26 28 27 29 28 30 29 31 30 32 31 33 95 34 32 35
REMARK SMILES IDX 94 36 33 37 34 38 35 39 88 40 36 41 93 42 87 43 89 44 37 45
REMARK SMILES IDX 92 46 86 47 85 48 38 50 72 51 51 52 71 53 52 54 55 55 70 56
REMARK SMILES IDX 90 57 53 58 54 59 69 61 91 62 56 63 39 64 40 65 49 66 41 67
REMARK SMILES IDX 42 68 48 69 50 70 43 71 44 72 45 73 46 74 47 75 73 76 74 77
REMARK SMILES IDX 83 78 75 79 76 80 82 81 84 82 77 83 78 84 79 85 80 86 81 87
REMARK SMILES IDX 57 88 58 89 67 90 59 91 60 92 66 93 68 94 61 95 62 96 63 97
REMARK SMILES IDX 64 98 65 99
REMARK H PARENT 10 14 14 21 89 49 55 60
REMARK Flexibility Score: inf
ROOT
ATOM      1  C   UNL A   1      38.610  21.166  25.404  1.00  0.00     0.261 C 
ENDROOT
BRANCH   1   2
ATOM      2  O   UNL A   1      37.266  21.658  25.364  1.00  0.00    -0.462 OA
BRANCH   2   3
ATOM      3  C   UNL A   1      37.020  22.990  25.339  1.00  0.00     0.327 C 
ATOM      4  O   UNL A   1      37.416  23.719  26.245  1.00  0.00    -0.250 OA
BRANCH   3   5
ATOM      5  C   UNL A   1      36.055  23.467  24.303  1.00  0.00     0.266 C 
BRANCH   5   6
ATOM      6  N   UNL A   1      34.813  23.976  24.837  1.00  0.00    -0.261 N 
ATOM      7  C   UNL A   1      34.550  25.298  25.047  1.00  0.00     0.110 A 
ATOM      8  N   UNL A   1      33.886  23.154  25.372  1.00  0.00    -0.167 NA
ATOM      9  C   UNL A   1      33.344  25.340  25.695  1.00  0.00     0.056 A 
ATOM     10  C   UNL A   1      32.959  23.984  25.896  1.00  0.00     0.150 A 
BRANCH  10  11
ATOM     11  C   UNL A   1      31.712  23.560  26.566  1.00  0.00     0.271 C 
ATOM     12  O   UNL A   1      31.244  24.207  27.506  1.00  0.00    -0.267 OA
ATOM     13  N   UNL A   1      31.048  22.412  26.190  1.00  0.00    -0.350 N 
ATOM     14  H   UNL A   1      30.212  22.223  26.675  1.00  0.00     0.163 HD
BRANCH  13  15
ATOM     15  C   UNL A   1      31.419  21.448  25.176  1.00  0.00     0.122 C 
BRANCH  15  16
ATOM     16  C   UNL A   1      32.426  20.396  25.645  1.00  0.00     0.083 C 
BRANCH  16  17
ATOM     17  C   UNL A   1      33.060  19.500  24.570  1.00  0.00     0.264 C 
BRANCH  17  18
ATOM     18  N   UNL A   1      32.506  18.192  24.232  1.00  0.00    -0.331 N 
ATOM     19  C   UNL A   1      32.500  17.196  25.317  1.00  0.00     0.291 C 
ATOM     20  C   UNL A   1      32.917  17.571  22.970  1.00  0.00     0.291 C 
ATOM     21  H   UNL A   1      31.543  18.489  24.074  1.00  0.00     0.348 HD
ATOM     22  C   UNL A   1      33.750  16.307  25.375  1.00  0.00     0.221 C 
ATOM     23  C   UNL A   1      34.156  16.665  23.085  1.00  0.00     0.221 C 
ATOM     24  O   UNL A   1      33.998  15.681  24.111  1.00  0.00    -0.370 OA
ENDBRANCH  17  18
ENDBRANCH  16  17
ENDBRANCH  15  16
ENDBRANCH  13  15
ENDBRANCH  10  11
ENDBRANCH   5   6
ENDBRANCH   3   5
ENDBRANCH   2   3
ENDBRANCH   1   2
BRANCH   1  25
ATOM     25  C   UNL A   1      38.833  19.646  25.367  1.00  0.00     0.202 C 
BRANCH  25  26
ATOM     26  O   UNL A   1      40.084  19.047  25.698  1.00  0.00    -0.374 OA
BRANCH  26  27
ATOM     27  C   UNL A   1      41.185  19.804  26.179  1.00  0.00     0.202 C 
BRANCH  27  28
ATOM     28  C   UNL A   1      42.538  19.138  26.111  1.00  0.00     0.261 C 
BRANCH  28  29
ATOM     29  O   UNL A   1      43.549  20.125  26.026  1.00  0.00    -0.460 OA
BRANCH  29  30
ATOM     30  C   UNL A   1      44.089  20.301  24.804  1.00  0.00     0.338 C 
ATOM     31  O   UNL A   1      44.264  19.454  23.935  1.00  0.00    -0.246 OA
BRANCH  30  32
ATOM     32  C   UNL A   1      44.652  21.650  24.787  1.00  0.00     0.060 A 
ATOM     33  C   UNL A   1      45.654  21.864  25.731  1.00  0.00     0.016 A 
ATOM     34  C   UNL A   1      43.900  22.699  24.225  1.00  0.00     0.016 A 
ATOM     35  C   UNL A   1      45.689  23.089  26.343  1.00  0.00     0.010 A 
ATOM     36  C   UNL A   1      43.918  23.914  24.860  1.00  0.00     0.010 A 
ATOM     37  C   UNL A   1      44.742  24.051  25.971  1.00  0.00    -0.014 A 
BRANCH  37  38
ATOM     38  C   UNL A   1      44.662  25.227  26.801  1.00  0.00     0.031 A 
ATOM     39  C   UNL A   1      45.828  26.116  26.666  1.00  0.00     0.074 A 
ATOM     40  C   UNL A   1      43.598  25.497  27.574  1.00  0.00     0.049 A 
ATOM     41  N   UNL A   1      46.745  26.368  27.536  1.00  0.00    -0.248 NA
ATOM     42  C   UNL A   1      46.081  26.666  25.326  1.00  0.00     0.031 C 
ATOM     43  C   UNL A   1      42.269  24.883  27.547  1.00  0.00     0.029 A 
ATOM     44  N   UNL A   1      43.469  26.487  28.494  1.00  0.00    -0.354 N 
ATOM     45  C   UNL A   1      47.589  27.278  26.915  1.00  0.00     0.074 A 
ATOM     46  C   UNL A   1      47.247  27.278  25.517  1.00  0.00     0.031 C 
ATOM     47  C   UNL A   1      41.416  25.661  28.252  1.00  0.00     0.029 A 
ATOM     48  C   UNL A   1      42.164  26.748  28.866  1.00  0.00     0.049 A 
ATOM     49  H   UNL A   1      44.240  26.976  28.864  1.00  0.00     0.167 HD
ATOM     50  C   UNL A   1      48.348  28.151  27.627  1.00  0.00     0.037 A 
ATOM     51  C   UNL A   1      41.742  27.852  29.530  1.00  0.00     0.037 A 
ATOM     52  C   UNL A   1      48.510  27.735  28.995  1.00  0.00     0.049 A 
ATOM     53  C   UNL A   1      42.932  28.455  30.196  1.00  0.00     0.074 A 
ATOM     54  C   UNL A   1      49.039  26.614  29.605  1.00  0.00     0.029 A 
ATOM     55  N   UNL A   1      47.763  28.367  29.960  1.00  0.00    -0.354 N 
ATOM     56  N   UNL A   1      43.592  27.898  31.176  1.00  0.00    -0.248 NA
ATOM     57  C   UNL A   1      43.653  29.503  29.485  1.00  0.00     0.031 C 
ATOM     58  C   UNL A   1      48.223  26.387  30.750  1.00  0.00     0.029 A 
ATOM     59  C   UNL A   1      47.258  27.393  30.787  1.00  0.00     0.049 A 
ATOM     60  H   UNL A   1      47.617  29.337  30.043  1.00  0.00     0.167 HD
ATOM     61  C   UNL A   1      44.923  28.236  30.958  1.00  0.00     0.074 A 
ATOM     62  C   UNL A   1      44.884  29.303  29.965  1.00  0.00     0.031 C 
ATOM     63  C   UNL A   1      45.943  27.440  31.395  1.00  0.00     0.037 A 
BRANCH  50  64
ATOM     64  C   UNL A   1      48.647  29.543  27.144  1.00  0.00     0.058 A 
ATOM     65  C   UNL A   1      49.981  29.958  26.989  1.00  0.00     0.135 A 
ATOM     66  C   UNL A   1      47.671  30.565  27.070  1.00  0.00     0.135 A 
ATOM     67  F   UNL A   1      50.985  29.070  27.067  1.00  0.00    -0.206 F 
ATOM     68  C   UNL A   1      50.325  31.300  26.829  1.00  0.00     0.059 A 
ATOM     69  C   UNL A   1      47.986  31.896  26.844  1.00  0.00     0.059 A 
ATOM     70  F   UNL A   1      46.375  30.338  27.319  1.00  0.00    -0.206 F 
ATOM     71  C   UNL A   1      49.318  32.262  26.774  1.00  0.00     0.060 A 
BRANCH  71  72
ATOM     72  S   UNL A   1      49.756  34.006  26.706  1.00  0.00     0.124 S 
ATOM     73  O   UNL A   1      48.627  34.610  27.404  1.00  0.00    -0.237 OA
ATOM     74  O   UNL A   1      51.033  34.029  27.410  1.00  0.00    -0.237 OA
ATOM     75  O   UNL A   1      49.831  34.275  25.272  1.00  0.00    -0.744 OA
ENDBRANCH  71  72
ENDBRANCH  50  64
BRANCH  51  76
ATOM     76  C   UNL A   1      40.480  28.599  29.296  1.00  0.00     0.058 A 
ATOM     77  C   UNL A   1      40.113  29.022  28.008  1.00  0.00     0.135 A 
ATOM     78  C   UNL A   1      39.479  28.689  30.288  1.00  0.00     0.135 A 
ATOM     79  F   UNL A   1      40.991  28.940  26.997  1.00  0.00    -0.206 F 
ATOM     80  C   UNL A   1      38.824  29.477  27.713  1.00  0.00     0.059 A 
ATOM     81  C   UNL A   1      38.194  29.155  30.023  1.00  0.00     0.059 A 
ATOM     82  F   UNL A   1      39.689  28.237  31.533  1.00  0.00    -0.206 F 
ATOM     83  C   UNL A   1      37.866  29.527  28.727  1.00  0.00     0.060 A 
BRANCH  83  84
ATOM     84  S   UNL A   1      36.160  29.964  28.323  1.00  0.00     0.124 S 
ATOM     85  O   UNL A   1      36.330  31.244  27.644  1.00  0.00    -0.237 OA
ATOM     86  O   UNL A   1      35.747  28.845  27.483  1.00  0.00    -0.237 OA
ATOM     87  O   UNL A   1      35.509  30.032  29.629  1.00  0.00    -0.744 OA
ENDBRANCH  83  84
ENDBRANCH  51  76
BRANCH  63  88
ATOM     88  C   UNL A   1      45.620  26.345  32.381  1.00  0.00     0.058 A 
ATOM     89  C   UNL A   1      45.586  26.533  33.773  1.00  0.00     0.135 A 
ATOM     90  C   UNL A   1      45.164  25.111  31.891  1.00  0.00     0.135 A 
ATOM     91  F   UNL A   1      45.901  27.718  34.315  1.00  0.00    -0.206 F 
ATOM     92  C   UNL A   1      45.153  25.530  34.642  1.00  0.00     0.059 A 
ATOM     93  C   UNL A   1      44.699  24.107  32.737  1.00  0.00     0.059 A 
ATOM     94  F   UNL A   1      45.110  24.892  30.566  1.00  0.00    -0.206 F 
ATOM     95  C   UNL A   1      44.704  24.320  34.114  1.00  0.00     0.060 A 
BRANCH  95  96
ATOM     96  S   UNL A   1      44.039  23.068  35.233  1.00  0.00     0.124 S 
ATOM     97  O   UNL A   1      44.883  23.231  36.412  1.00  0.00    -0.237 OA
ATOM     98  O   UNL A   1      42.648  23.484  35.389  1.00  0.00    -0.237 OA
ATOM     99  O   UNL A   1      44.226  21.819  34.498  1.00  0.00    -0.744 OA
ENDBRANCH  95  96
ENDBRANCH  63  88
ENDBRANCH  37  38
ENDBRANCH  30  32
ENDBRANCH  29  30
ENDBRANCH  28  29
ENDBRANCH  27  28
ENDBRANCH  26  27
ENDBRANCH  25  26
ENDBRANCH   1  25
TORSDOF 23
ENDMDL
MODEL 3
REMARK VINA RESULT:     -10.1      2.691      3.601
REMARK SMILES O=C(Cn1ccc(C(=O)NCCC[NH+]2CCOCC2)n1)OCCOCCOC(=O)c1ccc(-c2c3nc(c(-c4c(F)cc(S(=O)(=O)[O-])cc4F)c4ccc([nH]4)c(-c4c(F)cc(S(=O)(=O)[O-])cc4F)c4nc(c(-c5c(F)cc(S(=O)(=O)[O-])cc5F)c5ccc2[nH]5)C=C4)C=C3)cc1
REMARK SMILES IDX 22 1 21 2 2 3 1 4 3 5 4 6 5 7 20 8 6 9 7 10 8 11 9 12 10 13
REMARK SMILES IDX 11 15 12 16 13 17 14 18 15 19 19 20 16 22 18 23 17 24 23 25
REMARK SMILES IDX 24 26 25 27 26 28 27 29 28 30 29 31 30 32 31 33 95 34 32 35
REMARK SMILES IDX 94 36 33 37 34 38 35 39 88 40 36 41 93 42 87 43 89 44 37 45
REMARK SMILES IDX 92 46 86 47 85 48 38 50 72 51 51 52 71 53 52 54 55 55 70 56
REMARK SMILES IDX 90 57 53 58 54 59 69 61 91 62 56 63 39 64 40 65 49 66 41 67
REMARK SMILES IDX 42 68 48 69 50 70 43 71 44 72 45 73 46 74 47 75 73 76 74 77
REMARK SMILES IDX 83 78 75 79 76 80 82 81 84 82 77 83 78 84 79 85 80 86 81 87
REMARK SMILES IDX 57 88 58 89 67 90 59 91 60 92 66 93 68 94 61 95 62 96 63 97
REMARK SMILES IDX 64 98 65 99
REMARK H PARENT 10 14 14 21 89 49 55 60
REMARK Flexibility Score: inf
ROOT
ATOM      1  C   UNL A   1      34.951  22.615  26.662  1.00  0.00     0.261 C 
ENDROOT
BRANCH   1   2
ATOM      2  O   UNL A   1      33.731  22.468  27.397  1.00  0.00    -0.462 OA
BRANCH   2   3
ATOM      3  C   UNL A   1      32.610  23.123  27.009  1.00  0.00     0.327 C 
ATOM      4  O   UNL A   1      31.524  22.869  27.524  1.00  0.00    -0.250 OA
BRANCH   3   5
ATOM      5  C   UNL A   1      32.727  23.967  25.781  1.00  0.00     0.266 C 
BRANCH   5   6
ATOM      6  N   UNL A   1      32.558  25.382  26.015  1.00  0.00    -0.261 N 
ATOM      7  C   UNL A   1      31.458  25.939  26.599  1.00  0.00     0.110 A 
ATOM      8  N   UNL A   1      33.397  26.292  25.477  1.00  0.00    -0.167 NA
ATOM      9  C   UNL A   1      31.627  27.295  26.497  1.00  0.00     0.056 A 
ATOM     10  C   UNL A   1      32.842  27.485  25.778  1.00  0.00     0.150 A 
BRANCH  10  11
ATOM     11  C   UNL A   1      33.412  28.804  25.437  1.00  0.00     0.271 C 
ATOM     12  O   UNL A   1      34.227  29.357  26.181  1.00  0.00    -0.267 OA
ATOM     13  N   UNL A   1      33.030  29.481  24.299  1.00  0.00    -0.350 N 
ATOM     14  H   UNL A   1      33.482  30.342  24.140  1.00  0.00     0.163 HD
BRANCH  13  15
ATOM     15  C   UNL A   1      32.052  29.091  23.305  1.00  0.00     0.122 C 
BRANCH  15  16
ATOM     16  C   UNL A   1      30.619  29.523  23.629  1.00  0.00     0.083 C 
BRANCH  16  17
ATOM     17  C   UNL A   1      29.531  29.175  22.602  1.00  0.00     0.264 C 
BRANCH  17  18
ATOM     18  N   UNL A   1      28.282  29.928  22.517  1.00  0.00    -0.331 N 
ATOM     19  C   UNL A   1      27.928  30.436  21.181  1.00  0.00     0.291 C 
ATOM     20  C   UNL A   1      28.016  30.944  23.539  1.00  0.00     0.291 C 
ATOM     21  H   UNL A   1      27.647  29.161  22.740  1.00  0.00     0.348 HD
ATOM     22  C   UNL A   1      28.440  31.851  20.878  1.00  0.00     0.221 C 
ATOM     23  C   UNL A   1      28.521  32.352  23.177  1.00  0.00     0.221 C 
ATOM     24  O   UNL A   1      28.039  32.774  21.897  1.00  0.00    -0.370 OA
ENDBRANCH  17  18
ENDBRANCH  16  17
ENDBRANCH  15  16
ENDBRANCH  13  15
ENDBRANCH  10  11
ENDBRANCH   5   6
ENDBRANCH   3   5
ENDBRANCH   2   3
ENDBRANCH   1   2
BRANCH   1  25
ATOM     25  C   UNL A   1      35.397  21.464  25.747  1.00  0.00     0.202 C 
BRANCH  25  26
ATOM     26  O   UNL A   1      36.689  20.867  25.840  1.00  0.00    -0.374 OA
BRANCH  26  27
ATOM     27  C   UNL A   1      37.773  21.272  25.018  1.00  0.00     0.202 C 
BRANCH  27  28
ATOM     28  C   UNL A   1      39.118  21.391  25.692  1.00  0.00     0.261 C 
BRANCH  28  29
ATOM     29  O   UNL A   1      39.060  22.389  26.695  1.00  0.00    -0.460 OA
BRANCH  29  30
ATOM     30  C   UNL A   1      38.789  23.635  26.260  1.00  0.00     0.338 C 
ATOM     31  O   UNL A   1      37.887  23.984  25.504  1.00  0.00    -0.246 OA
BRANCH  30  32
ATOM     32  C   UNL A   1      39.915  24.474  26.666  1.00  0.00     0.060 A 
ATOM     33  C   UNL A   1      40.249  24.369  28.014  1.00  0.00     0.016 A 
ATOM     34  C   UNL A   1      40.252  25.594  25.883  1.00  0.00     0.016 A 
ATOM     35  C   UNL A   1      40.640  25.516  28.655  1.00  0.00     0.010 A 
ATOM     36  C   UNL A   1      40.616  26.745  26.532  1.00  0.00     0.010 A 
ATOM     37  C   UNL A   1      40.704  26.706  27.919  1.00  0.00    -0.014 A 
BRANCH  37  38
ATOM     38  C   UNL A   1      40.884  27.919  28.675  1.00  0.00     0.031 A 
ATOM     39  C   UNL A   1      42.062  28.698  28.258  1.00  0.00     0.074 A 
ATOM     40  C   UNL A   1      40.023  28.314  29.627  1.00  0.00     0.049 A 
ATOM     41  N   UNL A   1      43.153  28.907  28.912  1.00  0.00    -0.248 NA
ATOM     42  C   UNL A   1      42.078  29.165  26.864  1.00  0.00     0.031 C 
ATOM     43  C   UNL A   1      38.674  27.815  29.903  1.00  0.00     0.029 A 
ATOM     44  N   UNL A   1      40.159  29.349  30.494  1.00  0.00    -0.354 N 
ATOM     45  C   UNL A   1      43.920  29.713  28.082  1.00  0.00     0.074 A 
ATOM     46  C   UNL A   1      43.301  29.682  26.782  1.00  0.00     0.031 C 
ATOM     47  C   UNL A   1      38.043  28.694  30.715  1.00  0.00     0.029 A 
ATOM     48  C   UNL A   1      38.980  29.738  31.102  1.00  0.00     0.049 A 
ATOM     49  H   UNL A   1      41.023  29.786  30.673  1.00  0.00     0.167 HD
ATOM     50  C   UNL A   1      44.872  30.548  28.575  1.00  0.00     0.037 A 
ATOM     51  C   UNL A   1      38.787  30.902  31.769  1.00  0.00     0.037 A 
ATOM     52  C   UNL A   1      45.276  30.179  29.906  1.00  0.00     0.049 A 
ATOM     53  C   UNL A   1      40.130  31.429  32.147  1.00  0.00     0.074 A 
ATOM     54  C   UNL A   1      45.832  29.044  30.464  1.00  0.00     0.029 A 
ATOM     55  N   UNL A   1      44.791  30.915  30.960  1.00  0.00    -0.354 N 
ATOM     56  N   UNL A   1      40.931  30.860  33.008  1.00  0.00    -0.248 NA
ATOM     57  C   UNL A   1      40.769  32.378  31.246  1.00  0.00     0.031 C 
ATOM     58  C   UNL A   1      45.251  28.938  31.761  1.00  0.00     0.029 A 
ATOM     59  C   UNL A   1      44.392  30.025  31.928  1.00  0.00     0.049 A 
ATOM     60  H   UNL A   1      44.738  31.896  31.013  1.00  0.00     0.167 HD
ATOM     61  C   UNL A   1      42.211  31.072  32.510  1.00  0.00     0.074 A 
ATOM     62  C   UNL A   1      42.052  32.094  31.482  1.00  0.00     0.031 C 
ATOM     63  C   UNL A   1      43.236  30.211  32.782  1.00  0.00     0.037 A 
BRANCH  50  64
ATOM     64  C   UNL A   1      45.170  31.887  27.959  1.00  0.00     0.058 A 
ATOM     65  C   UNL A   1      46.447  32.143  27.430  1.00  0.00     0.135 A 
ATOM     66  C   UNL A   1      44.324  33.012  28.101  1.00  0.00     0.135 A 
ATOM     67  F   UNL A   1      47.335  31.148  27.278  1.00  0.00    -0.206 F 
ATOM     68  C   UNL A   1      46.872  33.434  27.115  1.00  0.00     0.059 A 
ATOM     69  C   UNL A   1      44.702  34.294  27.731  1.00  0.00     0.059 A 
ATOM     70  F   UNL A   1      43.129  32.939  28.700  1.00  0.00    -0.206 F 
ATOM     71  C   UNL A   1      45.994  34.503  27.286  1.00  0.00     0.060 A 
BRANCH  71  72
ATOM     72  S   UNL A   1      46.576  36.184  27.014  1.00  0.00     0.124 S 
ATOM     73  O   UNL A   1      47.683  35.956  26.092  1.00  0.00    -0.237 OA
ATOM     74  O   UNL A   1      45.395  36.831  26.453  1.00  0.00    -0.237 OA
ATOM     75  O   UNL A   1      46.950  36.628  28.354  1.00  0.00    -0.744 OA
ENDBRANCH  71  72
ENDBRANCH  50  64
BRANCH  51  76
ATOM     76  C   UNL A   1      37.563  31.744  31.747  1.00  0.00     0.058 A 
ATOM     77  C   UNL A   1      36.654  31.732  32.818  1.00  0.00     0.135 A 
ATOM     78  C   UNL A   1      37.389  32.772  30.795  1.00  0.00     0.135 A 
ATOM     79  F   UNL A   1      36.766  30.812  33.787  1.00  0.00    -0.206 F 
ATOM     80  C   UNL A   1      35.652  32.699  32.954  1.00  0.00     0.059 A 
ATOM     81  C   UNL A   1      36.388  33.734  30.899  1.00  0.00     0.059 A 
ATOM     82  F   UNL A   1      38.246  32.931  29.776  1.00  0.00    -0.206 F 
ATOM     83  C   UNL A   1      35.536  33.705  31.994  1.00  0.00     0.060 A 
BRANCH  83  84
ATOM     84  S   UNL A   1      34.349  35.044  32.243  1.00  0.00     0.124 S 
ATOM     85  O   UNL A   1      33.979  35.377  30.872  1.00  0.00    -0.237 OA
ATOM     86  O   UNL A   1      33.316  34.394  33.044  1.00  0.00    -0.237 OA
ATOM     87  O   UNL A   1      35.127  36.062  32.944  1.00  0.00    -0.744 OA
ENDBRANCH  83  84
ENDBRANCH  51  76
BRANCH  63  88
ATOM     88  C   UNL A   1      43.038  29.192  33.876  1.00  0.00     0.058 A 
ATOM     89  C   UNL A   1      43.276  29.451  35.237  1.00  0.00     0.135 A 
ATOM     90  C   UNL A   1      42.426  27.969  33.555  1.00  0.00     0.135 A 
ATOM     91  F   UNL A   1      43.757  30.636  35.638  1.00  0.00    -0.206 F 
ATOM     92  C   UNL A   1      42.953  28.525  36.230  1.00  0.00     0.059 A 
ATOM     93  C   UNL A   1      42.068  27.044  34.533  1.00  0.00     0.059 A 
ATOM     94  F   UNL A   1      42.113  27.689  32.279  1.00  0.00    -0.206 F 
ATOM     95  C   UNL A   1      42.343  27.324  35.869  1.00  0.00     0.060 A 
BRANCH  95  96
ATOM     96  S   UNL A   1      41.825  26.179  37.167  1.00  0.00     0.124 S 
ATOM     97  O   UNL A   1      40.529  26.725  37.558  1.00  0.00    -0.237 OA
ATOM     98  O   UNL A   1      41.787  24.898  36.467  1.00  0.00    -0.237 OA
ATOM     99  O   UNL A   1      42.882  26.298  38.169  1.00  0.00    -0.744 OA
ENDBRANCH  95  96
ENDBRANCH  63  88
ENDBRANCH  37  38
ENDBRANCH  30  32
ENDBRANCH  29  30
ENDBRANCH  28  29
ENDBRANCH  27  28
ENDBRANCH  26  27
ENDBRANCH  25  26
ENDBRANCH   1  25
TORSDOF 23
ENDMDL
