MODEL 1
REMARK VINA RESULT:     -11.1      0.000      0.000
REMARK SMILES C[C@]1(C(=O)NCc2ccc(C(=O)OCCOCCOC(=O)c3ccc(-c4c5nc(c(-c6c(F)cc(S(=O)(=O)[O-])cc6F)c6ccc([nH]6)c(-c6c(F)cc(S(=O)(=O)[O-])cc6F)c6nc(c(-c7c(F)cc(S(=O)(=O)[O-])cc7F)c7ccc4[nH]7)C=C6)C=C5)cc3)o2)CCC[NH2+]C1
REMARK SMILES IDX 16 1 15 2 14 3 13 4 11 5 12 6 10 7 7 8 8 9 88 10 9 11 6 12
REMARK SMILES IDX 5 13 3 14 4 15 2 17 1 18 89 19 93 20 90 21 92 22 91 23 17 26
REMARK SMILES IDX 18 27 19 28 20 29 21 30 22 31 23 32 87 33 24 34 86 35 25 36
REMARK SMILES IDX 26 37 27 38 80 39 28 40 85 41 79 42 81 43 29 44 84 45 78 46
REMARK SMILES IDX 77 47 30 49 64 50 43 51 63 52 44 53 47 54 62 55 82 56 45 57
REMARK SMILES IDX 46 58 61 60 83 61 48 62 31 63 32 64 41 65 33 66 34 67 40 68
REMARK SMILES IDX 42 69 35 70 36 71 37 72 38 73 39 74 65 75 66 76 75 77 67 78
REMARK SMILES IDX 68 79 74 80 76 81 69 82 70 83 71 84 72 85 73 86 49 87 50 88
REMARK SMILES IDX 59 89 51 90 52 91 58 92 60 93 53 94 54 95 55 96 56 97 57 98
REMARK H PARENT 5 16 92 24 92 25 81 48 47 59
REMARK Flexibility Score: inf
ROOT
ATOM      1  O   UNL A   1      44.595  21.670  24.340  1.00  0.00    -0.374 OA
ENDROOT
BRANCH   1   2
ATOM      2  C   UNL A   1      45.285  20.492  24.775  1.00  0.00     0.202 C 
BRANCH   2   3
ATOM      3  C   UNL A   1      44.600  19.177  24.385  1.00  0.00     0.261 C 
BRANCH   3   4
ATOM      4  O   UNL A   1      43.188  19.285  24.639  1.00  0.00    -0.457 OA
BRANCH   4   5
ATOM      5  C   UNL A   1      42.770  18.938  25.889  1.00  0.00     0.374 C 
ATOM      6  O   UNL A   1      43.144  17.948  26.506  1.00  0.00    -0.242 OA
BRANCH   5   7
ATOM      7  C   UNL A   1      41.953  20.006  26.420  1.00  0.00     0.211 A 
ATOM      8  C   UNL A   1      40.169  21.310  26.432  1.00  0.00     0.124 A 
ATOM      9  C   UNL A   1      40.824  21.535  27.625  1.00  0.00     0.048 A 
ATOM     10  O   UNL A   1      40.854  20.388  25.697  1.00  0.00    -0.452 OA
ATOM     11  C   UNL A   1      41.970  20.701  27.617  1.00  0.00     0.058 A 
BRANCH   8  12
ATOM     12  C   UNL A   1      38.940  21.839  25.797  1.00  0.00     0.191 C 
BRANCH  12  13
ATOM     13  N   UNL A   1      38.048  20.768  25.431  1.00  0.00    -0.348 N 
ATOM     14  C   UNL A   1      36.758  20.684  25.049  1.00  0.00     0.232 C 
ATOM     15  O   UNL A   1      36.423  19.524  24.758  1.00  0.00    -0.274 OA
ATOM     16  H   UNL A   1      38.487  19.888  25.468  1.00  0.00     0.163 HD
BRANCH  14  17
ATOM     17  C   UNL A   1      35.707  21.833  25.013  1.00  0.00     0.095 C 
ATOM     18  C   UNL A   1      36.101  22.665  23.745  1.00  0.00     0.028 C 
ATOM     19  C   UNL A   1      34.289  21.300  24.731  1.00  0.00     0.028 C 
ATOM     20  C   UNL A   1      35.747  22.832  26.195  1.00  0.00     0.277 C 
ATOM     21  C   UNL A   1      33.470  21.031  25.980  1.00  0.00     0.063 C 
ATOM     22  N   UNL A   1      34.798  22.690  27.298  1.00  0.00    -0.345 N 
ATOM     23  C   UNL A   1      33.474  22.209  26.940  1.00  0.00     0.260 C 
ATOM     24  H   UNL A   1      35.198  22.034  27.970  1.00  0.00     0.346 HD
ATOM     25  H   UNL A   1      34.661  23.631  27.665  1.00  0.00     0.346 HD
ENDBRANCH  14  17
ENDBRANCH  12  13
ENDBRANCH   8  12
ENDBRANCH   5   7
ENDBRANCH   4   5
ENDBRANCH   3   4
ENDBRANCH   2   3
ENDBRANCH   1   2
BRANCH   1  26
ATOM     26  C   UNL A   1      44.290  22.642  25.339  1.00  0.00     0.202 C 
BRANCH  26  27
ATOM     27  C   UNL A   1      43.085  23.540  25.045  1.00  0.00     0.261 C 
BRANCH  27  28
ATOM     28  O   UNL A   1      42.579  24.149  26.244  1.00  0.00    -0.460 OA
BRANCH  28  29
ATOM     29  C   UNL A   1      42.018  25.369  26.059  1.00  0.00     0.338 C 
ATOM     30  O   UNL A   1      41.488  25.785  25.042  1.00  0.00    -0.246 OA
BRANCH  29  31
ATOM     31  C   UNL A   1      41.980  26.109  27.336  1.00  0.00     0.060 A 
ATOM     32  C   UNL A   1      40.894  25.865  28.185  1.00  0.00     0.016 A 
ATOM     33  C   UNL A   1      42.944  27.065  27.676  1.00  0.00     0.016 A 
ATOM     34  C   UNL A   1      40.734  26.614  29.348  1.00  0.00     0.010 A 
ATOM     35  C   UNL A   1      42.777  27.821  28.842  1.00  0.00     0.010 A 
ATOM     36  C   UNL A   1      41.652  27.624  29.662  1.00  0.00    -0.014 A 
BRANCH  36  37
ATOM     37  C   UNL A   1      41.345  28.566  30.765  1.00  0.00     0.031 A 
ATOM     38  C   UNL A   1      42.172  28.512  32.021  1.00  0.00     0.074 A 
ATOM     39  C   UNL A   1      40.371  29.484  30.636  1.00  0.00     0.049 A 
ATOM     40  N   UNL A   1      42.083  29.240  33.103  1.00  0.00    -0.248 NA
ATOM     41  C   UNL A   1      43.240  27.501  32.060  1.00  0.00     0.031 C 
ATOM     42  C   UNL A   1      39.522  29.654  29.458  1.00  0.00     0.029 A 
ATOM     43  N   UNL A   1      39.932  30.447  31.509  1.00  0.00    -0.354 N 
ATOM     44  C   UNL A   1      43.080  28.775  33.953  1.00  0.00     0.074 A 
ATOM     45  C   UNL A   1      43.741  27.682  33.273  1.00  0.00     0.031 C 
ATOM     46  C   UNL A   1      38.655  30.657  29.686  1.00  0.00     0.029 A 
ATOM     47  C   UNL A   1      38.876  31.183  31.033  1.00  0.00     0.049 A 
ATOM     48  H   UNL A   1      40.336  30.594  32.395  1.00  0.00     0.167 HD
ATOM     49  C   UNL A   1      43.420  29.223  35.186  1.00  0.00     0.037 A 
ATOM     50  C   UNL A   1      38.160  32.162  31.621  1.00  0.00     0.037 A 
ATOM     51  C   UNL A   1      42.762  30.311  35.861  1.00  0.00     0.049 A 
ATOM     52  C   UNL A   1      38.526  32.616  33.010  1.00  0.00     0.074 A 
ATOM     53  C   UNL A   1      43.045  30.851  37.103  1.00  0.00     0.029 A 
ATOM     54  N   UNL A   1      41.685  31.020  35.353  1.00  0.00    -0.354 N 
ATOM     55  N   UNL A   1      39.488  32.185  33.791  1.00  0.00    -0.248 NA
ATOM     56  C   UNL A   1      37.714  33.693  33.594  1.00  0.00     0.031 C 
ATOM     57  C   UNL A   1      42.113  31.862  37.363  1.00  0.00     0.029 A 
ATOM     58  C   UNL A   1      41.277  31.980  36.264  1.00  0.00     0.049 A 
ATOM     59  H   UNL A   1      41.269  30.864  34.474  1.00  0.00     0.167 HD
ATOM     60  C   UNL A   1      39.412  32.954  34.948  1.00  0.00     0.074 A 
ATOM     61  C   UNL A   1      38.316  33.881  34.761  1.00  0.00     0.031 C 
ATOM     62  C   UNL A   1      40.186  32.900  36.061  1.00  0.00     0.037 A 
BRANCH  49  63
ATOM     63  C   UNL A   1      44.544  28.514  35.889  1.00  0.00     0.058 A 
ATOM     64  C   UNL A   1      45.882  28.901  35.716  1.00  0.00     0.135 A 
ATOM     65  C   UNL A   1      44.277  27.439  36.751  1.00  0.00     0.135 A 
ATOM     66  F   UNL A   1      46.192  29.912  34.889  1.00  0.00    -0.206 F 
ATOM     67  C   UNL A   1      46.921  28.224  36.347  1.00  0.00     0.059 A 
ATOM     68  C   UNL A   1      45.298  26.763  37.411  1.00  0.00     0.059 A 
ATOM     69  F   UNL A   1      43.014  27.029  36.949  1.00  0.00    -0.206 F 
ATOM     70  C   UNL A   1      46.618  27.151  37.188  1.00  0.00     0.060 A 
BRANCH  70  71
ATOM     71  S   UNL A   1      47.975  26.267  37.986  1.00  0.00     0.124 S 
ATOM     72  O   UNL A   1      48.970  26.240  36.917  1.00  0.00    -0.237 OA
ATOM     73  O   UNL A   1      48.288  27.129  39.120  1.00  0.00    -0.237 OA
ATOM     74  O   UNL A   1      47.385  24.977  38.327  1.00  0.00    -0.744 OA
ENDBRANCH  70  71
ENDBRANCH  49  63
BRANCH  50  75
ATOM     75  C   UNL A   1      37.022  32.780  30.893  1.00  0.00     0.058 A 
ATOM     76  C   UNL A   1      35.696  32.450  31.205  1.00  0.00     0.135 A 
ATOM     77  C   UNL A   1      37.241  33.728  29.882  1.00  0.00     0.135 A 
ATOM     78  F   UNL A   1      35.438  31.539  32.157  1.00  0.00    -0.206 F 
ATOM     79  C   UNL A   1      34.624  33.035  30.539  1.00  0.00     0.059 A 
ATOM     80  C   UNL A   1      36.186  34.343  29.215  1.00  0.00     0.059 A 
ATOM     81  F   UNL A   1      38.493  34.085  29.554  1.00  0.00    -0.206 F 
ATOM     82  C   UNL A   1      34.880  33.985  29.548  1.00  0.00     0.060 A 
BRANCH  82  83
ATOM     83  S   UNL A   1      33.483  34.793  28.737  1.00  0.00     0.124 S 
ATOM     84  O   UNL A   1      34.108  36.002  28.213  1.00  0.00    -0.237 OA
ATOM     85  O   UNL A   1      33.084  33.798  27.747  1.00  0.00    -0.237 OA
ATOM     86  O   UNL A   1      32.534  34.994  29.829  1.00  0.00    -0.744 OA
ENDBRANCH  82  83
ENDBRANCH  50  75
BRANCH  62  87
ATOM     87  C   UNL A   1      39.895  33.889  37.155  1.00  0.00     0.058 A 
ATOM     88  C   UNL A   1      39.015  33.591  38.205  1.00  0.00     0.135 A 
ATOM     89  C   UNL A   1      40.549  35.132  37.180  1.00  0.00     0.135 A 
ATOM     90  F   UNL A   1      38.361  32.418  38.225  1.00  0.00    -0.206 F 
ATOM     91  C   UNL A   1      38.775  34.497  39.233  1.00  0.00     0.059 A 
ATOM     92  C   UNL A   1      40.342  36.045  38.208  1.00  0.00     0.059 A 
ATOM     93  F   UNL A   1      41.409  35.463  36.204  1.00  0.00    -0.206 F 
ATOM     94  C   UNL A   1      39.445  35.723  39.225  1.00  0.00     0.060 A 
BRANCH  94  95
ATOM     95  S   UNL A   1      39.154  36.880  40.581  1.00  0.00     0.124 S 
ATOM     96  O   UNL A   1      40.510  37.330  40.878  1.00  0.00    -0.237 OA
ATOM     97  O   UNL A   1      38.277  37.872  39.967  1.00  0.00    -0.237 OA
ATOM     98  O   UNL A   1      38.529  36.051  41.606  1.00  0.00    -0.744 OA
ENDBRANCH  94  95
ENDBRANCH  62  87
ENDBRANCH  36  37
ENDBRANCH  29  31
ENDBRANCH  28  29
ENDBRANCH  27  28
ENDBRANCH  26  27
ENDBRANCH   1  26
TORSDOF 20
ENDMDL
MODEL 2
REMARK VINA RESULT:     -10.7      1.040      2.165
REMARK SMILES C[C@]1(C(=O)NCc2ccc(C(=O)OCCOCCOC(=O)c3ccc(-c4c5nc(c(-c6c(F)cc(S(=O)(=O)[O-])cc6F)c6ccc([nH]6)c(-c6c(F)cc(S(=O)(=O)[O-])cc6F)c6nc(c(-c7c(F)cc(S(=O)(=O)[O-])cc7F)c7ccc4[nH]7)C=C6)C=C5)cc3)o2)CCC[NH2+]C1
REMARK SMILES IDX 16 1 15 2 14 3 13 4 11 5 12 6 10 7 7 8 8 9 88 10 9 11 6 12
REMARK SMILES IDX 5 13 3 14 4 15 2 17 1 18 89 19 93 20 90 21 92 22 91 23 17 26
REMARK SMILES IDX 18 27 19 28 20 29 21 30 22 31 23 32 87 33 24 34 86 35 25 36
REMARK SMILES IDX 26 37 27 38 80 39 28 40 85 41 79 42 81 43 29 44 84 45 78 46
REMARK SMILES IDX 77 47 30 49 64 50 43 51 63 52 44 53 47 54 62 55 82 56 45 57
REMARK SMILES IDX 46 58 61 60 83 61 48 62 31 63 32 64 41 65 33 66 34 67 40 68
REMARK SMILES IDX 42 69 35 70 36 71 37 72 38 73 39 74 65 75 66 76 75 77 67 78
REMARK SMILES IDX 68 79 74 80 76 81 69 82 70 83 71 84 72 85 73 86 49 87 50 88
REMARK SMILES IDX 59 89 51 90 52 91 58 92 60 93 53 94 54 95 55 96 56 97 57 98
REMARK H PARENT 5 16 92 24 92 25 81 48 47 59
REMARK Flexibility Score: inf
ROOT
ATOM      1  O   UNL A   1      43.158  20.958  25.033  1.00  0.00    -0.374 OA
ENDROOT
BRANCH   1   2
ATOM      2  C   UNL A   1      42.841  19.763  25.757  1.00  0.00     0.202 C 
BRANCH   2   3
ATOM      3  C   UNL A   1      42.005  19.993  27.022  1.00  0.00     0.261 C 
BRANCH   3   4
ATOM      4  O   UNL A   1      40.726  20.535  26.653  1.00  0.00    -0.457 OA
BRANCH   4   5
ATOM      5  C   UNL A   1      40.370  21.706  27.251  1.00  0.00     0.374 C 
ATOM      6  O   UNL A   1      40.992  22.252  28.154  1.00  0.00    -0.242 OA
BRANCH   5   7
ATOM      7  C   UNL A   1      39.246  22.271  26.539  1.00  0.00     0.211 A 
ATOM      8  C   UNL A   1      37.342  22.135  25.423  1.00  0.00     0.124 A 
ATOM      9  C   UNL A   1      37.534  23.472  25.705  1.00  0.00     0.048 A 
ATOM     10  O   UNL A   1      38.382  21.406  25.921  1.00  0.00    -0.452 OA
ATOM     11  C   UNL A   1      38.756  23.560  26.418  1.00  0.00     0.058 A 
BRANCH   8  12
ATOM     12  C   UNL A   1      36.303  21.354  24.715  1.00  0.00     0.191 C 
BRANCH  12  13
ATOM     13  N   UNL A   1      35.270  20.928  25.625  1.00  0.00    -0.348 N 
ATOM     14  C   UNL A   1      33.970  21.233  25.808  1.00  0.00     0.232 C 
ATOM     15  O   UNL A   1      33.441  20.545  26.697  1.00  0.00    -0.274 OA
ATOM     16  H   UNL A   1      35.591  20.253  26.265  1.00  0.00     0.163 HD
BRANCH  14  17
ATOM     17  C   UNL A   1      33.151  22.348  25.093  1.00  0.00     0.095 C 
ATOM     18  C   UNL A   1      33.059  21.856  23.608  1.00  0.00     0.028 C 
ATOM     19  C   UNL A   1      31.697  22.402  25.599  1.00  0.00     0.028 C 
ATOM     20  C   UNL A   1      33.814  23.745  25.028  1.00  0.00     0.277 C 
ATOM     21  C   UNL A   1      31.467  23.403  26.715  1.00  0.00     0.063 C 
ATOM     22  N   UNL A   1      33.421  24.781  25.981  1.00  0.00    -0.345 N 
ATOM     23  C   UNL A   1      32.024  24.778  26.384  1.00  0.00     0.260 C 
ATOM     24  H   UNL A   1      33.989  24.663  26.822  1.00  0.00     0.346 HD
ATOM     25  H   UNL A   1      33.569  25.668  25.501  1.00  0.00     0.346 HD
ENDBRANCH  14  17
ENDBRANCH  12  13
ENDBRANCH   8  12
ENDBRANCH   5   7
ENDBRANCH   4   5
ENDBRANCH   3   4
ENDBRANCH   2   3
ENDBRANCH   1   2
BRANCH   1  26
ATOM     26  C   UNL A   1      43.673  22.051  25.793  1.00  0.00     0.202 C 
BRANCH  26  27
ATOM     27  C   UNL A   1      43.320  23.446  25.269  1.00  0.00     0.261 C 
BRANCH  27  28
ATOM     28  O   UNL A   1      42.360  24.099  26.117  1.00  0.00    -0.460 OA
BRANCH  28  29
ATOM     29  C   UNL A   1      42.223  25.428  25.891  1.00  0.00     0.338 C 
ATOM     30  O   UNL A   1      42.016  25.970  24.817  1.00  0.00    -0.246 OA
BRANCH  29  31
ATOM     31  C   UNL A   1      42.195  26.162  27.171  1.00  0.00     0.060 A 
ATOM     32  C   UNL A   1      41.175  25.835  28.073  1.00  0.00     0.016 A 
ATOM     33  C   UNL A   1      43.099  27.187  27.466  1.00  0.00     0.016 A 
ATOM     34  C   UNL A   1      41.019  26.569  29.246  1.00  0.00     0.010 A 
ATOM     35  C   UNL A   1      42.936  27.927  28.643  1.00  0.00     0.010 A 
ATOM     36  C   UNL A   1      41.873  27.644  29.518  1.00  0.00    -0.014 A 
BRANCH  36  37
ATOM     37  C   UNL A   1      41.552  28.560  30.640  1.00  0.00     0.031 A 
ATOM     38  C   UNL A   1      42.386  28.499  31.891  1.00  0.00     0.074 A 
ATOM     39  C   UNL A   1      40.559  29.460  30.533  1.00  0.00     0.049 A 
ATOM     40  N   UNL A   1      42.288  29.204  32.988  1.00  0.00    -0.248 NA
ATOM     41  C   UNL A   1      43.474  27.508  31.906  1.00  0.00     0.031 C 
ATOM     42  C   UNL A   1      39.701  29.635  29.362  1.00  0.00     0.029 A 
ATOM     43  N   UNL A   1      40.105  30.397  31.426  1.00  0.00    -0.354 N 
ATOM     44  C   UNL A   1      43.297  28.743  33.824  1.00  0.00     0.074 A 
ATOM     45  C   UNL A   1      43.977  27.676  33.120  1.00  0.00     0.031 C 
ATOM     46  C   UNL A   1      38.816  30.616  29.613  1.00  0.00     0.029 A 
ATOM     47  C   UNL A   1      39.032  31.121  30.968  1.00  0.00     0.049 A 
ATOM     48  H   UNL A   1      40.510  30.535  32.313  1.00  0.00     0.167 HD
ATOM     49  C   UNL A   1      43.634  29.174  35.064  1.00  0.00     0.037 A 
ATOM     50  C   UNL A   1      38.300  32.074  31.578  1.00  0.00     0.037 A 
ATOM     51  C   UNL A   1      42.958  30.236  35.762  1.00  0.00     0.049 A 
ATOM     52  C   UNL A   1      38.663  32.509  32.974  1.00  0.00     0.074 A 
ATOM     53  C   UNL A   1      43.236  30.758  37.013  1.00  0.00     0.029 A 
ATOM     54  N   UNL A   1      41.864  30.932  35.272  1.00  0.00    -0.354 N 
ATOM     55  N   UNL A   1      39.637  32.083  33.742  1.00  0.00    -0.248 NA
ATOM     56  C   UNL A   1      37.833  33.558  33.582  1.00  0.00     0.031 C 
ATOM     57  C   UNL A   1      42.285  31.745  37.296  1.00  0.00     0.029 A 
ATOM     58  C   UNL A   1      41.441  31.867  36.203  1.00  0.00     0.049 A 
ATOM     59  H   UNL A   1      41.448  30.785  34.392  1.00  0.00     0.167 HD
ATOM     60  C   UNL A   1      39.552  32.828  34.914  1.00  0.00     0.074 A 
ATOM     61  C   UNL A   1      38.436  33.736  34.749  1.00  0.00     0.031 C 
ATOM     62  C   UNL A   1      40.331  32.768  36.023  1.00  0.00     0.037 A 
BRANCH  49  63
ATOM     63  C   UNL A   1      44.775  28.475  35.748  1.00  0.00     0.058 A 
ATOM     64  C   UNL A   1      44.566  27.366  36.582  1.00  0.00     0.135 A 
ATOM     65  C   UNL A   1      46.094  28.918  35.563  1.00  0.00     0.135 A 
ATOM     66  F   UNL A   1      43.322  26.913  36.806  1.00  0.00    -0.206 F 
ATOM     67  C   UNL A   1      45.622  26.739  37.235  1.00  0.00     0.059 A 
ATOM     68  C   UNL A   1      47.168  28.292  36.187  1.00  0.00     0.059 A 
ATOM     69  F   UNL A   1      46.347  29.977  34.777  1.00  0.00    -0.206 F 
ATOM     70  C   UNL A   1      46.920  27.215  37.037  1.00  0.00     0.060 A 
BRANCH  70  71
ATOM     71  S   UNL A   1      48.281  26.407  37.905  1.00  0.00     0.124 S 
ATOM     72  O   UNL A   1      48.047  25.005  37.569  1.00  0.00    -0.237 OA
ATOM     73  O   UNL A   1      49.455  27.017  37.289  1.00  0.00    -0.237 OA
ATOM     74  O   UNL A   1      48.053  26.765  39.301  1.00  0.00    -0.744 OA
ENDBRANCH  70  71
ENDBRANCH  49  63
BRANCH  50  75
ATOM     75  C   UNL A   1      37.146  32.683  30.867  1.00  0.00     0.058 A 
ATOM     76  C   UNL A   1      35.830  32.302  31.161  1.00  0.00     0.135 A 
ATOM     77  C   UNL A   1      37.340  33.672  29.890  1.00  0.00     0.135 A 
ATOM     78  F   UNL A   1      35.595  31.351  32.079  1.00  0.00    -0.206 F 
ATOM     79  C   UNL A   1      34.742  32.878  30.511  1.00  0.00     0.059 A 
ATOM     80  C   UNL A   1      36.269  34.278  29.241  1.00  0.00     0.059 A 
ATOM     81  F   UNL A   1      38.582  34.077  29.581  1.00  0.00    -0.206 F 
ATOM     82  C   UNL A   1      34.973  33.869  29.554  1.00  0.00     0.060 A 
BRANCH  82  83
ATOM     83  S   UNL A   1      33.555  34.663  28.766  1.00  0.00     0.124 S 
ATOM     84  O   UNL A   1      32.659  34.854  29.901  1.00  0.00    -0.237 OA
ATOM     85  O   UNL A   1      34.150  35.874  28.210  1.00  0.00    -0.237 OA
ATOM     86  O   UNL A   1      33.126  33.675  27.780  1.00  0.00    -0.744 OA
ENDBRANCH  82  83
ENDBRANCH  50  75
BRANCH  62  87
ATOM     87  C   UNL A   1      40.025  33.731  37.136  1.00  0.00     0.058 A 
ATOM     88  C   UNL A   1      40.638  34.990  37.211  1.00  0.00     0.135 A 
ATOM     89  C   UNL A   1      39.064  33.410  38.109  1.00  0.00     0.135 A 
ATOM     90  F   UNL A   1      41.567  35.344  36.308  1.00  0.00    -0.206 F 
ATOM     91  C   UNL A   1      40.326  35.892  38.224  1.00  0.00     0.059 A 
ATOM     92  C   UNL A   1      38.720  34.303  39.117  1.00  0.00     0.059 A 
ATOM     93  F   UNL A   1      38.441  32.222  38.076  1.00  0.00    -0.206 F 
ATOM     94  C   UNL A   1      39.365  35.538  39.173  1.00  0.00     0.060 A 
BRANCH  94  95
ATOM     95  S   UNL A   1      38.941  36.727  40.466  1.00  0.00     0.124 S 
ATOM     96  O   UNL A   1      37.934  35.990  41.223  1.00  0.00    -0.237 OA
ATOM     97  O   UNL A   1      40.220  36.929  41.140  1.00  0.00    -0.237 OA
ATOM     98  O   UNL A   1      38.447  37.878  39.717  1.00  0.00    -0.744 OA
ENDBRANCH  94  95
ENDBRANCH  62  87
ENDBRANCH  36  37
ENDBRANCH  29  31
ENDBRANCH  28  29
ENDBRANCH  27  28
ENDBRANCH  26  27
ENDBRANCH   1  26
TORSDOF 20
ENDMDL
MODEL 3
REMARK VINA RESULT:     -10.4      6.281     12.726
REMARK SMILES C[C@]1(C(=O)NCc2ccc(C(=O)OCCOCCOC(=O)c3ccc(-c4c5nc(c(-c6c(F)cc(S(=O)(=O)[O-])cc6F)c6ccc([nH]6)c(-c6c(F)cc(S(=O)(=O)[O-])cc6F)c6nc(c(-c7c(F)cc(S(=O)(=O)[O-])cc7F)c7ccc4[nH]7)C=C6)C=C5)cc3)o2)CCC[NH2+]C1
REMARK SMILES IDX 16 1 15 2 14 3 13 4 11 5 12 6 10 7 7 8 8 9 88 10 9 11 6 12
REMARK SMILES IDX 5 13 3 14 4 15 2 17 1 18 89 19 93 20 90 21 92 22 91 23 17 26
REMARK SMILES IDX 18 27 19 28 20 29 21 30 22 31 23 32 87 33 24 34 86 35 25 36
REMARK SMILES IDX 26 37 27 38 80 39 28 40 85 41 79 42 81 43 29 44 84 45 78 46
REMARK SMILES IDX 77 47 30 49 64 50 43 51 63 52 44 53 47 54 62 55 82 56 45 57
REMARK SMILES IDX 46 58 61 60 83 61 48 62 31 63 32 64 41 65 33 66 34 67 40 68
REMARK SMILES IDX 42 69 35 70 36 71 37 72 38 73 39 74 65 75 66 76 75 77 67 78
REMARK SMILES IDX 68 79 74 80 76 81 69 82 70 83 71 84 72 85 73 86 49 87 50 88
REMARK SMILES IDX 59 89 51 90 52 91 58 92 60 93 53 94 54 95 55 96 56 97 57 98
REMARK H PARENT 5 16 92 24 92 25 81 48 47 59
REMARK Flexibility Score: inf
ROOT
ATOM      1  O   UNL A   1      35.583  33.378  27.804  1.00  0.00    -0.374 OA
ENDROOT
BRANCH   1   2
ATOM      2  C   UNL A   1      34.391  34.173  27.793  1.00  0.00     0.202 C 
BRANCH   2   3
ATOM      3  C   UNL A   1      33.098  33.377  28.008  1.00  0.00     0.261 C 
BRANCH   3   4
ATOM      4  O   UNL A   1      33.311  32.011  27.612  1.00  0.00    -0.457 OA
BRANCH   4   5
ATOM      5  C   UNL A   1      32.256  31.381  27.024  1.00  0.00     0.374 C 
ATOM      6  O   UNL A   1      31.225  31.931  26.654  1.00  0.00    -0.242 OA
BRANCH   5   7
ATOM      7  C   UNL A   1      32.619  30.007  26.763  1.00  0.00     0.211 A 
ATOM      8  C   UNL A   1      32.228  27.970  25.999  1.00  0.00     0.124 A 
ATOM      9  C   UNL A   1      33.575  28.023  26.292  1.00  0.00     0.048 A 
ATOM     10  O   UNL A   1      31.645  29.168  26.290  1.00  0.00    -0.452 OA
ATOM     11  C   UNL A   1      33.826  29.329  26.784  1.00  0.00     0.058 A 
BRANCH   8  12
ATOM     12  C   UNL A   1      31.313  26.932  25.472  1.00  0.00     0.191 C 
BRANCH  12  13
ATOM     13  N   UNL A   1      31.272  25.788  26.348  1.00  0.00    -0.348 N 
ATOM     14  C   UNL A   1      31.902  24.598  26.399  1.00  0.00     0.232 C 
ATOM     15  O   UNL A   1      31.590  23.938  27.404  1.00  0.00    -0.274 OA
ATOM     16  H   UNL A   1      30.630  25.905  27.085  1.00  0.00     0.163 HD
BRANCH  14  17
ATOM     17  C   UNL A   1      32.871  23.996  25.339  1.00  0.00     0.095 C 
ATOM     18  C   UNL A   1      34.268  24.599  25.717  1.00  0.00     0.028 C 
ATOM     19  C   UNL A   1      33.023  22.471  25.505  1.00  0.00     0.028 C 
ATOM     20  C   UNL A   1      32.621  24.415  23.870  1.00  0.00     0.277 C 
ATOM     21  C   UNL A   1      32.085  21.658  24.633  1.00  0.00     0.063 C 
ATOM     22  N   UNL A   1      31.898  23.517  22.971  1.00  0.00    -0.345 N 
ATOM     23  C   UNL A   1      32.121  22.096  23.178  1.00  0.00     0.260 C 
ATOM     24  H   UNL A   1      30.900  23.697  23.086  1.00  0.00     0.346 HD
ATOM     25  H   UNL A   1      32.252  23.719  22.036  1.00  0.00     0.346 HD
ENDBRANCH  14  17
ENDBRANCH  12  13
ENDBRANCH   8  12
ENDBRANCH   5   7
ENDBRANCH   4   5
ENDBRANCH   3   4
ENDBRANCH   2   3
ENDBRANCH   1   2
BRANCH   1  26
ATOM     26  C   UNL A   1      36.479  33.580  28.896  1.00  0.00     0.202 C 
BRANCH  26  27
ATOM     27  C   UNL A   1      36.086  32.901  30.211  1.00  0.00     0.261 C 
BRANCH  27  28
ATOM     28  O   UNL A   1      35.874  31.491  30.030  1.00  0.00    -0.460 OA
BRANCH  28  29
ATOM     29  C   UNL A   1      36.482  30.709  30.956  1.00  0.00     0.338 C 
ATOM     30  O   UNL A   1      36.082  30.462  32.082  1.00  0.00    -0.246 OA
BRANCH  29  31
ATOM     31  C   UNL A   1      37.655  30.037  30.363  1.00  0.00     0.060 A 
ATOM     32  C   UNL A   1      38.535  29.395  31.241  1.00  0.00     0.016 A 
ATOM     33  C   UNL A   1      37.929  30.081  28.991  1.00  0.00     0.016 A 
ATOM     34  C   UNL A   1      39.721  28.844  30.763  1.00  0.00     0.010 A 
ATOM     35  C   UNL A   1      39.124  29.532  28.514  1.00  0.00     0.010 A 
ATOM     36  C   UNL A   1      40.042  28.945  29.404  1.00  0.00    -0.014 A 
BRANCH  36  37
ATOM     37  C   UNL A   1      41.403  28.571  28.950  1.00  0.00     0.031 A 
ATOM     38  C   UNL A   1      42.482  29.621  28.941  1.00  0.00     0.074 A 
ATOM     39  C   UNL A   1      41.687  27.308  28.589  1.00  0.00     0.049 A 
ATOM     40  N   UNL A   1      43.737  29.516  28.589  1.00  0.00    -0.248 NA
ATOM     41  C   UNL A   1      42.091  30.968  29.386  1.00  0.00     0.031 C 
ATOM     42  C   UNL A   1      40.736  26.198  28.584  1.00  0.00     0.029 A 
ATOM     43  N   UNL A   1      42.862  26.747  28.156  1.00  0.00    -0.354 N 
ATOM     44  C   UNL A   1      44.285  30.781  28.768  1.00  0.00     0.074 A 
ATOM     45  C   UNL A   1      43.219  31.644  29.230  1.00  0.00     0.031 C 
ATOM     46  C   UNL A   1      41.364  25.087  28.158  1.00  0.00     0.029 A 
ATOM     47  C   UNL A   1      42.753  25.415  27.841  1.00  0.00     0.049 A 
ATOM     48  H   UNL A   1      43.703  27.253  28.077  1.00  0.00     0.167 HD
ATOM     49  C   UNL A   1      45.564  31.186  28.574  1.00  0.00     0.037 A 
ATOM     50  C   UNL A   1      43.668  24.560  27.342  1.00  0.00     0.037 A 
ATOM     51  C   UNL A   1      46.623  30.326  28.116  1.00  0.00     0.049 A 
ATOM     52  C   UNL A   1      45.073  25.041  27.090  1.00  0.00     0.074 A 
ATOM     53  C   UNL A   1      47.955  30.638  27.905  1.00  0.00     0.029 A 
ATOM     54  N   UNL A   1      46.470  28.988  27.790  1.00  0.00    -0.354 N 
ATOM     55  N   UNL A   1      45.584  26.233  27.289  1.00  0.00    -0.248 NA
ATOM     56  C   UNL A   1      46.027  24.060  26.554  1.00  0.00     0.031 C 
ATOM     57  C   UNL A   1      48.599  29.496  27.415  1.00  0.00     0.029 A 
ATOM     58  C   UNL A   1      47.677  28.462  27.361  1.00  0.00     0.049 A 
ATOM     59  H   UNL A   1      45.626  28.483  27.853  1.00  0.00     0.167 HD
ATOM     60  C   UNL A   1      46.923  26.139  26.925  1.00  0.00     0.074 A 
ATOM     61  C   UNL A   1      47.145  24.772  26.502  1.00  0.00     0.031 C 
ATOM     62  C   UNL A   1      47.883  27.097  26.947  1.00  0.00     0.037 A 
BRANCH  49  63
ATOM     63  C   UNL A   1      45.874  32.633  28.837  1.00  0.00     0.058 A 
ATOM     64  C   UNL A   1      45.743  33.609  27.838  1.00  0.00     0.135 A 
ATOM     65  C   UNL A   1      46.303  33.048  30.108  1.00  0.00     0.135 A 
ATOM     66  F   UNL A   1      45.353  33.261  26.600  1.00  0.00    -0.206 F 
ATOM     67  C   UNL A   1      46.057  34.942  28.078  1.00  0.00     0.059 A 
ATOM     68  C   UNL A   1      46.600  34.380  30.378  1.00  0.00     0.059 A 
ATOM     69  F   UNL A   1      46.446  32.153  31.099  1.00  0.00    -0.206 F 
ATOM     70  C   UNL A   1      46.493  35.317  29.351  1.00  0.00     0.060 A 
BRANCH  70  71
ATOM     71  S   UNL A   1      46.918  37.046  29.648  1.00  0.00     0.124 S 
ATOM     72  O   UNL A   1      48.222  37.139  28.997  1.00  0.00    -0.237 OA
ATOM     73  O   UNL A   1      45.829  37.756  28.985  1.00  0.00    -0.237 OA
ATOM     74  O   UNL A   1      46.933  37.146  31.103  1.00  0.00    -0.744 OA
ENDBRANCH  70  71
ENDBRANCH  49  63
BRANCH  50  75
ATOM     75  C   UNL A   1      43.279  23.157  27.047  1.00  0.00     0.058 A 
ATOM     76  C   UNL A   1      43.103  22.715  25.728  1.00  0.00     0.135 A 
ATOM     77  C   UNL A   1      43.094  22.226  28.081  1.00  0.00     0.135 A 
ATOM     78  F   UNL A   1      43.258  23.572  24.707  1.00  0.00    -0.206 F 
ATOM     79  C   UNL A   1      42.754  21.399  25.442  1.00  0.00     0.059 A 
ATOM     80  C   UNL A   1      42.765  20.900  27.819  1.00  0.00     0.059 A 
ATOM     81  F   UNL A   1      43.261  22.599  29.359  1.00  0.00    -0.206 F 
ATOM     82  C   UNL A   1      42.592  20.497  26.496  1.00  0.00     0.060 A 
BRANCH  82  83
ATOM     83  S   UNL A   1      42.210  18.774  26.114  1.00  0.00     0.124 S 
ATOM     84  O   UNL A   1      40.805  18.864  25.730  1.00  0.00    -0.237 OA
ATOM     85  O   UNL A   1      43.150  18.482  25.036  1.00  0.00    -0.237 OA
ATOM     86  O   UNL A   1      42.478  18.085  27.373  1.00  0.00    -0.744 OA
ENDBRANCH  82  83
ENDBRANCH  50  75
BRANCH  62  87
ATOM     87  C   UNL A   1      49.270  26.696  26.527  1.00  0.00     0.058 A 
ATOM     88  C   UNL A   1      50.202  26.193  27.447  1.00  0.00     0.135 A 
ATOM     89  C   UNL A   1      49.652  26.766  25.177  1.00  0.00     0.135 A 
ATOM     90  F   UNL A   1      49.888  26.110  28.750  1.00  0.00    -0.206 F 
ATOM     91  C   UNL A   1      51.473  25.791  27.048  1.00  0.00     0.059 A 
ATOM     92  C   UNL A   1      50.908  26.349  24.752  1.00  0.00     0.059 A 
ATOM     93  F   UNL A   1      48.793  27.230  24.256  1.00  0.00    -0.206 F 
ATOM     94  C   UNL A   1      51.817  25.873  25.696  1.00  0.00     0.060 A 
BRANCH  94  95
ATOM     95  S   UNL A   1      53.456  25.318  25.181  1.00  0.00     0.124 S 
ATOM     96  O   UNL A   1      53.368  23.882  25.422  1.00  0.00    -0.237 OA
ATOM     97  O   UNL A   1      53.501  25.725  23.780  1.00  0.00    -0.237 OA
ATOM     98  O   UNL A   1      54.355  26.050  26.067  1.00  0.00    -0.744 OA
ENDBRANCH  94  95
ENDBRANCH  62  87
ENDBRANCH  36  37
ENDBRANCH  29  31
ENDBRANCH  28  29
ENDBRANCH  27  28
ENDBRANCH  26  27
ENDBRANCH   1  26
TORSDOF 20
ENDMDL
