MODEL 1
REMARK VINA RESULT:     -11.1      0.000      0.000
REMARK SMILES COc1cc(/C=C2\SC(=S)N(CC(=O)OCCOCCOC(=O)c3ccc(-c4c5nc(c(-c6c(F)cc(S(=O)(=O)[O-])cc6F)c6ccc([nH]6)c(-c6c(F)cc(S(=O)(=O)[O-])cc6F)c6nc(c(-c7c(F)cc(S(=O)(=O)[O-])cc7F)c7ccc4[nH]7)C=C6)C=C5)cc3)C2=O)cc2c1OCO2
REMARK SMILES IDX 18 1 17 2 16 3 15 4 13 5 14 6 12 7 11 8 6 9 7 10 8 11 90 12
REMARK SMILES IDX 9 13 91 14 10 15 5 16 3 17 4 18 94 19 93 20 95 21 92 22
REMARK SMILES IDX 97 23 96 24 2 25 1 26 19 27 20 28 21 29 22 30 23 31 24 32
REMARK SMILES IDX 25 33 89 34 26 35 88 36 27 37 28 38 29 39 82 40 30 41 87 42
REMARK SMILES IDX 81 43 83 44 31 45 86 46 80 47 79 48 32 50 66 51 45 52 65 53
REMARK SMILES IDX 46 54 49 55 64 56 84 57 47 58 48 59 63 61 85 62 50 63 33 64
REMARK SMILES IDX 34 65 43 66 35 67 36 68 42 69 44 70 37 71 38 72 39 73 40 74
REMARK SMILES IDX 41 75 67 76 68 77 77 78 69 79 70 80 76 81 78 82 71 83 72 84
REMARK SMILES IDX 73 85 74 86 75 87 51 88 52 89 61 90 53 91 54 92 60 93 62 94
REMARK SMILES IDX 55 95 56 96 57 97 58 98 59 99
REMARK H PARENT 83 49 49 60
REMARK Flexibility Score: inf
ROOT
ATOM      1  O   UNL A   1      39.147  21.673  26.415  1.00  0.00    -0.374 OA
ENDROOT
BRANCH   1   2
ATOM      2  C   UNL A   1      38.184  21.382  25.402  1.00  0.00     0.202 C 
BRANCH   2   3
ATOM      3  C   UNL A   1      36.759  21.894  25.644  1.00  0.00     0.261 C 
BRANCH   3   4
ATOM      4  O   UNL A   1      36.488  23.111  24.921  1.00  0.00    -0.462 OA
BRANCH   4   5
ATOM      5  C   UNL A   1      35.969  22.944  23.673  1.00  0.00     0.326 C 
ATOM      6  O   UNL A   1      36.612  23.009  22.631  1.00  0.00    -0.250 OA
BRANCH   5   7
ATOM      7  C   UNL A   1      34.485  22.597  23.670  1.00  0.00     0.250 C 
BRANCH   7   8
ATOM      8  N   UNL A   1      33.533  23.685  23.902  1.00  0.00    -0.282 N 
ATOM      9  C   UNL A   1      31.953  26.634  22.531  1.00  0.00     0.029 C 
ATOM     10  C   UNL A   1      32.340  25.639  23.341  1.00  0.00     0.081 C 
ATOM     11  S   UNL A   1      32.007  25.441  25.012  1.00  0.00    -0.054 SA
ATOM     12  C   UNL A   1      33.225  24.545  22.865  1.00  0.00     0.266 C 
ATOM     13  C   UNL A   1      32.978  23.977  25.130  1.00  0.00     0.148 C 
ATOM     14  O   UNL A   1      33.659  24.480  21.722  1.00  0.00    -0.268 OA
ATOM     15  S   UNL A   1      33.177  23.153  26.563  1.00  0.00    -0.052 S 
BRANCH   9  16
ATOM     16  C   UNL A   1      31.228  27.837  22.952  1.00  0.00    -0.017 A 
ATOM     17  C   UNL A   1      31.000  29.769  24.439  1.00  0.00     0.165 A 
ATOM     18  C   UNL A   1      31.712  28.641  24.001  1.00  0.00     0.058 A 
ATOM     19  C   UNL A   1      29.825  30.084  23.777  1.00  0.00     0.207 A 
ATOM     20  C   UNL A   1      29.357  29.295  22.748  1.00  0.00     0.170 A 
ATOM     21  O   UNL A   1      29.002  31.149  23.996  1.00  0.00    -0.450 OA
ATOM     22  C   UNL A   1      30.021  28.165  22.323  1.00  0.00     0.059 A 
ATOM     23  O   UNL A   1      28.193  29.757  22.212  1.00  0.00    -0.453 OA
ATOM     24  C   UNL A   1      28.034  30.986  22.945  1.00  0.00     0.468 C 
BRANCH  17  25
ATOM     25  O   UNL A   1      31.579  30.457  25.464  1.00  0.00    -0.493 OA
ATOM     26  C   UNL A   1      32.454  29.707  26.300  1.00  0.00     0.278 C 
ENDBRANCH  17  25
ENDBRANCH   9  16
ENDBRANCH   7   8
ENDBRANCH   5   7
ENDBRANCH   4   5
ENDBRANCH   3   4
ENDBRANCH   2   3
ENDBRANCH   1   2
BRANCH   1  27
ATOM     27  C   UNL A   1      40.490  21.250  26.178  1.00  0.00     0.202 C 
BRANCH  27  28
ATOM     28  C   UNL A   1      41.572  22.338  26.204  1.00  0.00     0.261 C 
BRANCH  28  29
ATOM     29  O   UNL A   1      41.024  23.661  26.364  1.00  0.00    -0.460 OA
BRANCH  29  30
ATOM     30  C   UNL A   1      41.954  24.646  26.442  1.00  0.00     0.338 C 
ATOM     31  O   UNL A   1      42.974  24.748  25.770  1.00  0.00    -0.246 OA
BRANCH  30  32
ATOM     32  C   UNL A   1      41.503  25.725  27.339  1.00  0.00     0.060 A 
ATOM     33  C   UNL A   1      42.368  26.814  27.517  1.00  0.00     0.016 A 
ATOM     34  C   UNL A   1      40.315  25.638  28.067  1.00  0.00     0.016 A 
ATOM     35  C   UNL A   1      42.071  27.796  28.460  1.00  0.00     0.010 A 
ATOM     36  C   UNL A   1      40.024  26.622  29.021  1.00  0.00     0.010 A 
ATOM     37  C   UNL A   1      40.917  27.687  29.246  1.00  0.00    -0.014 A 
BRANCH  37  38
ATOM     38  C   UNL A   1      40.721  28.617  30.387  1.00  0.00     0.031 A 
ATOM     39  C   UNL A   1      41.594  28.479  31.605  1.00  0.00     0.074 A 
ATOM     40  C   UNL A   1      39.804  29.600  30.321  1.00  0.00     0.049 A 
ATOM     41  N   UNL A   1      41.589  29.175  32.711  1.00  0.00    -0.248 NA
ATOM     42  C   UNL A   1      42.611  27.414  31.568  1.00  0.00     0.031 C 
ATOM     43  C   UNL A   1      38.930  29.862  29.178  1.00  0.00     0.029 A 
ATOM     44  N   UNL A   1      39.457  30.560  31.238  1.00  0.00    -0.354 N 
ATOM     45  C   UNL A   1      42.594  28.633  33.507  1.00  0.00     0.074 A 
ATOM     46  C   UNL A   1      43.171  27.532  32.764  1.00  0.00     0.031 C 
ATOM     47  C   UNL A   1      38.141  30.911  29.465  1.00  0.00     0.029 A 
ATOM     48  C   UNL A   1      38.431  31.375  30.821  1.00  0.00     0.049 A 
ATOM     49  H   UNL A   1      39.900  30.656  32.112  1.00  0.00     0.167 HD
ATOM     50  C   UNL A   1      42.999  29.020  34.739  1.00  0.00     0.037 A 
ATOM     51  C   UNL A   1      37.788  32.368  31.467  1.00  0.00     0.037 A 
ATOM     52  C   UNL A   1      42.423  30.117  35.473  1.00  0.00     0.049 A 
ATOM     53  C   UNL A   1      38.207  32.731  32.868  1.00  0.00     0.074 A 
ATOM     54  C   UNL A   1      42.790  30.610  36.713  1.00  0.00     0.029 A 
ATOM     55  N   UNL A   1      41.352  30.883  35.039  1.00  0.00    -0.354 N 
ATOM     56  N   UNL A   1      39.179  32.230  33.593  1.00  0.00    -0.248 NA
ATOM     57  C   UNL A   1      37.439  33.789  33.540  1.00  0.00     0.031 C 
ATOM     58  C   UNL A   1      41.907  31.642  37.051  1.00  0.00     0.029 A 
ATOM     59  C   UNL A   1      41.021  31.823  36.002  1.00  0.00     0.049 A 
ATOM     60  H   UNL A   1      40.894  30.776  34.174  1.00  0.00     0.167 HD
ATOM     61  C   UNL A   1      39.150  32.923  34.800  1.00  0.00     0.074 A 
ATOM     62  C   UNL A   1      38.074  33.888  34.701  1.00  0.00     0.031 C 
ATOM     63  C   UNL A   1      39.942  32.773  35.891  1.00  0.00     0.037 A 
BRANCH  50  64
ATOM     64  C   UNL A   1      44.105  28.232  35.388  1.00  0.00     0.058 A 
ATOM     65  C   UNL A   1      43.868  26.990  36.000  1.00  0.00     0.135 A 
ATOM     66  C   UNL A   1      45.424  28.711  35.368  1.00  0.00     0.135 A 
ATOM     67  F   UNL A   1      42.622  26.494  36.061  1.00  0.00    -0.206 F 
ATOM     68  C   UNL A   1      44.896  26.264  36.592  1.00  0.00     0.059 A 
ATOM     69  C   UNL A   1      46.472  27.990  35.933  1.00  0.00     0.059 A 
ATOM     70  F   UNL A   1      45.706  29.892  34.796  1.00  0.00    -0.206 F 
ATOM     71  C   UNL A   1      46.196  26.774  36.556  1.00  0.00     0.060 A 
BRANCH  71  72
ATOM     72  S   UNL A   1      47.520  25.820  37.329  1.00  0.00     0.124 S 
ATOM     73  O   UNL A   1      47.655  26.500  38.614  1.00  0.00    -0.237 OA
ATOM     74  O   UNL A   1      46.951  24.478  37.379  1.00  0.00    -0.237 OA
ATOM     75  O   UNL A   1      48.641  25.989  36.410  1.00  0.00    -0.744 OA
ENDBRANCH  71  72
ENDBRANCH  50  64
BRANCH  51  76
ATOM     76  C   UNL A   1      36.666  33.083  30.801  1.00  0.00     0.058 A 
ATOM     77  C   UNL A   1      35.331  32.785  31.113  1.00  0.00     0.135 A 
ATOM     78  C   UNL A   1      36.907  34.078  29.842  1.00  0.00     0.135 A 
ATOM     79  F   UNL A   1      35.050  31.831  32.015  1.00  0.00    -0.206 F 
ATOM     80  C   UNL A   1      34.275  33.445  30.495  1.00  0.00     0.059 A 
ATOM     81  C   UNL A   1      35.868  34.768  29.226  1.00  0.00     0.059 A 
ATOM     82  F   UNL A   1      38.167  34.404  29.512  1.00  0.00    -0.206 F 
ATOM     83  C   UNL A   1      34.554  34.438  29.554  1.00  0.00     0.060 A 
BRANCH  83  84
ATOM     84  S   UNL A   1      33.176  35.327  28.796  1.00  0.00     0.124 S 
ATOM     85  O   UNL A   1      32.521  35.905  29.963  1.00  0.00    -0.237 OA
ATOM     86  O   UNL A   1      33.864  36.268  27.917  1.00  0.00    -0.237 OA
ATOM     87  O   UNL A   1      32.433  34.273  28.112  1.00  0.00    -0.744 OA
ENDBRANCH  83  84
ENDBRANCH  51  76
BRANCH  63  88
ATOM     88  C   UNL A   1      39.685  33.680  37.063  1.00  0.00     0.058 A 
ATOM     89  C   UNL A   1      38.877  33.278  38.137  1.00  0.00     0.135 A 
ATOM     90  C   UNL A   1      40.302  34.939  37.140  1.00  0.00     0.135 A 
ATOM     91  F   UNL A   1      38.260  32.087  38.110  1.00  0.00    -0.206 F 
ATOM     92  C   UNL A   1      38.674  34.101  39.241  1.00  0.00     0.059 A 
ATOM     93  C   UNL A   1      40.132  35.768  38.246  1.00  0.00     0.059 A 
ATOM     94  F   UNL A   1      41.093  35.369  36.144  1.00  0.00    -0.206 F 
ATOM     95  C   UNL A   1      39.308  35.344  39.287  1.00  0.00     0.060 A 
BRANCH  95  96
ATOM     96  S   UNL A   1      39.069  36.385  40.743  1.00  0.00     0.124 S 
ATOM     97  O   UNL A   1      40.329  36.193  41.452  1.00  0.00    -0.237 OA
ATOM     98  O   UNL A   1      38.866  37.705  40.155  1.00  0.00    -0.237 OA
ATOM     99  O   UNL A   1      37.892  35.805  41.385  1.00  0.00    -0.744 OA
ENDBRANCH  95  96
ENDBRANCH  63  88
ENDBRANCH  37  38
ENDBRANCH  30  32
ENDBRANCH  29  30
ENDBRANCH  28  29
ENDBRANCH  27  28
ENDBRANCH   1  27
TORSDOF 20
ENDMDL
MODEL 2
REMARK VINA RESULT:     -11.1      0.519      8.091
REMARK SMILES COc1cc(/C=C2\SC(=S)N(CC(=O)OCCOCCOC(=O)c3ccc(-c4c5nc(c(-c6c(F)cc(S(=O)(=O)[O-])cc6F)c6ccc([nH]6)c(-c6c(F)cc(S(=O)(=O)[O-])cc6F)c6nc(c(-c7c(F)cc(S(=O)(=O)[O-])cc7F)c7ccc4[nH]7)C=C6)C=C5)cc3)C2=O)cc2c1OCO2
REMARK SMILES IDX 18 1 17 2 16 3 15 4 13 5 14 6 12 7 11 8 6 9 7 10 8 11 90 12
REMARK SMILES IDX 9 13 91 14 10 15 5 16 3 17 4 18 94 19 93 20 95 21 92 22
REMARK SMILES IDX 97 23 96 24 2 25 1 26 19 27 20 28 21 29 22 30 23 31 24 32
REMARK SMILES IDX 25 33 89 34 26 35 88 36 27 37 28 38 29 39 82 40 30 41 87 42
REMARK SMILES IDX 81 43 83 44 31 45 86 46 80 47 79 48 32 50 66 51 45 52 65 53
REMARK SMILES IDX 46 54 49 55 64 56 84 57 47 58 48 59 63 61 85 62 50 63 33 64
REMARK SMILES IDX 34 65 43 66 35 67 36 68 42 69 44 70 37 71 38 72 39 73 40 74
REMARK SMILES IDX 41 75 67 76 68 77 77 78 69 79 70 80 76 81 78 82 71 83 72 84
REMARK SMILES IDX 73 85 74 86 75 87 51 88 52 89 61 90 53 91 54 92 60 93 62 94
REMARK SMILES IDX 55 95 56 96 57 97 58 98 59 99
REMARK H PARENT 83 49 49 60
REMARK Flexibility Score: inf
ROOT
ATOM      1  O   UNL A   1      39.137  21.876  26.486  1.00  0.00    -0.374 OA
ENDROOT
BRANCH   1   2
ATOM      2  C   UNL A   1      38.220  21.526  25.449  1.00  0.00     0.202 C 
BRANCH   2   3
ATOM      3  C   UNL A   1      36.763  21.959  25.650  1.00  0.00     0.261 C 
BRANCH   3   4
ATOM      4  O   UNL A   1      36.449  23.167  24.930  1.00  0.00    -0.462 OA
BRANCH   4   5
ATOM      5  C   UNL A   1      35.958  22.987  23.673  1.00  0.00     0.326 C 
ATOM      6  O   UNL A   1      36.623  23.049  22.644  1.00  0.00    -0.250 OA
BRANCH   5   7
ATOM      7  C   UNL A   1      34.478  22.628  23.641  1.00  0.00     0.250 C 
BRANCH   7   8
ATOM      8  N   UNL A   1      33.513  23.706  23.863  1.00  0.00    -0.282 N 
ATOM      9  C   UNL A   1      31.979  26.687  22.508  1.00  0.00     0.029 C 
ATOM     10  C   UNL A   1      32.337  25.671  23.306  1.00  0.00     0.081 C 
ATOM     11  S   UNL A   1      31.935  25.426  24.956  1.00  0.00    -0.054 SA
ATOM     12  C   UNL A   1      33.245  24.593  22.837  1.00  0.00     0.266 C 
ATOM     13  C   UNL A   1      32.905  23.962  25.074  1.00  0.00     0.148 C 
ATOM     14  O   UNL A   1      33.727  24.561  21.713  1.00  0.00    -0.268 OA
ATOM     15  S   UNL A   1      33.048  23.099  26.491  1.00  0.00    -0.052 S 
BRANCH   9  16
ATOM     16  C   UNL A   1      31.233  27.876  22.931  1.00  0.00    -0.017 A 
ATOM     17  C   UNL A   1      30.938  29.768  24.458  1.00  0.00     0.165 A 
ATOM     18  C   UNL A   1      31.673  28.655  24.019  1.00  0.00     0.058 A 
ATOM     19  C   UNL A   1      29.788  30.095  23.759  1.00  0.00     0.207 A 
ATOM     20  C   UNL A   1      29.364  29.331  22.693  1.00  0.00     0.170 A 
ATOM     21  O   UNL A   1      28.952  31.151  23.973  1.00  0.00    -0.450 OA
ATOM     22  C   UNL A   1      30.050  28.215  22.265  1.00  0.00     0.059 A 
ATOM     23  O   UNL A   1      28.220  29.802  22.124  1.00  0.00    -0.453 OA
ATOM     24  C   UNL A   1      28.025  31.011  22.881  1.00  0.00     0.468 C 
BRANCH  17  25
ATOM     25  O   UNL A   1      31.474  30.432  25.522  1.00  0.00    -0.493 OA
ATOM     26  C   UNL A   1      32.320  29.664  26.371  1.00  0.00     0.278 C 
ENDBRANCH  17  25
ENDBRANCH   9  16
ENDBRANCH   7   8
ENDBRANCH   5   7
ENDBRANCH   4   5
ENDBRANCH   3   4
ENDBRANCH   2   3
ENDBRANCH   1   2
BRANCH   1  27
ATOM     27  C   UNL A   1      40.516  21.580  26.262  1.00  0.00     0.202 C 
BRANCH  27  28
ATOM     28  C   UNL A   1      41.495  22.760  26.328  1.00  0.00     0.261 C 
BRANCH  28  29
ATOM     29  O   UNL A   1      40.836  24.013  26.592  1.00  0.00    -0.460 OA
BRANCH  29  30
ATOM     30  C   UNL A   1      41.655  25.094  26.555  1.00  0.00     0.338 C 
ATOM     31  O   UNL A   1      42.534  25.322  25.732  1.00  0.00    -0.246 OA
BRANCH  30  32
ATOM     32  C   UNL A   1      41.242  26.102  27.548  1.00  0.00     0.060 A 
ATOM     33  C   UNL A   1      42.041  27.247  27.671  1.00  0.00     0.016 A 
ATOM     34  C   UNL A   1      40.163  25.895  28.410  1.00  0.00     0.016 A 
ATOM     35  C   UNL A   1      41.794  28.167  28.687  1.00  0.00     0.010 A 
ATOM     36  C   UNL A   1      39.923  26.818  29.437  1.00  0.00     0.010 A 
ATOM     37  C   UNL A   1      40.757  27.940  29.601  1.00  0.00    -0.014 A 
BRANCH  37  38
ATOM     38  C   UNL A   1      40.638  28.809  30.800  1.00  0.00     0.031 A 
ATOM     39  C   UNL A   1      39.601  29.900  30.815  1.00  0.00     0.074 A 
ATOM     40  C   UNL A   1      41.417  28.601  31.877  1.00  0.00     0.049 A 
ATOM     41  N   UNL A   1      39.332  30.774  31.750  1.00  0.00    -0.248 NA
ATOM     42  C   UNL A   1      38.753  30.019  29.618  1.00  0.00     0.031 C 
ATOM     43  C   UNL A   1      42.426  27.550  31.997  1.00  0.00     0.029 A 
ATOM     44  N   UNL A   1      41.479  29.268  33.075  1.00  0.00    -0.354 N 
ATOM     45  C   UNL A   1      38.289  31.551  31.255  1.00  0.00     0.074 A 
ATOM     46  C   UNL A   1      37.992  31.060  29.926  1.00  0.00     0.031 C 
ATOM     47  C   UNL A   1      43.013  27.646  33.203  1.00  0.00     0.029 A 
ATOM     48  C   UNL A   1      42.444  28.783  33.926  1.00  0.00     0.049 A 
ATOM     49  H   UNL A   1      40.889  30.021  33.304  1.00  0.00     0.167 HD
ATOM     50  C   UNL A   1      37.638  32.575  31.856  1.00  0.00     0.037 A 
ATOM     51  C   UNL A   1      42.836  29.218  35.140  1.00  0.00     0.037 A 
ATOM     52  C   UNL A   1      37.937  33.058  33.179  1.00  0.00     0.049 A 
ATOM     53  C   UNL A   1      42.148  30.408  35.756  1.00  0.00     0.074 A 
ATOM     54  C   UNL A   1      37.309  34.067  33.889  1.00  0.00     0.029 A 
ATOM     55  N   UNL A   1      38.956  32.576  33.987  1.00  0.00    -0.354 N 
ATOM     56  N   UNL A   1      41.143  31.111  35.289  1.00  0.00    -0.248 NA
ATOM     57  C   UNL A   1      42.649  30.867  37.059  1.00  0.00     0.031 C 
ATOM     58  C   UNL A   1      37.981  34.228  35.106  1.00  0.00     0.029 A 
ATOM     59  C   UNL A   1      38.997  33.289  35.173  1.00  0.00     0.049 A 
ATOM     60  H   UNL A   1      39.560  31.835  33.752  1.00  0.00     0.167 HD
ATOM     61  C   UNL A   1      40.881  32.085  36.249  1.00  0.00     0.074 A 
ATOM     62  C   UNL A   1      41.823  31.870  37.329  1.00  0.00     0.031 C 
ATOM     63  C   UNL A   1      39.946  33.067  36.237  1.00  0.00     0.037 A 
BRANCH  50  64
ATOM     64  C   UNL A   1      36.554  33.265  31.073  1.00  0.00     0.058 A 
ATOM     65  C   UNL A   1      36.844  34.094  29.979  1.00  0.00     0.135 A 
ATOM     66  C   UNL A   1      35.204  33.066  31.405  1.00  0.00     0.135 A 
ATOM     67  F   UNL A   1      38.119  34.330  29.629  1.00  0.00    -0.206 F 
ATOM     68  C   UNL A   1      35.835  34.723  29.256  1.00  0.00     0.059 A 
ATOM     69  C   UNL A   1      34.178  33.667  30.681  1.00  0.00     0.059 A 
ATOM     70  F   UNL A   1      34.871  32.283  32.443  1.00  0.00    -0.206 F 
ATOM     71  C   UNL A   1      34.504  34.505  29.617  1.00  0.00     0.060 A 
BRANCH  71  72
ATOM     72  S   UNL A   1      33.205  35.329  28.670  1.00  0.00     0.124 S 
ATOM     73  O   UNL A   1      33.986  36.235  27.834  1.00  0.00    -0.237 OA
ATOM     74  O   UNL A   1      32.570  34.215  27.976  1.00  0.00    -0.237 OA
ATOM     75  O   UNL A   1      32.391  35.970  29.698  1.00  0.00    -0.744 OA
ENDBRANCH  71  72
ENDBRANCH  50  64
BRANCH  51  76
ATOM     76  C   UNL A   1      43.950  28.534  35.850  1.00  0.00     0.058 A 
ATOM     77  C   UNL A   1      45.281  28.938  35.671  1.00  0.00     0.135 A 
ATOM     78  C   UNL A   1      43.704  27.463  36.725  1.00  0.00     0.135 A 
ATOM     79  F   UNL A   1      45.567  29.948  34.834  1.00  0.00    -0.206 F 
ATOM     80  C   UNL A   1      46.330  28.304  36.327  1.00  0.00     0.059 A 
ATOM     81  C   UNL A   1      44.733  26.828  37.410  1.00  0.00     0.059 A 
ATOM     82  F   UNL A   1      42.448  27.042  36.935  1.00  0.00    -0.206 F 
ATOM     83  C   UNL A   1      46.045  27.250  37.199  1.00  0.00     0.060 A 
BRANCH  83  84
ATOM     84  S   UNL A   1      47.409  26.469  38.088  1.00  0.00     0.124 S 
ATOM     85  O   UNL A   1      47.931  27.585  38.867  1.00  0.00    -0.237 OA
ATOM     86  O   UNL A   1      46.723  25.426  38.847  1.00  0.00    -0.237 OA
ATOM     87  O   UNL A   1      48.275  25.985  37.017  1.00  0.00    -0.744 OA
ENDBRANCH  83  84
ENDBRANCH  51  76
BRANCH  63  88
ATOM     88  C   UNL A   1      39.885  33.980  37.431  1.00  0.00     0.058 A 
ATOM     89  C   UNL A   1      40.634  35.165  37.487  1.00  0.00     0.135 A 
ATOM     90  C   UNL A   1      39.023  33.696  38.503  1.00  0.00     0.135 A 
ATOM     91  F   UNL A   1      41.477  35.479  36.491  1.00  0.00    -0.206 F 
ATOM     92  C   UNL A   1      40.545  36.029  38.573  1.00  0.00     0.059 A 
ATOM     93  C   UNL A   1      38.900  34.559  39.588  1.00  0.00     0.059 A 
ATOM     94  F   UNL A   1      38.277  32.580  38.495  1.00  0.00    -0.206 F 
ATOM     95  C   UNL A   1      39.673  35.719  39.618  1.00  0.00     0.060 A 
BRANCH  95  96
ATOM     96  S   UNL A   1      39.536  36.870  41.003  1.00  0.00     0.124 S 
ATOM     97  O   UNL A   1      40.935  37.197  41.254  1.00  0.00    -0.237 OA
ATOM     98  O   UNL A   1      38.724  37.945  40.439  1.00  0.00    -0.237 OA
ATOM     99  O   UNL A   1      38.880  36.078  42.040  1.00  0.00    -0.744 OA
ENDBRANCH  95  96
ENDBRANCH  63  88
ENDBRANCH  37  38
ENDBRANCH  30  32
ENDBRANCH  29  30
ENDBRANCH  28  29
ENDBRANCH  27  28
ENDBRANCH   1  27
TORSDOF 20
ENDMDL
MODEL 3
REMARK VINA RESULT:     -10.8      6.291     11.899
REMARK SMILES COc1cc(/C=C2\SC(=S)N(CC(=O)OCCOCCOC(=O)c3ccc(-c4c5nc(c(-c6c(F)cc(S(=O)(=O)[O-])cc6F)c6ccc([nH]6)c(-c6c(F)cc(S(=O)(=O)[O-])cc6F)c6nc(c(-c7c(F)cc(S(=O)(=O)[O-])cc7F)c7ccc4[nH]7)C=C6)C=C5)cc3)C2=O)cc2c1OCO2
REMARK SMILES IDX 18 1 17 2 16 3 15 4 13 5 14 6 12 7 11 8 6 9 7 10 8 11 90 12
REMARK SMILES IDX 9 13 91 14 10 15 5 16 3 17 4 18 94 19 93 20 95 21 92 22
REMARK SMILES IDX 97 23 96 24 2 25 1 26 19 27 20 28 21 29 22 30 23 31 24 32
REMARK SMILES IDX 25 33 89 34 26 35 88 36 27 37 28 38 29 39 82 40 30 41 87 42
REMARK SMILES IDX 81 43 83 44 31 45 86 46 80 47 79 48 32 50 66 51 45 52 65 53
REMARK SMILES IDX 46 54 49 55 64 56 84 57 47 58 48 59 63 61 85 62 50 63 33 64
REMARK SMILES IDX 34 65 43 66 35 67 36 68 42 69 44 70 37 71 38 72 39 73 40 74
REMARK SMILES IDX 41 75 67 76 68 77 77 78 69 79 70 80 76 81 78 82 71 83 72 84
REMARK SMILES IDX 73 85 74 86 75 87 51 88 52 89 61 90 53 91 54 92 60 93 62 94
REMARK SMILES IDX 55 95 56 96 57 97 58 98 59 99
REMARK H PARENT 83 49 49 60
REMARK Flexibility Score: inf
ROOT
ATOM      1  O   UNL A   1      33.754  30.723  26.951  1.00  0.00    -0.374 OA
ENDROOT
BRANCH   1   2
ATOM      2  C   UNL A   1      32.466  30.266  26.539  1.00  0.00     0.202 C 
BRANCH   2   3
ATOM      3  C   UNL A   1      32.362  29.700  25.118  1.00  0.00     0.261 C 
BRANCH   3   4
ATOM      4  O   UNL A   1      31.054  29.163  24.839  1.00  0.00    -0.462 OA
BRANCH   4   5
ATOM      5  C   UNL A   1      31.041  27.954  24.214  1.00  0.00     0.326 C 
ATOM      6  O   UNL A   1      30.030  27.368  23.840  1.00  0.00    -0.250 OA
BRANCH   5   7
ATOM      7  C   UNL A   1      32.430  27.388  23.948  1.00  0.00     0.250 C 
BRANCH   7   8
ATOM      8  N   UNL A   1      32.559  25.936  23.820  1.00  0.00    -0.282 N 
ATOM      9  C   UNL A   1      33.159  22.812  25.541  1.00  0.00     0.029 C 
ATOM     10  C   UNL A   1      32.933  23.744  24.605  1.00  0.00     0.081 C 
ATOM     11  S   UNL A   1      32.939  23.558  22.899  1.00  0.00    -0.054 SA
ATOM     12  C   UNL A   1      32.698  25.168  24.961  1.00  0.00     0.266 C 
ATOM     13  C   UNL A   1      32.645  25.270  22.615  1.00  0.00     0.148 C 
ATOM     14  O   UNL A   1      32.701  25.582  26.113  1.00  0.00    -0.268 OA
ATOM     15  S   UNL A   1      32.542  25.915  21.083  1.00  0.00    -0.052 S 
BRANCH   9  16
ATOM     16  C   UNL A   1      33.567  21.429  25.279  1.00  0.00    -0.017 A 
ATOM     17  C   UNL A   1      35.327  19.755  24.971  1.00  0.00     0.165 A 
ATOM     18  C   UNL A   1      34.928  21.068  25.265  1.00  0.00     0.058 A 
ATOM     19  C   UNL A   1      34.334  18.819  24.733  1.00  0.00     0.207 A 
ATOM     20  C   UNL A   1      33.003  19.177  24.752  1.00  0.00     0.170 A 
ATOM     21  O   UNL A   1      34.483  17.488  24.478  1.00  0.00    -0.450 OA
ATOM     22  C   UNL A   1      32.588  20.466  25.005  1.00  0.00     0.059 A 
ATOM     23  O   UNL A   1      32.168  18.130  24.502  1.00  0.00    -0.453 OA
ATOM     24  C   UNL A   1      33.114  17.048  24.430  1.00  0.00     0.468 C 
BRANCH  17  25
ATOM     25  O   UNL A   1      36.674  19.541  24.988  1.00  0.00    -0.493 OA
ATOM     26  C   UNL A   1      37.486  20.677  24.709  1.00  0.00     0.278 C 
ENDBRANCH  17  25
ENDBRANCH   9  16
ENDBRANCH   7   8
ENDBRANCH   5   7
ENDBRANCH   4   5
ENDBRANCH   3   4
ENDBRANCH   2   3
ENDBRANCH   1   2
BRANCH   1  27
ATOM     27  C   UNL A   1      33.795  31.830  27.853  1.00  0.00     0.202 C 
BRANCH  27  28
ATOM     28  C   UNL A   1      35.058  31.974  28.711  1.00  0.00     0.261 C 
BRANCH  28  29
ATOM     29  O   UNL A   1      35.631  30.703  29.075  1.00  0.00    -0.460 OA
BRANCH  29  30
ATOM     30  C   UNL A   1      36.599  30.776  30.021  1.00  0.00     0.338 C 
ATOM     31  O   UNL A   1      36.472  31.172  31.175  1.00  0.00    -0.246 OA
BRANCH  30  32
ATOM     32  C   UNL A   1      37.841  30.135  29.554  1.00  0.00     0.060 A 
ATOM     33  C   UNL A   1      38.819  29.851  30.517  1.00  0.00     0.016 A 
ATOM     34  C   UNL A   1      38.094  29.905  28.200  1.00  0.00     0.016 A 
ATOM     35  C   UNL A   1      40.071  29.381  30.127  1.00  0.00     0.010 A 
ATOM     36  C   UNL A   1      39.357  29.442  27.809  1.00  0.00     0.010 A 
ATOM     37  C   UNL A   1      40.363  29.210  28.767  1.00  0.00    -0.014 A 
BRANCH  37  38
ATOM     38  C   UNL A   1      41.758  28.917  28.352  1.00  0.00     0.031 A 
ATOM     39  C   UNL A   1      42.127  27.512  27.958  1.00  0.00     0.074 A 
ATOM     40  C   UNL A   1      42.675  29.900  28.287  1.00  0.00     0.049 A 
ATOM     41  N   UNL A   1      43.282  27.036  27.572  1.00  0.00    -0.248 NA
ATOM     42  C   UNL A   1      41.048  26.512  28.001  1.00  0.00     0.031 C 
ATOM     43  C   UNL A   1      42.426  31.306  28.602  1.00  0.00     0.029 A 
ATOM     44  N   UNL A   1      44.001  29.862  27.935  1.00  0.00    -0.354 N 
ATOM     45  C   UNL A   1      43.074  25.681  27.332  1.00  0.00     0.074 A 
ATOM     46  C   UNL A   1      41.686  25.408  27.641  1.00  0.00     0.031 C 
ATOM     47  C   UNL A   1      43.567  31.998  28.435  1.00  0.00     0.029 A 
ATOM     48  C   UNL A   1      44.631  31.080  28.031  1.00  0.00     0.049 A 
ATOM     49  H   UNL A   1      44.457  29.042  27.641  1.00  0.00     0.167 HD
ATOM     50  C   UNL A   1      43.958  24.755  26.891  1.00  0.00     0.037 A 
ATOM     51  C   UNL A   1      45.923  31.412  27.836  1.00  0.00     0.037 A 
ATOM     52  C   UNL A   1      45.336  25.034  26.584  1.00  0.00     0.049 A 
ATOM     53  C   UNL A   1      46.904  30.347  27.420  1.00  0.00     0.074 A 
ATOM     54  C   UNL A   1      46.301  24.169  26.097  1.00  0.00     0.029 A 
ATOM     55  N   UNL A   1      45.950  26.266  26.745  1.00  0.00    -0.354 N 
ATOM     56  N   UNL A   1      46.685  29.078  27.167  1.00  0.00    -0.248 NA
ATOM     57  C   UNL A   1      48.308  30.758  27.268  1.00  0.00     0.031 C 
ATOM     58  C   UNL A   1      47.511  24.868  26.011  1.00  0.00     0.029 A 
ATOM     59  C   UNL A   1      47.288  26.179  26.401  1.00  0.00     0.049 A 
ATOM     60  H   UNL A   1      45.500  27.085  27.058  1.00  0.00     0.167 HD
ATOM     61  C   UNL A   1      47.919  28.543  26.810  1.00  0.00     0.074 A 
ATOM     62  C   UNL A   1      48.877  29.629  26.865  1.00  0.00     0.031 C 
ATOM     63  C   UNL A   1      48.231  27.268  26.467  1.00  0.00     0.037 A 
BRANCH  50  64
ATOM     64  C   UNL A   1      43.466  23.341  26.742  1.00  0.00     0.058 A 
ATOM     65  C   UNL A   1      43.124  22.804  25.491  1.00  0.00     0.135 A 
ATOM     66  C   UNL A   1      43.367  22.502  27.864  1.00  0.00     0.135 A 
ATOM     67  F   UNL A   1      43.185  23.568  24.389  1.00  0.00    -0.206 F 
ATOM     68  C   UNL A   1      42.675  21.493  25.361  1.00  0.00     0.059 A 
ATOM     69  C   UNL A   1      42.944  21.180  27.754  1.00  0.00     0.059 A 
ATOM     70  F   UNL A   1      43.682  22.965  29.084  1.00  0.00    -0.206 F 
ATOM     71  C   UNL A   1      42.587  20.690  26.499  1.00  0.00     0.060 A 
BRANCH  71  72
ATOM     72  S   UNL A   1      42.002  18.990  26.314  1.00  0.00     0.124 S 
ATOM     73  O   UNL A   1      40.673  19.200  25.750  1.00  0.00    -0.237 OA
ATOM     74  O   UNL A   1      42.992  18.416  25.409  1.00  0.00    -0.237 OA
ATOM     75  O   UNL A   1      42.029  18.472  27.679  1.00  0.00    -0.744 OA
ENDBRANCH  71  72
ENDBRANCH  50  64
BRANCH  51  76
ATOM     76  C   UNL A   1      46.370  32.815  28.048  1.00  0.00     0.058 A 
ATOM     77  C   UNL A   1      46.329  33.753  27.007  1.00  0.00     0.135 A 
ATOM     78  C   UNL A   1      46.844  33.245  29.298  1.00  0.00     0.135 A 
ATOM     79  F   UNL A   1      45.897  33.386  25.790  1.00  0.00    -0.206 F 
ATOM     80  C   UNL A   1      46.747  35.067  27.193  1.00  0.00     0.059 A 
ATOM     81  C   UNL A   1      47.246  34.558  29.515  1.00  0.00     0.059 A 
ATOM     82  F   UNL A   1      46.897  32.387  30.328  1.00  0.00    -0.206 F 
ATOM     83  C   UNL A   1      47.201  35.461  28.453  1.00  0.00     0.060 A 
BRANCH  83  84
ATOM     84  S   UNL A   1      47.690  37.182  28.699  1.00  0.00     0.124 S 
ATOM     85  O   UNL A   1      49.033  37.191  28.133  1.00  0.00    -0.237 OA
ATOM     86  O   UNL A   1      46.672  37.902  27.939  1.00  0.00    -0.237 OA
ATOM     87  O   UNL A   1      47.612  37.349  30.148  1.00  0.00    -0.744 OA
ENDBRANCH  83  84
ENDBRANCH  51  76
BRANCH  63  88
ATOM     88  C   UNL A   1      49.664  26.976  26.114  1.00  0.00     0.058 A 
ATOM     89  C   UNL A   1      50.561  26.459  27.060  1.00  0.00     0.135 A 
ATOM     90  C   UNL A   1      50.127  27.159  24.801  1.00  0.00     0.135 A 
ATOM     91  F   UNL A   1      50.170  26.271  28.331  1.00  0.00    -0.206 F 
ATOM     92  C   UNL A   1      51.875  26.150  26.722  1.00  0.00     0.059 A 
ATOM     93  C   UNL A   1      51.430  26.833  24.435  1.00  0.00     0.059 A 
ATOM     94  F   UNL A   1      49.306  27.642  23.855  1.00  0.00    -0.206 F 
ATOM     95  C   UNL A   1      52.299  26.338  25.405  1.00  0.00     0.060 A 
BRANCH  95  96
ATOM     96  S   UNL A   1      53.995  25.894  24.970  1.00  0.00     0.124 S 
ATOM     97  O   UNL A   1      54.106  24.559  25.545  1.00  0.00    -0.237 OA
ATOM     98  O   UNL A   1      53.971  25.957  23.512  1.00  0.00    -0.237 OA
ATOM     99  O   UNL A   1      54.794  26.928  25.622  1.00  0.00    -0.744 OA
ENDBRANCH  95  96
ENDBRANCH  63  88
ENDBRANCH  37  38
ENDBRANCH  30  32
ENDBRANCH  29  30
ENDBRANCH  28  29
ENDBRANCH  27  28
ENDBRANCH   1  27
TORSDOF 20
ENDMDL
