MODEL 1
REMARK VINA RESULT:      -9.4      0.000      0.000
REMARK SMILES COCCCOc1cccc(F)c1C(=O)OCCOCCOC(=O)c1ccc(-c2c3nc(c(-c4c(F)cc(S(=O)(=O)[O-])cc4F)c4ccc([nH]4)c(-c4c(F)cc(S(=O)(=O)[O-])cc4F)c4nc(c(-c5c(F)cc(S(=O)(=O)[O-])cc5F)c5ccc2[nH]5)C=C4)C=C3)cc1
REMARK SMILES IDX 18 1 17 2 16 3 14 4 15 5 13 6 7 7 8 8 9 9 11 10 10 11 12 12
REMARK SMILES IDX 6 13 5 14 4 15 3 16 2 17 1 18 19 19 20 20 21 21 22 22 23 23
REMARK SMILES IDX 24 24 25 25 26 26 90 27 27 28 89 29 28 30 29 31 30 32 83 33
REMARK SMILES IDX 31 34 88 35 82 36 84 37 32 38 87 39 81 40 80 41 33 43 67 44
REMARK SMILES IDX 46 45 66 46 47 47 50 48 65 49 85 50 48 51 49 52 64 54 86 55
REMARK SMILES IDX 51 56 34 57 35 58 44 59 36 60 37 61 43 62 45 63 38 64 39 65
REMARK SMILES IDX 40 66 41 67 42 68 68 69 69 70 78 71 70 72 71 73 77 74 79 75
REMARK SMILES IDX 72 76 73 77 74 78 75 79 76 80 52 81 53 82 62 83 54 84 55 85
REMARK SMILES IDX 61 86 63 87 56 88 57 89 58 90 59 91 60 92
REMARK H PARENT 84 42 50 53
REMARK Flexibility Score: inf
ROOT
ATOM      1  C   UNL A   1      43.909  21.281  25.370  1.00  0.00     0.202 C 
ENDROOT
BRANCH   1   2
ATOM      2  C   UNL A   1      42.963  20.237  25.974  1.00  0.00     0.261 C 
BRANCH   2   3
ATOM      3  O   UNL A   1      41.590  20.601  25.756  1.00  0.00    -0.459 OA
BRANCH   3   4
ATOM      4  C   UNL A   1      40.819  20.722  26.865  1.00  0.00     0.345 C 
ATOM      5  O   UNL A   1      40.795  19.982  27.834  1.00  0.00    -0.246 OA
BRANCH   4   6
ATOM      6  C   UNL A   1      40.080  21.990  26.784  1.00  0.00     0.137 A 
ATOM      7  C   UNL A   1      38.905  22.127  26.031  1.00  0.00     0.136 A 
ATOM      8  C   UNL A   1      38.193  23.332  26.070  1.00  0.00     0.047 A 
ATOM      9  C   UNL A   1      38.687  24.423  26.783  1.00  0.00     0.007 A 
ATOM     10  C   UNL A   1      40.552  23.081  27.515  1.00  0.00     0.141 A 
ATOM     11  C   UNL A   1      39.870  24.296  27.508  1.00  0.00     0.040 A 
ATOM     12  F   UNL A   1      41.675  22.986  28.240  1.00  0.00    -0.206 F 
BRANCH   7  13
ATOM     13  O   UNL A   1      38.280  21.097  25.384  1.00  0.00    -0.492 OA
BRANCH  13  14
ATOM     14  C   UNL A   1      37.040  21.435  24.744  1.00  0.00     0.232 C 
BRANCH  14  15
ATOM     15  C   UNL A   1      35.830  20.646  25.251  1.00  0.00     0.070 C 
BRANCH  15  16
ATOM     16  C   UNL A   1      34.465  21.056  24.691  1.00  0.00     0.163 C 
BRANCH  16  17
ATOM     17  O   UNL A   1      33.417  20.154  25.034  1.00  0.00    -0.385 OA
ATOM     18  C   UNL A   1      33.500  18.882  24.401  1.00  0.00     0.194 C 
ENDBRANCH  16  17
ENDBRANCH  15  16
ENDBRANCH  14  15
ENDBRANCH  13  14
ENDBRANCH   7  13
ENDBRANCH   4   6
ENDBRANCH   3   4
ENDBRANCH   2   3
ENDBRANCH   1   2
BRANCH   1  19
ATOM     19  O   UNL A   1      43.339  22.277  24.518  1.00  0.00    -0.374 OA
BRANCH  19  20
ATOM     20  C   UNL A   1      43.355  23.627  24.973  1.00  0.00     0.202 C 
BRANCH  20  21
ATOM     21  C   UNL A   1      44.636  24.167  25.624  1.00  0.00     0.261 C 
BRANCH  21  22
ATOM     22  O   UNL A   1      44.402  25.041  26.737  1.00  0.00    -0.460 OA
BRANCH  22  23
ATOM     23  C   UNL A   1      44.313  26.352  26.400  1.00  0.00     0.338 C 
ATOM     24  O   UNL A   1      44.648  26.866  25.346  1.00  0.00    -0.246 OA
BRANCH  23  25
ATOM     25  C   UNL A   1      43.590  27.094  27.447  1.00  0.00     0.060 A 
ATOM     26  C   UNL A   1      43.837  28.468  27.559  1.00  0.00     0.016 A 
ATOM     27  C   UNL A   1      42.757  26.445  28.360  1.00  0.00     0.016 A 
ATOM     28  C   UNL A   1      43.286  29.192  28.613  1.00  0.00     0.010 A 
ATOM     29  C   UNL A   1      42.211  27.172  29.422  1.00  0.00     0.010 A 
ATOM     30  C   UNL A   1      42.499  28.540  29.573  1.00  0.00    -0.014 A 
BRANCH  30  31
ATOM     31  C   UNL A   1      42.089  29.262  30.803  1.00  0.00     0.031 A 
ATOM     32  C   UNL A   1      40.855  30.124  30.768  1.00  0.00     0.074 A 
ATOM     33  C   UNL A   1      42.787  29.119  31.944  1.00  0.00     0.049 A 
ATOM     34  N   UNL A   1      40.348  30.879  31.706  1.00  0.00    -0.248 NA
ATOM     35  C   UNL A   1      40.093  30.135  29.509  1.00  0.00     0.031 C 
ATOM     36  C   UNL A   1      43.963  28.268  32.113  1.00  0.00     0.029 A 
ATOM     37  N   UNL A   1      42.604  29.688  33.180  1.00  0.00    -0.354 N 
ATOM     38  C   UNL A   1      39.207  31.453  31.155  1.00  0.00     0.074 A 
ATOM     39  C   UNL A   1      39.120  30.991  29.787  1.00  0.00     0.031 C 
ATOM     40  C   UNL A   1      44.395  28.366  33.381  1.00  0.00     0.029 A 
ATOM     41  C   UNL A   1      43.553  29.318  34.103  1.00  0.00     0.049 A 
ATOM     42  H   UNL A   1      41.863  30.303  33.386  1.00  0.00     0.167 HD
ATOM     43  C   UNL A   1      38.307  32.274  31.743  1.00  0.00     0.037 A 
ATOM     44  C   UNL A   1      43.732  29.716  35.379  1.00  0.00     0.037 A 
ATOM     45  C   UNL A   1      38.401  32.727  33.107  1.00  0.00     0.049 A 
ATOM     46  C   UNL A   1      42.773  30.711  35.980  1.00  0.00     0.074 A 
ATOM     47  C   UNL A   1      37.544  33.569  33.793  1.00  0.00     0.029 A 
ATOM     48  N   UNL A   1      39.409  32.375  33.993  1.00  0.00    -0.354 N 
ATOM     49  N   UNL A   1      41.704  31.255  35.445  1.00  0.00    -0.248 NA
ATOM     50  C   UNL A   1      43.042  31.150  37.356  1.00  0.00     0.031 C 
ATOM     51  C   UNL A   1      38.059  33.767  35.077  1.00  0.00     0.029 A 
ATOM     52  C   UNL A   1      39.205  33.001  35.212  1.00  0.00     0.049 A 
ATOM     53  H   UNL A   1      40.158  31.772  33.786  1.00  0.00     0.167 HD
ATOM     54  C   UNL A   1      41.160  32.074  36.429  1.00  0.00     0.074 A 
ATOM     55  C   UNL A   1      42.010  31.949  37.593  1.00  0.00     0.031 C 
ATOM     56  C   UNL A   1      40.053  32.858  36.371  1.00  0.00     0.037 A 
BRANCH  43  57
ATOM     57  C   UNL A   1      37.138  32.746  30.922  1.00  0.00     0.058 A 
ATOM     58  C   UNL A   1      37.278  33.817  30.026  1.00  0.00     0.135 A 
ATOM     59  C   UNL A   1      35.858  32.189  31.079  1.00  0.00     0.135 A 
ATOM     60  F   UNL A   1      38.481  34.383  29.830  1.00  0.00    -0.206 F 
ATOM     61  C   UNL A   1      36.190  34.335  29.332  1.00  0.00     0.059 A 
ATOM     62  C   UNL A   1      34.760  32.672  30.374  1.00  0.00     0.059 A 
ATOM     63  F   UNL A   1      35.671  31.147  31.905  1.00  0.00    -0.206 F 
ATOM     64  C   UNL A   1      34.932  33.758  29.516  1.00  0.00     0.060 A 
BRANCH  64  65
ATOM     65  S   UNL A   1      33.533  34.434  28.598  1.00  0.00     0.124 S 
ATOM     66  O   UNL A   1      34.141  35.570  27.914  1.00  0.00    -0.237 OA
ATOM     67  O   UNL A   1      33.155  33.309  27.748  1.00  0.00    -0.237 OA
ATOM     68  O   UNL A   1      32.571  34.771  29.643  1.00  0.00    -0.744 OA
ENDBRANCH  64  65
ENDBRANCH  43  57
BRANCH  44  69
ATOM     69  C   UNL A   1      44.862  29.168  36.177  1.00  0.00     0.058 A 
ATOM     70  C   UNL A   1      46.134  29.763  36.148  1.00  0.00     0.135 A 
ATOM     71  C   UNL A   1      44.693  28.028  36.977  1.00  0.00     0.135 A 
ATOM     72  F   UNL A   1      46.352  30.853  35.397  1.00  0.00    -0.206 F 
ATOM     73  C   UNL A   1      47.202  29.232  36.862  1.00  0.00     0.059 A 
ATOM     74  C   UNL A   1      45.740  27.495  37.724  1.00  0.00     0.059 A 
ATOM     75  F   UNL A   1      43.492  27.435  37.051  1.00  0.00    -0.206 F 
ATOM     76  C   UNL A   1      46.996  28.096  37.647  1.00  0.00     0.060 A 
BRANCH  76  77
ATOM     77  S   UNL A   1      48.399  27.422  38.562  1.00  0.00     0.124 S 
ATOM     78  O   UNL A   1      49.523  27.893  37.760  1.00  0.00    -0.237 OA
ATOM     79  O   UNL A   1      48.241  28.053  39.868  1.00  0.00    -0.237 OA
ATOM     80  O   UNL A   1      48.163  25.982  38.529  1.00  0.00    -0.744 OA
ENDBRANCH  76  77
ENDBRANCH  44  69
BRANCH  56  81
ATOM     81  C   UNL A   1      39.666  33.623  37.608  1.00  0.00     0.058 A 
ATOM     82  C   UNL A   1      40.273  34.858  37.898  1.00  0.00     0.135 A 
ATOM     83  C   UNL A   1      38.772  33.097  38.551  1.00  0.00     0.135 A 
ATOM     84  F   UNL A   1      41.142  35.405  37.034  1.00  0.00    -0.206 F 
ATOM     85  C   UNL A   1      40.022  35.530  39.088  1.00  0.00     0.059 A 
ATOM     86  C   UNL A   1      38.482  33.768  39.737  1.00  0.00     0.059 A 
ATOM     87  F   UNL A   1      38.158  31.926  38.319  1.00  0.00    -0.206 F 
ATOM     88  C   UNL A   1      39.127  34.975  40.004  1.00  0.00     0.060 A 
BRANCH  88  89
ATOM     89  S   UNL A   1      38.815  35.863  41.545  1.00  0.00     0.124 S 
ATOM     90  O   UNL A   1      37.498  35.360  41.920  1.00  0.00    -0.237 OA
ATOM     91  O   UNL A   1      39.926  35.424  42.384  1.00  0.00    -0.237 OA
ATOM     92  O   UNL A   1      38.859  37.266  41.143  1.00  0.00    -0.744 OA
ENDBRANCH  88  89
ENDBRANCH  56  81
ENDBRANCH  30  31
ENDBRANCH  23  25
ENDBRANCH  22  23
ENDBRANCH  21  22
ENDBRANCH  20  21
ENDBRANCH  19  20
ENDBRANCH   1  19
TORSDOF 22
ENDMDL
MODEL 2
REMARK VINA RESULT:      -8.9      4.485     10.285
REMARK SMILES COCCCOc1cccc(F)c1C(=O)OCCOCCOC(=O)c1ccc(-c2c3nc(c(-c4c(F)cc(S(=O)(=O)[O-])cc4F)c4ccc([nH]4)c(-c4c(F)cc(S(=O)(=O)[O-])cc4F)c4nc(c(-c5c(F)cc(S(=O)(=O)[O-])cc5F)c5ccc2[nH]5)C=C4)C=C3)cc1
REMARK SMILES IDX 18 1 17 2 16 3 14 4 15 5 13 6 7 7 8 8 9 9 11 10 10 11 12 12
REMARK SMILES IDX 6 13 5 14 4 15 3 16 2 17 1 18 19 19 20 20 21 21 22 22 23 23
REMARK SMILES IDX 24 24 25 25 26 26 90 27 27 28 89 29 28 30 29 31 30 32 83 33
REMARK SMILES IDX 31 34 88 35 82 36 84 37 32 38 87 39 81 40 80 41 33 43 67 44
REMARK SMILES IDX 46 45 66 46 47 47 50 48 65 49 85 50 48 51 49 52 64 54 86 55
REMARK SMILES IDX 51 56 34 57 35 58 44 59 36 60 37 61 43 62 45 63 38 64 39 65
REMARK SMILES IDX 40 66 41 67 42 68 68 69 69 70 78 71 70 72 71 73 77 74 79 75
REMARK SMILES IDX 72 76 73 77 74 78 75 79 76 80 52 81 53 82 62 83 54 84 55 85
REMARK SMILES IDX 61 86 63 87 56 88 57 89 58 90 59 91 60 92
REMARK H PARENT 84 42 50 53
REMARK Flexibility Score: inf
ROOT
ATOM      1  C   UNL A   1      33.226  22.702  23.673  1.00  0.00     0.202 C 
ENDROOT
BRANCH   1   2
ATOM      2  C   UNL A   1      32.231  23.821  24.000  1.00  0.00     0.261 C 
BRANCH   2   3
ATOM      3  O   UNL A   1      32.045  24.690  22.871  1.00  0.00    -0.459 OA
BRANCH   3   4
ATOM      4  C   UNL A   1      32.927  25.713  22.751  1.00  0.00     0.345 C 
ATOM      5  O   UNL A   1      33.761  25.873  21.876  1.00  0.00    -0.246 OA
BRANCH   4   6
ATOM      6  C   UNL A   1      32.638  26.704  23.798  1.00  0.00     0.137 A 
ATOM      7  C   UNL A   1      31.547  27.581  23.720  1.00  0.00     0.136 A 
ATOM      8  C   UNL A   1      31.267  28.436  24.793  1.00  0.00     0.047 A 
ATOM      9  C   UNL A   1      32.112  28.482  25.900  1.00  0.00     0.007 A 
ATOM     10  C   UNL A   1      33.463  26.740  24.923  1.00  0.00     0.141 A 
ATOM     11  C   UNL A   1      33.212  27.631  25.965  1.00  0.00     0.040 A 
ATOM     12  F   UNL A   1      34.517  25.920  25.027  1.00  0.00    -0.206 F 
BRANCH   7  13
ATOM     13  O   UNL A   1      30.600  27.548  22.734  1.00  0.00    -0.492 OA
BRANCH  13  14
ATOM     14  C   UNL A   1      29.361  28.200  23.048  1.00  0.00     0.232 C 
BRANCH  14  15
ATOM     15  C   UNL A   1      29.104  29.487  22.259  1.00  0.00     0.070 C 
BRANCH  15  16
ATOM     16  C   UNL A   1      28.854  30.753  23.082  1.00  0.00     0.163 C 
BRANCH  16  17
ATOM     17  O   UNL A   1      27.820  31.578  22.552  1.00  0.00    -0.385 OA
ATOM     18  C   UNL A   1      28.125  32.180  21.299  1.00  0.00     0.194 C 
ENDBRANCH  16  17
ENDBRANCH  15  16
ENDBRANCH  14  15
ENDBRANCH  13  14
ENDBRANCH   7  13
ENDBRANCH   4   6
ENDBRANCH   3   4
ENDBRANCH   2   3
ENDBRANCH   1   2
BRANCH   1  19
ATOM     19  O   UNL A   1      34.549  22.817  24.201  1.00  0.00    -0.374 OA
BRANCH  19  20
ATOM     20  C   UNL A   1      35.574  23.281  23.327  1.00  0.00     0.202 C 
BRANCH  20  21
ATOM     21  C   UNL A   1      37.032  23.210  23.802  1.00  0.00     0.261 C 
BRANCH  21  22
ATOM     22  O   UNL A   1      37.264  23.841  25.069  1.00  0.00    -0.460 OA
BRANCH  22  23
ATOM     23  C   UNL A   1      38.212  23.231  25.823  1.00  0.00     0.338 C 
ATOM     24  O   UNL A   1      38.546  22.059  25.781  1.00  0.00    -0.246 OA
BRANCH  23  25
ATOM     25  C   UNL A   1      38.931  24.229  26.634  1.00  0.00     0.060 A 
ATOM     26  C   UNL A   1      38.603  24.323  27.992  1.00  0.00     0.016 A 
ATOM     27  C   UNL A   1      39.842  25.117  26.059  1.00  0.00     0.016 A 
ATOM     28  C   UNL A   1      39.153  25.336  28.773  1.00  0.00     0.010 A 
ATOM     29  C   UNL A   1      40.387  26.139  26.844  1.00  0.00     0.010 A 
ATOM     30  C   UNL A   1      40.020  26.273  28.195  1.00  0.00    -0.014 A 
BRANCH  30  31
ATOM     31  C   UNL A   1      40.437  27.468  28.970  1.00  0.00     0.031 A 
ATOM     32  C   UNL A   1      41.800  27.486  29.609  1.00  0.00     0.074 A 
ATOM     33  C   UNL A   1      39.626  28.536  29.069  1.00  0.00     0.049 A 
ATOM     34  N   UNL A   1      42.345  28.400  30.369  1.00  0.00    -0.248 NA
ATOM     35  C   UNL A   1      42.663  26.321  29.357  1.00  0.00     0.031 C 
ATOM     36  C   UNL A   1      38.308  28.655  28.446  1.00  0.00     0.029 A 
ATOM     37  N   UNL A   1      39.792  29.727  29.732  1.00  0.00    -0.354 N 
ATOM     38  C   UNL A   1      43.612  27.923  30.684  1.00  0.00     0.074 A 
ATOM     39  C   UNL A   1      43.741  26.621  30.067  1.00  0.00     0.031 C 
ATOM     40  C   UNL A   1      37.787  29.856  28.751  1.00  0.00     0.029 A 
ATOM     41  C   UNL A   1      38.714  30.572  29.626  1.00  0.00     0.049 A 
ATOM     42  H   UNL A   1      40.607  29.953  30.236  1.00  0.00     0.167 HD
ATOM     43  C   UNL A   1      44.585  28.527  31.406  1.00  0.00     0.037 A 
ATOM     44  C   UNL A   1      38.493  31.779  30.185  1.00  0.00     0.037 A 
ATOM     45  C   UNL A   1      44.449  29.824  32.015  1.00  0.00     0.049 A 
ATOM     46  C   UNL A   1      39.552  32.385  31.069  1.00  0.00     0.074 A 
ATOM     47  C   UNL A   1      45.374  30.518  32.775  1.00  0.00     0.029 A 
ATOM     48  N   UNL A   1      43.319  30.626  31.932  1.00  0.00    -0.354 N 
ATOM     49  N   UNL A   1      40.743  31.920  31.368  1.00  0.00    -0.248 NA
ATOM     50  C   UNL A   1      39.241  33.678  31.694  1.00  0.00     0.031 C 
ATOM     51  C   UNL A   1      44.788  31.715  33.194  1.00  0.00     0.029 A 
ATOM     52  C   UNL A   1      43.518  31.797  32.645  1.00  0.00     0.049 A 
ATOM     53  H   UNL A   1      42.499  30.397  31.440  1.00  0.00     0.167 HD
ATOM     54  C   UNL A   1      41.331  32.877  32.190  1.00  0.00     0.074 A 
ATOM     55  C   UNL A   1      40.370  33.950  32.333  1.00  0.00     0.031 C 
ATOM     56  C   UNL A   1      42.557  32.866  32.770  1.00  0.00     0.037 A 
BRANCH  43  57
ATOM     57  C   UNL A   1      45.888  27.796  31.587  1.00  0.00     0.058 A 
ATOM     58  C   UNL A   1      46.081  26.937  32.681  1.00  0.00     0.135 A 
ATOM     59  C   UNL A   1      46.974  28.005  30.721  1.00  0.00     0.135 A 
ATOM     60  F   UNL A   1      45.075  26.695  33.537  1.00  0.00    -0.206 F 
ATOM     61  C   UNL A   1      47.309  26.331  32.924  1.00  0.00     0.059 A 
ATOM     62  C   UNL A   1      48.203  27.386  30.928  1.00  0.00     0.059 A 
ATOM     63  F   UNL A   1      46.837  28.797  29.646  1.00  0.00    -0.206 F 
ATOM     64  C   UNL A   1      48.366  26.564  32.043  1.00  0.00     0.060 A 
BRANCH  64  65
ATOM     65  S   UNL A   1      49.949  25.758  32.366  1.00  0.00     0.124 S 
ATOM     66  O   UNL A   1      49.547  24.626  33.194  1.00  0.00    -0.237 OA
ATOM     67  O   UNL A   1      50.404  25.432  31.018  1.00  0.00    -0.237 OA
ATOM     68  O   UNL A   1      50.723  26.791  33.047  1.00  0.00    -0.744 OA
ENDBRANCH  64  65
ENDBRANCH  43  57
BRANCH  44  69
ATOM     69  C   UNL A   1      37.217  32.499  29.920  1.00  0.00     0.058 A 
ATOM     70  C   UNL A   1      37.135  33.510  28.949  1.00  0.00     0.135 A 
ATOM     71  C   UNL A   1      36.055  32.195  30.645  1.00  0.00     0.135 A 
ATOM     72  F   UNL A   1      38.218  33.842  28.229  1.00  0.00    -0.206 F 
ATOM     73  C   UNL A   1      35.956  34.210  28.725  1.00  0.00     0.059 A 
ATOM     74  C   UNL A   1      34.855  32.863  30.419  1.00  0.00     0.059 A 
ATOM     75  F   UNL A   1      36.078  31.225  31.571  1.00  0.00    -0.206 F 
ATOM     76  C   UNL A   1      34.820  33.881  29.466  1.00  0.00     0.060 A 
BRANCH  76  77
ATOM     77  S   UNL A   1      33.301  34.807  29.160  1.00  0.00     0.124 S 
ATOM     78  O   UNL A   1      32.715  34.856  30.496  1.00  0.00    -0.237 OA
ATOM     79  O   UNL A   1      33.814  36.072  28.645  1.00  0.00    -0.237 OA
ATOM     80  O   UNL A   1      32.589  33.979  28.192  1.00  0.00    -0.744 OA
ENDBRANCH  76  77
ENDBRANCH  44  69
BRANCH  56  81
ATOM     81  C   UNL A   1      42.958  34.061  33.593  1.00  0.00     0.058 A 
ATOM     82  C   UNL A   1      43.646  35.133  32.998  1.00  0.00     0.135 A 
ATOM     83  C   UNL A   1      42.749  34.107  34.979  1.00  0.00     0.135 A 
ATOM     84  F   UNL A   1      43.880  35.139  31.677  1.00  0.00    -0.206 F 
ATOM     85  C   UNL A   1      44.130  36.195  33.754  1.00  0.00     0.059 A 
ATOM     86  C   UNL A   1      43.199  35.175  35.751  1.00  0.00     0.059 A 
ATOM     87  F   UNL A   1      42.090  33.113  35.596  1.00  0.00    -0.206 F 
ATOM     88  C   UNL A   1      43.905  36.205  35.131  1.00  0.00     0.060 A 
BRANCH  88  89
ATOM     89  S   UNL A   1      44.543  37.593  36.094  1.00  0.00     0.124 S 
ATOM     90  O   UNL A   1      44.324  38.714  35.188  1.00  0.00    -0.237 OA
ATOM     91  O   UNL A   1      43.692  37.560  37.281  1.00  0.00    -0.237 OA
ATOM     92  O   UNL A   1      45.940  37.234  36.323  1.00  0.00    -0.744 OA
ENDBRANCH  88  89
ENDBRANCH  56  81
ENDBRANCH  30  31
ENDBRANCH  23  25
ENDBRANCH  22  23
ENDBRANCH  21  22
ENDBRANCH  20  21
ENDBRANCH  19  20
ENDBRANCH   1  19
TORSDOF 22
ENDMDL
MODEL 3
REMARK VINA RESULT:      -8.8      6.284     12.438
REMARK SMILES COCCCOc1cccc(F)c1C(=O)OCCOCCOC(=O)c1ccc(-c2c3nc(c(-c4c(F)cc(S(=O)(=O)[O-])cc4F)c4ccc([nH]4)c(-c4c(F)cc(S(=O)(=O)[O-])cc4F)c4nc(c(-c5c(F)cc(S(=O)(=O)[O-])cc5F)c5ccc2[nH]5)C=C4)C=C3)cc1
REMARK SMILES IDX 18 1 17 2 16 3 14 4 15 5 13 6 7 7 8 8 9 9 11 10 10 11 12 12
REMARK SMILES IDX 6 13 5 14 4 15 3 16 2 17 1 18 19 19 20 20 21 21 22 22 23 23
REMARK SMILES IDX 24 24 25 25 26 26 90 27 27 28 89 29 28 30 29 31 30 32 83 33
REMARK SMILES IDX 31 34 88 35 82 36 84 37 32 38 87 39 81 40 80 41 33 43 67 44
REMARK SMILES IDX 46 45 66 46 47 47 50 48 65 49 85 50 48 51 49 52 64 54 86 55
REMARK SMILES IDX 51 56 34 57 35 58 44 59 36 60 37 61 43 62 45 63 38 64 39 65
REMARK SMILES IDX 40 66 41 67 42 68 68 69 69 70 78 71 70 72 71 73 77 74 79 75
REMARK SMILES IDX 72 76 73 77 74 78 75 79 76 80 52 81 53 82 62 83 54 84 55 85
REMARK SMILES IDX 61 86 63 87 56 88 57 89 58 90 59 91 60 92
REMARK H PARENT 84 42 50 53
REMARK Flexibility Score: inf
ROOT
ATOM      1  C   UNL A   1      33.954  30.288  26.541  1.00  0.00     0.202 C 
ENDROOT
BRANCH   1   2
ATOM      2  C   UNL A   1      32.694  29.582  27.057  1.00  0.00     0.261 C 
BRANCH   2   3
ATOM      3  O   UNL A   1      32.681  28.200  26.664  1.00  0.00    -0.459 OA
BRANCH   3   4
ATOM      4  C   UNL A   1      31.574  27.493  26.998  1.00  0.00     0.345 C 
ATOM      5  O   UNL A   1      30.900  27.606  28.008  1.00  0.00    -0.246 OA
BRANCH   4   6
ATOM      6  C   UNL A   1      31.215  26.625  25.868  1.00  0.00     0.137 A 
ATOM      7  C   UNL A   1      31.169  25.228  25.979  1.00  0.00     0.136 A 
ATOM      8  C   UNL A   1      30.728  24.460  24.895  1.00  0.00     0.047 A 
ATOM      9  C   UNL A   1      30.414  25.065  23.680  1.00  0.00     0.007 A 
ATOM     10  C   UNL A   1      30.874  27.223  24.654  1.00  0.00     0.141 A 
ATOM     11  C   UNL A   1      30.487  26.451  23.560  1.00  0.00     0.040 A 
ATOM     12  F   UNL A   1      30.913  28.555  24.511  1.00  0.00    -0.206 F 
BRANCH   7  13
ATOM     13  O   UNL A   1      31.354  24.542  27.148  1.00  0.00    -0.492 OA
BRANCH  13  14
ATOM     14  C   UNL A   1      31.858  23.205  27.004  1.00  0.00     0.232 C 
BRANCH  14  15
ATOM     15  C   UNL A   1      33.310  23.024  27.453  1.00  0.00     0.070 C 
BRANCH  15  16
ATOM     16  C   UNL A   1      34.323  22.676  26.360  1.00  0.00     0.163 C 
BRANCH  16  17
ATOM     17  O   UNL A   1      34.460  21.275  26.139  1.00  0.00    -0.385 OA
ATOM     18  C   UNL A   1      35.417  20.922  25.146  1.00  0.00     0.194 C 
ENDBRANCH  16  17
ENDBRANCH  15  16
ENDBRANCH  14  15
ENDBRANCH  13  14
ENDBRANCH   7  13
ENDBRANCH   4   6
ENDBRANCH   3   4
ENDBRANCH   2   3
ENDBRANCH   1   2
BRANCH   1  19
ATOM     19  O   UNL A   1      34.829  30.870  27.509  1.00  0.00    -0.374 OA
BRANCH  19  20
ATOM     20  C   UNL A   1      34.391  32.054  28.172  1.00  0.00     0.202 C 
BRANCH  20  21
ATOM     21  C   UNL A   1      34.919  32.342  29.583  1.00  0.00     0.261 C 
BRANCH  21  22
ATOM     22  O   UNL A   1      35.645  31.252  30.169  1.00  0.00    -0.460 OA
BRANCH  22  23
ATOM     23  C   UNL A   1      36.755  31.632  30.850  1.00  0.00     0.338 C 
ATOM     24  O   UNL A   1      36.811  32.379  31.812  1.00  0.00    -0.246 OA
BRANCH  23  25
ATOM     25  C   UNL A   1      37.927  30.882  30.363  1.00  0.00     0.060 A 
ATOM     26  C   UNL A   1      38.845  30.420  31.314  1.00  0.00     0.016 A 
ATOM     27  C   UNL A   1      38.169  30.712  28.999  1.00  0.00     0.016 A 
ATOM     28  C   UNL A   1      40.034  29.825  30.902  1.00  0.00     0.010 A 
ATOM     29  C   UNL A   1      39.368  30.121  28.587  1.00  0.00     0.010 A 
ATOM     30  C   UNL A   1      40.320  29.705  29.535  1.00  0.00    -0.014 A 
BRANCH  30  31
ATOM     31  C   UNL A   1      41.669  29.267  29.100  1.00  0.00     0.031 A 
ATOM     32  C   UNL A   1      42.803  30.256  29.126  1.00  0.00     0.074 A 
ATOM     33  C   UNL A   1      41.886  27.993  28.724  1.00  0.00     0.049 A 
ATOM     34  N   UNL A   1      44.044  30.102  28.743  1.00  0.00    -0.248 NA
ATOM     35  C   UNL A   1      42.500  31.595  29.656  1.00  0.00     0.031 C 
ATOM     36  C   UNL A   1      40.879  26.934  28.713  1.00  0.00     0.029 A 
ATOM     37  N   UNL A   1      43.028  27.375  28.280  1.00  0.00    -0.354 N 
ATOM     38  C   UNL A   1      44.669  31.320  28.986  1.00  0.00     0.074 A 
ATOM     39  C   UNL A   1      43.662  32.216  29.511  1.00  0.00     0.031 C 
ATOM     40  C   UNL A   1      41.449  25.794  28.288  1.00  0.00     0.029 A 
ATOM     41  C   UNL A   1      42.849  26.052  27.957  1.00  0.00     0.049 A 
ATOM     42  H   UNL A   1      43.894  27.837  28.200  1.00  0.00     0.167 HD
ATOM     43  C   UNL A   1      45.968  31.653  28.803  1.00  0.00     0.037 A 
ATOM     44  C   UNL A   1      43.711  25.155  27.436  1.00  0.00     0.037 A 
ATOM     45  C   UNL A   1      46.964  30.754  28.282  1.00  0.00     0.049 A 
ATOM     46  C   UNL A   1      45.128  25.580  27.147  1.00  0.00     0.074 A 
ATOM     47  C   UNL A   1      48.306  31.000  28.050  1.00  0.00     0.029 A 
ATOM     48  N   UNL A   1      46.730  29.437  27.912  1.00  0.00    -0.354 N 
ATOM     49  N   UNL A   1      45.705  26.738  27.371  1.00  0.00    -0.248 NA
ATOM     50  C   UNL A   1      46.013  24.580  26.533  1.00  0.00     0.031 C 
ATOM     51  C   UNL A   1      48.873  29.849  27.495  1.00  0.00     0.029 A 
ATOM     52  C   UNL A   1      47.899  28.866  27.435  1.00  0.00     0.049 A 
ATOM     53  H   UNL A   1      45.863  28.977  27.978  1.00  0.00     0.167 HD
ATOM     54  C   UNL A   1      47.024  26.594  26.954  1.00  0.00     0.074 A 
ATOM     55  C   UNL A   1      47.164  25.236  26.473  1.00  0.00     0.031 C 
ATOM     56  C   UNL A   1      48.029  27.506  26.970  1.00  0.00     0.037 A 
BRANCH  43  57
ATOM     57  C   UNL A   1      46.398  33.049  29.165  1.00  0.00     0.058 A 
ATOM     58  C   UNL A   1      46.336  34.085  28.220  1.00  0.00     0.135 A 
ATOM     59  C   UNL A   1      46.944  33.346  30.425  1.00  0.00     0.135 A 
ATOM     60  F   UNL A   1      45.815  33.860  27.002  1.00  0.00    -0.206 F 
ATOM     61  C   UNL A   1      46.821  35.358  28.500  1.00  0.00     0.059 A 
ATOM     62  C   UNL A   1      47.410  34.619  30.737  1.00  0.00     0.059 A 
ATOM     63  F   UNL A   1      47.006  32.399  31.374  1.00  0.00    -0.206 F 
ATOM     64  C   UNL A   1      47.361  35.615  29.761  1.00  0.00     0.060 A 
BRANCH  64  65
ATOM     65  S   UNL A   1      47.974  37.276  30.112  1.00  0.00     0.124 S 
ATOM     66  O   UNL A   1      49.336  37.006  30.558  1.00  0.00    -0.237 OA
ATOM     67  O   UNL A   1      47.847  37.928  28.812  1.00  0.00    -0.237 OA
ATOM     68  O   UNL A   1      47.061  37.765  31.141  1.00  0.00    -0.744 OA
ENDBRANCH  64  65
ENDBRANCH  43  57
BRANCH  44  69
ATOM     69  C   UNL A   1      43.261  23.764  27.160  1.00  0.00     0.058 A 
ATOM     70  C   UNL A   1      42.894  23.356  25.867  1.00  0.00     0.135 A 
ATOM     71  C   UNL A   1      43.177  22.816  28.191  1.00  0.00     0.135 A 
ATOM     72  F   UNL A   1      42.953  24.223  24.845  1.00  0.00    -0.206 F 
ATOM     73  C   UNL A   1      42.437  22.068  25.613  1.00  0.00     0.059 A 
ATOM     74  C   UNL A   1      42.749  21.512  27.956  1.00  0.00     0.059 A 
ATOM     75  F   UNL A   1      43.533  23.152  29.440  1.00  0.00    -0.206 F 
ATOM     76  C   UNL A   1      42.366  21.153  26.664  1.00  0.00     0.060 A 
BRANCH  76  77
ATOM     77  S   UNL A   1      41.765  19.487  26.309  1.00  0.00     0.124 S 
ATOM     78  O   UNL A   1      42.158  18.772  27.519  1.00  0.00    -0.237 OA
ATOM     79  O   UNL A   1      40.334  19.711  26.138  1.00  0.00    -0.237 OA
ATOM     80  O   UNL A   1      42.491  19.118  25.098  1.00  0.00    -0.744 OA
ENDBRANCH  76  77
ENDBRANCH  44  69
BRANCH  56  81
ATOM     81  C   UNL A   1      49.385  27.069  26.486  1.00  0.00     0.058 A 
ATOM     82  C   UNL A   1      49.714  27.156  25.122  1.00  0.00     0.135 A 
ATOM     83  C   UNL A   1      50.322  26.479  27.348  1.00  0.00     0.135 A 
ATOM     84  F   UNL A   1      48.853  27.705  24.251  1.00  0.00    -0.206 F 
ATOM     85  C   UNL A   1      50.913  26.654  24.629  1.00  0.00     0.059 A 
ATOM     86  C   UNL A   1      51.542  25.997  26.881  1.00  0.00     0.059 A 
ATOM     87  F   UNL A   1      50.061  26.380  28.661  1.00  0.00    -0.206 F 
ATOM     88  C   UNL A   1      51.819  26.072  25.516  1.00  0.00     0.060 A 
BRANCH  88  89
ATOM     89  S   UNL A   1      53.370  25.424  24.857  1.00  0.00     0.124 S 
ATOM     90  O   UNL A   1      54.356  26.265  25.527  1.00  0.00    -0.237 OA
ATOM     91  O   UNL A   1      53.329  24.029  25.285  1.00  0.00    -0.237 OA
ATOM     92  O   UNL A   1      53.242  25.635  23.417  1.00  0.00    -0.744 OA
ENDBRANCH  88  89
ENDBRANCH  56  81
ENDBRANCH  30  31
ENDBRANCH  23  25
ENDBRANCH  22  23
ENDBRANCH  21  22
ENDBRANCH  20  21
ENDBRANCH  19  20
ENDBRANCH   1  19
TORSDOF 22
ENDMDL
