MODEL 1
REMARK VINA RESULT:     -11.8      0.000      0.000
REMARK SMILES Cc1ccc(S(=O)(=O)n2cc(C(=O)C(=O)NCC(=O)NCC(=O)OCCOCCOC(=O)c3ccc(-c4c5nc(c(-c6c(F)cc(S(=O)(=O)[O-])cc6F)c6ccc([nH]6)c(-c6c(F)cc(S(=O)(=O)[O-])cc6F)c6nc(c(-c7c(F)cc(S(=O)(=O)[O-])cc7F)c7ccc4[nH]7)C=C6)C=C5)cc3)c3ccccc32)cc1
REMARK SMILES IDX 25 1 24 2 22 3 23 4 21 5 20 6 18 7 19 8 17 10 16 11 14 12
REMARK SMILES IDX 15 13 12 15 13 16 11 17 9 18 10 19 104 20 99 21 103 22
REMARK SMILES IDX 100 23 102 24 101 25 6 26 7 27 8 28 5 29 1 30 2 31 3 32
REMARK SMILES IDX 106 33 4 34 105 35 26 36 27 37 28 38 29 39 30 40 31 41 32 42
REMARK SMILES IDX 33 43 34 44 98 45 35 46 97 47 36 48 37 49 38 50 91 51 39 52
REMARK SMILES IDX 96 53 90 54 92 55 40 56 95 57 89 58 88 59 41 61 75 62 54 63
REMARK SMILES IDX 74 64 55 65 58 66 73 67 93 68 56 69 57 70 72 72 94 73 59 74
REMARK SMILES IDX 42 75 43 76 52 77 44 78 45 79 51 80 53 81 46 82 47 83 48 84
REMARK SMILES IDX 49 85 50 86 76 87 77 88 86 89 78 90 79 91 85 92 87 93 80 94
REMARK SMILES IDX 81 95 82 96 83 97 84 98 60 99 61 100 70 101 62 102 63 103
REMARK SMILES IDX 69 104 71 105 64 106 65 107 66 108 67 109 68 110
REMARK H PARENT 20 9 16 14 92 60 58 71
REMARK Flexibility Score: inf
ROOT
ATOM      1  C   UNL A   1      42.364  20.137  26.135  1.00  0.00     0.261 C 
ENDROOT
BRANCH   1   2
ATOM      2  O   UNL A   1      41.172  20.592  26.758  1.00  0.00    -0.462 OA
BRANCH   2   3
ATOM      3  C   UNL A   1      40.027  20.337  26.086  1.00  0.00     0.325 C 
ATOM      4  O   UNL A   1      39.690  19.255  25.624  1.00  0.00    -0.250 OA
BRANCH   3   5
ATOM      5  C   UNL A   1      39.125  21.567  26.077  1.00  0.00     0.238 C 
BRANCH   5   6
ATOM      6  N   UNL A   1      38.221  21.705  24.934  1.00  0.00    -0.344 N 
ATOM      7  C   UNL A   1      37.039  22.370  24.810  1.00  0.00     0.239 C 
ATOM      8  O   UNL A   1      36.538  22.473  23.688  1.00  0.00    -0.273 OA
ATOM      9  H   UNL A   1      38.517  21.241  24.118  1.00  0.00     0.164 HD
BRANCH   7  10
ATOM     10  C   UNL A   1      36.362  22.987  26.040  1.00  0.00     0.216 C 
BRANCH  10  11
ATOM     11  N   UNL A   1      35.679  21.930  26.765  1.00  0.00    -0.340 N 
ATOM     12  C   UNL A   1      34.311  21.835  26.857  1.00  0.00     0.292 C 
ATOM     13  O   UNL A   1      33.766  21.820  27.950  1.00  0.00    -0.265 OA
ATOM     14  H   UNL A   1      36.226  21.244  27.215  1.00  0.00     0.164 HD
BRANCH  12  15
ATOM     15  C   UNL A   1      33.427  21.824  25.604  1.00  0.00     0.252 C 
ATOM     16  O   UNL A   1      33.232  20.771  25.005  1.00  0.00    -0.283 OA
BRANCH  15  17
ATOM     17  C   UNL A   1      32.934  23.108  25.102  1.00  0.00     0.054 A 
ATOM     18  N   UNL A   1      32.199  25.215  25.011  1.00  0.00    -0.240 N 
ATOM     19  C   UNL A   1      32.481  24.171  25.863  1.00  0.00     0.117 A 
ATOM     20  C   UNL A   1      32.509  24.883  23.710  1.00  0.00     0.065 A 
ATOM     21  C   UNL A   1      32.927  23.545  23.740  1.00  0.00     0.012 A 
ATOM     22  C   UNL A   1      32.496  25.628  22.519  1.00  0.00     0.028 A 
ATOM     23  C   UNL A   1      33.322  22.930  22.534  1.00  0.00     0.011 A 
ATOM     24  C   UNL A   1      32.890  24.990  21.340  1.00  0.00     0.002 A 
ATOM     25  C   UNL A   1      33.291  23.659  21.343  1.00  0.00     0.001 A 
BRANCH  18  26
ATOM     26  S   UNL A   1      31.729  26.756  25.549  1.00  0.00     0.268 S 
ATOM     27  O   UNL A   1      32.940  27.555  25.488  1.00  0.00    -0.201 OA
ATOM     28  O   UNL A   1      30.920  26.516  26.720  1.00  0.00    -0.201 OA
BRANCH  26  29
ATOM     29  C   UNL A   1      30.614  27.520  24.446  1.00  0.00     0.088 A 
ATOM     30  C   UNL A   1      27.799  29.906  22.319  1.00  0.00     0.044 C 
ATOM     31  C   UNL A   1      28.800  29.046  23.026  1.00  0.00    -0.051 A 
ATOM     32  C   UNL A   1      30.009  29.619  23.434  1.00  0.00     0.005 A 
ATOM     33  C   UNL A   1      28.527  27.697  23.314  1.00  0.00     0.005 A 
ATOM     34  C   UNL A   1      30.918  28.855  24.142  1.00  0.00     0.022 A 
ATOM     35  C   UNL A   1      29.433  26.923  24.034  1.00  0.00     0.022 A 
ENDBRANCH  26  29
ENDBRANCH  18  26
ENDBRANCH  15  17
ENDBRANCH  12  15
ENDBRANCH  10  11
ENDBRANCH   7  10
ENDBRANCH   5   6
ENDBRANCH   3   5
ENDBRANCH   2   3
ENDBRANCH   1   2
BRANCH   1  36
ATOM     36  C   UNL A   1      43.286  21.271  25.675  1.00  0.00     0.202 C 
BRANCH  36  37
ATOM     37  O   UNL A   1      42.720  22.496  25.236  1.00  0.00    -0.374 OA
BRANCH  37  38
ATOM     38  C   UNL A   1      42.781  23.616  26.126  1.00  0.00     0.202 C 
BRANCH  38  39
ATOM     39  C   UNL A   1      41.488  24.403  26.446  1.00  0.00     0.261 C 
BRANCH  39  40
ATOM     40  O   UNL A   1      41.843  25.787  26.626  1.00  0.00    -0.460 OA
BRANCH  40  41
ATOM     41  C   UNL A   1      41.515  26.915  25.949  1.00  0.00     0.338 C 
ATOM     42  O   UNL A   1      42.256  27.214  25.012  1.00  0.00    -0.246 OA
BRANCH  41  43
ATOM     43  C   UNL A   1      40.561  27.982  26.517  1.00  0.00     0.060 A 
ATOM     44  C   UNL A   1      41.186  29.237  26.547  1.00  0.00     0.016 A 
ATOM     45  C   UNL A   1      39.973  27.641  27.719  1.00  0.00     0.016 A 
ATOM     46  C   UNL A   1      41.889  29.617  27.692  1.00  0.00     0.010 A 
ATOM     47  C   UNL A   1      40.679  27.946  28.875  1.00  0.00     0.010 A 
ATOM     48  C   UNL A   1      41.785  28.791  28.799  1.00  0.00    -0.014 A 
BRANCH  48  49
ATOM     49  C   UNL A   1      42.952  28.466  29.632  1.00  0.00     0.031 A 
ATOM     50  C   UNL A   1      44.077  27.656  29.101  1.00  0.00     0.074 A 
ATOM     51  C   UNL A   1      43.007  29.038  30.864  1.00  0.00     0.049 A 
ATOM     52  N   UNL A   1      44.879  26.952  29.822  1.00  0.00    -0.248 NA
ATOM     53  C   UNL A   1      44.352  27.504  27.676  1.00  0.00     0.031 C 
ATOM     54  C   UNL A   1      44.136  29.147  31.772  1.00  0.00     0.029 A 
ATOM     55  N   UNL A   1      41.959  29.558  31.620  1.00  0.00    -0.354 N 
ATOM     56  C   UNL A   1      45.909  26.488  29.015  1.00  0.00     0.074 A 
ATOM     57  C   UNL A   1      45.476  26.782  27.677  1.00  0.00     0.031 C 
ATOM     58  C   UNL A   1      43.683  29.399  33.015  1.00  0.00     0.029 A 
ATOM     59  C   UNL A   1      42.240  29.422  32.977  1.00  0.00     0.049 A 
ATOM     60  H   UNL A   1      41.142  29.962  31.250  1.00  0.00     0.167 HD
ATOM     61  C   UNL A   1      47.070  26.045  29.588  1.00  0.00     0.037 A 
ATOM     62  C   UNL A   1      41.423  28.665  33.764  1.00  0.00     0.037 A 
ATOM     63  C   UNL A   1      46.934  26.168  31.033  1.00  0.00     0.049 A 
ATOM     64  C   UNL A   1      42.096  27.342  34.125  1.00  0.00     0.074 A 
ATOM     65  C   UNL A   1      47.118  27.282  31.823  1.00  0.00     0.029 A 
ATOM     66  N   UNL A   1      46.111  25.309  31.749  1.00  0.00    -0.354 N 
ATOM     67  N   UNL A   1      43.200  26.906  33.568  1.00  0.00    -0.248 NA
ATOM     68  C   UNL A   1      41.614  26.417  35.144  1.00  0.00     0.031 C 
ATOM     69  C   UNL A   1      46.261  27.136  32.940  1.00  0.00     0.029 A 
ATOM     70  C   UNL A   1      45.712  25.873  32.950  1.00  0.00     0.049 A 
ATOM     71  H   UNL A   1      45.845  24.413  31.441  1.00  0.00     0.167 HD
ATOM     72  C   UNL A   1      43.635  25.757  34.180  1.00  0.00     0.074 A 
ATOM     73  C   UNL A   1      42.554  25.451  35.107  1.00  0.00     0.031 C 
ATOM     74  C   UNL A   1      44.851  25.174  33.903  1.00  0.00     0.037 A 
BRANCH  61  75
ATOM     75  C   UNL A   1      48.415  25.855  28.892  1.00  0.00     0.058 A 
ATOM     76  C   UNL A   1      49.547  26.609  29.291  1.00  0.00     0.135 A 
ATOM     77  C   UNL A   1      48.659  25.001  27.798  1.00  0.00     0.135 A 
ATOM     78  F   UNL A   1      49.511  27.391  30.380  1.00  0.00    -0.206 F 
ATOM     79  C   UNL A   1      50.769  26.594  28.602  1.00  0.00     0.059 A 
ATOM     80  C   UNL A   1      49.855  24.998  27.067  1.00  0.00     0.059 A 
ATOM     81  F   UNL A   1      47.772  24.077  27.416  1.00  0.00    -0.206 F 
ATOM     82  C   UNL A   1      50.908  25.804  27.470  1.00  0.00     0.060 A 
BRANCH  82  83
ATOM     83  S   UNL A   1      52.471  25.798  26.568  1.00  0.00     0.124 S 
ATOM     84  O   UNL A   1      53.452  25.944  27.639  1.00  0.00    -0.237 OA
ATOM     85  O   UNL A   1      52.442  24.498  25.907  1.00  0.00    -0.237 OA
ATOM     86  O   UNL A   1      52.357  26.949  25.676  1.00  0.00    -0.744 OA
ENDBRANCH  82  83
ENDBRANCH  61  75
BRANCH  62  87
ATOM     87  C   UNL A   1      39.975  28.971  33.506  1.00  0.00     0.058 A 
ATOM     88  C   UNL A   1      39.443  30.150  34.092  1.00  0.00     0.135 A 
ATOM     89  C   UNL A   1      39.256  28.435  32.433  1.00  0.00     0.135 A 
ATOM     90  F   UNL A   1      40.067  30.707  35.146  1.00  0.00    -0.206 F 
ATOM     91  C   UNL A   1      38.364  30.849  33.541  1.00  0.00     0.059 A 
ATOM     92  C   UNL A   1      38.153  29.108  31.878  1.00  0.00     0.059 A 
ATOM     93  F   UNL A   1      39.685  27.319  31.826  1.00  0.00    -0.206 F 
ATOM     94  C   UNL A   1      37.752  30.346  32.398  1.00  0.00     0.060 A 
BRANCH  94  95
ATOM     95  S   UNL A   1      36.582  31.412  31.486  1.00  0.00     0.124 S 
ATOM     96  O   UNL A   1      35.948  30.467  30.575  1.00  0.00    -0.237 OA
ATOM     97  O   UNL A   1      35.720  31.955  32.532  1.00  0.00    -0.237 OA
ATOM     98  O   UNL A   1      37.451  32.403  30.854  1.00  0.00    -0.744 OA
ENDBRANCH  94  95
ENDBRANCH  62  87
BRANCH  74  99
ATOM     99  C   UNL A   1      45.372  23.916  34.577  1.00  0.00     0.058 A 
ATOM    100  C   UNL A   1      46.484  23.894  35.434  1.00  0.00     0.135 A 
ATOM    101  C   UNL A   1      44.779  22.649  34.350  1.00  0.00     0.135 A 
ATOM    102  F   UNL A   1      47.292  24.959  35.553  1.00  0.00    -0.206 F 
ATOM    103  C   UNL A   1      46.821  22.769  36.193  1.00  0.00     0.059 A 
ATOM    104  C   UNL A   1      45.135  21.502  35.045  1.00  0.00     0.059 A 
ATOM    105  F   UNL A   1      43.790  22.459  33.469  1.00  0.00    -0.206 F 
ATOM    106  C   UNL A   1      46.100  21.592  36.028  1.00  0.00     0.060 A 
BRANCH 106 107
ATOM    107  S   UNL A   1      46.389  20.194  37.119  1.00  0.00     0.124 S 
ATOM    108  O   UNL A   1      45.947  20.705  38.412  1.00  0.00    -0.237 OA
ATOM    109  O   UNL A   1      45.537  19.176  36.514  1.00  0.00    -0.237 OA
ATOM    110  O   UNL A   1      47.825  19.958  37.002  1.00  0.00    -0.744 OA
ENDBRANCH 106 107
ENDBRANCH  74  99
ENDBRANCH  48  49
ENDBRANCH  41  43
ENDBRANCH  40  41
ENDBRANCH  39  40
ENDBRANCH  38  39
ENDBRANCH  37  38
ENDBRANCH  36  37
ENDBRANCH   1  36
TORSDOF 24
ENDMDL
MODEL 2
REMARK VINA RESULT:     -11.1      1.450      2.353
REMARK SMILES Cc1ccc(S(=O)(=O)n2cc(C(=O)C(=O)NCC(=O)NCC(=O)OCCOCCOC(=O)c3ccc(-c4c5nc(c(-c6c(F)cc(S(=O)(=O)[O-])cc6F)c6ccc([nH]6)c(-c6c(F)cc(S(=O)(=O)[O-])cc6F)c6nc(c(-c7c(F)cc(S(=O)(=O)[O-])cc7F)c7ccc4[nH]7)C=C6)C=C5)cc3)c3ccccc32)cc1
REMARK SMILES IDX 25 1 24 2 22 3 23 4 21 5 20 6 18 7 19 8 17 10 16 11 14 12
REMARK SMILES IDX 15 13 12 15 13 16 11 17 9 18 10 19 104 20 99 21 103 22
REMARK SMILES IDX 100 23 102 24 101 25 6 26 7 27 8 28 5 29 1 30 2 31 3 32
REMARK SMILES IDX 106 33 4 34 105 35 26 36 27 37 28 38 29 39 30 40 31 41 32 42
REMARK SMILES IDX 33 43 34 44 98 45 35 46 97 47 36 48 37 49 38 50 91 51 39 52
REMARK SMILES IDX 96 53 90 54 92 55 40 56 95 57 89 58 88 59 41 61 75 62 54 63
REMARK SMILES IDX 74 64 55 65 58 66 73 67 93 68 56 69 57 70 72 72 94 73 59 74
REMARK SMILES IDX 42 75 43 76 52 77 44 78 45 79 51 80 53 81 46 82 47 83 48 84
REMARK SMILES IDX 49 85 50 86 76 87 77 88 86 89 78 90 79 91 85 92 87 93 80 94
REMARK SMILES IDX 81 95 82 96 83 97 84 98 60 99 61 100 70 101 62 102 63 103
REMARK SMILES IDX 69 104 71 105 64 106 65 107 66 108 67 109 68 110
REMARK H PARENT 20 9 16 14 92 60 58 71
REMARK Flexibility Score: inf
ROOT
ATOM      1  C   UNL A   1      38.822  20.980  25.394  1.00  0.00     0.261 C 
ENDROOT
BRANCH   1   2
ATOM      2  O   UNL A   1      37.482  21.279  25.029  1.00  0.00    -0.462 OA
BRANCH   2   3
ATOM      3  C   UNL A   1      36.641  20.223  24.978  1.00  0.00     0.325 C 
ATOM      4  O   UNL A   1      36.966  19.042  24.982  1.00  0.00    -0.250 OA
BRANCH   3   5
ATOM      5  C   UNL A   1      35.189  20.689  25.036  1.00  0.00     0.238 C 
BRANCH   5   6
ATOM      6  N   UNL A   1      34.173  19.646  25.184  1.00  0.00    -0.344 N 
ATOM      7  C   UNL A   1      32.819  19.732  25.298  1.00  0.00     0.239 C 
ATOM      8  O   UNL A   1      32.158  18.692  25.251  1.00  0.00    -0.273 OA
ATOM      9  H   UNL A   1      34.528  18.728  25.203  1.00  0.00     0.164 HD
BRANCH   7  10
ATOM     10  C   UNL A   1      32.140  21.097  25.466  1.00  0.00     0.216 C 
BRANCH  10  11
ATOM     11  N   UNL A   1      32.678  21.733  26.656  1.00  0.00    -0.340 N 
ATOM     12  C   UNL A   1      32.765  23.095  26.813  1.00  0.00     0.292 C 
ATOM     13  O   UNL A   1      33.844  23.623  27.036  1.00  0.00    -0.265 OA
ATOM     14  H   UNL A   1      32.996  21.157  27.390  1.00  0.00     0.164 HD
BRANCH  12  15
ATOM     15  C   UNL A   1      31.537  23.999  26.638  1.00  0.00     0.252 C 
ATOM     16  O   UNL A   1      30.453  23.646  27.092  1.00  0.00    -0.283 OA
BRANCH  15  17
ATOM     17  C   UNL A   1      31.688  25.210  25.831  1.00  0.00     0.054 A 
ATOM     18  N   UNL A   1      31.685  26.631  24.108  1.00  0.00    -0.240 N 
ATOM     19  C   UNL A   1      31.561  25.304  24.456  1.00  0.00     0.117 A 
ATOM     20  C   UNL A   1      31.835  27.420  25.227  1.00  0.00     0.065 A 
ATOM     21  C   UNL A   1      31.887  26.540  26.318  1.00  0.00     0.012 A 
ATOM     22  C   UNL A   1      31.896  28.813  25.397  1.00  0.00     0.028 A 
ATOM     23  C   UNL A   1      32.029  27.075  27.615  1.00  0.00     0.011 A 
ATOM     24  C   UNL A   1      32.039  29.312  26.694  1.00  0.00     0.002 A 
ATOM     25  C   UNL A   1      32.113  28.458  27.788  1.00  0.00     0.001 A 
BRANCH  18  26
ATOM     26  S   UNL A   1      31.472  27.202  22.522  1.00  0.00     0.268 S 
ATOM     27  O   UNL A   1      31.053  26.037  21.763  1.00  0.00    -0.201 OA
ATOM     28  O   UNL A   1      32.628  28.025  22.259  1.00  0.00    -0.201 OA
BRANCH  26  29
ATOM     29  C   UNL A   1      30.147  28.331  22.408  1.00  0.00     0.088 A 
ATOM     30  C   UNL A   1      27.335  31.522  22.616  1.00  0.00     0.044 C 
ATOM     31  C   UNL A   1      28.301  30.385  22.504  1.00  0.00    -0.051 A 
ATOM     32  C   UNL A   1      29.588  30.642  22.023  1.00  0.00     0.005 A 
ATOM     33  C   UNL A   1      27.945  29.086  22.908  1.00  0.00     0.005 A 
ATOM     34  C   UNL A   1      30.512  29.614  21.972  1.00  0.00     0.022 A 
ATOM     35  C   UNL A   1      28.871  28.047  22.868  1.00  0.00     0.022 A 
ENDBRANCH  26  29
ENDBRANCH  18  26
ENDBRANCH  15  17
ENDBRANCH  12  15
ENDBRANCH  10  11
ENDBRANCH   7  10
ENDBRANCH   5   6
ENDBRANCH   3   5
ENDBRANCH   2   3
ENDBRANCH   1   2
BRANCH   1  36
ATOM     36  C   UNL A   1      39.372  21.885  26.501  1.00  0.00     0.202 C 
BRANCH  36  37
ATOM     37  O   UNL A   1      40.344  22.868  26.180  1.00  0.00    -0.374 OA
BRANCH  37  38
ATOM     38  C   UNL A   1      40.585  23.906  27.135  1.00  0.00     0.202 C 
BRANCH  38  39
ATOM     39  C   UNL A   1      41.978  24.578  27.191  1.00  0.00     0.261 C 
BRANCH  39  40
ATOM     40  O   UNL A   1      41.783  26.005  27.208  1.00  0.00    -0.460 OA
BRANCH  40  41
ATOM     41  C   UNL A   1      41.225  26.866  26.321  1.00  0.00     0.338 C 
ATOM     42  O   UNL A   1      41.613  26.766  25.157  1.00  0.00    -0.246 OA
BRANCH  41  43
ATOM     43  C   UNL A   1      40.482  28.143  26.753  1.00  0.00     0.060 A 
ATOM     44  C   UNL A   1      41.289  29.274  26.561  1.00  0.00     0.016 A 
ATOM     45  C   UNL A   1      39.927  28.082  28.017  1.00  0.00     0.016 A 
ATOM     46  C   UNL A   1      42.113  29.703  27.603  1.00  0.00     0.010 A 
ATOM     47  C   UNL A   1      40.744  28.439  29.081  1.00  0.00     0.010 A 
ATOM     48  C   UNL A   1      41.958  29.077  28.829  1.00  0.00    -0.014 A 
BRANCH  48  49
ATOM     49  C   UNL A   1      43.114  28.698  29.655  1.00  0.00     0.031 A 
ATOM     50  C   UNL A   1      44.210  27.861  29.108  1.00  0.00     0.074 A 
ATOM     51  C   UNL A   1      43.189  29.246  30.897  1.00  0.00     0.049 A 
ATOM     52  N   UNL A   1      44.989  27.117  29.815  1.00  0.00    -0.248 NA
ATOM     53  C   UNL A   1      44.479  27.725  27.680  1.00  0.00     0.031 C 
ATOM     54  C   UNL A   1      44.321  29.301  31.805  1.00  0.00     0.029 A 
ATOM     55  N   UNL A   1      42.159  29.787  31.663  1.00  0.00    -0.354 N 
ATOM     56  C   UNL A   1      46.002  26.634  28.998  1.00  0.00     0.074 A 
ATOM     57  C   UNL A   1      45.578  26.966  27.667  1.00  0.00     0.031 C 
ATOM     58  C   UNL A   1      43.877  29.546  33.053  1.00  0.00     0.029 A 
ATOM     59  C   UNL A   1      42.436  29.618  33.017  1.00  0.00     0.049 A 
ATOM     60  H   UNL A   1      41.356  30.225  31.301  1.00  0.00     0.167 HD
ATOM     61  C   UNL A   1      47.148  26.142  29.563  1.00  0.00     0.037 A 
ATOM     62  C   UNL A   1      41.595  28.875  33.792  1.00  0.00     0.037 A 
ATOM     63  C   UNL A   1      47.017  26.243  31.009  1.00  0.00     0.049 A 
ATOM     64  C   UNL A   1      42.223  27.523  34.128  1.00  0.00     0.074 A 
ATOM     65  C   UNL A   1      47.239  27.336  31.819  1.00  0.00     0.029 A 
ATOM     66  N   UNL A   1      46.166  25.400  31.711  1.00  0.00    -0.354 N 
ATOM     67  N   UNL A   1      43.311  27.060  33.562  1.00  0.00    -0.248 NA
ATOM     68  C   UNL A   1      41.710  26.596  35.131  1.00  0.00     0.031 C 
ATOM     69  C   UNL A   1      46.378  27.199  32.934  1.00  0.00     0.029 A 
ATOM     70  C   UNL A   1      45.787  25.955  32.922  1.00  0.00     0.049 A 
ATOM     71  H   UNL A   1      45.870  24.519  31.388  1.00  0.00     0.167 HD
ATOM     72  C   UNL A   1      43.708  25.887  34.152  1.00  0.00     0.074 A 
ATOM     73  C   UNL A   1      42.618  25.600  35.076  1.00  0.00     0.031 C 
ATOM     74  C   UNL A   1      44.904  25.268  33.863  1.00  0.00     0.037 A 
BRANCH  61  75
ATOM     75  C   UNL A   1      48.486  25.919  28.861  1.00  0.00     0.058 A 
ATOM     76  C   UNL A   1      49.634  26.655  29.247  1.00  0.00     0.135 A 
ATOM     77  C   UNL A   1      48.707  25.051  27.774  1.00  0.00     0.135 A 
ATOM     78  F   UNL A   1      49.619  27.447  30.330  1.00  0.00    -0.206 F 
ATOM     79  C   UNL A   1      50.851  26.609  28.553  1.00  0.00     0.059 A 
ATOM     80  C   UNL A   1      49.899  25.018  27.037  1.00  0.00     0.059 A 
ATOM     81  F   UNL A   1      47.801  24.141  27.405  1.00  0.00    -0.206 F 
ATOM     82  C   UNL A   1      50.969  25.807  27.427  1.00  0.00     0.060 A 
BRANCH  82  83
ATOM     83  S   UNL A   1      52.528  25.762  26.518  1.00  0.00     0.124 S 
ATOM     84  O   UNL A   1      52.464  24.467  25.849  1.00  0.00    -0.237 OA
ATOM     85  O   UNL A   1      52.414  26.932  25.652  1.00  0.00    -0.237 OA
ATOM     86  O   UNL A   1      53.540  25.865  27.566  1.00  0.00    -0.744 OA
ENDBRANCH  82  83
ENDBRANCH  61  75
BRANCH  62  87
ATOM     87  C   UNL A   1      40.158  29.233  33.540  1.00  0.00     0.058 A 
ATOM     88  C   UNL A   1      39.772  30.580  33.772  1.00  0.00     0.135 A 
ATOM     89  C   UNL A   1      39.308  28.478  32.727  1.00  0.00     0.135 A 
ATOM     90  F   UNL A   1      40.527  31.360  34.567  1.00  0.00    -0.206 F 
ATOM     91  C   UNL A   1      38.706  31.188  33.101  1.00  0.00     0.059 A 
ATOM     92  C   UNL A   1      38.216  29.063  32.061  1.00  0.00     0.059 A 
ATOM     93  F   UNL A   1      39.594  27.195  32.462  1.00  0.00    -0.206 F 
ATOM     94  C   UNL A   1      37.959  30.433  32.204  1.00  0.00     0.060 A 
BRANCH  94  95
ATOM     95  S   UNL A   1      36.800  31.292  31.084  1.00  0.00     0.124 S 
ATOM     96  O   UNL A   1      37.696  32.126  30.292  1.00  0.00    -0.237 OA
ATOM     97  O   UNL A   1      36.146  30.205  30.361  1.00  0.00    -0.237 OA
ATOM     98  O   UNL A   1      35.919  32.014  31.999  1.00  0.00    -0.744 OA
ENDBRANCH  94  95
ENDBRANCH  62  87
BRANCH  74  99
ATOM     99  C   UNL A   1      45.383  23.982  34.514  1.00  0.00     0.058 A 
ATOM    100  C   UNL A   1      46.442  23.920  35.434  1.00  0.00     0.135 A 
ATOM    101  C   UNL A   1      44.803  22.728  34.200  1.00  0.00     0.135 A 
ATOM    102  F   UNL A   1      47.243  24.976  35.643  1.00  0.00    -0.206 F 
ATOM    103  C   UNL A   1      46.732  22.763  36.164  1.00  0.00     0.059 A 
ATOM    104  C   UNL A   1      45.116  21.551  34.867  1.00  0.00     0.059 A 
ATOM    105  F   UNL A   1      43.867  22.577  33.256  1.00  0.00    -0.206 F 
ATOM    106  C   UNL A   1      46.021  21.596  35.908  1.00  0.00     0.060 A 
BRANCH 106 107
ATOM    107  S   UNL A   1      46.244  20.154  36.955  1.00  0.00     0.124 S 
ATOM    108  O   UNL A   1      45.649  20.583  38.216  1.00  0.00    -0.237 OA
ATOM    109  O   UNL A   1      45.498  19.143  36.214  1.00  0.00    -0.237 OA
ATOM    110  O   UNL A   1      47.692  19.969  36.982  1.00  0.00    -0.744 OA
ENDBRANCH 106 107
ENDBRANCH  74  99
ENDBRANCH  48  49
ENDBRANCH  41  43
ENDBRANCH  40  41
ENDBRANCH  39  40
ENDBRANCH  38  39
ENDBRANCH  37  38
ENDBRANCH  36  37
ENDBRANCH   1  36
TORSDOF 24
ENDMDL
MODEL 3
REMARK VINA RESULT:     -10.6      3.572      5.565
REMARK SMILES Cc1ccc(S(=O)(=O)n2cc(C(=O)C(=O)NCC(=O)NCC(=O)OCCOCCOC(=O)c3ccc(-c4c5nc(c(-c6c(F)cc(S(=O)(=O)[O-])cc6F)c6ccc([nH]6)c(-c6c(F)cc(S(=O)(=O)[O-])cc6F)c6nc(c(-c7c(F)cc(S(=O)(=O)[O-])cc7F)c7ccc4[nH]7)C=C6)C=C5)cc3)c3ccccc32)cc1
REMARK SMILES IDX 25 1 24 2 22 3 23 4 21 5 20 6 18 7 19 8 17 10 16 11 14 12
REMARK SMILES IDX 15 13 12 15 13 16 11 17 9 18 10 19 104 20 99 21 103 22
REMARK SMILES IDX 100 23 102 24 101 25 6 26 7 27 8 28 5 29 1 30 2 31 3 32
REMARK SMILES IDX 106 33 4 34 105 35 26 36 27 37 28 38 29 39 30 40 31 41 32 42
REMARK SMILES IDX 33 43 34 44 98 45 35 46 97 47 36 48 37 49 38 50 91 51 39 52
REMARK SMILES IDX 96 53 90 54 92 55 40 56 95 57 89 58 88 59 41 61 75 62 54 63
REMARK SMILES IDX 74 64 55 65 58 66 73 67 93 68 56 69 57 70 72 72 94 73 59 74
REMARK SMILES IDX 42 75 43 76 52 77 44 78 45 79 51 80 53 81 46 82 47 83 48 84
REMARK SMILES IDX 49 85 50 86 76 87 77 88 86 89 78 90 79 91 85 92 87 93 80 94
REMARK SMILES IDX 81 95 82 96 83 97 84 98 60 99 61 100 70 101 62 102 63 103
REMARK SMILES IDX 69 104 71 105 64 106 65 107 66 108 67 109 68 110
REMARK H PARENT 20 9 16 14 92 60 58 71
REMARK Flexibility Score: inf
ROOT
ATOM      1  C   UNL A   1      41.059  19.715  26.372  1.00  0.00     0.261 C 
ENDROOT
BRANCH   1   2
ATOM      2  O   UNL A   1      40.099  20.758  26.442  1.00  0.00    -0.462 OA
BRANCH   2   3
ATOM      3  C   UNL A   1      39.001  20.595  25.670  1.00  0.00     0.325 C 
ATOM      4  O   UNL A   1      38.670  19.564  25.098  1.00  0.00    -0.250 OA
BRANCH   3   5
ATOM      5  C   UNL A   1      38.135  21.851  25.695  1.00  0.00     0.238 C 
BRANCH   5   6
ATOM      6  N   UNL A   1      37.482  22.219  24.438  1.00  0.00    -0.344 N 
ATOM      7  C   UNL A   1      36.162  22.332  24.121  1.00  0.00     0.239 C 
ATOM      8  O   UNL A   1      35.860  22.817  23.029  1.00  0.00    -0.273 OA
ATOM      9  H   UNL A   1      38.099  22.418  23.698  1.00  0.00     0.164 HD
BRANCH   7  10
ATOM     10  C   UNL A   1      35.084  21.881  25.114  1.00  0.00     0.216 C 
BRANCH  10  11
ATOM     11  N   UNL A   1      34.497  20.647  24.622  1.00  0.00    -0.340 N 
ATOM     12  C   UNL A   1      33.163  20.509  24.323  1.00  0.00     0.292 C 
ATOM     13  O   UNL A   1      32.492  19.650  24.875  1.00  0.00    -0.265 OA
ATOM     14  H   UNL A   1      35.087  19.867  24.495  1.00  0.00     0.164 HD
BRANCH  12  15
ATOM     15  C   UNL A   1      32.460  21.468  23.353  1.00  0.00     0.252 C 
ATOM     16  O   UNL A   1      32.243  21.116  22.198  1.00  0.00    -0.283 OA
BRANCH  15  17
ATOM     17  C   UNL A   1      32.171  22.824  23.821  1.00  0.00     0.054 A 
ATOM     18  N   UNL A   1      31.984  25.048  23.912  1.00  0.00    -0.240 N 
ATOM     19  C   UNL A   1      32.528  24.006  23.195  1.00  0.00     0.117 A 
ATOM     20  C   UNL A   1      31.230  24.578  24.966  1.00  0.00     0.065 A 
ATOM     21  C   UNL A   1      31.374  23.184  24.954  1.00  0.00     0.012 A 
ATOM     22  C   UNL A   1      30.413  25.230  25.905  1.00  0.00     0.028 A 
ATOM     23  C   UNL A   1      30.696  22.423  25.929  1.00  0.00     0.011 A 
ATOM     24  C   UNL A   1      29.756  24.450  26.859  1.00  0.00     0.002 A 
ATOM     25  C   UNL A   1      29.899  23.067  26.878  1.00  0.00     0.001 A 
BRANCH  18  26
ATOM     26  S   UNL A   1      32.082  26.670  23.418  1.00  0.00     0.268 S 
ATOM     27  O   UNL A   1      30.723  27.028  23.053  1.00  0.00    -0.201 OA
ATOM     28  O   UNL A   1      33.243  26.734  22.562  1.00  0.00    -0.201 OA
BRANCH  26  29
ATOM     29  C   UNL A   1      32.503  27.730  24.738  1.00  0.00     0.088 A 
ATOM     30  C   UNL A   1      33.594  30.862  27.410  1.00  0.00     0.044 C 
ATOM     31  C   UNL A   1      33.196  29.736  26.508  1.00  0.00    -0.051 A 
ATOM     32  C   UNL A   1      32.032  29.866  25.744  1.00  0.00     0.005 A 
ATOM     33  C   UNL A   1      33.988  28.580  26.393  1.00  0.00     0.005 A 
ATOM     34  C   UNL A   1      31.683  28.862  24.860  1.00  0.00     0.022 A 
ATOM     35  C   UNL A   1      33.649  27.568  25.500  1.00  0.00     0.022 A 
ENDBRANCH  26  29
ENDBRANCH  18  26
ENDBRANCH  15  17
ENDBRANCH  12  15
ENDBRANCH  10  11
ENDBRANCH   7  10
ENDBRANCH   5   6
ENDBRANCH   3   5
ENDBRANCH   2   3
ENDBRANCH   1   2
BRANCH   1  36
ATOM     36  C   UNL A   1      42.502  20.217  26.252  1.00  0.00     0.202 C 
BRANCH  36  37
ATOM     37  O   UNL A   1      43.267  19.871  25.108  1.00  0.00    -0.374 OA
BRANCH  37  38
ATOM     38  C   UNL A   1      44.270  20.795  24.671  1.00  0.00     0.202 C 
BRANCH  38  39
ATOM     39  C   UNL A   1      45.359  21.261  25.666  1.00  0.00     0.261 C 
BRANCH  39  40
ATOM     40  O   UNL A   1      45.048  22.608  26.068  1.00  0.00    -0.460 OA
BRANCH  40  41
ATOM     41  C   UNL A   1      44.094  23.487  25.673  1.00  0.00     0.338 C 
ATOM     42  O   UNL A   1      44.303  24.064  24.606  1.00  0.00    -0.246 OA
BRANCH  41  43
ATOM     43  C   UNL A   1      43.035  24.056  26.636  1.00  0.00     0.060 A 
ATOM     44  C   UNL A   1      42.790  25.409  26.357  1.00  0.00     0.016 A 
ATOM     45  C   UNL A   1      43.288  23.815  27.972  1.00  0.00     0.016 A 
ATOM     46  C   UNL A   1      43.544  26.382  27.013  1.00  0.00     0.010 A 
ATOM     47  C   UNL A   1      44.091  24.732  28.636  1.00  0.00     0.010 A 
ATOM     48  C   UNL A   1      44.382  25.954  28.029  1.00  0.00    -0.014 A 
BRANCH  48  49
ATOM     49  C   UNL A   1      45.742  26.488  28.187  1.00  0.00     0.031 A 
ATOM     50  C   UNL A   1      46.834  26.103  27.258  1.00  0.00     0.074 A 
ATOM     51  C   UNL A   1      45.924  27.438  29.142  1.00  0.00     0.049 A 
ATOM     52  N   UNL A   1      48.089  26.127  27.549  1.00  0.00    -0.248 NA
ATOM     53  C   UNL A   1      46.598  25.570  25.920  1.00  0.00     0.031 C 
ATOM     54  C   UNL A   1      47.045  28.343  29.331  1.00  0.00     0.029 A 
ATOM     55  N   UNL A   1      45.132  27.699  30.258  1.00  0.00    -0.354 N 
ATOM     56  C   UNL A   1      48.817  25.886  26.392  1.00  0.00     0.074 A 
ATOM     57  C   UNL A   1      47.837  25.452  25.436  1.00  0.00     0.031 C 
ATOM     58  C   UNL A   1      47.025  28.815  30.592  1.00  0.00     0.029 A 
ATOM     59  C   UNL A   1      45.918  28.205  31.290  1.00  0.00     0.049 A 
ATOM     60  H   UNL A   1      44.161  27.549  30.309  1.00  0.00     0.167 HD
ATOM     61  C   UNL A   1      50.142  26.225  26.345  1.00  0.00     0.037 A 
ATOM     62  C   UNL A   1      46.013  27.521  32.466  1.00  0.00     0.037 A 
ATOM     63  C   UNL A   1      50.506  26.799  27.633  1.00  0.00     0.049 A 
ATOM     64  C   UNL A   1      47.379  26.847  32.588  1.00  0.00     0.074 A 
ATOM     65  C   UNL A   1      50.323  28.090  28.082  1.00  0.00     0.029 A 
ATOM     66  N   UNL A   1      50.627  26.003  28.762  1.00  0.00    -0.354 N 
ATOM     67  N   UNL A   1      48.240  26.751  31.605  1.00  0.00    -0.248 NA
ATOM     68  C   UNL A   1      47.903  26.251  33.812  1.00  0.00     0.031 C 
ATOM     69  C   UNL A   1      50.174  28.015  29.487  1.00  0.00     0.029 A 
ATOM     70  C   UNL A   1      50.461  26.740  29.924  1.00  0.00     0.049 A 
ATOM     71  H   UNL A   1      50.807  25.036  28.741  1.00  0.00     0.167 HD
ATOM     72  C   UNL A   1      49.424  26.213  32.041  1.00  0.00     0.074 A 
ATOM     73  C   UNL A   1      49.125  25.840  33.418  1.00  0.00     0.031 C 
ATOM     74  C   UNL A   1      50.553  26.146  31.256  1.00  0.00     0.037 A 
BRANCH  61  75
ATOM     75  C   UNL A   1      50.998  26.385  25.090  1.00  0.00     0.058 A 
ATOM     76  C   UNL A   1      52.259  25.746  24.991  1.00  0.00     0.135 A 
ATOM     77  C   UNL A   1      50.678  27.187  23.977  1.00  0.00     0.135 A 
ATOM     78  F   UNL A   1      52.666  24.866  25.918  1.00  0.00    -0.206 F 
ATOM     79  C   UNL A   1      53.157  25.967  23.937  1.00  0.00     0.059 A 
ATOM     80  C   UNL A   1      51.574  27.458  22.933  1.00  0.00     0.059 A 
ATOM     81  F   UNL A   1      49.456  27.701  23.808  1.00  0.00    -0.206 F 
ATOM     82  C   UNL A   1      52.818  26.850  22.922  1.00  0.00     0.060 A 
BRANCH  82  83
ATOM     83  S   UNL A   1      53.981  27.155  21.574  1.00  0.00     0.124 S 
ATOM     84  O   UNL A   1      53.855  28.594  21.370  1.00  0.00    -0.237 OA
ATOM     85  O   UNL A   1      55.244  26.702  22.148  1.00  0.00    -0.237 OA
ATOM     86  O   UNL A   1      53.465  26.330  20.484  1.00  0.00    -0.744 OA
ENDBRANCH  82  83
ENDBRANCH  61  75
BRANCH  62  87
ATOM     87  C   UNL A   1      44.665  27.062  32.944  1.00  0.00     0.058 A 
ATOM     88  C   UNL A   1      44.383  25.673  32.862  1.00  0.00     0.135 A 
ATOM     89  C   UNL A   1      43.865  27.805  33.817  1.00  0.00     0.135 A 
ATOM     90  F   UNL A   1      45.095  24.899  32.022  1.00  0.00    -0.206 F 
ATOM     91  C   UNL A   1      43.482  25.032  33.718  1.00  0.00     0.059 A 
ATOM     92  C   UNL A   1      42.936  27.185  34.671  1.00  0.00     0.059 A 
ATOM     93  F   UNL A   1      44.060  29.125  33.950  1.00  0.00    -0.206 F 
ATOM     94  C   UNL A   1      42.795  25.791  34.660  1.00  0.00     0.060 A 
BRANCH  94  95
ATOM     95  S   UNL A   1      41.887  24.928  35.989  1.00  0.00     0.124 S 
ATOM     96  O   UNL A   1      41.890  23.548  35.521  1.00  0.00    -0.237 OA
ATOM     97  O   UNL A   1      42.687  25.192  37.183  1.00  0.00    -0.237 OA
ATOM     98  O   UNL A   1      40.582  25.586  35.988  1.00  0.00    -0.744 OA
ENDBRANCH  94  95
ENDBRANCH  62  87
BRANCH  74  99
ATOM     99  C   UNL A   1      51.884  25.576  31.716  1.00  0.00     0.058 A 
ATOM    100  C   UNL A   1      53.091  26.292  31.686  1.00  0.00     0.135 A 
ATOM    101  C   UNL A   1      52.003  24.243  32.180  1.00  0.00     0.135 A 
ATOM    102  F   UNL A   1      53.185  27.470  31.049  1.00  0.00    -0.206 F 
ATOM    103  C   UNL A   1      54.257  25.818  32.294  1.00  0.00     0.059 A 
ATOM    104  C   UNL A   1      53.166  23.725  32.734  1.00  0.00     0.059 A 
ATOM    105  F   UNL A   1      50.985  23.375  32.163  1.00  0.00    -0.206 F 
ATOM    106  C   UNL A   1      54.265  24.550  32.865  1.00  0.00     0.060 A 
BRANCH 106 107
ATOM    107  S   UNL A   1      55.685  23.994  33.814  1.00  0.00     0.124 S 
ATOM    108  O   UNL A   1      55.414  22.571  33.986  1.00  0.00    -0.237 OA
ATOM    109  O   UNL A   1      56.782  24.326  32.910  1.00  0.00    -0.237 OA
ATOM    110  O   UNL A   1      55.617  24.793  35.034  1.00  0.00    -0.744 OA
ENDBRANCH 106 107
ENDBRANCH  74  99
ENDBRANCH  48  49
ENDBRANCH  41  43
ENDBRANCH  40  41
ENDBRANCH  39  40
ENDBRANCH  38  39
ENDBRANCH  37  38
ENDBRANCH  36  37
ENDBRANCH   1  36
TORSDOF 24
ENDMDL
