MODEL 1
REMARK VINA RESULT:     -11.3      0.000      0.000
REMARK SMILES Cc1cc2c(c(C)c1Br)C=C(C(=O)OCCOCCOC(=O)c1ccc(-c3c4nc(c(-c5c(F)cc(S(=O)(=O)[O-])cc5F)c5ccc([nH]5)c(-c5c(F)cc(S(=O)(=O)[O-])cc5F)c5nc(c(-c6c(F)cc(S(=O)(=O)[O-])cc6F)c6ccc3[nH]6)C=C5)C=C4)cc1)[C@@H](C(F)(F)F)O2
REMARK SMILES IDX 18 1 17 2 16 3 15 4 14 5 12 6 13 7 11 8 1 9 2 10 3 11 8 12
REMARK SMILES IDX 4 13 6 14 9 15 5 16 94 17 7 18 10 19 89 20 90 21 91 22 92 23
REMARK SMILES IDX 93 24 19 25 20 26 21 27 22 28 23 29 24 30 88 31 25 32 87 33
REMARK SMILES IDX 26 34 27 35 28 36 81 37 29 38 86 39 80 40 82 41 30 42 85 43
REMARK SMILES IDX 79 44 78 45 31 47 65 48 44 49 64 50 45 51 48 52 63 53 83 54
REMARK SMILES IDX 46 55 47 56 62 58 84 59 49 60 32 61 33 62 42 63 34 64 35 65
REMARK SMILES IDX 41 66 43 67 36 68 37 69 38 70 39 71 40 72 66 73 67 74 76 75
REMARK SMILES IDX 68 76 69 77 75 78 77 79 70 80 71 81 72 82 73 83 74 84 50 85
REMARK SMILES IDX 51 86 60 87 52 88 53 89 59 90 61 91 54 92 55 93 56 94 57 95
REMARK SMILES IDX 58 96
REMARK H PARENT 82 46 48 57
REMARK Flexibility Score: inf
ROOT
ATOM      1  C   UNL A   1      34.106  31.913  28.075  1.00  0.00     0.202 C 
ENDROOT
BRANCH   1   2
ATOM      2  O   UNL A   1      33.724  30.779  27.296  1.00  0.00    -0.374 OA
BRANCH   2   3
ATOM      3  C   UNL A   1      32.365  30.685  26.873  1.00  0.00     0.202 C 
BRANCH   3   4
ATOM      4  C   UNL A   1      32.060  29.717  25.726  1.00  0.00     0.261 C 
BRANCH   4   5
ATOM      5  O   UNL A   1      32.398  28.363  26.060  1.00  0.00    -0.460 OA
BRANCH   5   6
ATOM      6  C   UNL A   1      33.186  27.743  25.152  1.00  0.00     0.338 C 
ATOM      7  O   UNL A   1      34.015  28.263  24.421  1.00  0.00    -0.246 OA
BRANCH   6   8
ATOM      8  C   UNL A   1      33.014  26.282  25.254  1.00  0.00     0.087 C 
ATOM      9  C   UNL A   1      33.629  19.885  24.590  1.00  0.00     0.046 C 
ATOM     10  C   UNL A   1      33.837  21.346  24.887  1.00  0.00    -0.033 A 
ATOM     11  C   UNL A   1      32.702  22.160  25.002  1.00  0.00     0.051 A 
ATOM     12  C   UNL A   1      35.110  21.922  25.076  1.00  0.00     0.024 A 
ATOM     13  C   UNL A   1      32.822  23.533  25.201  1.00  0.00     0.128 A 
ATOM     14  C   UNL A   1      35.252  23.314  25.292  1.00  0.00    -0.026 A 
ATOM     15  Br  UNL A   1      36.645  20.777  25.027  1.00  0.00    -0.050 Br
ATOM     16  C   UNL A   1      34.085  24.122  25.300  1.00  0.00     0.021 A 
ATOM     17  O   UNL A   1      31.641  24.215  25.289  1.00  0.00    -0.475 OA
ATOM     18  C   UNL A   1      36.598  23.971  25.504  1.00  0.00     0.046 C 
ATOM     19  C   UNL A   1      34.150  25.578  25.342  1.00  0.00     0.027 C 
ATOM     20  C   UNL A   1      31.647  25.667  25.224  1.00  0.00     0.316 C 
BRANCH  20  21
ATOM     21  C   UNL A   1      30.825  26.097  24.000  1.00  0.00     0.430 C 
ATOM     22  F   UNL A   1      29.964  25.122  23.624  1.00  0.00    -0.167 F 
ATOM     23  F   UNL A   1      30.084  27.199  24.255  1.00  0.00    -0.167 F 
ATOM     24  F   UNL A   1      31.615  26.373  22.937  1.00  0.00    -0.167 F 
ENDBRANCH  20  21
ENDBRANCH   6   8
ENDBRANCH   5   6
ENDBRANCH   4   5
ENDBRANCH   3   4
ENDBRANCH   2   3
ENDBRANCH   1   2
BRANCH   1  25
ATOM     25  C   UNL A   1      35.151  31.703  29.180  1.00  0.00     0.261 C 
BRANCH  25  26
ATOM     26  O   UNL A   1      35.772  30.407  29.104  1.00  0.00    -0.460 OA
BRANCH  26  27
ATOM     27  C   UNL A   1      36.544  30.086  30.170  1.00  0.00     0.338 C 
ATOM     28  O   UNL A   1      36.162  29.743  31.281  1.00  0.00    -0.246 OA
BRANCH  27  29
ATOM     29  C   UNL A   1      37.956  30.012  29.764  1.00  0.00     0.060 A 
ATOM     30  C   UNL A   1      38.234  29.889  28.396  1.00  0.00     0.016 A 
ATOM     31  C   UNL A   1      38.986  29.970  30.706  1.00  0.00     0.016 A 
ATOM     32  C   UNL A   1      39.541  29.679  27.968  1.00  0.00     0.010 A 
ATOM     33  C   UNL A   1      40.298  29.745  30.274  1.00  0.00     0.010 A 
ATOM     34  C   UNL A   1      40.575  29.563  28.907  1.00  0.00    -0.014 A 
BRANCH  34  35
ATOM     35  C   UNL A   1      41.905  29.088  28.457  1.00  0.00     0.031 A 
ATOM     36  C   UNL A   1      43.050  30.063  28.422  1.00  0.00     0.074 A 
ATOM     37  C   UNL A   1      42.105  27.793  28.151  1.00  0.00     0.049 A 
ATOM     38  N   UNL A   1      44.299  29.862  28.094  1.00  0.00    -0.248 NA
ATOM     39  C   UNL A   1      42.748  31.450  28.814  1.00  0.00     0.031 C 
ATOM     40  C   UNL A   1      41.083  26.748  28.195  1.00  0.00     0.029 A 
ATOM     41  N   UNL A   1      43.242  27.136  27.753  1.00  0.00    -0.354 N 
ATOM     42  C   UNL A   1      44.934  31.089  28.250  1.00  0.00     0.074 A 
ATOM     43  C   UNL A   1      43.924  32.040  28.659  1.00  0.00     0.031 C 
ATOM     44  C   UNL A   1      41.641  25.577  27.843  1.00  0.00     0.029 A 
ATOM     45  C   UNL A   1      43.052  25.794  27.524  1.00  0.00     0.049 A 
ATOM     46  H   UNL A   1      44.111  27.583  27.641  1.00  0.00     0.167 HD
ATOM     47  C   UNL A   1      46.243  31.390  28.085  1.00  0.00     0.037 A 
ATOM     48  C   UNL A   1      43.916  24.851  27.097  1.00  0.00     0.037 A 
ATOM     49  C   UNL A   1      47.243  30.440  27.678  1.00  0.00     0.049 A 
ATOM     50  C   UNL A   1      45.349  25.233  26.826  1.00  0.00     0.074 A 
ATOM     51  C   UNL A   1      48.598  30.647  27.494  1.00  0.00     0.029 A 
ATOM     52  N   UNL A   1      46.996  29.107  27.385  1.00  0.00    -0.354 N 
ATOM     53  N   UNL A   1      45.939  26.392  26.997  1.00  0.00    -0.248 NA
ATOM     54  C   UNL A   1      46.232  24.182  26.298  1.00  0.00     0.031 C 
ATOM     55  C   UNL A   1      49.164  29.449  27.043  1.00  0.00     0.029 A 
ATOM     56  C   UNL A   1      48.169  28.486  26.990  1.00  0.00     0.049 A 
ATOM     57  H   UNL A   1      46.117  28.669  27.448  1.00  0.00     0.167 HD
ATOM     58  C   UNL A   1      47.264  26.206  26.613  1.00  0.00     0.074 A 
ATOM     59  C   UNL A   1      47.393  24.820  26.214  1.00  0.00     0.031 C 
ATOM     60  C   UNL A   1      48.280  27.104  26.593  1.00  0.00     0.037 A 
BRANCH  47  61
ATOM     61  C   UNL A   1      46.670  32.808  28.340  1.00  0.00     0.058 A 
ATOM     62  C   UNL A   1      47.119  33.223  29.603  1.00  0.00     0.135 A 
ATOM     63  C   UNL A   1      46.674  33.751  27.299  1.00  0.00     0.135 A 
ATOM     64  F   UNL A   1      47.118  32.366  30.636  1.00  0.00    -0.206 F 
ATOM     65  C   UNL A   1      47.541  34.528  29.831  1.00  0.00     0.059 A 
ATOM     66  C   UNL A   1      47.114  35.056  27.499  1.00  0.00     0.059 A 
ATOM     67  F   UNL A   1      46.249  33.407  26.073  1.00  0.00    -0.206 F 
ATOM     68  C   UNL A   1      47.537  35.437  28.772  1.00  0.00     0.060 A 
BRANCH  68  69
ATOM     69  S   UNL A   1      48.099  37.124  29.086  1.00  0.00     0.124 S 
ATOM     70  O   UNL A   1      47.622  37.816  27.892  1.00  0.00    -0.237 OA
ATOM     71  O   UNL A   1      47.410  37.455  30.328  1.00  0.00    -0.237 OA
ATOM     72  O   UNL A   1      49.549  36.987  29.192  1.00  0.00    -0.744 OA
ENDBRANCH  68  69
ENDBRANCH  47  61
BRANCH  48  73
ATOM     73  C   UNL A   1      43.450  23.453  26.900  1.00  0.00     0.058 A 
ATOM     74  C   UNL A   1      43.160  22.962  25.619  1.00  0.00     0.135 A 
ATOM     75  C   UNL A   1      43.301  22.576  27.985  1.00  0.00     0.135 A 
ATOM     76  F   UNL A   1      43.276  23.766  24.551  1.00  0.00    -0.206 F 
ATOM     77  C   UNL A   1      42.736  21.652  25.420  1.00  0.00     0.059 A 
ATOM     78  C   UNL A   1      42.899  21.255  27.810  1.00  0.00     0.059 A 
ATOM     79  F   UNL A   1      43.571  22.996  29.232  1.00  0.00    -0.206 F 
ATOM     80  C   UNL A   1      42.614  20.804  26.523  1.00  0.00     0.060 A 
BRANCH  80  81
ATOM     81  S   UNL A   1      42.118  19.090  26.243  1.00  0.00     0.124 S 
ATOM     82  O   UNL A   1      42.311  18.508  27.565  1.00  0.00    -0.237 OA
ATOM     83  O   UNL A   1      40.732  19.242  25.807  1.00  0.00    -0.237 OA
ATOM     84  O   UNL A   1      43.045  18.636  25.210  1.00  0.00    -0.744 OA
ENDBRANCH  80  81
ENDBRANCH  48  73
BRANCH  60  85
ATOM     85  C   UNL A   1      49.627  26.632  26.121  1.00  0.00     0.058 A 
ATOM     86  C   UNL A   1      50.078  26.899  24.820  1.00  0.00     0.135 A 
ATOM     87  C   UNL A   1      50.518  26.008  27.010  1.00  0.00     0.135 A 
ATOM     88  F   UNL A   1      49.262  27.486  23.930  1.00  0.00    -0.206 F 
ATOM     89  C   UNL A   1      51.366  26.565  24.415  1.00  0.00     0.059 A 
ATOM     90  C   UNL A   1      51.820  25.687  26.634  1.00  0.00     0.059 A 
ATOM     91  F   UNL A   1      50.139  25.739  28.269  1.00  0.00    -0.206 F 
ATOM     92  C   UNL A   1      52.234  25.970  25.333  1.00  0.00     0.060 A 
BRANCH  92  93
ATOM     93  S   UNL A   1      53.927  25.618  24.813  1.00  0.00     0.124 S 
ATOM     94  O   UNL A   1      53.901  26.042  23.417  1.00  0.00    -0.237 OA
ATOM     95  O   UNL A   1      54.709  26.455  25.717  1.00  0.00    -0.237 OA
ATOM     96  O   UNL A   1      54.057  24.180  25.029  1.00  0.00    -0.744 OA
ENDBRANCH  92  93
ENDBRANCH  60  85
ENDBRANCH  34  35
ENDBRANCH  27  29
ENDBRANCH  26  27
ENDBRANCH  25  26
ENDBRANCH   1  25
TORSDOF 18
ENDMDL
MODEL 2
REMARK VINA RESULT:     -11.2      1.212      1.923
REMARK SMILES Cc1cc2c(c(C)c1Br)C=C(C(=O)OCCOCCOC(=O)c1ccc(-c3c4nc(c(-c5c(F)cc(S(=O)(=O)[O-])cc5F)c5ccc([nH]5)c(-c5c(F)cc(S(=O)(=O)[O-])cc5F)c5nc(c(-c6c(F)cc(S(=O)(=O)[O-])cc6F)c6ccc3[nH]6)C=C5)C=C4)cc1)[C@@H](C(F)(F)F)O2
REMARK SMILES IDX 18 1 17 2 16 3 15 4 14 5 12 6 13 7 11 8 1 9 2 10 3 11 8 12
REMARK SMILES IDX 4 13 6 14 9 15 5 16 94 17 7 18 10 19 89 20 90 21 91 22 92 23
REMARK SMILES IDX 93 24 19 25 20 26 21 27 22 28 23 29 24 30 88 31 25 32 87 33
REMARK SMILES IDX 26 34 27 35 28 36 81 37 29 38 86 39 80 40 82 41 30 42 85 43
REMARK SMILES IDX 79 44 78 45 31 47 65 48 44 49 64 50 45 51 48 52 63 53 83 54
REMARK SMILES IDX 46 55 47 56 62 58 84 59 49 60 32 61 33 62 42 63 34 64 35 65
REMARK SMILES IDX 41 66 43 67 36 68 37 69 38 70 39 71 40 72 66 73 67 74 76 75
REMARK SMILES IDX 68 76 69 77 75 78 77 79 70 80 71 81 72 82 73 83 74 84 50 85
REMARK SMILES IDX 51 86 60 87 52 88 53 89 59 90 61 91 54 92 55 93 56 94 57 95
REMARK SMILES IDX 58 96
REMARK H PARENT 82 46 48 57
REMARK Flexibility Score: inf
ROOT
ATOM      1  C   UNL A   1      33.555  30.443  27.044  1.00  0.00     0.202 C 
ENDROOT
BRANCH   1   2
ATOM      2  O   UNL A   1      32.235  29.935  27.243  1.00  0.00    -0.374 OA
BRANCH   2   3
ATOM      3  C   UNL A   1      32.055  28.520  27.237  1.00  0.00     0.202 C 
BRANCH   3   4
ATOM      4  C   UNL A   1      32.031  27.828  25.870  1.00  0.00     0.261 C 
BRANCH   4   5
ATOM      5  O   UNL A   1      32.653  26.536  25.910  1.00  0.00    -0.460 OA
BRANCH   5   6
ATOM      6  C   UNL A   1      33.501  26.291  24.886  1.00  0.00     0.338 C 
ATOM      7  O   UNL A   1      33.915  27.096  24.065  1.00  0.00    -0.246 OA
BRANCH   6   8
ATOM      8  C   UNL A   1      33.997  24.904  24.966  1.00  0.00     0.087 C 
ATOM      9  C   UNL A   1      37.659  19.586  24.757  1.00  0.00     0.046 C 
ATOM     10  C   UNL A   1      37.063  20.934  25.064  1.00  0.00    -0.033 A 
ATOM     11  C   UNL A   1      35.714  21.142  24.746  1.00  0.00     0.051 A 
ATOM     12  C   UNL A   1      37.789  21.979  25.672  1.00  0.00     0.024 A 
ATOM     13  C   UNL A   1      35.118  22.387  24.932  1.00  0.00     0.128 A 
ATOM     14  C   UNL A   1      37.196  23.248  25.882  1.00  0.00    -0.026 A 
ATOM     15  Br  UNL A   1      39.599  21.644  26.203  1.00  0.00    -0.050 Br
ATOM     16  C   UNL A   1      35.859  23.451  25.453  1.00  0.00     0.021 A 
ATOM     17  O   UNL A   1      33.800  22.461  24.577  1.00  0.00    -0.475 OA
ATOM     18  C   UNL A   1      37.937  24.393  26.535  1.00  0.00     0.046 C 
ATOM     19  C   UNL A   1      35.230  24.767  25.470  1.00  0.00     0.027 C 
ATOM     20  C   UNL A   1      33.160  23.762  24.474  1.00  0.00     0.316 C 
BRANCH  20  21
ATOM     21  C   UNL A   1      32.684  23.950  23.026  1.00  0.00     0.430 C 
ATOM     22  F   UNL A   1      33.640  24.543  22.272  1.00  0.00    -0.167 F 
ATOM     23  F   UNL A   1      32.394  22.769  22.435  1.00  0.00    -0.167 F 
ATOM     24  F   UNL A   1      31.576  24.724  22.958  1.00  0.00    -0.167 F 
ENDBRANCH  20  21
ENDBRANCH   6   8
ENDBRANCH   5   6
ENDBRANCH   4   5
ENDBRANCH   3   4
ENDBRANCH   2   3
ENDBRANCH   1   2
BRANCH   1  25
ATOM     25  C   UNL A   1      34.657  29.966  27.999  1.00  0.00     0.261 C 
BRANCH  25  26
ATOM     26  O   UNL A   1      35.638  30.989  28.254  1.00  0.00    -0.460 OA
BRANCH  26  27
ATOM     27  C   UNL A   1      36.404  30.777  29.351  1.00  0.00     0.338 C 
ATOM     28  O   UNL A   1      36.104  31.003  30.516  1.00  0.00    -0.246 OA
BRANCH  27  29
ATOM     29  C   UNL A   1      37.619  30.035  28.980  1.00  0.00     0.060 A 
ATOM     30  C   UNL A   1      38.493  29.659  30.010  1.00  0.00     0.016 A 
ATOM     31  C   UNL A   1      37.946  29.792  27.645  1.00  0.00     0.016 A 
ATOM     32  C   UNL A   1      39.719  29.077  29.704  1.00  0.00     0.010 A 
ATOM     33  C   UNL A   1      39.186  29.218  27.340  1.00  0.00     0.010 A 
ATOM     34  C   UNL A   1      40.091  28.892  28.365  1.00  0.00    -0.014 A 
BRANCH  34  35
ATOM     35  C   UNL A   1      41.490  28.515  28.054  1.00  0.00     0.031 A 
ATOM     36  C   UNL A   1      42.558  29.574  28.114  1.00  0.00     0.074 A 
ATOM     37  C   UNL A   1      41.816  27.236  27.791  1.00  0.00     0.049 A 
ATOM     38  N   UNL A   1      43.844  29.465  27.912  1.00  0.00    -0.248 NA
ATOM     39  C   UNL A   1      42.115  30.938  28.451  1.00  0.00     0.031 C 
ATOM     40  C   UNL A   1      40.875  26.117  27.753  1.00  0.00     0.029 A 
ATOM     41  N   UNL A   1      43.032  26.663  27.516  1.00  0.00    -0.354 N 
ATOM     42  C   UNL A   1      44.367  30.739  28.107  1.00  0.00     0.074 A 
ATOM     43  C   UNL A   1      43.254  31.614  28.401  1.00  0.00     0.031 C 
ATOM     44  C   UNL A   1      41.551  24.989  27.477  1.00  0.00     0.029 A 
ATOM     45  C   UNL A   1      42.966  25.309  27.292  1.00  0.00     0.049 A 
ATOM     46  H   UNL A   1      43.872  27.174  27.481  1.00  0.00     0.167 HD
ATOM     47  C   UNL A   1      45.660  31.137  28.065  1.00  0.00     0.037 A 
ATOM     48  C   UNL A   1      43.936  24.431  26.966  1.00  0.00     0.037 A 
ATOM     49  C   UNL A   1      46.763  30.261  27.773  1.00  0.00     0.049 A 
ATOM     50  C   UNL A   1      45.356  24.918  26.829  1.00  0.00     0.074 A 
ATOM     51  C   UNL A   1      48.111  30.569  27.717  1.00  0.00     0.029 A 
ATOM     52  N   UNL A   1      46.646  28.911  27.479  1.00  0.00    -0.354 N 
ATOM     53  N   UNL A   1      45.838  26.119  27.037  1.00  0.00    -0.248 NA
ATOM     54  C   UNL A   1      46.362  23.932  26.406  1.00  0.00     0.031 C 
ATOM     55  C   UNL A   1      48.805  29.413  27.344  1.00  0.00     0.029 A 
ATOM     56  C   UNL A   1      47.895  28.377  27.210  1.00  0.00     0.049 A 
ATOM     57  H   UNL A   1      45.801  28.407  27.465  1.00  0.00     0.167 HD
ATOM     58  C   UNL A   1      47.204  26.031  26.786  1.00  0.00     0.074 A 
ATOM     59  C   UNL A   1      47.475  24.656  26.424  1.00  0.00     0.031 C 
ATOM     60  C   UNL A   1      48.148  27.003  26.849  1.00  0.00     0.037 A 
BRANCH  47  61
ATOM     61  C   UNL A   1      45.952  32.585  28.336  1.00  0.00     0.058 A 
ATOM     62  C   UNL A   1      46.273  33.039  29.625  1.00  0.00     0.135 A 
ATOM     63  C   UNL A   1      45.958  33.521  27.289  1.00  0.00     0.135 A 
ATOM     64  F   UNL A   1      46.265  32.190  30.663  1.00  0.00    -0.206 F 
ATOM     65  C   UNL A   1      46.573  34.376  29.870  1.00  0.00     0.059 A 
ATOM     66  C   UNL A   1      46.277  34.858  27.508  1.00  0.00     0.059 A 
ATOM     67  F   UNL A   1      45.653  33.139  26.039  1.00  0.00    -0.206 F 
ATOM     68  C   UNL A   1      46.573  35.277  28.804  1.00  0.00     0.060 A 
BRANCH  68  69
ATOM     69  S   UNL A   1      46.976  37.005  29.141  1.00  0.00     0.124 S 
ATOM     70  O   UNL A   1      46.731  37.085  30.578  1.00  0.00    -0.237 OA
ATOM     71  O   UNL A   1      48.373  37.083  28.730  1.00  0.00    -0.237 OA
ATOM     72  O   UNL A   1      46.035  37.744  28.304  1.00  0.00    -0.744 OA
ENDBRANCH  68  69
ENDBRANCH  47  61
BRANCH  48  73
ATOM     73  C   UNL A   1      43.597  22.999  26.748  1.00  0.00     0.058 A 
ATOM     74  C   UNL A   1      43.687  22.421  25.474  1.00  0.00     0.135 A 
ATOM     75  C   UNL A   1      43.192  22.178  27.811  1.00  0.00     0.135 A 
ATOM     76  F   UNL A   1      44.058  23.169  24.424  1.00  0.00    -0.206 F 
ATOM     77  C   UNL A   1      43.385  21.081  25.259  1.00  0.00     0.059 A 
ATOM     78  C   UNL A   1      42.906  20.829  27.626  1.00  0.00     0.059 A 
ATOM     79  F   UNL A   1      43.094  22.681  29.052  1.00  0.00    -0.206 F 
ATOM     80  C   UNL A   1      43.001  20.290  26.345  1.00  0.00     0.060 A 
BRANCH  80  81
ATOM     81  S   UNL A   1      42.668  18.537  26.061  1.00  0.00     0.124 S 
ATOM     82  O   UNL A   1      43.565  18.244  24.950  1.00  0.00    -0.237 OA
ATOM     83  O   UNL A   1      43.029  17.947  27.347  1.00  0.00    -0.237 OA
ATOM     84  O   UNL A   1      41.243  18.513  25.746  1.00  0.00    -0.744 OA
ENDBRANCH  80  81
ENDBRANCH  48  73
BRANCH  60  85
ATOM     85  C   UNL A   1      49.566  26.631  26.518  1.00  0.00     0.058 A 
ATOM     86  C   UNL A   1      50.367  25.931  27.432  1.00  0.00     0.135 A 
ATOM     87  C   UNL A   1      50.090  26.875  25.238  1.00  0.00     0.135 A 
ATOM     88  F   UNL A   1      49.916  25.679  28.672  1.00  0.00    -0.206 F 
ATOM     89  C   UNL A   1      51.639  25.485  27.089  1.00  0.00     0.059 A 
ATOM     90  C   UNL A   1      51.350  26.417  24.865  1.00  0.00     0.059 A 
ATOM     91  F   UNL A   1      49.359  27.533  24.323  1.00  0.00    -0.206 F 
ATOM     92  C   UNL A   1      52.117  25.722  25.799  1.00  0.00     0.060 A 
BRANCH  92  93
ATOM     93  S   UNL A   1      53.737  25.065  25.347  1.00  0.00     0.124 S 
ATOM     94  O   UNL A   1      53.882  25.553  23.979  1.00  0.00    -0.237 OA
ATOM     95  O   UNL A   1      54.611  25.686  26.337  1.00  0.00    -0.237 OA
ATOM     96  O   UNL A   1      53.570  23.621  25.484  1.00  0.00    -0.744 OA
ENDBRANCH  92  93
ENDBRANCH  60  85
ENDBRANCH  34  35
ENDBRANCH  27  29
ENDBRANCH  26  27
ENDBRANCH  25  26
ENDBRANCH   1  25
TORSDOF 18
ENDMDL
MODEL 3
REMARK VINA RESULT:     -11.1      1.232      2.053
REMARK SMILES Cc1cc2c(c(C)c1Br)C=C(C(=O)OCCOCCOC(=O)c1ccc(-c3c4nc(c(-c5c(F)cc(S(=O)(=O)[O-])cc5F)c5ccc([nH]5)c(-c5c(F)cc(S(=O)(=O)[O-])cc5F)c5nc(c(-c6c(F)cc(S(=O)(=O)[O-])cc6F)c6ccc3[nH]6)C=C5)C=C4)cc1)[C@@H](C(F)(F)F)O2
REMARK SMILES IDX 18 1 17 2 16 3 15 4 14 5 12 6 13 7 11 8 1 9 2 10 3 11 8 12
REMARK SMILES IDX 4 13 6 14 9 15 5 16 94 17 7 18 10 19 89 20 90 21 91 22 92 23
REMARK SMILES IDX 93 24 19 25 20 26 21 27 22 28 23 29 24 30 88 31 25 32 87 33
REMARK SMILES IDX 26 34 27 35 28 36 81 37 29 38 86 39 80 40 82 41 30 42 85 43
REMARK SMILES IDX 79 44 78 45 31 47 65 48 44 49 64 50 45 51 48 52 63 53 83 54
REMARK SMILES IDX 46 55 47 56 62 58 84 59 49 60 32 61 33 62 42 63 34 64 35 65
REMARK SMILES IDX 41 66 43 67 36 68 37 69 38 70 39 71 40 72 66 73 67 74 76 75
REMARK SMILES IDX 68 76 69 77 75 78 77 79 70 80 71 81 72 82 73 83 74 84 50 85
REMARK SMILES IDX 51 86 60 87 52 88 53 89 59 90 61 91 54 92 55 93 56 94 57 95
REMARK SMILES IDX 58 96
REMARK H PARENT 82 46 48 57
REMARK Flexibility Score: inf
ROOT
ATOM      1  C   UNL A   1      34.269  32.215  27.867  1.00  0.00     0.202 C 
ENDROOT
BRANCH   1   2
ATOM      2  O   UNL A   1      33.017  31.755  27.357  1.00  0.00    -0.374 OA
BRANCH   2   3
ATOM      3  C   UNL A   1      32.910  30.382  26.985  1.00  0.00     0.202 C 
BRANCH   3   4
ATOM      4  C   UNL A   1      32.024  30.056  25.778  1.00  0.00     0.261 C 
BRANCH   4   5
ATOM      5  O   UNL A   1      31.515  28.715  25.831  1.00  0.00    -0.460 OA
BRANCH   5   6
ATOM      6  C   UNL A   1      31.091  28.230  24.642  1.00  0.00     0.338 C 
ATOM      7  O   UNL A   1      30.223  28.702  23.923  1.00  0.00    -0.246 OA
BRANCH   6   8
ATOM      8  C   UNL A   1      31.937  27.093  24.234  1.00  0.00     0.087 C 
ATOM      9  C   UNL A   1      36.099  22.154  24.144  1.00  0.00     0.046 C 
ATOM     10  C   UNL A   1      34.944  23.081  24.410  1.00  0.00    -0.033 A 
ATOM     11  C   UNL A   1      34.681  24.088  23.470  1.00  0.00     0.051 A 
ATOM     12  C   UNL A   1      34.107  22.968  25.539  1.00  0.00     0.024 A 
ATOM     13  C   UNL A   1      33.676  25.027  23.689  1.00  0.00     0.128 A 
ATOM     14  C   UNL A   1      33.072  23.905  25.772  1.00  0.00    -0.026 A 
ATOM     15  Br  UNL A   1      34.409  21.520  26.757  1.00  0.00    -0.050 Br
ATOM     16  C   UNL A   1      32.902  24.971  24.850  1.00  0.00     0.021 A 
ATOM     17  O   UNL A   1      33.526  25.959  22.701  1.00  0.00    -0.475 OA
ATOM     18  C   UNL A   1      32.150  23.818  26.968  1.00  0.00     0.046 C 
ATOM     19  C   UNL A   1      31.980  26.074  25.101  1.00  0.00     0.027 C 
ATOM     20  C   UNL A   1      32.703  27.132  22.946  1.00  0.00     0.316 C 
BRANCH  20  21
ATOM     21  C   UNL A   1      33.592  28.379  22.817  1.00  0.00     0.430 C 
ATOM     22  F   UNL A   1      32.845  29.488  22.602  1.00  0.00    -0.167 F 
ATOM     23  F   UNL A   1      34.311  28.600  23.940  1.00  0.00    -0.167 F 
ATOM     24  F   UNL A   1      34.463  28.269  21.788  1.00  0.00    -0.167 F 
ENDBRANCH  20  21
ENDBRANCH   6   8
ENDBRANCH   5   6
ENDBRANCH   4   5
ENDBRANCH   3   4
ENDBRANCH   2   3
ENDBRANCH   1   2
BRANCH   1  25
ATOM     25  C   UNL A   1      34.791  31.580  29.163  1.00  0.00     0.261 C 
BRANCH  25  26
ATOM     26  O   UNL A   1      35.735  30.522  28.911  1.00  0.00    -0.460 OA
BRANCH  26  27
ATOM     27  C   UNL A   1      36.440  30.123  29.997  1.00  0.00     0.338 C 
ATOM     28  O   UNL A   1      35.991  29.717  31.060  1.00  0.00    -0.246 OA
BRANCH  27  29
ATOM     29  C   UNL A   1      37.872  30.052  29.668  1.00  0.00     0.060 A 
ATOM     30  C   UNL A   1      38.224  29.936  28.316  1.00  0.00     0.016 A 
ATOM     31  C   UNL A   1      38.849  30.006  30.664  1.00  0.00     0.016 A 
ATOM     32  C   UNL A   1      39.553  29.730  27.959  1.00  0.00     0.010 A 
ATOM     33  C   UNL A   1      40.183  29.785  30.303  1.00  0.00     0.010 A 
ATOM     34  C   UNL A   1      40.534  29.610  28.953  1.00  0.00    -0.014 A 
BRANCH  34  35
ATOM     35  C   UNL A   1      41.887  29.138  28.573  1.00  0.00     0.031 A 
ATOM     36  C   UNL A   1      43.039  30.104  28.642  1.00  0.00     0.074 A 
ATOM     37  C   UNL A   1      42.099  27.851  28.240  1.00  0.00     0.049 A 
ATOM     38  N   UNL A   1      44.305  29.903  28.388  1.00  0.00    -0.248 NA
ATOM     39  C   UNL A   1      42.720  31.481  29.058  1.00  0.00     0.031 C 
ATOM     40  C   UNL A   1      41.069  26.814  28.185  1.00  0.00     0.029 A 
ATOM     41  N   UNL A   1      43.254  27.198  27.894  1.00  0.00    -0.354 N 
ATOM     42  C   UNL A   1      44.936  31.120  28.623  1.00  0.00     0.074 A 
ATOM     43  C   UNL A   1      43.908  32.066  28.997  1.00  0.00     0.031 C 
ATOM     44  C   UNL A   1      41.642  25.651  27.833  1.00  0.00     0.029 A 
ATOM     45  C   UNL A   1      43.071  25.865  27.611  1.00  0.00     0.049 A 
ATOM     46  H   UNL A   1      44.132  27.641  27.852  1.00  0.00     0.167 HD
ATOM     47  C   UNL A   1      46.254  31.415  28.551  1.00  0.00     0.037 A 
ATOM     48  C   UNL A   1      43.955  24.930  27.210  1.00  0.00     0.037 A 
ATOM     49  C   UNL A   1      47.273  30.470  28.179  1.00  0.00     0.049 A 
ATOM     50  C   UNL A   1      45.405  25.308  27.043  1.00  0.00     0.074 A 
ATOM     51  C   UNL A   1      48.638  30.671  28.088  1.00  0.00     0.029 A 
ATOM     52  N   UNL A   1      47.036  29.149  27.828  1.00  0.00    -0.354 N 
ATOM     53  N   UNL A   1      45.990  26.456  27.288  1.00  0.00    -0.248 NA
ATOM     54  C   UNL A   1      46.313  24.267  26.539  1.00  0.00     0.031 C 
ATOM     55  C   UNL A   1      49.224  29.484  27.637  1.00  0.00     0.029 A 
ATOM     56  C   UNL A   1      48.228  28.531  27.489  1.00  0.00     0.049 A 
ATOM     57  H   UNL A   1      46.153  28.716  27.822  1.00  0.00     0.167 HD
ATOM     58  C   UNL A   1      47.335  26.271  26.984  1.00  0.00     0.074 A 
ATOM     59  C   UNL A   1      47.481  24.898  26.549  1.00  0.00     0.031 C 
ATOM     60  C   UNL A   1      48.356  27.161  27.056  1.00  0.00     0.037 A 
BRANCH  47  61
ATOM     61  C   UNL A   1      46.673  32.821  28.878  1.00  0.00     0.058 A 
ATOM     62  C   UNL A   1      46.723  33.818  27.892  1.00  0.00     0.135 A 
ATOM     63  C   UNL A   1      46.981  33.186  30.198  1.00  0.00     0.135 A 
ATOM     64  F   UNL A   1      46.455  33.519  26.612  1.00  0.00    -0.206 F 
ATOM     65  C   UNL A   1      47.082  35.127  28.201  1.00  0.00     0.059 A 
ATOM     66  C   UNL A   1      47.320  34.493  30.534  1.00  0.00     0.059 A 
ATOM     67  F   UNL A   1      46.953  32.268  31.178  1.00  0.00    -0.206 F 
ATOM     68  C   UNL A   1      47.378  35.454  29.525  1.00  0.00     0.060 A 
BRANCH  68  69
ATOM     69  S   UNL A   1      47.830  37.160  29.907  1.00  0.00     0.124 S 
ATOM     70  O   UNL A   1      46.919  37.903  29.043  1.00  0.00    -0.237 OA
ATOM     71  O   UNL A   1      47.555  37.241  31.338  1.00  0.00    -0.237 OA
ATOM     72  O   UNL A   1      49.241  37.230  29.537  1.00  0.00    -0.744 OA
ENDBRANCH  68  69
ENDBRANCH  47  61
BRANCH  48  73
ATOM     73  C   UNL A   1      43.494  23.542  26.939  1.00  0.00     0.058 A 
ATOM     74  C   UNL A   1      43.270  23.098  25.628  1.00  0.00     0.135 A 
ATOM     75  C   UNL A   1      43.284  22.628  27.983  1.00  0.00     0.135 A 
ATOM     76  F   UNL A   1      43.445  23.938  24.597  1.00  0.00    -0.206 F 
ATOM     77  C   UNL A   1      42.851  21.799  25.361  1.00  0.00     0.059 A 
ATOM     78  C   UNL A   1      42.886  21.318  27.740  1.00  0.00     0.059 A 
ATOM     79  F   UNL A   1      43.490  23.003  29.256  1.00  0.00    -0.206 F 
ATOM     80  C   UNL A   1      42.667  20.913  26.425  1.00  0.00     0.060 A 
BRANCH  80  81
ATOM     81  S   UNL A   1      42.179  19.213  26.059  1.00  0.00     0.124 S 
ATOM     82  O   UNL A   1      43.006  18.913  24.897  1.00  0.00    -0.237 OA
ATOM     83  O   UNL A   1      42.536  18.522  27.294  1.00  0.00    -0.237 OA
ATOM     84  O   UNL A   1      40.746  19.324  25.802  1.00  0.00    -0.744 OA
ENDBRANCH  80  81
ENDBRANCH  48  73
BRANCH  60  85
ATOM     85  C   UNL A   1      49.728  26.693  26.657  1.00  0.00     0.058 A 
ATOM     86  C   UNL A   1      50.572  26.046  27.571  1.00  0.00     0.135 A 
ATOM     87  C   UNL A   1      50.157  26.791  25.323  1.00  0.00     0.135 A 
ATOM     88  F   UNL A   1      50.212  25.933  28.860  1.00  0.00    -0.206 F 
ATOM     89  C   UNL A   1      51.793  25.510  27.178  1.00  0.00     0.059 A 
ATOM     90  C   UNL A   1      51.364  26.241  24.901  1.00  0.00     0.059 A 
ATOM     91  F   UNL A   1      49.382  27.392  24.406  1.00  0.00    -0.206 F 
ATOM     92  C   UNL A   1      52.176  25.603  25.839  1.00  0.00     0.060 A 
BRANCH  92  93
ATOM     93  S   UNL A   1      53.728  24.831  25.331  1.00  0.00     0.124 S 
ATOM     94  O   UNL A   1      54.553  25.021  26.520  1.00  0.00    -0.237 OA
ATOM     95  O   UNL A   1      53.317  23.459  25.057  1.00  0.00    -0.237 OA
ATOM     96  O   UNL A   1      54.128  25.607  24.160  1.00  0.00    -0.744 OA
ENDBRANCH  92  93
ENDBRANCH  60  85
ENDBRANCH  34  35
ENDBRANCH  27  29
ENDBRANCH  26  27
ENDBRANCH  25  26
ENDBRANCH   1  25
TORSDOF 18
ENDMDL
