MODEL 1
REMARK VINA RESULT:     -10.5      0.000      0.000
REMARK SMILES CCOC(=O)c1cccc(Nc2c(-c3ccc(C(=O)OCCOCCOC(=O)c4ccc(-c5c6nc(c(-c7c(F)cc(S(=O)(=O)[O-])cc7F)c7ccc([nH]7)c(-c7c(F)cc(S(=O)(=O)[O-])cc7F)c7nc(c(-c8c(F)cc(S(=O)(=O)[O-])cc8F)c8ccc5[nH]8)C=C7)C=C6)cc4)cc3)nc3cnccn23)c1
REMARK SMILES IDX 21 1 20 2 18 3 19 4 17 5 14 6 15 7 96 8 16 9 95 10 13 11
REMARK SMILES IDX 12 12 103 13 97 14 98 15 102 16 99 17 101 18 100 19 11 20
REMARK SMILES IDX 10 22 6 23 7 24 104 25 8 26 9 27 4 28 5 29 3 30 2 31 1 32
REMARK SMILES IDX 22 33 23 34 24 35 25 36 26 37 27 38 28 39 29 40 30 41 94 42
REMARK SMILES IDX 31 43 93 44 32 45 33 46 34 47 87 48 35 49 92 50 86 51 88 52
REMARK SMILES IDX 36 53 91 54 85 55 84 56 37 58 71 59 50 60 70 61 51 62 54 63
REMARK SMILES IDX 69 64 89 65 52 66 53 67 68 69 90 70 55 71 38 72 39 73 48 74
REMARK SMILES IDX 40 75 41 76 47 77 49 78 42 79 43 80 44 81 45 82 46 83 72 84
REMARK SMILES IDX 73 85 82 86 74 87 75 88 81 89 83 90 76 91 77 92 78 93 79 94
REMARK SMILES IDX 80 95 56 96 57 97 66 98 58 99 59 100 65 101 67 102 60 103
REMARK SMILES IDX 61 104 62 105 63 106 64 107
REMARK H PARENT 11 21 88 57 54 68
REMARK Flexibility Score: inf
ROOT
ATOM      1  C   UNL A   1      36.835  33.066  30.110  1.00  0.00     0.261 C 
ENDROOT
BRANCH   1   2
ATOM      2  O   UNL A   1      36.387  31.710  29.941  1.00  0.00    -0.460 OA
BRANCH   2   3
ATOM      3  C   UNL A   1      36.649  31.173  28.726  1.00  0.00     0.338 C 
ATOM      4  O   UNL A   1      37.750  30.994  28.225  1.00  0.00    -0.246 OA
BRANCH   3   5
ATOM      5  C   UNL A   1      35.405  30.664  28.104  1.00  0.00     0.060 A 
ATOM      6  C   UNL A   1      33.187  29.620  26.743  1.00  0.00     0.004 A 
ATOM      7  C   UNL A   1      34.325  28.828  26.945  1.00  0.00     0.011 A 
ATOM      8  C   UNL A   1      33.148  30.919  27.271  1.00  0.00     0.011 A 
ATOM      9  C   UNL A   1      35.430  29.352  27.615  1.00  0.00     0.016 A 
ATOM     10  C   UNL A   1      34.249  31.440  27.965  1.00  0.00     0.016 A 
BRANCH   6  11
ATOM     11  C   UNL A   1      32.134  29.159  25.860  1.00  0.00     0.114 A 
ATOM     12  C   UNL A   1      31.696  27.848  25.690  1.00  0.00     0.143 A 
ATOM     13  N   UNL A   1      30.784  27.933  24.652  1.00  0.00    -0.283 N 
ATOM     14  N   UNL A   1      31.559  30.014  24.945  1.00  0.00    -0.225 NA
ATOM     15  C   UNL A   1      30.791  29.236  24.222  1.00  0.00     0.157 A 
ATOM     16  C   UNL A   1      29.952  27.016  24.027  1.00  0.00     0.115 A 
ATOM     17  C   UNL A   1      29.997  29.592  23.080  1.00  0.00     0.158 A 
ATOM     18  C   UNL A   1      29.222  27.428  22.974  1.00  0.00     0.129 A 
ATOM     19  N   UNL A   1      29.243  28.717  22.466  1.00  0.00    -0.259 NA
BRANCH  12  20
ATOM     20  N   UNL A   1      31.996  26.697  26.358  1.00  0.00    -0.339 N 
ATOM     21  H   UNL A   1      31.683  26.631  27.289  1.00  0.00     0.168 HD
BRANCH  20  22
ATOM     22  C   UNL A   1      32.713  25.587  25.844  1.00  0.00     0.040 A 
ATOM     23  C   UNL A   1      32.757  23.213  25.288  1.00  0.00     0.062 A 
ATOM     24  C   UNL A   1      34.094  23.314  24.894  1.00  0.00     0.016 A 
ATOM     25  C   UNL A   1      32.060  24.347  25.734  1.00  0.00     0.041 A 
ATOM     26  C   UNL A   1      34.734  24.546  24.943  1.00  0.00     0.003 A 
ATOM     27  C   UNL A   1      34.051  25.667  25.423  1.00  0.00     0.026 A 
BRANCH  23  28
ATOM     28  C   UNL A   1      32.153  21.866  25.327  1.00  0.00     0.338 C 
ATOM     29  O   UNL A   1      31.116  21.625  25.926  1.00  0.00    -0.246 OA
BRANCH  28  30
ATOM     30  O   UNL A   1      32.933  20.978  24.664  1.00  0.00    -0.462 OA
BRANCH  30  31
ATOM     31  C   UNL A   1      32.410  19.641  24.600  1.00  0.00     0.230 C 
ATOM     32  C   UNL A   1      32.547  19.038  23.211  1.00  0.00     0.049 C 
ENDBRANCH  30  31
ENDBRANCH  28  30
ENDBRANCH  23  28
ENDBRANCH  20  22
ENDBRANCH  12  20
ENDBRANCH   6  11
ENDBRANCH   3   5
ENDBRANCH   2   3
ENDBRANCH   1   2
BRANCH   1  33
ATOM     33  C   UNL A   1      35.793  33.908  30.851  1.00  0.00     0.202 C 
BRANCH  33  34
ATOM     34  O   UNL A   1      35.965  34.012  32.265  1.00  0.00    -0.374 OA
BRANCH  34  35
ATOM     35  C   UNL A   1      35.670  32.848  33.039  1.00  0.00     0.202 C 
BRANCH  35  36
ATOM     36  C   UNL A   1      36.851  32.209  33.778  1.00  0.00     0.261 C 
BRANCH  36  37
ATOM     37  O   UNL A   1      37.535  31.245  32.957  1.00  0.00    -0.460 OA
BRANCH  37  38
ATOM     38  C   UNL A   1      38.537  30.575  33.573  1.00  0.00     0.338 C 
ATOM     39  O   UNL A   1      38.605  30.274  34.756  1.00  0.00    -0.246 OA
BRANCH  38  40
ATOM     40  C   UNL A   1      39.494  30.077  32.567  1.00  0.00     0.060 A 
ATOM     41  C   UNL A   1      40.486  29.182  32.994  1.00  0.00     0.016 A 
ATOM     42  C   UNL A   1      39.463  30.523  31.243  1.00  0.00     0.016 A 
ATOM     43  C   UNL A   1      41.484  28.771  32.113  1.00  0.00     0.010 A 
ATOM     44  C   UNL A   1      40.471  30.119  30.365  1.00  0.00     0.010 A 
ATOM     45  C   UNL A   1      41.506  29.272  30.805  1.00  0.00    -0.014 A 
BRANCH  45  46
ATOM     46  C   UNL A   1      42.693  29.061  29.943  1.00  0.00     0.031 A 
ATOM     47  C   UNL A   1      42.844  27.736  29.246  1.00  0.00     0.074 A 
ATOM     48  C   UNL A   1      43.623  30.020  29.792  1.00  0.00     0.049 A 
ATOM     49  N   UNL A   1      43.850  27.273  28.554  1.00  0.00    -0.248 NA
ATOM     50  C   UNL A   1      41.706  26.808  29.353  1.00  0.00     0.031 C 
ATOM     51  C   UNL A   1      43.559  31.360  30.374  1.00  0.00     0.029 A 
ATOM     52  N   UNL A   1      44.816  30.003  29.114  1.00  0.00    -0.354 N 
ATOM     53  C   UNL A   1      43.477  25.994  28.157  1.00  0.00     0.074 A 
ATOM     54  C   UNL A   1      42.161  25.746  28.703  1.00  0.00     0.031 C 
ATOM     55  C   UNL A   1      44.679  32.030  30.047  1.00  0.00     0.029 A 
ATOM     56  C   UNL A   1      45.552  31.154  29.266  1.00  0.00     0.049 A 
ATOM     57  H   UNL A   1      45.116  29.239  28.571  1.00  0.00     0.167 HD
ATOM     58  C   UNL A   1      44.170  25.107  27.403  1.00  0.00     0.037 A 
ATOM     59  C   UNL A   1      46.800  31.451  28.851  1.00  0.00     0.037 A 
ATOM     60  C   UNL A   1      45.477  25.363  26.861  1.00  0.00     0.049 A 
ATOM     61  C   UNL A   1      47.579  30.425  28.067  1.00  0.00     0.074 A 
ATOM     62  C   UNL A   1      46.265  24.534  26.083  1.00  0.00     0.029 A 
ATOM     63  N   UNL A   1      46.190  26.540  27.041  1.00  0.00    -0.354 N 
ATOM     64  N   UNL A   1      47.219  29.218  27.702  1.00  0.00    -0.248 NA
ATOM     65  C   UNL A   1      48.936  30.801  27.641  1.00  0.00     0.031 C 
ATOM     66  C   UNL A   1      47.471  25.193  25.827  1.00  0.00     0.029 A 
ATOM     67  C   UNL A   1      47.414  26.454  26.400  1.00  0.00     0.049 A 
ATOM     68  H   UNL A   1      45.873  27.322  27.548  1.00  0.00     0.167 HD
ATOM     69  C   UNL A   1      48.287  28.706  26.971  1.00  0.00     0.074 A 
ATOM     70  C   UNL A   1      49.308  29.732  26.949  1.00  0.00     0.031 C 
ATOM     71  C   UNL A   1      48.408  27.498  26.367  1.00  0.00     0.037 A 
BRANCH  58  72
ATOM     72  C   UNL A   1      43.536  23.769  27.145  1.00  0.00     0.058 A 
ATOM     73  C   UNL A   1      43.495  22.769  28.130  1.00  0.00     0.135 A 
ATOM     74  C   UNL A   1      42.942  23.491  25.903  1.00  0.00     0.135 A 
ATOM     75  F   UNL A   1      44.066  22.976  29.327  1.00  0.00    -0.206 F 
ATOM     76  C   UNL A   1      42.910  21.531  27.884  1.00  0.00     0.059 A 
ATOM     77  C   UNL A   1      42.328  22.269  25.645  1.00  0.00     0.059 A 
ATOM     78  F   UNL A   1      42.957  24.411  24.926  1.00  0.00    -0.206 F 
ATOM     79  C   UNL A   1      42.331  21.290  26.637  1.00  0.00     0.060 A 
BRANCH  79  80
ATOM     80  S   UNL A   1      41.577  19.679  26.330  1.00  0.00     0.124 S 
ATOM     81  O   UNL A   1      40.179  20.047  26.127  1.00  0.00    -0.237 OA
ATOM     82  O   UNL A   1      42.290  19.221  25.142  1.00  0.00    -0.237 OA
ATOM     83  O   UNL A   1      41.858  18.933  27.552  1.00  0.00    -0.744 OA
ENDBRANCH  79  80
ENDBRANCH  58  72
BRANCH  59  84
ATOM     84  C   UNL A   1      47.398  32.772  29.179  1.00  0.00     0.058 A 
ATOM     85  C   UNL A   1      47.210  33.880  28.340  1.00  0.00     0.135 A 
ATOM     86  C   UNL A   1      48.171  32.953  30.336  1.00  0.00     0.135 A 
ATOM     87  F   UNL A   1      46.487  33.754  27.216  1.00  0.00    -0.206 F 
ATOM     88  C   UNL A   1      47.778  35.117  28.627  1.00  0.00     0.059 A 
ATOM     89  C   UNL A   1      48.729  34.187  30.658  1.00  0.00     0.059 A 
ATOM     90  F   UNL A   1      48.373  31.928  31.178  1.00  0.00    -0.206 F 
ATOM     91  C   UNL A   1      48.536  35.260  29.790  1.00  0.00     0.060 A 
BRANCH  91  92
ATOM     92  S   UNL A   1      49.232  36.881  30.176  1.00  0.00     0.124 S 
ATOM     93  O   UNL A   1      50.660  36.634  30.014  1.00  0.00    -0.237 OA
ATOM     94  O   UNL A   1      48.611  37.731  29.164  1.00  0.00    -0.237 OA
ATOM     95  O   UNL A   1      48.783  37.121  31.545  1.00  0.00    -0.744 OA
ENDBRANCH  91  92
ENDBRANCH  59  84
BRANCH  71  96
ATOM     96  C   UNL A   1      49.659  27.232  25.575  1.00  0.00     0.058 A 
ATOM     97  C   UNL A   1      49.726  27.467  24.194  1.00  0.00     0.135 A 
ATOM     98  C   UNL A   1      50.830  26.817  26.229  1.00  0.00     0.135 A 
ATOM     99  F   UNL A   1      48.633  27.859  23.520  1.00  0.00    -0.206 F 
ATOM    100  C   UNL A   1      50.911  27.291  23.486  1.00  0.00     0.059 A 
ATOM    101  C   UNL A   1      52.031  26.659  25.546  1.00  0.00     0.059 A 
ATOM    102  F   UNL A   1      50.820  26.588  27.552  1.00  0.00    -0.206 F 
ATOM    103  C   UNL A   1      52.060  26.892  24.172  1.00  0.00     0.060 A 
BRANCH 103 104
ATOM    104  S   UNL A   1      53.605  26.724  23.253  1.00  0.00     0.124 S 
ATOM    105  O   UNL A   1      53.158  26.033  22.048  1.00  0.00    -0.237 OA
ATOM    106  O   UNL A   1      54.014  28.113  23.073  1.00  0.00    -0.237 OA
ATOM    107  O   UNL A   1      54.451  25.940  24.150  1.00  0.00    -0.744 OA
ENDBRANCH 103 104
ENDBRANCH  71  96
ENDBRANCH  45  46
ENDBRANCH  38  40
ENDBRANCH  37  38
ENDBRANCH  36  37
ENDBRANCH  35  36
ENDBRANCH  34  35
ENDBRANCH  33  34
ENDBRANCH   1  33
TORSDOF 23
ENDMDL
MODEL 2
REMARK VINA RESULT:     -10.3      5.923     12.062
REMARK SMILES CCOC(=O)c1cccc(Nc2c(-c3ccc(C(=O)OCCOCCOC(=O)c4ccc(-c5c6nc(c(-c7c(F)cc(S(=O)(=O)[O-])cc7F)c7ccc([nH]7)c(-c7c(F)cc(S(=O)(=O)[O-])cc7F)c7nc(c(-c8c(F)cc(S(=O)(=O)[O-])cc8F)c8ccc5[nH]8)C=C7)C=C6)cc4)cc3)nc3cnccn23)c1
REMARK SMILES IDX 21 1 20 2 18 3 19 4 17 5 14 6 15 7 96 8 16 9 95 10 13 11
REMARK SMILES IDX 12 12 103 13 97 14 98 15 102 16 99 17 101 18 100 19 11 20
REMARK SMILES IDX 10 22 6 23 7 24 104 25 8 26 9 27 4 28 5 29 3 30 2 31 1 32
REMARK SMILES IDX 22 33 23 34 24 35 25 36 26 37 27 38 28 39 29 40 30 41 94 42
REMARK SMILES IDX 31 43 93 44 32 45 33 46 34 47 87 48 35 49 92 50 86 51 88 52
REMARK SMILES IDX 36 53 91 54 85 55 84 56 37 58 71 59 50 60 70 61 51 62 54 63
REMARK SMILES IDX 69 64 89 65 52 66 53 67 68 69 90 70 55 71 38 72 39 73 48 74
REMARK SMILES IDX 40 75 41 76 47 77 49 78 42 79 43 80 44 81 45 82 46 83 72 84
REMARK SMILES IDX 73 85 82 86 74 87 75 88 81 89 83 90 76 91 77 92 78 93 79 94
REMARK SMILES IDX 80 95 56 96 57 97 66 98 58 99 59 100 65 101 67 102 60 103
REMARK SMILES IDX 61 104 62 105 63 106 64 107
REMARK H PARENT 11 21 88 57 54 68
REMARK Flexibility Score: inf
ROOT
ATOM      1  C   UNL A   1      43.549  21.074  25.966  1.00  0.00     0.261 C 
ENDROOT
BRANCH   1   2
ATOM      2  O   UNL A   1      42.200  21.439  25.628  1.00  0.00    -0.460 OA
BRANCH   2   3
ATOM      3  C   UNL A   1      41.348  21.499  26.679  1.00  0.00     0.338 C 
ATOM      4  O   UNL A   1      41.647  21.580  27.861  1.00  0.00    -0.246 OA
BRANCH   3   5
ATOM      5  C   UNL A   1      39.948  21.612  26.207  1.00  0.00     0.060 A 
ATOM      6  C   UNL A   1      37.243  21.912  25.534  1.00  0.00     0.004 A 
ATOM      7  C   UNL A   1      37.942  22.971  26.127  1.00  0.00     0.011 A 
ATOM      8  C   UNL A   1      37.921  20.721  25.233  1.00  0.00     0.011 A 
ATOM      9  C   UNL A   1      39.285  22.817  26.469  1.00  0.00     0.016 A 
ATOM     10  C   UNL A   1      39.277  20.572  25.555  1.00  0.00     0.016 A 
BRANCH   6  11
ATOM     11  C   UNL A   1      35.803  21.991  25.385  1.00  0.00     0.114 A 
ATOM     12  C   UNL A   1      35.013  23.135  25.465  1.00  0.00     0.143 A 
ATOM     13  N   UNL A   1      33.718  22.652  25.389  1.00  0.00    -0.283 N 
ATOM     14  N   UNL A   1      35.040  20.845  25.309  1.00  0.00    -0.225 NA
ATOM     15  C   UNL A   1      33.805  21.283  25.352  1.00  0.00     0.157 A 
ATOM     16  C   UNL A   1      32.469  23.253  25.356  1.00  0.00     0.115 A 
ATOM     17  C   UNL A   1      32.595  20.511  25.366  1.00  0.00     0.158 A 
ATOM     18  C   UNL A   1      31.379  22.464  25.351  1.00  0.00     0.129 A 
ATOM     19  N   UNL A   1      31.417  21.079  25.376  1.00  0.00    -0.259 NA
BRANCH  12  20
ATOM     20  N   UNL A   1      35.337  24.458  25.553  1.00  0.00    -0.339 N 
ATOM     21  H   UNL A   1      36.251  24.671  25.849  1.00  0.00     0.168 HD
BRANCH  20  22
ATOM     22  C   UNL A   1      34.486  25.554  25.260  1.00  0.00     0.040 A 
ATOM     23  C   UNL A   1      33.266  26.855  23.598  1.00  0.00     0.062 A 
ATOM     24  C   UNL A   1      32.849  27.752  24.583  1.00  0.00     0.016 A 
ATOM     25  C   UNL A   1      34.056  25.745  23.935  1.00  0.00     0.041 A 
ATOM     26  C   UNL A   1      33.219  27.542  25.906  1.00  0.00     0.003 A 
ATOM     27  C   UNL A   1      34.038  26.458  26.236  1.00  0.00     0.026 A 
BRANCH  23  28
ATOM     28  C   UNL A   1      32.944  27.180  22.194  1.00  0.00     0.338 C 
ATOM     29  O   UNL A   1      33.644  26.825  21.257  1.00  0.00    -0.246 OA
BRANCH  28  30
ATOM     30  O   UNL A   1      31.827  27.944  22.129  1.00  0.00    -0.462 OA
BRANCH  30  31
ATOM     31  C   UNL A   1      30.597  27.242  22.375  1.00  0.00     0.230 C 
ATOM     32  C   UNL A   1      29.588  28.101  23.121  1.00  0.00     0.049 C 
ENDBRANCH  30  31
ENDBRANCH  28  30
ENDBRANCH  23  28
ENDBRANCH  20  22
ENDBRANCH  12  20
ENDBRANCH   6  11
ENDBRANCH   3   5
ENDBRANCH   2   3
ENDBRANCH   1   2
BRANCH   1  33
ATOM     33  C   UNL A   1      44.562  22.010  25.303  1.00  0.00     0.202 C 
BRANCH  33  34
ATOM     34  O   UNL A   1      44.894  23.191  26.035  1.00  0.00    -0.374 OA
BRANCH  34  35
ATOM     35  C   UNL A   1      44.648  24.442  25.390  1.00  0.00     0.202 C 
BRANCH  35  36
ATOM     36  C   UNL A   1      43.250  24.631  24.790  1.00  0.00     0.261 C 
BRANCH  36  37
ATOM     37  O   UNL A   1      42.353  25.267  25.719  1.00  0.00    -0.460 OA
BRANCH  37  38
ATOM     38  C   UNL A   1      42.369  26.620  25.696  1.00  0.00     0.338 C 
ATOM     39  O   UNL A   1      42.279  27.342  24.713  1.00  0.00    -0.246 OA
BRANCH  38  40
ATOM     40  C   UNL A   1      42.327  27.142  27.075  1.00  0.00     0.060 A 
ATOM     41  C   UNL A   1      41.512  26.476  28.002  1.00  0.00     0.016 A 
ATOM     42  C   UNL A   1      43.020  28.298  27.442  1.00  0.00     0.016 A 
ATOM     43  C   UNL A   1      41.344  26.993  29.285  1.00  0.00     0.010 A 
ATOM     44  C   UNL A   1      42.842  28.821  28.725  1.00  0.00     0.010 A 
ATOM     45  C   UNL A   1      41.975  28.193  29.639  1.00  0.00    -0.014 A 
BRANCH  45  46
ATOM     46  C   UNL A   1      41.602  28.893  30.891  1.00  0.00     0.031 A 
ATOM     47  C   UNL A   1      40.410  29.811  30.869  1.00  0.00     0.074 A 
ATOM     48  C   UNL A   1      42.313  28.727  32.020  1.00  0.00     0.049 A 
ATOM     49  N   UNL A   1      39.973  30.625  31.792  1.00  0.00    -0.248 NA
ATOM     50  C   UNL A   1      39.610  29.814  29.632  1.00  0.00     0.031 C 
ATOM     51  C   UNL A   1      43.453  27.825  32.176  1.00  0.00     0.029 A 
ATOM     52  N   UNL A   1      42.187  29.329  33.246  1.00  0.00    -0.354 N 
ATOM     53  C   UNL A   1      38.858  31.251  31.245  1.00  0.00     0.074 A 
ATOM     54  C   UNL A   1      38.698  30.738  29.902  1.00  0.00     0.031 C 
ATOM     55  C   UNL A   1      43.939  27.952  33.425  1.00  0.00     0.029 A 
ATOM     56  C   UNL A   1      43.168  28.969  34.139  1.00  0.00     0.049 A 
ATOM     57  H   UNL A   1      41.464  29.959  33.466  1.00  0.00     0.167 HD
ATOM     58  C   UNL A   1      38.040  32.169  31.813  1.00  0.00     0.037 A 
ATOM     59  C   UNL A   1      43.432  29.433  35.376  1.00  0.00     0.037 A 
ATOM     60  C   UNL A   1      38.205  32.671  33.151  1.00  0.00     0.049 A 
ATOM     61  C   UNL A   1      42.548  30.502  35.967  1.00  0.00     0.074 A 
ATOM     62  C   UNL A   1      37.431  33.601  33.823  1.00  0.00     0.029 A 
ATOM     63  N   UNL A   1      39.214  32.284  34.022  1.00  0.00    -0.354 N 
ATOM     64  N   UNL A   1      41.500  31.091  35.440  1.00  0.00    -0.248 NA
ATOM     65  C   UNL A   1      42.882  30.974  37.319  1.00  0.00     0.031 C 
ATOM     66  C   UNL A   1      37.996  33.806  35.086  1.00  0.00     0.029 A 
ATOM     67  C   UNL A   1      39.091  32.966  35.220  1.00  0.00     0.049 A 
ATOM     68  H   UNL A   1      39.913  31.622  33.819  1.00  0.00     0.167 HD
ATOM     69  C   UNL A   1      41.028  31.969  36.409  1.00  0.00     0.074 A 
ATOM     70  C   UNL A   1      41.906  31.841  37.553  1.00  0.00     0.031 C 
ATOM     71  C   UNL A   1      39.960  32.804  36.359  1.00  0.00     0.037 A 
BRANCH  58  72
ATOM     72  C   UNL A   1      36.913  32.708  30.978  1.00  0.00     0.058 A 
ATOM     73  C   UNL A   1      35.586  32.294  31.171  1.00  0.00     0.135 A 
ATOM     74  C   UNL A   1      37.162  33.669  29.985  1.00  0.00     0.135 A 
ATOM     75  F   UNL A   1      35.297  31.362  32.093  1.00  0.00    -0.206 F 
ATOM     76  C   UNL A   1      34.548  32.795  30.393  1.00  0.00     0.059 A 
ATOM     77  C   UNL A   1      36.135  34.204  29.212  1.00  0.00     0.059 A 
ATOM     78  F   UNL A   1      38.414  34.097  29.756  1.00  0.00    -0.206 F 
ATOM     79  C   UNL A   1      34.833  33.748  29.414  1.00  0.00     0.060 A 
BRANCH  79  80
ATOM     80  S   UNL A   1      33.477  34.388  28.409  1.00  0.00     0.124 S 
ATOM     81  O   UNL A   1      32.532  34.817  29.436  1.00  0.00    -0.237 OA
ATOM     82  O   UNL A   1      34.124  35.459  27.657  1.00  0.00    -0.237 OA
ATOM     83  O   UNL A   1      33.064  33.233  27.619  1.00  0.00    -0.744 OA
ENDBRANCH  79  80
ENDBRANCH  58  72
BRANCH  59  84
ATOM     84  C   UNL A   1      44.593  28.901  36.139  1.00  0.00     0.058 A 
ATOM     85  C   UNL A   1      45.855  29.506  36.051  1.00  0.00     0.135 A 
ATOM     86  C   UNL A   1      44.463  27.778  36.971  1.00  0.00     0.135 A 
ATOM     87  F   UNL A   1      46.031  30.577  35.262  1.00  0.00    -0.206 F 
ATOM     88  C   UNL A   1      46.952  29.008  36.748  1.00  0.00     0.059 A 
ATOM     89  C   UNL A   1      45.539  27.276  37.696  1.00  0.00     0.059 A 
ATOM     90  F   UNL A   1      43.274  27.169  37.098  1.00  0.00    -0.206 F 
ATOM     91  C   UNL A   1      46.783  27.892  37.569  1.00  0.00     0.060 A 
BRANCH  91  92
ATOM     92  S   UNL A   1      48.203  27.281  38.503  1.00  0.00     0.124 S 
ATOM     93  O   UNL A   1      47.568  26.812  39.729  1.00  0.00    -0.237 OA
ATOM     94  O   UNL A   1      48.730  26.246  37.618  1.00  0.00    -0.237 OA
ATOM     95  O   UNL A   1      49.047  28.464  38.641  1.00  0.00    -0.744 OA
ENDBRANCH  91  92
ENDBRANCH  59  84
BRANCH  71  96
ATOM     96  C   UNL A   1      39.634  33.601  37.592  1.00  0.00     0.058 A 
ATOM     97  C   UNL A   1      38.736  33.132  38.562  1.00  0.00     0.135 A 
ATOM     98  C   UNL A   1      40.299  34.813  37.842  1.00  0.00     0.135 A 
ATOM     99  F   UNL A   1      38.070  31.983  38.369  1.00  0.00    -0.206 F 
ATOM    100  C   UNL A   1      38.502  33.843  39.736  1.00  0.00     0.059 A 
ATOM    101  C   UNL A   1      40.098  35.526  39.019  1.00  0.00     0.059 A 
ATOM    102  F   UNL A   1      41.175  35.299  36.950  1.00  0.00    -0.206 F 
ATOM    103  C   UNL A   1      39.192  35.036  39.958  1.00  0.00     0.060 A 
BRANCH 103 104
ATOM    104  S   UNL A   1      38.923  35.918  41.509  1.00  0.00     0.124 S 
ATOM    105  O   UNL A   1      38.846  37.302  41.053  1.00  0.00    -0.237 OA
ATOM    106  O   UNL A   1      37.671  35.338  41.986  1.00  0.00    -0.237 OA
ATOM    107  O   UNL A   1      40.103  35.582  42.301  1.00  0.00    -0.744 OA
ENDBRANCH 103 104
ENDBRANCH  71  96
ENDBRANCH  45  46
ENDBRANCH  38  40
ENDBRANCH  37  38
ENDBRANCH  36  37
ENDBRANCH  35  36
ENDBRANCH  34  35
ENDBRANCH  33  34
ENDBRANCH   1  33
TORSDOF 23
ENDMDL
MODEL 3
REMARK VINA RESULT:      -9.8      4.896     11.823
REMARK SMILES CCOC(=O)c1cccc(Nc2c(-c3ccc(C(=O)OCCOCCOC(=O)c4ccc(-c5c6nc(c(-c7c(F)cc(S(=O)(=O)[O-])cc7F)c7ccc([nH]7)c(-c7c(F)cc(S(=O)(=O)[O-])cc7F)c7nc(c(-c8c(F)cc(S(=O)(=O)[O-])cc8F)c8ccc5[nH]8)C=C7)C=C6)cc4)cc3)nc3cnccn23)c1
REMARK SMILES IDX 21 1 20 2 18 3 19 4 17 5 14 6 15 7 96 8 16 9 95 10 13 11
REMARK SMILES IDX 12 12 103 13 97 14 98 15 102 16 99 17 101 18 100 19 11 20
REMARK SMILES IDX 10 22 6 23 7 24 104 25 8 26 9 27 4 28 5 29 3 30 2 31 1 32
REMARK SMILES IDX 22 33 23 34 24 35 25 36 26 37 27 38 28 39 29 40 30 41 94 42
REMARK SMILES IDX 31 43 93 44 32 45 33 46 34 47 87 48 35 49 92 50 86 51 88 52
REMARK SMILES IDX 36 53 91 54 85 55 84 56 37 58 71 59 50 60 70 61 51 62 54 63
REMARK SMILES IDX 69 64 89 65 52 66 53 67 68 69 90 70 55 71 38 72 39 73 48 74
REMARK SMILES IDX 40 75 41 76 47 77 49 78 42 79 43 80 44 81 45 82 46 83 72 84
REMARK SMILES IDX 73 85 82 86 74 87 75 88 81 89 83 90 76 91 77 92 78 93 79 94
REMARK SMILES IDX 80 95 56 96 57 97 66 98 58 99 59 100 65 101 67 102 60 103
REMARK SMILES IDX 61 104 62 105 63 106 64 107
REMARK H PARENT 11 21 88 57 54 68
REMARK Flexibility Score: inf
ROOT
ATOM      1  C   UNL A   1      40.959  34.656  33.651  1.00  0.00     0.261 C 
ENDROOT
BRANCH   1   2
ATOM      2  O   UNL A   1      42.172  35.418  33.786  1.00  0.00    -0.460 OA
BRANCH   2   3
ATOM      3  C   UNL A   1      43.209  34.970  33.039  1.00  0.00     0.338 C 
ATOM      4  O   UNL A   1      43.923  34.008  33.278  1.00  0.00    -0.246 OA
BRANCH   3   5
ATOM      5  C   UNL A   1      43.291  35.720  31.763  1.00  0.00     0.060 A 
ATOM      6  C   UNL A   1      43.347  37.325  29.466  1.00  0.00     0.004 A 
ATOM      7  C   UNL A   1      43.847  37.816  30.679  1.00  0.00     0.011 A 
ATOM      8  C   UNL A   1      42.866  36.009  29.400  1.00  0.00     0.011 A 
ATOM      9  C   UNL A   1      43.811  37.018  31.822  1.00  0.00     0.016 A 
ATOM     10  C   UNL A   1      42.850  35.198  30.543  1.00  0.00     0.016 A 
BRANCH   6  11
ATOM     11  C   UNL A   1      43.178  38.222  28.339  1.00  0.00     0.114 A 
ATOM     12  C   UNL A   1      44.174  38.944  27.686  1.00  0.00     0.143 A 
ATOM     13  N   UNL A   1      43.478  39.734  26.788  1.00  0.00    -0.283 N 
ATOM     14  N   UNL A   1      41.920  38.576  27.904  1.00  0.00    -0.225 NA
ATOM     15  C   UNL A   1      42.143  39.505  27.007  1.00  0.00     0.157 A 
ATOM     16  C   UNL A   1      43.859  40.637  25.806  1.00  0.00     0.115 A 
ATOM     17  C   UNL A   1      41.179  40.271  26.269  1.00  0.00     0.158 A 
ATOM     18  C   UNL A   1      42.898  41.304  25.142  1.00  0.00     0.129 A 
ATOM     19  N   UNL A   1      41.540  41.151  25.372  1.00  0.00    -0.259 NA
BRANCH  12  20
ATOM     20  N   UNL A   1      45.534  38.921  27.798  1.00  0.00    -0.339 N 
ATOM     21  H   UNL A   1      45.928  39.455  28.525  1.00  0.00     0.168 HD
BRANCH  20  22
ATOM     22  C   UNL A   1      46.434  38.203  26.970  1.00  0.00     0.040 A 
ATOM     23  C   UNL A   1      46.983  36.143  25.787  1.00  0.00     0.062 A 
ATOM     24  C   UNL A   1      48.205  36.684  25.379  1.00  0.00     0.016 A 
ATOM     25  C   UNL A   1      46.089  36.906  26.554  1.00  0.00     0.041 A 
ATOM     26  C   UNL A   1      48.533  37.986  25.735  1.00  0.00     0.003 A 
ATOM     27  C   UNL A   1      47.659  38.732  26.531  1.00  0.00     0.026 A 
BRANCH  23  28
ATOM     28  C   UNL A   1      46.727  34.721  25.482  1.00  0.00     0.338 C 
ATOM     29  O   UNL A   1      47.346  33.811  26.012  1.00  0.00    -0.246 OA
BRANCH  28  30
ATOM     30  O   UNL A   1      45.773  34.606  24.527  1.00  0.00    -0.462 OA
BRANCH  30  31
ATOM     31  C   UNL A   1      44.429  34.489  25.022  1.00  0.00     0.230 C 
ATOM     32  C   UNL A   1      44.130  33.091  25.542  1.00  0.00     0.049 C 
ENDBRANCH  30  31
ENDBRANCH  28  30
ENDBRANCH  23  28
ENDBRANCH  20  22
ENDBRANCH  12  20
ENDBRANCH   6  11
ENDBRANCH   3   5
ENDBRANCH   2   3
ENDBRANCH   1   2
BRANCH   1  33
ATOM     33  C   UNL A   1      39.885  35.142  34.628  1.00  0.00     0.202 C 
BRANCH  33  34
ATOM     34  O   UNL A   1      38.533  34.874  34.253  1.00  0.00    -0.374 OA
BRANCH  34  35
ATOM     35  C   UNL A   1      38.289  34.583  32.877  1.00  0.00     0.202 C 
BRANCH  35  36
ATOM     36  C   UNL A   1      36.942  33.926  32.552  1.00  0.00     0.261 C 
BRANCH  36  37
ATOM     37  O   UNL A   1      37.022  33.103  31.374  1.00  0.00    -0.460 OA
BRANCH  37  38
ATOM     38  C   UNL A   1      36.789  31.786  31.578  1.00  0.00     0.338 C 
ATOM     39  O   UNL A   1      35.751  31.273  31.970  1.00  0.00    -0.246 OA
BRANCH  38  40
ATOM     40  C   UNL A   1      37.931  30.995  31.079  1.00  0.00     0.060 A 
ATOM     41  C   UNL A   1      38.670  30.253  32.011  1.00  0.00     0.016 A 
ATOM     42  C   UNL A   1      38.311  31.028  29.735  1.00  0.00     0.016 A 
ATOM     43  C   UNL A   1      39.826  29.583  31.613  1.00  0.00     0.010 A 
ATOM     44  C   UNL A   1      39.476  30.365  29.341  1.00  0.00     0.010 A 
ATOM     45  C   UNL A   1      40.258  29.672  30.284  1.00  0.00    -0.014 A 
BRANCH  45  46
ATOM     46  C   UNL A   1      41.609  29.196  29.904  1.00  0.00     0.031 A 
ATOM     47  C   UNL A   1      42.761  30.159  30.006  1.00  0.00     0.074 A 
ATOM     48  C   UNL A   1      41.808  27.940  29.466  1.00  0.00     0.049 A 
ATOM     49  N   UNL A   1      43.997  30.017  29.611  1.00  0.00    -0.248 NA
ATOM     50  C   UNL A   1      42.472  31.459  30.634  1.00  0.00     0.031 C 
ATOM     51  C   UNL A   1      40.780  26.904  29.375  1.00  0.00     0.029 A 
ATOM     52  N   UNL A   1      42.945  27.331  28.998  1.00  0.00    -0.354 N 
ATOM     53  C   UNL A   1      44.632  31.214  29.923  1.00  0.00     0.074 A 
ATOM     54  C   UNL A   1      43.639  32.078  30.523  1.00  0.00     0.031 C 
ATOM     55  C   UNL A   1      41.331  25.791  28.857  1.00  0.00     0.029 A 
ATOM     56  C   UNL A   1      42.736  26.050  28.547  1.00  0.00     0.049 A 
ATOM     57  H   UNL A   1      43.825  27.770  28.987  1.00  0.00     0.167 HD
ATOM     58  C   UNL A   1      45.927  31.560  29.730  1.00  0.00     0.037 A 
ATOM     59  C   UNL A   1      43.576  25.199  27.924  1.00  0.00     0.037 A 
ATOM     60  C   UNL A   1      46.909  30.693  29.136  1.00  0.00     0.049 A 
ATOM     61  C   UNL A   1      44.998  25.627  27.660  1.00  0.00     0.074 A 
ATOM     62  C   UNL A   1      48.249  30.945  28.896  1.00  0.00     0.029 A 
ATOM     63  N   UNL A   1      46.657  29.404  28.688  1.00  0.00    -0.354 N 
ATOM     64  N   UNL A   1      45.586  26.762  27.955  1.00  0.00    -0.248 NA
ATOM     65  C   UNL A   1      45.870  24.661  26.976  1.00  0.00     0.031 C 
ATOM     66  C   UNL A   1      48.797  29.823  28.266  1.00  0.00     0.029 A 
ATOM     67  C   UNL A   1      47.813  28.853  28.161  1.00  0.00     0.049 A 
ATOM     68  H   UNL A   1      45.787  28.948  28.739  1.00  0.00     0.167 HD
ATOM     69  C   UNL A   1      46.903  26.631  27.530  1.00  0.00     0.074 A 
ATOM     70  C   UNL A   1      47.027  25.309  26.953  1.00  0.00     0.031 C 
ATOM     71  C   UNL A   1      47.922  27.523  27.615  1.00  0.00     0.037 A 
BRANCH  58  72
ATOM     72  C   UNL A   1      46.346  32.944  30.140  1.00  0.00     0.058 A 
ATOM     73  C   UNL A   1      46.066  34.067  29.345  1.00  0.00     0.135 A 
ATOM     74  C   UNL A   1      47.018  33.153  31.355  1.00  0.00     0.135 A 
ATOM     75  F   UNL A   1      45.445  33.921  28.164  1.00  0.00    -0.206 F 
ATOM     76  C   UNL A   1      46.460  35.344  29.729  1.00  0.00     0.059 A 
ATOM     77  C   UNL A   1      47.398  34.425  31.771  1.00  0.00     0.059 A 
ATOM     78  F   UNL A   1      47.314  32.112  32.151  1.00  0.00    -0.206 F 
ATOM     79  C   UNL A   1      47.127  35.513  30.943  1.00  0.00     0.060 A 
BRANCH  79  80
ATOM     80  S   UNL A   1      47.634  37.177  31.427  1.00  0.00     0.124 S 
ATOM     81  O   UNL A   1      49.082  37.020  31.532  1.00  0.00    -0.237 OA
ATOM     82  O   UNL A   1      47.164  37.986  30.306  1.00  0.00    -0.237 OA
ATOM     83  O   UNL A   1      46.934  37.392  32.689  1.00  0.00    -0.744 OA
ENDBRANCH  79  80
ENDBRANCH  58  72
BRANCH  59  84
ATOM     84  C   UNL A   1      43.094  23.860  27.493  1.00  0.00     0.058 A 
ATOM     85  C   UNL A   1      43.085  22.774  28.380  1.00  0.00     0.135 A 
ATOM     86  C   UNL A   1      42.634  23.639  26.186  1.00  0.00     0.135 A 
ATOM     87  F   UNL A   1      43.525  22.933  29.638  1.00  0.00    -0.206 F 
ATOM     88  C   UNL A   1      42.652  21.513  27.984  1.00  0.00     0.059 A 
ATOM     89  C   UNL A   1      42.172  22.393  25.773  1.00  0.00     0.059 A 
ATOM     90  F   UNL A   1      42.612  24.647  25.300  1.00  0.00    -0.206 F 
ATOM     91  C   UNL A   1      42.196  21.332  26.677  1.00  0.00     0.060 A 
BRANCH  91  92
ATOM     92  S   UNL A   1      41.594  19.702  26.187  1.00  0.00     0.124 S 
ATOM     93  O   UNL A   1      41.904  18.907  27.369  1.00  0.00    -0.237 OA
ATOM     94  O   UNL A   1      40.178  19.958  25.942  1.00  0.00    -0.237 OA
ATOM     95  O   UNL A   1      42.382  19.398  24.996  1.00  0.00    -0.744 OA
ENDBRANCH  91  92
ENDBRANCH  59  84
BRANCH  71  96
ATOM     96  C   UNL A   1      49.279  27.086  27.133  1.00  0.00     0.058 A 
ATOM     97  C   UNL A   1      50.194  26.443  27.979  1.00  0.00     0.135 A 
ATOM     98  C   UNL A   1      49.627  27.240  25.781  1.00  0.00     0.135 A 
ATOM     99  F   UNL A   1      49.912  26.277  29.280  1.00  0.00    -0.206 F 
ATOM    100  C   UNL A   1      51.415  25.975  27.502  1.00  0.00     0.059 A 
ATOM    101  C   UNL A   1      50.831  26.759  25.279  1.00  0.00     0.059 A 
ATOM    102  F   UNL A   1      48.781  27.840  24.930  1.00  0.00    -0.206 F 
ATOM    103  C   UNL A   1      51.722  26.133  26.149  1.00  0.00     0.060 A 
BRANCH 103 104
ATOM    104  S   UNL A   1      53.283  25.469  25.530  1.00  0.00     0.124 S 
ATOM    105  O   UNL A   1      53.099  24.037  25.742  1.00  0.00    -0.237 OA
ATOM    106  O   UNL A   1      53.280  25.909  24.138  1.00  0.00    -0.237 OA
ATOM    107  O   UNL A   1      54.285  26.107  26.380  1.00  0.00    -0.744 OA
ENDBRANCH 103 104
ENDBRANCH  71  96
ENDBRANCH  45  46
ENDBRANCH  38  40
ENDBRANCH  37  38
ENDBRANCH  36  37
ENDBRANCH  35  36
ENDBRANCH  34  35
ENDBRANCH  33  34
ENDBRANCH   1  33
TORSDOF 23
ENDMDL
