MODEL 1
REMARK VINA RESULT:     -11.2      0.000      0.000
REMARK SMILES Cc1nn(C)c(=O)c(C(=O)N2CC[C@@H](C(=O)OCCOCCOC(=O)c3ccc(-c4c5nc(c(-c6c(F)cc(S(=O)(=O)[O-])cc6F)c6ccc([nH]6)c(-c6c(F)cc(S(=O)(=O)[O-])cc6F)c6nc(c(-c7c(F)cc(S(=O)(=O)[O-])cc7F)c7ccc4[nH]7)C=C6)C=C5)cc3)[C@@H]2C)c1C
REMARK SMILES IDX 21 1 20 2 19 3 18 4 17 5 15 6 16 7 14 8 11 9 12 10 92 11
REMARK SMILES IDX 13 12 93 13 9 14 10 15 8 16 1 17 2 18 3 19 94 20 4 21 95 22
REMARK SMILES IDX 5 23 6 24 7 25 22 26 23 27 24 28 25 29 26 30 27 31 91 32
REMARK SMILES IDX 28 33 90 34 29 35 30 36 31 37 84 38 32 39 89 40 83 41 85 42
REMARK SMILES IDX 33 43 88 44 82 45 81 46 34 48 68 49 47 50 67 51 48 52 51 53
REMARK SMILES IDX 66 54 86 55 49 56 50 57 65 59 87 60 52 61 35 62 36 63 45 64
REMARK SMILES IDX 37 65 38 66 44 67 46 68 39 69 40 70 41 71 42 72 43 73 69 74
REMARK SMILES IDX 70 75 79 76 71 77 72 78 78 79 80 80 73 81 74 82 75 83 76 84
REMARK SMILES IDX 77 85 53 86 54 87 63 88 55 89 56 90 62 91 64 92 57 93 58 94
REMARK SMILES IDX 59 95 60 96 61 97
REMARK H PARENT 85 47 51 58
REMARK Flexibility Score: inf
ROOT
ATOM      1  C   UNL A   1      39.635  22.261  26.466  1.00  0.00     0.202 C 
ENDROOT
BRANCH   1   2
ATOM      2  O   UNL A   1      38.907  21.233  25.800  1.00  0.00    -0.374 OA
BRANCH   2   3
ATOM      3  C   UNL A   1      37.780  21.644  25.029  1.00  0.00     0.202 C 
BRANCH   3   4
ATOM      4  C   UNL A   1      36.494  20.842  25.226  1.00  0.00     0.261 C 
BRANCH   4   5
ATOM      5  O   UNL A   1      35.416  21.381  24.436  1.00  0.00    -0.463 OA
BRANCH   5   6
ATOM      6  C   UNL A   1      34.301  21.728  25.128  1.00  0.00     0.311 C 
ATOM      7  O   UNL A   1      33.884  21.151  26.125  1.00  0.00    -0.252 OA
BRANCH   6   8
ATOM      8  C   UNL A   1      33.564  22.891  24.507  1.00  0.00     0.123 C 
ATOM      9  N   UNL A   1      32.488  24.884  25.265  1.00  0.00    -0.335 N 
ATOM     10  C   UNL A   1      33.551  25.265  24.357  1.00  0.00     0.121 C 
ATOM     11  C   UNL A   1      32.299  23.422  25.236  1.00  0.00     0.096 C 
ATOM     12  C   UNL A   1      34.501  24.091  24.406  1.00  0.00     0.039 C 
ATOM     13  C   UNL A   1      31.047  23.068  24.422  1.00  0.00     0.032 C 
BRANCH   9  14
ATOM     14  C   UNL A   1      31.812  25.902  25.905  1.00  0.00     0.260 C 
ATOM     15  O   UNL A   1      31.095  25.620  26.872  1.00  0.00    -0.269 OA
BRANCH  14  16
ATOM     16  C   UNL A   1      31.769  27.309  25.381  1.00  0.00     0.111 A 
ATOM     17  C   UNL A   1      29.855  29.772  23.251  1.00  0.00     0.069 C 
ATOM     18  C   UNL A   1      30.728  29.208  24.332  1.00  0.00     0.062 A 
ATOM     19  N   UNL A   1      31.307  30.091  25.067  1.00  0.00    -0.175 NA
ATOM     20  C   UNL A   1      30.837  27.730  24.499  1.00  0.00    -0.010 A 
ATOM     21  N   UNL A   1      32.156  29.661  26.027  1.00  0.00    -0.232 N 
ATOM     22  C   UNL A   1      29.794  26.928  23.777  1.00  0.00     0.047 C 
ATOM     23  C   UNL A   1      32.692  30.722  26.865  1.00  0.00     0.178 C 
ATOM     24  C   UNL A   1      32.574  28.341  26.143  1.00  0.00     0.279 A 
ATOM     25  O   UNL A   1      33.540  28.014  26.831  1.00  0.00    -0.267 OA
ENDBRANCH  14  16
ENDBRANCH   9  14
ENDBRANCH   6   8
ENDBRANCH   5   6
ENDBRANCH   4   5
ENDBRANCH   3   4
ENDBRANCH   2   3
ENDBRANCH   1   2
BRANCH   1  26
ATOM     26  C   UNL A   1      41.127  22.391  26.131  1.00  0.00     0.261 C 
BRANCH  26  27
ATOM     27  O   UNL A   1      41.816  23.328  26.975  1.00  0.00    -0.460 OA
BRANCH  27  28
ATOM     28  C   UNL A   1      42.010  24.557  26.428  1.00  0.00     0.338 C 
ATOM     29  O   UNL A   1      42.261  24.819  25.263  1.00  0.00    -0.246 OA
BRANCH  28  30
ATOM     30  C   UNL A   1      41.703  25.577  27.445  1.00  0.00     0.060 A 
ATOM     31  C   UNL A   1      42.514  26.716  27.549  1.00  0.00     0.016 A 
ATOM     32  C   UNL A   1      40.622  25.407  28.301  1.00  0.00     0.016 A 
ATOM     33  C   UNL A   1      42.229  27.704  28.499  1.00  0.00     0.010 A 
ATOM     34  C   UNL A   1      40.348  26.398  29.247  1.00  0.00     0.010 A 
ATOM     35  C   UNL A   1      41.137  27.561  29.365  1.00  0.00    -0.014 A 
BRANCH  35  36
ATOM     36  C   UNL A   1      40.879  28.526  30.479  1.00  0.00     0.031 A 
ATOM     37  C   UNL A   1      41.755  28.451  31.709  1.00  0.00     0.074 A 
ATOM     38  C   UNL A   1      39.881  29.437  30.440  1.00  0.00     0.049 A 
ATOM     39  N   UNL A   1      41.649  29.087  32.847  1.00  0.00    -0.248 NA
ATOM     40  C   UNL A   1      42.871  27.491  31.666  1.00  0.00     0.031 C 
ATOM     41  C   UNL A   1      38.928  29.620  29.344  1.00  0.00     0.029 A 
ATOM     42  N   UNL A   1      39.504  30.392  31.361  1.00  0.00    -0.354 N 
ATOM     43  C   UNL A   1      42.656  28.572  33.656  1.00  0.00     0.074 A 
ATOM     44  C   UNL A   1      43.288  27.504  32.920  1.00  0.00     0.031 C 
ATOM     45  C   UNL A   1      38.108  30.647  29.638  1.00  0.00     0.029 A 
ATOM     46  C   UNL A   1      38.445  31.177  30.957  1.00  0.00     0.049 A 
ATOM     47  H   UNL A   1      39.951  30.502  32.230  1.00  0.00     0.167 HD
ATOM     48  C   UNL A   1      43.071  28.983  34.876  1.00  0.00     0.037 A 
ATOM     49  C   UNL A   1      37.825  32.207  31.575  1.00  0.00     0.037 A 
ATOM     50  C   UNL A   1      42.510  30.099  35.582  1.00  0.00     0.049 A 
ATOM     51  C   UNL A   1      38.295  32.646  32.944  1.00  0.00     0.074 A 
ATOM     52  C   UNL A   1      42.905  30.629  36.797  1.00  0.00     0.029 A 
ATOM     53  N   UNL A   1      41.451  30.869  35.130  1.00  0.00    -0.354 N 
ATOM     54  N   UNL A   1      39.278  32.172  33.672  1.00  0.00    -0.248 NA
ATOM     55  C   UNL A   1      37.571  33.763  33.575  1.00  0.00     0.031 C 
ATOM     56  C   UNL A   1      42.058  31.698  37.100  1.00  0.00     0.029 A 
ATOM     57  C   UNL A   1      41.170  31.865  36.049  1.00  0.00     0.049 A 
ATOM     58  H   UNL A   1      40.971  30.730  34.282  1.00  0.00     0.167 HD
ATOM     59  C   UNL A   1      39.308  32.950  34.827  1.00  0.00     0.074 A 
ATOM     60  C   UNL A   1      38.256  33.934  34.698  1.00  0.00     0.031 C 
ATOM     61  C   UNL A   1      40.133  32.856  35.899  1.00  0.00     0.037 A 
BRANCH  48  62
ATOM     62  C   UNL A   1      44.222  28.244  35.499  1.00  0.00     0.058 A 
ATOM     63  C   UNL A   1      45.553  28.613  35.245  1.00  0.00     0.135 A 
ATOM     64  C   UNL A   1      43.995  27.168  36.371  1.00  0.00     0.135 A 
ATOM     65  F   UNL A   1      45.827  29.621  34.400  1.00  0.00    -0.206 F 
ATOM     66  C   UNL A   1      46.619  27.918  35.801  1.00  0.00     0.059 A 
ATOM     67  C   UNL A   1      45.047  26.482  36.970  1.00  0.00     0.059 A 
ATOM     68  F   UNL A   1      42.742  26.773  36.648  1.00  0.00    -0.206 F 
ATOM     69  C   UNL A   1      46.355  26.855  36.665  1.00  0.00     0.060 A 
BRANCH  69  70
ATOM     70  S   UNL A   1      47.756  25.975  37.384  1.00  0.00     0.124 S 
ATOM     71  O   UNL A   1      47.880  24.836  36.478  1.00  0.00    -0.237 OA
ATOM     72  O   UNL A   1      48.820  26.969  37.300  1.00  0.00    -0.237 OA
ATOM     73  O   UNL A   1      47.302  25.656  38.734  1.00  0.00    -0.744 OA
ENDBRANCH  69  70
ENDBRANCH  48  62
BRANCH  49  74
ATOM     74  C   UNL A   1      36.711  32.937  30.900  1.00  0.00     0.058 A 
ATOM     75  C   UNL A   1      36.978  33.872  29.886  1.00  0.00     0.135 A 
ATOM     76  C   UNL A   1      35.370  32.736  31.259  1.00  0.00     0.135 A 
ATOM     77  F   UNL A   1      38.244  34.117  29.517  1.00  0.00    -0.206 F 
ATOM     78  C   UNL A   1      35.960  34.585  29.259  1.00  0.00     0.059 A 
ATOM     79  C   UNL A   1      34.331  33.419  30.628  1.00  0.00     0.059 A 
ATOM     80  F   UNL A   1      35.055  31.851  32.218  1.00  0.00    -0.206 F 
ATOM     81  C   UNL A   1      34.636  34.346  29.633  1.00  0.00     0.060 A 
BRANCH  81  82
ATOM     82  S   UNL A   1      33.323  35.234  28.765  1.00  0.00     0.124 S 
ATOM     83  O   UNL A   1      32.695  34.162  28.001  1.00  0.00    -0.237 OA
ATOM     84  O   UNL A   1      32.540  35.772  29.874  1.00  0.00    -0.237 OA
ATOM     85  O   UNL A   1      34.049  36.226  27.980  1.00  0.00    -0.744 OA
ENDBRANCH  81  82
ENDBRANCH  49  74
BRANCH  61  86
ATOM     86  C   UNL A   1      39.973  33.852  37.017  1.00  0.00     0.058 A 
ATOM     87  C   UNL A   1      40.494  35.150  36.926  1.00  0.00     0.135 A 
ATOM     88  C   UNL A   1      39.187  33.538  38.140  1.00  0.00     0.135 A 
ATOM     89  F   UNL A   1      41.252  35.502  35.875  1.00  0.00    -0.206 F 
ATOM     90  C   UNL A   1      40.249  36.102  37.911  1.00  0.00     0.059 A 
ATOM     91  C   UNL A   1      38.905  34.482  39.122  1.00  0.00     0.059 A 
ATOM     92  F   UNL A   1      38.651  32.314  38.269  1.00  0.00    -0.206 F 
ATOM     93  C   UNL A   1      39.445  35.761  39.001  1.00  0.00     0.060 A 
BRANCH  93  94
ATOM     94  S   UNL A   1      39.089  37.027  40.237  1.00  0.00     0.124 S 
ATOM     95  O   UNL A   1      38.507  38.084  39.417  1.00  0.00    -0.237 OA
ATOM     96  O   UNL A   1      38.165  36.337  41.132  1.00  0.00    -0.237 OA
ATOM     97  O   UNL A   1      40.399  37.327  40.807  1.00  0.00    -0.744 OA
ENDBRANCH  93  94
ENDBRANCH  61  86
ENDBRANCH  35  36
ENDBRANCH  28  30
ENDBRANCH  27  28
ENDBRANCH  26  27
ENDBRANCH   1  26
TORSDOF 19
ENDMDL
MODEL 2
REMARK VINA RESULT:     -11.1      6.130     12.033
REMARK SMILES Cc1nn(C)c(=O)c(C(=O)N2CC[C@@H](C(=O)OCCOCCOC(=O)c3ccc(-c4c5nc(c(-c6c(F)cc(S(=O)(=O)[O-])cc6F)c6ccc([nH]6)c(-c6c(F)cc(S(=O)(=O)[O-])cc6F)c6nc(c(-c7c(F)cc(S(=O)(=O)[O-])cc7F)c7ccc4[nH]7)C=C6)C=C5)cc3)[C@@H]2C)c1C
REMARK SMILES IDX 21 1 20 2 19 3 18 4 17 5 15 6 16 7 14 8 11 9 12 10 92 11
REMARK SMILES IDX 13 12 93 13 9 14 10 15 8 16 1 17 2 18 3 19 94 20 4 21 95 22
REMARK SMILES IDX 5 23 6 24 7 25 22 26 23 27 24 28 25 29 26 30 27 31 91 32
REMARK SMILES IDX 28 33 90 34 29 35 30 36 31 37 84 38 32 39 89 40 83 41 85 42
REMARK SMILES IDX 33 43 88 44 82 45 81 46 34 48 68 49 47 50 67 51 48 52 51 53
REMARK SMILES IDX 66 54 86 55 49 56 50 57 65 59 87 60 52 61 35 62 36 63 45 64
REMARK SMILES IDX 37 65 38 66 44 67 46 68 39 69 40 70 41 71 42 72 43 73 69 74
REMARK SMILES IDX 70 75 79 76 71 77 72 78 78 79 80 80 73 81 74 82 75 83 76 84
REMARK SMILES IDX 77 85 53 86 54 87 63 88 55 89 56 90 62 91 64 92 57 93 58 94
REMARK SMILES IDX 59 95 60 96 61 97
REMARK H PARENT 85 47 51 58
REMARK Flexibility Score: inf
ROOT
ATOM      1  C   UNL A   1      34.692  32.818  28.461  1.00  0.00     0.202 C 
ENDROOT
BRANCH   1   2
ATOM      2  O   UNL A   1      34.512  31.926  27.365  1.00  0.00    -0.374 OA
BRANCH   2   3
ATOM      3  C   UNL A   1      33.206  31.378  27.193  1.00  0.00     0.202 C 
BRANCH   3   4
ATOM      4  C   UNL A   1      33.080  29.863  27.344  1.00  0.00     0.261 C 
BRANCH   4   5
ATOM      5  O   UNL A   1      33.426  29.185  26.121  1.00  0.00    -0.463 OA
BRANCH   5   6
ATOM      6  C   UNL A   1      32.391  28.609  25.459  1.00  0.00     0.311 C 
ATOM      7  O   UNL A   1      31.473  29.219  24.923  1.00  0.00    -0.252 OA
BRANCH   6   8
ATOM      8  C   UNL A   1      32.439  27.100  25.493  1.00  0.00     0.123 C 
ATOM      9  N   UNL A   1      33.455  25.355  24.217  1.00  0.00    -0.335 N 
ATOM     10  C   UNL A   1      33.936  25.253  25.580  1.00  0.00     0.121 C 
ATOM     11  C   UNL A   1      32.361  26.340  24.139  1.00  0.00     0.096 C 
ATOM     12  C   UNL A   1      33.750  26.649  26.130  1.00  0.00     0.039 C 
ATOM     13  C   UNL A   1      31.010  25.620  24.029  1.00  0.00     0.032 C 
BRANCH   9  14
ATOM     14  C   UNL A   1      34.012  24.501  23.287  1.00  0.00     0.260 C 
ATOM     15  O   UNL A   1      34.098  24.879  22.113  1.00  0.00    -0.269 OA
BRANCH  14  16
ATOM     16  C   UNL A   1      34.362  23.073  23.598  1.00  0.00     0.111 A 
ATOM     17  C   UNL A   1      37.017  20.751  24.947  1.00  0.00     0.069 C 
ATOM     18  C   UNL A   1      35.677  21.327  24.603  1.00  0.00     0.062 A 
ATOM     19  N   UNL A   1      34.680  20.557  24.870  1.00  0.00    -0.175 NA
ATOM     20  C   UNL A   1      35.585  22.702  24.033  1.00  0.00    -0.010 A 
ATOM     21  N   UNL A   1      33.441  20.983  24.536  1.00  0.00    -0.232 N 
ATOM     22  C   UNL A   1      36.831  23.528  24.161  1.00  0.00     0.047 C 
ATOM     23  C   UNL A   1      32.373  20.091  24.957  1.00  0.00     0.178 C 
ATOM     24  C   UNL A   1      33.203  22.113  23.763  1.00  0.00     0.279 A 
ATOM     25  O   UNL A   1      32.112  22.335  23.240  1.00  0.00    -0.267 OA
ENDBRANCH  14  16
ENDBRANCH   9  14
ENDBRANCH   6   8
ENDBRANCH   5   6
ENDBRANCH   4   5
ENDBRANCH   3   4
ENDBRANCH   2   3
ENDBRANCH   1   2
BRANCH   1  26
ATOM     26  C   UNL A   1      34.956  32.191  29.837  1.00  0.00     0.261 C 
BRANCH  26  27
ATOM     27  O   UNL A   1      35.615  30.917  29.760  1.00  0.00    -0.460 OA
BRANCH  27  28
ATOM     28  C   UNL A   1      36.400  30.611  30.826  1.00  0.00     0.338 C 
ATOM     29  O   UNL A   1      36.057  30.505  31.992  1.00  0.00    -0.246 OA
BRANCH  28  30
ATOM     30  C   UNL A   1      37.741  30.254  30.335  1.00  0.00     0.060 A 
ATOM     31  C   UNL A   1      37.989  30.231  28.955  1.00  0.00     0.016 A 
ATOM     32  C   UNL A   1      38.752  29.932  31.233  1.00  0.00     0.016 A 
ATOM     33  C   UNL A   1      39.262  29.908  28.470  1.00  0.00     0.010 A 
ATOM     34  C   UNL A   1      40.017  29.608  30.738  1.00  0.00     0.010 A 
ATOM     35  C   UNL A   1      40.300  29.592  29.356  1.00  0.00    -0.014 A 
BRANCH  35  36
ATOM     36  C   UNL A   1      41.633  29.112  28.875  1.00  0.00     0.031 A 
ATOM     37  C   UNL A   1      42.776  30.100  28.831  1.00  0.00     0.074 A 
ATOM     38  C   UNL A   1      41.846  27.845  28.455  1.00  0.00     0.049 A 
ATOM     39  N   UNL A   1      43.980  29.959  28.339  1.00  0.00    -0.248 NA
ATOM     40  C   UNL A   1      42.507  31.445  29.369  1.00  0.00     0.031 C 
ATOM     41  C   UNL A   1      40.845  26.778  28.404  1.00  0.00     0.029 A 
ATOM     42  N   UNL A   1      42.992  27.237  27.988  1.00  0.00    -0.354 N 
ATOM     43  C   UNL A   1      44.585  31.204  28.475  1.00  0.00     0.074 A 
ATOM     44  C   UNL A   1      43.587  32.108  28.994  1.00  0.00     0.031 C 
ATOM     45  C   UNL A   1      41.429  25.644  27.974  1.00  0.00     0.029 A 
ATOM     46  C   UNL A   1      42.837  25.902  27.681  1.00  0.00     0.049 A 
ATOM     47  H   UNL A   1      43.845  27.715  27.883  1.00  0.00     0.167 HD
ATOM     48  C   UNL A   1      45.871  31.562  28.255  1.00  0.00     0.037 A 
ATOM     49  C   UNL A   1      43.727  24.993  27.224  1.00  0.00     0.037 A 
ATOM     50  C   UNL A   1      46.896  30.654  27.823  1.00  0.00     0.049 A 
ATOM     51  C   UNL A   1      45.158  25.413  26.972  1.00  0.00     0.074 A 
ATOM     52  C   UNL A   1      48.241  30.911  27.632  1.00  0.00     0.029 A 
ATOM     53  N   UNL A   1      46.695  29.314  27.538  1.00  0.00    -0.354 N 
ATOM     54  N   UNL A   1      45.719  26.586  27.150  1.00  0.00    -0.248 NA
ATOM     55  C   UNL A   1      46.078  24.383  26.460  1.00  0.00     0.031 C 
ATOM     56  C   UNL A   1      48.849  29.733  27.192  1.00  0.00     0.029 A 
ATOM     57  C   UNL A   1      47.892  28.731  27.159  1.00  0.00     0.049 A 
ATOM     58  H   UNL A   1      45.831  28.846  27.597  1.00  0.00     0.167 HD
ATOM     59  C   UNL A   1      47.058  26.426  26.801  1.00  0.00     0.074 A 
ATOM     60  C   UNL A   1      47.229  25.043  26.415  1.00  0.00     0.031 C 
ATOM     61  C   UNL A   1      48.055  27.345  26.799  1.00  0.00     0.037 A 
BRANCH  48  62
ATOM     62  C   UNL A   1      46.247  32.991  28.526  1.00  0.00     0.058 A 
ATOM     63  C   UNL A   1      46.680  33.407  29.797  1.00  0.00     0.135 A 
ATOM     64  C   UNL A   1      46.190  33.954  27.506  1.00  0.00     0.135 A 
ATOM     65  F   UNL A   1      46.729  32.532  30.815  1.00  0.00    -0.206 F 
ATOM     66  C   UNL A   1      47.005  34.731  30.056  1.00  0.00     0.059 A 
ATOM     67  C   UNL A   1      46.549  35.279  27.734  1.00  0.00     0.059 A 
ATOM     68  F   UNL A   1      45.782  33.611  26.274  1.00  0.00    -0.206 F 
ATOM     69  C   UNL A   1      46.938  35.660  29.017  1.00  0.00     0.060 A 
BRANCH  69  70
ATOM     70  S   UNL A   1      47.378  37.373  29.376  1.00  0.00     0.124 S 
ATOM     71  O   UNL A   1      47.914  37.257  30.729  1.00  0.00    -0.237 OA
ATOM     72  O   UNL A   1      48.352  37.666  28.331  1.00  0.00    -0.237 OA
ATOM     73  O   UNL A   1      46.106  38.081  29.264  1.00  0.00    -0.744 OA
ENDBRANCH  69  70
ENDBRANCH  48  62
BRANCH  49  74
ATOM     74  C   UNL A   1      43.318  23.574  27.006  1.00  0.00     0.058 A 
ATOM     75  C   UNL A   1      42.974  23.115  25.724  1.00  0.00     0.135 A 
ATOM     76  C   UNL A   1      43.244  22.655  28.064  1.00  0.00     0.135 A 
ATOM     77  F   UNL A   1      43.009  23.956  24.679  1.00  0.00    -0.206 F 
ATOM     78  C   UNL A   1      42.564  21.803  25.499  1.00  0.00     0.059 A 
ATOM     79  C   UNL A   1      42.861  21.330  27.860  1.00  0.00     0.059 A 
ATOM     80  F   UNL A   1      43.566  23.036  29.310  1.00  0.00    -0.206 F 
ATOM     81  C   UNL A   1      42.518  20.915  26.574  1.00  0.00     0.060 A 
BRANCH  81  82
ATOM     82  S   UNL A   1      42.045  19.200  26.255  1.00  0.00     0.124 S 
ATOM     83  O   UNL A   1      42.242  18.589  27.564  1.00  0.00    -0.237 OA
ATOM     84  O   UNL A   1      40.660  19.346  25.819  1.00  0.00    -0.237 OA
ATOM     85  O   UNL A   1      42.981  18.781  25.216  1.00  0.00    -0.744 OA
ENDBRANCH  81  82
ENDBRANCH  49  74
BRANCH  61  86
ATOM     86  C   UNL A   1      49.438  26.900  26.401  1.00  0.00     0.058 A 
ATOM     87  C   UNL A   1      50.272  26.208  27.289  1.00  0.00     0.135 A 
ATOM     88  C   UNL A   1      49.884  27.068  25.078  1.00  0.00     0.135 A 
ATOM     89  F   UNL A   1      49.895  26.020  28.564  1.00  0.00    -0.206 F 
ATOM     90  C   UNL A   1      51.503  25.702  26.885  1.00  0.00     0.059 A 
ATOM     91  C   UNL A   1      51.098  26.546  24.644  1.00  0.00     0.059 A 
ATOM     92  F   UNL A   1      49.118  27.710  24.182  1.00  0.00    -0.206 F 
ATOM     93  C   UNL A   1      51.904  25.868  25.557  1.00  0.00     0.060 A 
BRANCH  93  94
ATOM     94  S   UNL A   1      53.477  25.151  25.036  1.00  0.00     0.124 S 
ATOM     95  O   UNL A   1      54.420  25.851  25.902  1.00  0.00    -0.237 OA
ATOM     96  O   UNL A   1      53.283  23.734  25.324  1.00  0.00    -0.237 OA
ATOM     97  O   UNL A   1      53.556  25.493  23.619  1.00  0.00    -0.744 OA
ENDBRANCH  93  94
ENDBRANCH  61  86
ENDBRANCH  35  36
ENDBRANCH  28  30
ENDBRANCH  27  28
ENDBRANCH  26  27
ENDBRANCH   1  26
TORSDOF 19
ENDMDL
MODEL 3
REMARK VINA RESULT:     -11.1      6.184     11.962
REMARK SMILES Cc1nn(C)c(=O)c(C(=O)N2CC[C@@H](C(=O)OCCOCCOC(=O)c3ccc(-c4c5nc(c(-c6c(F)cc(S(=O)(=O)[O-])cc6F)c6ccc([nH]6)c(-c6c(F)cc(S(=O)(=O)[O-])cc6F)c6nc(c(-c7c(F)cc(S(=O)(=O)[O-])cc7F)c7ccc4[nH]7)C=C6)C=C5)cc3)[C@@H]2C)c1C
REMARK SMILES IDX 21 1 20 2 19 3 18 4 17 5 15 6 16 7 14 8 11 9 12 10 92 11
REMARK SMILES IDX 13 12 93 13 9 14 10 15 8 16 1 17 2 18 3 19 94 20 4 21 95 22
REMARK SMILES IDX 5 23 6 24 7 25 22 26 23 27 24 28 25 29 26 30 27 31 91 32
REMARK SMILES IDX 28 33 90 34 29 35 30 36 31 37 84 38 32 39 89 40 83 41 85 42
REMARK SMILES IDX 33 43 88 44 82 45 81 46 34 48 68 49 47 50 67 51 48 52 51 53
REMARK SMILES IDX 66 54 86 55 49 56 50 57 65 59 87 60 52 61 35 62 36 63 45 64
REMARK SMILES IDX 37 65 38 66 44 67 46 68 39 69 40 70 41 71 42 72 43 73 69 74
REMARK SMILES IDX 70 75 79 76 71 77 72 78 78 79 80 80 73 81 74 82 75 83 76 84
REMARK SMILES IDX 77 85 53 86 54 87 63 88 55 89 56 90 62 91 64 92 57 93 58 94
REMARK SMILES IDX 59 95 60 96 61 97
REMARK H PARENT 85 47 51 58
REMARK Flexibility Score: inf
ROOT
ATOM      1  C   UNL A   1      34.194  31.836  28.444  1.00  0.00     0.202 C 
ENDROOT
BRANCH   1   2
ATOM      2  O   UNL A   1      35.067  31.239  27.489  1.00  0.00    -0.374 OA
BRANCH   2   3
ATOM      3  C   UNL A   1      34.794  29.886  27.130  1.00  0.00     0.202 C 
BRANCH   3   4
ATOM      4  C   UNL A   1      33.337  29.437  27.232  1.00  0.00     0.261 C 
BRANCH   4   5
ATOM      5  O   UNL A   1      33.230  28.000  27.209  1.00  0.00    -0.463 OA
BRANCH   5   6
ATOM      6  C   UNL A   1      32.022  27.510  26.834  1.00  0.00     0.311 C 
ATOM      7  O   UNL A   1      31.038  27.436  27.560  1.00  0.00    -0.252 OA
BRANCH   6   8
ATOM      8  C   UNL A   1      32.014  26.992  25.415  1.00  0.00     0.123 C 
ATOM      9  N   UNL A   1      33.118  25.275  24.175  1.00  0.00    -0.335 N 
ATOM     10  C   UNL A   1      31.692  25.024  24.117  1.00  0.00     0.121 C 
ATOM     11  C   UNL A   1      33.375  26.596  24.778  1.00  0.00     0.096 C 
ATOM     12  C   UNL A   1      31.155  25.732  25.340  1.00  0.00     0.039 C 
ATOM     13  C   UNL A   1      33.750  27.609  23.689  1.00  0.00     0.032 C 
BRANCH   9  14
ATOM     14  C   UNL A   1      33.947  24.327  23.612  1.00  0.00     0.260 C 
ATOM     15  O   UNL A   1      34.227  24.424  22.412  1.00  0.00    -0.269 OA
BRANCH  14  16
ATOM     16  C   UNL A   1      34.387  23.090  24.343  1.00  0.00     0.111 A 
ATOM     17  C   UNL A   1      33.868  19.371  24.742  1.00  0.00     0.069 C 
ATOM     18  C   UNL A   1      34.528  20.717  24.710  1.00  0.00     0.062 A 
ATOM     19  N   UNL A   1      35.742  20.727  25.136  1.00  0.00    -0.175 NA
ATOM     20  C   UNL A   1      33.783  21.894  24.179  1.00  0.00    -0.010 A 
ATOM     21  N   UNL A   1      36.386  21.915  25.192  1.00  0.00    -0.232 N 
ATOM     22  C   UNL A   1      32.539  21.565  23.407  1.00  0.00     0.047 C 
ATOM     23  C   UNL A   1      37.778  21.817  25.599  1.00  0.00     0.178 C 
ATOM     24  C   UNL A   1      35.756  23.136  24.989  1.00  0.00     0.279 A 
ATOM     25  O   UNL A   1      36.274  24.206  25.307  1.00  0.00    -0.267 OA
ENDBRANCH  14  16
ENDBRANCH   9  14
ENDBRANCH   6   8
ENDBRANCH   5   6
ENDBRANCH   4   5
ENDBRANCH   3   4
ENDBRANCH   2   3
ENDBRANCH   1   2
BRANCH   1  26
ATOM     26  C   UNL A   1      34.845  32.527  29.651  1.00  0.00     0.261 C 
BRANCH  26  27
ATOM     27  O   UNL A   1      36.262  32.305  29.732  1.00  0.00    -0.460 OA
BRANCH  27  28
ATOM     28  C   UNL A   1      36.643  31.350  30.620  1.00  0.00     0.338 C 
ATOM     29  O   UNL A   1      36.007  30.927  31.573  1.00  0.00    -0.246 OA
BRANCH  28  30
ATOM     30  C   UNL A   1      37.910  30.758  30.160  1.00  0.00     0.060 A 
ATOM     31  C   UNL A   1      38.901  30.430  31.096  1.00  0.00     0.016 A 
ATOM     32  C   UNL A   1      38.126  30.536  28.805  1.00  0.00     0.016 A 
ATOM     33  C   UNL A   1      40.106  29.853  30.678  1.00  0.00     0.010 A 
ATOM     34  C   UNL A   1      39.334  29.962  28.399  1.00  0.00     0.010 A 
ATOM     35  C   UNL A   1      40.342  29.608  29.320  1.00  0.00    -0.014 A 
BRANCH  35  36
ATOM     36  C   UNL A   1      41.666  29.119  28.822  1.00  0.00     0.031 A 
ATOM     37  C   UNL A   1      42.812  30.102  28.751  1.00  0.00     0.074 A 
ATOM     38  C   UNL A   1      41.867  27.848  28.409  1.00  0.00     0.049 A 
ATOM     39  N   UNL A   1      44.007  29.953  28.241  1.00  0.00    -0.248 NA
ATOM     40  C   UNL A   1      42.557  31.452  29.282  1.00  0.00     0.031 C 
ATOM     41  C   UNL A   1      40.861  26.785  28.383  1.00  0.00     0.029 A 
ATOM     42  N   UNL A   1      43.003  27.231  27.929  1.00  0.00    -0.354 N 
ATOM     43  C   UNL A   1      44.619  31.196  28.357  1.00  0.00     0.074 A 
ATOM     44  C   UNL A   1      43.633  32.108  28.884  1.00  0.00     0.031 C 
ATOM     45  C   UNL A   1      41.434  25.644  27.954  1.00  0.00     0.029 A 
ATOM     46  C   UNL A   1      42.838  25.894  27.635  1.00  0.00     0.049 A 
ATOM     47  H   UNL A   1      43.857  27.705  27.806  1.00  0.00     0.167 HD
ATOM     48  C   UNL A   1      45.902  31.547  28.113  1.00  0.00     0.037 A 
ATOM     49  C   UNL A   1      43.717  24.978  27.171  1.00  0.00     0.037 A 
ATOM     50  C   UNL A   1      46.917  30.631  27.672  1.00  0.00     0.049 A 
ATOM     51  C   UNL A   1      45.145  25.390  26.893  1.00  0.00     0.074 A 
ATOM     52  C   UNL A   1      48.260  30.881  27.457  1.00  0.00     0.029 A 
ATOM     53  N   UNL A   1      46.706  29.289  27.401  1.00  0.00    -0.354 N 
ATOM     54  N   UNL A   1      45.713  26.562  27.053  1.00  0.00    -0.248 NA
ATOM     55  C   UNL A   1      46.053  24.353  26.375  1.00  0.00     0.031 C 
ATOM     56  C   UNL A   1      48.856  29.697  27.017  1.00  0.00     0.029 A 
ATOM     57  C   UNL A   1      47.895  28.699  27.008  1.00  0.00     0.049 A 
ATOM     58  H   UNL A   1      45.841  28.825  27.478  1.00  0.00     0.167 HD
ATOM     59  C   UNL A   1      47.046  26.394  26.683  1.00  0.00     0.074 A 
ATOM     60  C   UNL A   1      47.206  25.007  26.306  1.00  0.00     0.031 C 
ATOM     61  C   UNL A   1      48.047  27.309  26.657  1.00  0.00     0.037 A 
BRANCH  48  62
ATOM     62  C   UNL A   1      46.288  32.977  28.366  1.00  0.00     0.058 A 
ATOM     63  C   UNL A   1      46.194  33.951  27.358  1.00  0.00     0.135 A 
ATOM     64  C   UNL A   1      46.740  33.385  29.631  1.00  0.00     0.135 A 
ATOM     65  F   UNL A   1      45.790  33.610  26.123  1.00  0.00    -0.206 F 
ATOM     66  C   UNL A   1      46.572  35.267  27.582  1.00  0.00     0.059 A 
ATOM     67  C   UNL A   1      47.087  34.707  29.889  1.00  0.00     0.059 A 
ATOM     68  F   UNL A   1      46.850  32.495  30.630  1.00  0.00    -0.206 F 
ATOM     69  C   UNL A   1      47.015  35.637  28.853  1.00  0.00     0.060 A 
BRANCH  69  70
ATOM     70  S   UNL A   1      47.488  37.357  29.123  1.00  0.00     0.124 S 
ATOM     71  O   UNL A   1      46.185  37.996  29.278  1.00  0.00    -0.237 OA
ATOM     72  O   UNL A   1      48.298  37.267  30.333  1.00  0.00    -0.237 OA
ATOM     73  O   UNL A   1      48.216  37.705  27.906  1.00  0.00    -0.744 OA
ENDBRANCH  69  70
ENDBRANCH  48  62
BRANCH  49  74
ATOM     74  C   UNL A   1      43.299  23.559  26.973  1.00  0.00     0.058 A 
ATOM     75  C   UNL A   1      43.053  23.057  25.683  1.00  0.00     0.135 A 
ATOM     76  C   UNL A   1      43.120  22.682  28.053  1.00  0.00     0.135 A 
ATOM     77  F   UNL A   1      43.190  23.858  24.616  1.00  0.00    -0.206 F 
ATOM     78  C   UNL A   1      42.637  21.745  25.473  1.00  0.00     0.059 A 
ATOM     79  C   UNL A   1      42.729  21.357  27.867  1.00  0.00     0.059 A 
ATOM     80  F   UNL A   1      43.346  23.104  29.307  1.00  0.00    -0.206 F 
ATOM     81  C   UNL A   1      42.484  20.899  26.572  1.00  0.00     0.060 A 
BRANCH  81  82
ATOM     82  S   UNL A   1      42.006  19.182  26.278  1.00  0.00     0.124 S 
ATOM     83  O   UNL A   1      42.244  18.579  27.584  1.00  0.00    -0.237 OA
ATOM     84  O   UNL A   1      40.608  19.322  25.884  1.00  0.00    -0.237 OA
ATOM     85  O   UNL A   1      42.910  18.758  25.213  1.00  0.00    -0.744 OA
ENDBRANCH  81  82
ENDBRANCH  49  74
BRANCH  61  86
ATOM     86  C   UNL A   1      49.421  26.856  26.240  1.00  0.00     0.058 A 
ATOM     87  C   UNL A   1      49.875  27.003  24.922  1.00  0.00     0.135 A 
ATOM     88  C   UNL A   1      50.332  26.378  27.198  1.00  0.00     0.135 A 
ATOM     89  F   UNL A   1      49.046  27.454  23.967  1.00  0.00    -0.206 F 
ATOM     90  C   UNL A   1      51.182  26.686  24.564  1.00  0.00     0.059 A 
ATOM     91  C   UNL A   1      51.652  26.083  26.870  1.00  0.00     0.059 A 
ATOM     92  F   UNL A   1      49.954  26.233  28.478  1.00  0.00    -0.206 F 
ATOM     93  C   UNL A   1      52.066  26.236  25.548  1.00  0.00     0.060 A 
BRANCH  93  94
ATOM     94  S   UNL A   1      53.774  25.888  25.077  1.00  0.00     0.124 S 
ATOM     95  O   UNL A   1      53.687  24.493  24.660  1.00  0.00    -0.237 OA
ATOM     96  O   UNL A   1      54.004  26.857  24.009  1.00  0.00    -0.237 OA
ATOM     97  O   UNL A   1      54.524  26.129  26.306  1.00  0.00    -0.744 OA
ENDBRANCH  93  94
ENDBRANCH  61  86
ENDBRANCH  35  36
ENDBRANCH  28  30
ENDBRANCH  27  28
ENDBRANCH  26  27
ENDBRANCH   1  26
TORSDOF 19
ENDMDL
