MODEL 1
REMARK VINA RESULT:     -10.0      0.000      0.000
REMARK SMILES COc1ccc(C(=O)N(C)CCC(=O)OCCOCCOC(=O)c2ccc(-c3c4nc(c(-c5c(F)cc(S(=O)(=O)[O-])cc5F)c5ccc([nH]5)c(-c5c(F)cc(S(=O)(=O)[O-])cc5F)c5nc(c(-c6c(F)cc(S(=O)(=O)[O-])cc6F)c6ccc3[nH]6)C=C5)C=C4)cc2)cc1O
REMARK SMILES IDX 17 1 16 2 15 3 13 4 14 5 12 6 11 7 9 8 10 9 7 10 8 11 6 12
REMARK SMILES IDX 3 13 4 14 91 15 5 16 90 17 2 18 1 19 92 20 18 22 19 23 20 24
REMARK SMILES IDX 21 25 22 26 23 27 24 28 25 29 89 30 26 31 88 32 27 33 28 34
REMARK SMILES IDX 29 35 82 36 30 37 87 38 81 39 83 40 31 41 86 42 80 43 79 44
REMARK SMILES IDX 32 46 66 47 45 48 65 49 46 50 49 51 64 52 84 53 47 54 48 55
REMARK SMILES IDX 63 57 85 58 50 59 33 60 34 61 43 62 35 63 36 64 42 65 44 66
REMARK SMILES IDX 37 67 38 68 39 69 40 70 41 71 67 72 68 73 77 74 69 75 70 76
REMARK SMILES IDX 76 77 78 78 71 79 72 80 73 81 74 82 75 83 51 84 52 85 61 86
REMARK SMILES IDX 53 87 54 88 60 89 62 90 55 91 56 92 57 93 58 94 59 95
REMARK H PARENT 92 21 83 45 49 56
REMARK Flexibility Score: inf
ROOT
ATOM      1  C   UNL A   1      39.806  20.893  26.497  1.00  0.00     0.202 C 
ENDROOT
BRANCH   1   2
ATOM      2  C   UNL A   1      38.835  21.725  25.650  1.00  0.00     0.261 C 
BRANCH   2   3
ATOM      3  O   UNL A   1      37.453  21.456  25.972  1.00  0.00    -0.463 OA
BRANCH   3   4
ATOM      4  C   UNL A   1      36.531  22.358  25.556  1.00  0.00     0.307 C 
ATOM      5  O   UNL A   1      36.240  23.392  26.147  1.00  0.00    -0.252 OA
BRANCH   4   6
ATOM      6  C   UNL A   1      35.840  21.926  24.281  1.00  0.00     0.144 C 
BRANCH   6   7
ATOM      7  C   UNL A   1      34.969  22.990  23.605  1.00  0.00     0.131 C 
BRANCH   7   8
ATOM      8  N   UNL A   1      33.542  22.632  23.570  1.00  0.00    -0.341 N 
ATOM      9  C   UNL A   1      32.780  23.088  22.423  1.00  0.00     0.147 C 
BRANCH   8  10
ATOM     10  C   UNL A   1      33.075  21.774  24.558  1.00  0.00     0.253 C 
ATOM     11  O   UNL A   1      32.695  22.210  25.642  1.00  0.00    -0.269 OA
BRANCH  10  12
ATOM     12  C   UNL A   1      32.870  20.325  24.355  1.00  0.00     0.043 A 
ATOM     13  C   UNL A   1      32.883  17.505  24.118  1.00  0.00     0.160 A 
ATOM     14  C   UNL A   1      33.278  18.144  25.296  1.00  0.00     0.051 A 
ATOM     15  C   UNL A   1      32.434  18.307  23.069  1.00  0.00     0.158 A 
ATOM     16  C   UNL A   1      33.284  19.525  25.420  1.00  0.00     0.018 A 
ATOM     17  C   UNL A   1      32.448  19.712  23.175  1.00  0.00     0.064 A 
BRANCH  13  18
ATOM     18  O   UNL A   1      33.059  16.162  24.218  1.00  0.00    -0.493 OA
ATOM     19  C   UNL A   1      32.767  15.415  25.379  1.00  0.00     0.278 C 
ENDBRANCH  13  18
BRANCH  15  20
ATOM     20  O   UNL A   1      31.957  17.835  21.879  1.00  0.00    -0.504 OA
ATOM     21  H   UNL A   1      32.485  17.267  21.355  1.00  0.00     0.293 HD
ENDBRANCH  15  20
ENDBRANCH  10  12
ENDBRANCH   8  10
ENDBRANCH   7   8
ENDBRANCH   6   7
ENDBRANCH   4   6
ENDBRANCH   3   4
ENDBRANCH   2   3
ENDBRANCH   1   2
BRANCH   1  22
ATOM     22  O   UNL A   1      40.379  21.586  27.610  1.00  0.00    -0.374 OA
BRANCH  22  23
ATOM     23  C   UNL A   1      41.777  21.849  27.497  1.00  0.00     0.202 C 
BRANCH  23  24
ATOM     24  C   UNL A   1      42.189  22.803  26.364  1.00  0.00     0.261 C 
BRANCH  24  25
ATOM     25  O   UNL A   1      41.343  23.961  26.260  1.00  0.00    -0.460 OA
BRANCH  25  26
ATOM     26  C   UNL A   1      41.981  25.139  26.065  1.00  0.00     0.338 C 
ATOM     27  O   UNL A   1      42.426  25.552  25.013  1.00  0.00    -0.246 OA
BRANCH  26  28
ATOM     28  C   UNL A   1      41.940  25.964  27.303  1.00  0.00     0.060 A 
ATOM     29  C   UNL A   1      40.793  25.862  28.103  1.00  0.00     0.016 A 
ATOM     30  C   UNL A   1      42.963  26.837  27.676  1.00  0.00     0.016 A 
ATOM     31  C   UNL A   1      40.633  26.670  29.235  1.00  0.00     0.010 A 
ATOM     32  C   UNL A   1      42.804  27.639  28.820  1.00  0.00     0.010 A 
ATOM     33  C   UNL A   1      41.623  27.592  29.592  1.00  0.00    -0.014 A 
BRANCH  33  34
ATOM     34  C   UNL A   1      41.394  28.598  30.676  1.00  0.00     0.031 A 
ATOM     35  C   UNL A   1      42.096  28.411  32.000  1.00  0.00     0.074 A 
ATOM     36  C   UNL A   1      40.569  29.657  30.524  1.00  0.00     0.049 A 
ATOM     37  N   UNL A   1      41.979  29.102  33.105  1.00  0.00    -0.248 NA
ATOM     38  C   UNL A   1      43.078  27.317  32.080  1.00  0.00     0.031 C 
ATOM     39  C   UNL A   1      39.886  30.043  29.293  1.00  0.00     0.029 A 
ATOM     40  N   UNL A   1      40.107  30.567  31.450  1.00  0.00    -0.354 N 
ATOM     41  C   UNL A   1      42.905  28.561  33.989  1.00  0.00     0.074 A 
ATOM     42  C   UNL A   1      43.501  27.420  33.331  1.00  0.00     0.031 C 
ATOM     43  C   UNL A   1      38.975  30.992  29.570  1.00  0.00     0.029 A 
ATOM     44  C   UNL A   1      39.055  31.328  30.988  1.00  0.00     0.049 A 
ATOM     45  H   UNL A   1      40.490  30.665  32.351  1.00  0.00     0.167 HD
ATOM     46  C   UNL A   1      43.274  29.008  35.214  1.00  0.00     0.037 A 
ATOM     47  C   UNL A   1      38.236  32.184  31.631  1.00  0.00     0.037 A 
ATOM     48  C   UNL A   1      42.688  30.145  35.873  1.00  0.00     0.049 A 
ATOM     49  C   UNL A   1      38.538  32.560  33.057  1.00  0.00     0.074 A 
ATOM     50  C   UNL A   1      43.033  30.706  37.089  1.00  0.00     0.029 A 
ATOM     51  N   UNL A   1      41.624  30.885  35.381  1.00  0.00    -0.354 N 
ATOM     52  N   UNL A   1      39.472  32.094  33.849  1.00  0.00    -0.248 NA
ATOM     53  C   UNL A   1      37.720  33.625  33.655  1.00  0.00     0.031 C 
ATOM     54  C   UNL A   1      42.141  31.748  37.361  1.00  0.00     0.029 A 
ATOM     55  C   UNL A   1      41.277  31.874  36.286  1.00  0.00     0.049 A 
ATOM     56  H   UNL A   1      41.180  30.730  34.515  1.00  0.00     0.167 HD
ATOM     57  C   UNL A   1      39.412  32.870  35.003  1.00  0.00     0.074 A 
ATOM     58  C   UNL A   1      38.328  33.810  34.819  1.00  0.00     0.031 C 
ATOM     59  C   UNL A   1      40.208  32.823  36.099  1.00  0.00     0.037 A 
BRANCH  46  60
ATOM     60  C   UNL A   1      44.395  28.286  35.910  1.00  0.00     0.058 A 
ATOM     61  C   UNL A   1      44.141  27.207  36.773  1.00  0.00     0.135 A 
ATOM     62  C   UNL A   1      45.733  28.629  35.666  1.00  0.00     0.135 A 
ATOM     63  F   UNL A   1      42.879  26.844  37.051  1.00  0.00    -0.206 F 
ATOM     64  C   UNL A   1      45.175  26.509  37.388  1.00  0.00     0.059 A 
ATOM     65  C   UNL A   1      46.784  27.926  36.248  1.00  0.00     0.059 A 
ATOM     66  F   UNL A   1      46.031  29.652  34.848  1.00  0.00    -0.206 F 
ATOM     67  C   UNL A   1      46.494  26.873  37.115  1.00  0.00     0.060 A 
BRANCH  67  68
ATOM     68  S   UNL A   1      47.822  25.937  37.900  1.00  0.00     0.124 S 
ATOM     69  O   UNL A   1      47.823  26.503  39.245  1.00  0.00    -0.237 OA
ATOM     70  O   UNL A   1      47.339  24.564  37.791  1.00  0.00    -0.237 OA
ATOM     71  O   UNL A   1      48.990  26.254  37.086  1.00  0.00    -0.744 OA
ENDBRANCH  67  68
ENDBRANCH  46  60
BRANCH  47  72
ATOM     72  C   UNL A   1      37.070  32.788  30.930  1.00  0.00     0.058 A 
ATOM     73  C   UNL A   1      35.779  32.260  31.082  1.00  0.00     0.135 A 
ATOM     74  C   UNL A   1      37.233  33.873  30.054  1.00  0.00     0.135 A 
ATOM     75  F   UNL A   1      35.577  31.212  31.894  1.00  0.00    -0.206 F 
ATOM     76  C   UNL A   1      34.696  32.763  30.367  1.00  0.00     0.059 A 
ATOM     77  C   UNL A   1      36.159  34.410  29.347  1.00  0.00     0.059 A 
ATOM     78  F   UNL A   1      38.447  34.414  29.870  1.00  0.00    -0.206 F 
ATOM     79  C   UNL A   1      34.898  33.838  29.499  1.00  0.00     0.060 A 
BRANCH  79  80
ATOM     80  S   UNL A   1      33.479  34.484  28.586  1.00  0.00     0.124 S 
ATOM     81  O   UNL A   1      34.071  35.617  27.884  1.00  0.00    -0.237 OA
ATOM     82  O   UNL A   1      33.107  33.342  27.756  1.00  0.00    -0.237 OA
ATOM     83  O   UNL A   1      32.527  34.822  29.640  1.00  0.00    -0.744 OA
ENDBRANCH  79  80
ENDBRANCH  47  72
BRANCH  59  84
ATOM     84  C   UNL A   1      39.992  33.857  37.169  1.00  0.00     0.058 A 
ATOM     85  C   UNL A   1      40.620  35.112  37.131  1.00  0.00     0.135 A 
ATOM     86  C   UNL A   1      39.093  33.608  38.222  1.00  0.00     0.135 A 
ATOM     87  F   UNL A   1      41.494  35.400  36.153  1.00  0.00    -0.206 F 
ATOM     88  C   UNL A   1      40.383  36.073  38.109  1.00  0.00     0.059 A 
ATOM     89  C   UNL A   1      38.818  34.566  39.192  1.00  0.00     0.059 A 
ATOM     90  F   UNL A   1      38.459  32.428  38.303  1.00  0.00    -0.206 F 
ATOM     91  C   UNL A   1      39.475  35.793  39.132  1.00  0.00     0.060 A 
BRANCH  91  92
ATOM     92  S   UNL A   1      39.145  37.067  40.368  1.00  0.00     0.124 S 
ATOM     93  O   UNL A   1      38.664  38.166  39.537  1.00  0.00    -0.237 OA
ATOM     94  O   UNL A   1      38.143  36.427  41.214  1.00  0.00    -0.237 OA
ATOM     95  O   UNL A   1      40.445  37.278  40.996  1.00  0.00    -0.744 OA
ENDBRANCH  91  92
ENDBRANCH  59  84
ENDBRANCH  33  34
ENDBRANCH  26  28
ENDBRANCH  25  26
ENDBRANCH  24  25
ENDBRANCH  23  24
ENDBRANCH  22  23
ENDBRANCH   1  22
TORSDOF 23
ENDMDL
MODEL 2
REMARK VINA RESULT:      -9.9      4.650     10.200
REMARK SMILES COc1ccc(C(=O)N(C)CCC(=O)OCCOCCOC(=O)c2ccc(-c3c4nc(c(-c5c(F)cc(S(=O)(=O)[O-])cc5F)c5ccc([nH]5)c(-c5c(F)cc(S(=O)(=O)[O-])cc5F)c5nc(c(-c6c(F)cc(S(=O)(=O)[O-])cc6F)c6ccc3[nH]6)C=C5)C=C4)cc2)cc1O
REMARK SMILES IDX 17 1 16 2 15 3 13 4 14 5 12 6 11 7 9 8 10 9 7 10 8 11 6 12
REMARK SMILES IDX 3 13 4 14 91 15 5 16 90 17 2 18 1 19 92 20 18 22 19 23 20 24
REMARK SMILES IDX 21 25 22 26 23 27 24 28 25 29 89 30 26 31 88 32 27 33 28 34
REMARK SMILES IDX 29 35 82 36 30 37 87 38 81 39 83 40 31 41 86 42 80 43 79 44
REMARK SMILES IDX 32 46 66 47 45 48 65 49 46 50 49 51 64 52 84 53 47 54 48 55
REMARK SMILES IDX 63 57 85 58 50 59 33 60 34 61 43 62 35 63 36 64 42 65 44 66
REMARK SMILES IDX 37 67 38 68 39 69 40 70 41 71 67 72 68 73 77 74 69 75 70 76
REMARK SMILES IDX 76 77 78 78 71 79 72 80 73 81 74 82 75 83 51 84 52 85 61 86
REMARK SMILES IDX 53 87 54 88 60 89 62 90 55 91 56 92 57 93 58 94 59 95
REMARK H PARENT 92 21 83 45 49 56
REMARK Flexibility Score: inf
ROOT
ATOM      1  C   UNL A   1      31.050  28.839  23.794  1.00  0.00     0.202 C 
ENDROOT
BRANCH   1   2
ATOM      2  C   UNL A   1      30.551  27.394  23.672  1.00  0.00     0.261 C 
BRANCH   2   3
ATOM      3  O   UNL A   1      31.215  26.670  22.611  1.00  0.00    -0.463 OA
BRANCH   3   4
ATOM      4  C   UNL A   1      32.515  26.341  22.805  1.00  0.00     0.307 C 
ATOM      5  O   UNL A   1      33.468  26.888  22.263  1.00  0.00    -0.252 OA
BRANCH   4   6
ATOM      6  C   UNL A   1      32.676  25.163  23.741  1.00  0.00     0.144 C 
BRANCH   6   7
ATOM      7  C   UNL A   1      31.839  23.926  23.401  1.00  0.00     0.131 C 
BRANCH   7   8
ATOM      8  N   UNL A   1      32.076  22.798  24.316  1.00  0.00    -0.341 N 
ATOM      9  C   UNL A   1      31.137  22.635  25.410  1.00  0.00     0.147 C 
BRANCH   8  10
ATOM     10  C   UNL A   1      33.087  21.906  23.982  1.00  0.00     0.253 C 
ATOM     11  O   UNL A   1      34.240  22.298  23.808  1.00  0.00    -0.269 OA
BRANCH  10  12
ATOM     12  C   UNL A   1      32.907  20.441  23.940  1.00  0.00     0.043 A 
ATOM     13  C   UNL A   1      32.985  17.612  23.959  1.00  0.00     0.160 A 
ATOM     14  C   UNL A   1      33.511  18.367  25.010  1.00  0.00     0.051 A 
ATOM     15  C   UNL A   1      32.373  18.302  22.912  1.00  0.00     0.158 A 
ATOM     16  C   UNL A   1      33.485  19.753  25.007  1.00  0.00     0.018 A 
ATOM     17  C   UNL A   1      32.353  19.710  22.889  1.00  0.00     0.064 A 
BRANCH  13  18
ATOM     18  O   UNL A   1      33.219  16.289  24.155  1.00  0.00    -0.493 OA
ATOM     19  C   UNL A   1      32.708  15.552  25.245  1.00  0.00     0.278 C 
ENDBRANCH  13  18
BRANCH  15  20
ATOM     20  O   UNL A   1      31.759  17.710  21.846  1.00  0.00    -0.504 OA
ATOM     21  H   UNL A   1      30.831  17.581  21.852  1.00  0.00     0.293 HD
ENDBRANCH  15  20
ENDBRANCH  10  12
ENDBRANCH   8  10
ENDBRANCH   7   8
ENDBRANCH   6   7
ENDBRANCH   4   6
ENDBRANCH   3   4
ENDBRANCH   2   3
ENDBRANCH   1   2
BRANCH   1  22
ATOM     22  O   UNL A   1      31.639  29.168  25.056  1.00  0.00    -0.374 OA
BRANCH  22  23
ATOM     23  C   UNL A   1      31.625  28.113  26.015  1.00  0.00     0.202 C 
BRANCH  23  24
ATOM     24  C   UNL A   1      32.346  28.404  27.342  1.00  0.00     0.261 C 
BRANCH  24  25
ATOM     25  O   UNL A   1      33.761  28.605  27.187  1.00  0.00    -0.460 OA
BRANCH  25  26
ATOM     26  C   UNL A   1      34.227  29.817  27.571  1.00  0.00     0.338 C 
ATOM     27  O   UNL A   1      33.584  30.845  27.651  1.00  0.00    -0.246 OA
BRANCH  26  28
ATOM     28  C   UNL A   1      35.634  29.707  28.046  1.00  0.00     0.060 A 
ATOM     29  C   UNL A   1      36.645  29.828  27.082  1.00  0.00     0.016 A 
ATOM     30  C   UNL A   1      35.978  29.466  29.376  1.00  0.00     0.016 A 
ATOM     31  C   UNL A   1      37.990  29.646  27.426  1.00  0.00     0.010 A 
ATOM     32  C   UNL A   1      37.330  29.295  29.721  1.00  0.00     0.010 A 
ATOM     33  C   UNL A   1      38.349  29.348  28.745  1.00  0.00    -0.014 A 
BRANCH  33  34
ATOM     34  C   UNL A   1      39.749  28.959  29.101  1.00  0.00     0.031 A 
ATOM     35  C   UNL A   1      40.699  30.028  29.586  1.00  0.00     0.074 A 
ATOM     36  C   UNL A   1      40.205  27.692  28.987  1.00  0.00     0.049 A 
ATOM     37  N   UNL A   1      41.975  29.941  29.863  1.00  0.00    -0.248 NA
ATOM     38  C   UNL A   1      40.128  31.367  29.812  1.00  0.00     0.031 C 
ATOM     39  C   UNL A   1      39.408  26.523  28.627  1.00  0.00     0.029 A 
ATOM     40  N   UNL A   1      41.484  27.191  29.095  1.00  0.00    -0.354 N 
ATOM     41  C   UNL A   1      42.344  31.192  30.343  1.00  0.00     0.074 A 
ATOM     42  C   UNL A   1      41.187  32.050  30.220  1.00  0.00     0.031 C 
ATOM     43  C   UNL A   1      40.228  25.485  28.381  1.00  0.00     0.029 A 
ATOM     44  C   UNL A   1      41.605  25.900  28.629  1.00  0.00     0.049 A 
ATOM     45  H   UNL A   1      42.236  27.704  29.468  1.00  0.00     0.167 HD
ATOM     46  C   UNL A   1      43.520  31.578  30.894  1.00  0.00     0.037 A 
ATOM     47  C   UNL A   1      42.697  25.140  28.409  1.00  0.00     0.037 A 
ATOM     48  C   UNL A   1      44.674  30.728  31.022  1.00  0.00     0.049 A 
ATOM     49  C   UNL A   1      44.042  25.636  28.866  1.00  0.00     0.074 A 
ATOM     50  C   UNL A   1      45.890  31.014  31.617  1.00  0.00     0.029 A 
ATOM     51  N   UNL A   1      44.763  29.434  30.536  1.00  0.00    -0.354 N 
ATOM     52  N   UNL A   1      44.355  26.794  29.394  1.00  0.00    -0.248 NA
ATOM     53  C   UNL A   1      45.170  24.699  28.761  1.00  0.00     0.031 C 
ATOM     54  C   UNL A   1      46.735  29.913  31.437  1.00  0.00     0.029 A 
ATOM     55  C   UNL A   1      46.025  28.920  30.784  1.00  0.00     0.049 A 
ATOM     56  H   UNL A   1      44.036  28.950  30.080  1.00  0.00     0.167 HD
ATOM     57  C   UNL A   1      45.693  26.691  29.765  1.00  0.00     0.074 A 
ATOM     58  C   UNL A   1      46.137  25.373  29.370  1.00  0.00     0.031 C 
ATOM     59  C   UNL A   1      46.467  27.602  30.406  1.00  0.00     0.037 A 
BRANCH  46  60
ATOM     60  C   UNL A   1      43.607  32.978  31.439  1.00  0.00     0.058 A 
ATOM     61  C   UNL A   1      43.341  33.250  32.792  1.00  0.00     0.135 A 
ATOM     62  C   UNL A   1      44.018  34.043  30.624  1.00  0.00     0.135 A 
ATOM     63  F   UNL A   1      42.931  32.270  33.613  1.00  0.00    -0.206 F 
ATOM     64  C   UNL A   1      43.459  34.535  33.311  1.00  0.00     0.059 A 
ATOM     65  C   UNL A   1      44.171  35.331  31.130  1.00  0.00     0.059 A 
ATOM     66  F   UNL A   1      44.285  33.836  29.325  1.00  0.00    -0.206 F 
ATOM     67  C   UNL A   1      43.880  35.568  32.473  1.00  0.00     0.060 A 
BRANCH  67  68
ATOM     68  S   UNL A   1      44.055  37.223  33.172  1.00  0.00     0.124 S 
ATOM     69  O   UNL A   1      45.274  37.078  33.962  1.00  0.00    -0.237 OA
ATOM     70  O   UNL A   1      44.168  38.054  31.978  1.00  0.00    -0.237 OA
ATOM     71  O   UNL A   1      42.828  37.399  33.942  1.00  0.00    -0.744 OA
ENDBRANCH  67  68
ENDBRANCH  46  60
BRANCH  47  72
ATOM     72  C   UNL A   1      42.572  23.805  27.762  1.00  0.00     0.058 A 
ATOM     73  C   UNL A   1      42.411  22.640  28.527  1.00  0.00     0.135 A 
ATOM     74  C   UNL A   1      42.661  23.664  26.368  1.00  0.00     0.135 A 
ATOM     75  F   UNL A   1      42.338  22.723  29.864  1.00  0.00    -0.206 F 
ATOM     76  C   UNL A   1      42.376  21.380  27.938  1.00  0.00     0.059 A 
ATOM     77  C   UNL A   1      42.604  22.415  25.754  1.00  0.00     0.059 A 
ATOM     78  F   UNL A   1      42.817  24.746  25.589  1.00  0.00    -0.206 F 
ATOM     79  C   UNL A   1      42.476  21.278  26.549  1.00  0.00     0.060 A 
BRANCH  79  80
ATOM     80  S   UNL A   1      42.422  19.634  25.802  1.00  0.00     0.124 S 
ATOM     81  O   UNL A   1      42.837  18.790  26.916  1.00  0.00    -0.237 OA
ATOM     82  O   UNL A   1      41.021  19.527  25.406  1.00  0.00    -0.237 OA
ATOM     83  O   UNL A   1      43.372  19.736  24.698  1.00  0.00    -0.744 OA
ENDBRANCH  79  80
ENDBRANCH  47  72
BRANCH  59  84
ATOM     84  C   UNL A   1      47.862  27.191  30.787  1.00  0.00     0.058 A 
ATOM     85  C   UNL A   1      48.135  26.490  31.972  1.00  0.00     0.135 A 
ATOM     86  C   UNL A   1      48.939  27.457  29.922  1.00  0.00     0.135 A 
ATOM     87  F   UNL A   1      47.147  26.218  32.839  1.00  0.00    -0.206 F 
ATOM     88  C   UNL A   1      49.427  26.085  32.295  1.00  0.00     0.059 A 
ATOM     89  C   UNL A   1      50.232  27.033  30.210  1.00  0.00     0.059 A 
ATOM     90  F   UNL A   1      48.734  28.118  28.771  1.00  0.00    -0.206 F 
ATOM     91  C   UNL A   1      50.468  26.357  31.405  1.00  0.00     0.060 A 
BRANCH  91  92
ATOM     92  S   UNL A   1      52.130  25.786  31.818  1.00  0.00     0.124 S 
ATOM     93  O   UNL A   1      51.876  24.406  32.219  1.00  0.00    -0.237 OA
ATOM     94  O   UNL A   1      52.840  25.958  30.555  1.00  0.00    -0.237 OA
ATOM     95  O   UNL A   1      52.543  26.686  32.891  1.00  0.00    -0.744 OA
ENDBRANCH  91  92
ENDBRANCH  59  84
ENDBRANCH  33  34
ENDBRANCH  26  28
ENDBRANCH  25  26
ENDBRANCH  24  25
ENDBRANCH  23  24
ENDBRANCH  22  23
ENDBRANCH   1  22
TORSDOF 23
ENDMDL
MODEL 3
REMARK VINA RESULT:      -9.9      2.187      4.023
REMARK SMILES COc1ccc(C(=O)N(C)CCC(=O)OCCOCCOC(=O)c2ccc(-c3c4nc(c(-c5c(F)cc(S(=O)(=O)[O-])cc5F)c5ccc([nH]5)c(-c5c(F)cc(S(=O)(=O)[O-])cc5F)c5nc(c(-c6c(F)cc(S(=O)(=O)[O-])cc6F)c6ccc3[nH]6)C=C5)C=C4)cc2)cc1O
REMARK SMILES IDX 17 1 16 2 15 3 13 4 14 5 12 6 11 7 9 8 10 9 7 10 8 11 6 12
REMARK SMILES IDX 3 13 4 14 91 15 5 16 90 17 2 18 1 19 92 20 18 22 19 23 20 24
REMARK SMILES IDX 21 25 22 26 23 27 24 28 25 29 89 30 26 31 88 32 27 33 28 34
REMARK SMILES IDX 29 35 82 36 30 37 87 38 81 39 83 40 31 41 86 42 80 43 79 44
REMARK SMILES IDX 32 46 66 47 45 48 65 49 46 50 49 51 64 52 84 53 47 54 48 55
REMARK SMILES IDX 63 57 85 58 50 59 33 60 34 61 43 62 35 63 36 64 42 65 44 66
REMARK SMILES IDX 37 67 38 68 39 69 40 70 41 71 67 72 68 73 77 74 69 75 70 76
REMARK SMILES IDX 76 77 78 78 71 79 72 80 73 81 74 82 75 83 51 84 52 85 61 86
REMARK SMILES IDX 53 87 54 88 60 89 62 90 55 91 56 92 57 93 58 94 59 95
REMARK H PARENT 92 21 83 45 49 56
REMARK Flexibility Score: inf
ROOT
ATOM      1  C   UNL A   1      38.399  23.101  26.267  1.00  0.00     0.202 C 
ENDROOT
BRANCH   1   2
ATOM      2  C   UNL A   1      37.292  23.719  25.404  1.00  0.00     0.261 C 
BRANCH   2   3
ATOM      3  O   UNL A   1      36.674  22.752  24.526  1.00  0.00    -0.463 OA
BRANCH   3   4
ATOM      4  C   UNL A   1      35.486  23.091  23.969  1.00  0.00     0.307 C 
ATOM      5  O   UNL A   1      35.282  23.220  22.768  1.00  0.00    -0.252 OA
BRANCH   4   6
ATOM      6  C   UNL A   1      34.418  23.352  25.009  1.00  0.00     0.144 C 
BRANCH   6   7
ATOM      7  C   UNL A   1      33.580  24.617  24.796  1.00  0.00     0.131 C 
BRANCH   7   8
ATOM      8  N   UNL A   1      32.134  24.350  24.744  1.00  0.00    -0.341 N 
ATOM      9  C   UNL A   1      31.716  23.124  24.091  1.00  0.00     0.147 C 
BRANCH   8  10
ATOM     10  C   UNL A   1      31.300  25.215  25.443  1.00  0.00     0.253 C 
ATOM     11  O   UNL A   1      31.082  25.048  26.641  1.00  0.00    -0.269 OA
BRANCH  10  12
ATOM     12  C   UNL A   1      30.730  26.449  24.865  1.00  0.00     0.043 A 
ATOM     13  C   UNL A   1      29.578  28.578  23.398  1.00  0.00     0.160 A 
ATOM     14  C   UNL A   1      28.971  27.321  23.468  1.00  0.00     0.051 A 
ATOM     15  C   UNL A   1      30.757  28.765  24.119  1.00  0.00     0.158 A 
ATOM     16  C   UNL A   1      29.531  26.270  24.177  1.00  0.00     0.018 A 
ATOM     17  C   UNL A   1      31.346  27.701  24.831  1.00  0.00     0.064 A 
BRANCH  13  18
ATOM     18  O   UNL A   1      28.885  29.400  22.569  1.00  0.00    -0.493 OA
ATOM     19  C   UNL A   1      28.249  30.587  22.991  1.00  0.00     0.278 C 
ENDBRANCH  13  18
BRANCH  15  20
ATOM     20  O   UNL A   1      31.437  29.946  24.204  1.00  0.00    -0.504 OA
ATOM     21  H   UNL A   1      31.060  30.671  24.662  1.00  0.00     0.293 HD
ENDBRANCH  15  20
ENDBRANCH  10  12
ENDBRANCH   8  10
ENDBRANCH   7   8
ENDBRANCH   6   7
ENDBRANCH   4   6
ENDBRANCH   3   4
ENDBRANCH   2   3
ENDBRANCH   1   2
BRANCH   1  22
ATOM     22  O   UNL A   1      38.899  21.846  25.797  1.00  0.00    -0.374 OA
BRANCH  22  23
ATOM     23  C   UNL A   1      39.998  21.322  26.541  1.00  0.00     0.202 C 
BRANCH  23  24
ATOM     24  C   UNL A   1      41.354  22.007  26.304  1.00  0.00     0.261 C 
BRANCH  24  25
ATOM     25  O   UNL A   1      41.650  23.029  27.271  1.00  0.00    -0.460 OA
BRANCH  25  26
ATOM     26  C   UNL A   1      42.145  24.186  26.770  1.00  0.00     0.338 C 
ATOM     27  O   UNL A   1      42.716  24.325  25.708  1.00  0.00    -0.246 OA
BRANCH  26  28
ATOM     28  C   UNL A   1      41.760  25.334  27.636  1.00  0.00     0.060 A 
ATOM     29  C   UNL A   1      42.697  26.367  27.782  1.00  0.00     0.016 A 
ATOM     30  C   UNL A   1      40.543  25.409  28.315  1.00  0.00     0.016 A 
ATOM     31  C   UNL A   1      42.454  27.440  28.649  1.00  0.00     0.010 A 
ATOM     32  C   UNL A   1      40.298  26.492  29.176  1.00  0.00     0.010 A 
ATOM     33  C   UNL A   1      41.263  27.502  29.381  1.00  0.00    -0.014 A 
BRANCH  33  34
ATOM     34  C   UNL A   1      41.062  28.526  30.453  1.00  0.00     0.031 A 
ATOM     35  C   UNL A   1      41.761  28.336  31.779  1.00  0.00     0.074 A 
ATOM     36  C   UNL A   1      40.265  29.604  30.291  1.00  0.00     0.049 A 
ATOM     37  N   UNL A   1      41.663  29.043  32.876  1.00  0.00    -0.248 NA
ATOM     38  C   UNL A   1      42.715  27.218  31.870  1.00  0.00     0.031 C 
ATOM     39  C   UNL A   1      39.590  29.994  29.055  1.00  0.00     0.029 A 
ATOM     40  N   UNL A   1      39.828  30.537  31.206  1.00  0.00    -0.354 N 
ATOM     41  C   UNL A   1      42.577  28.488  33.765  1.00  0.00     0.074 A 
ATOM     42  C   UNL A   1      43.142  27.324  33.119  1.00  0.00     0.031 C 
ATOM     43  C   UNL A   1      38.704  30.970  29.322  1.00  0.00     0.029 A 
ATOM     44  C   UNL A   1      38.795  31.319  30.736  1.00  0.00     0.049 A 
ATOM     45  H   UNL A   1      40.214  30.634  32.105  1.00  0.00     0.167 HD
ATOM     46  C   UNL A   1      42.959  28.939  34.984  1.00  0.00     0.037 A 
ATOM     47  C   UNL A   1      38.000  32.204  31.371  1.00  0.00     0.037 A 
ATOM     48  C   UNL A   1      42.403  30.098  35.630  1.00  0.00     0.049 A 
ATOM     49  C   UNL A   1      38.314  32.588  32.792  1.00  0.00     0.074 A 
ATOM     50  C   UNL A   1      42.765  30.664  36.840  1.00  0.00     0.029 A 
ATOM     51  N   UNL A   1      41.359  30.860  35.131  1.00  0.00    -0.354 N 
ATOM     52  N   UNL A   1      39.237  32.107  33.588  1.00  0.00    -0.248 NA
ATOM     53  C   UNL A   1      37.525  33.681  33.378  1.00  0.00     0.031 C 
ATOM     54  C   UNL A   1      41.900  31.732  37.100  1.00  0.00     0.029 A 
ATOM     55  C   UNL A   1      41.039  31.869  36.025  1.00  0.00     0.049 A 
ATOM     56  H   UNL A   1      40.910  30.707  34.268  1.00  0.00     0.167 HD
ATOM     57  C   UNL A   1      39.198  32.898  34.733  1.00  0.00     0.074 A 
ATOM     58  C   UNL A   1      38.139  33.864  34.539  1.00  0.00     0.031 C 
ATOM     59  C   UNL A   1      39.995  32.842  35.829  1.00  0.00     0.037 A 
BRANCH  46  60
ATOM     60  C   UNL A   1      44.062  28.196  35.687  1.00  0.00     0.058 A 
ATOM     61  C   UNL A   1      45.402  28.603  35.572  1.00  0.00     0.135 A 
ATOM     62  C   UNL A   1      43.776  27.112  36.530  1.00  0.00     0.135 A 
ATOM     63  F   UNL A   1      45.733  29.627  34.770  1.00  0.00    -0.206 F 
ATOM     64  C   UNL A   1      46.422  27.945  36.252  1.00  0.00     0.059 A 
ATOM     65  C   UNL A   1      44.777  26.458  37.241  1.00  0.00     0.059 A 
ATOM     66  F   UNL A   1      42.512  26.683  36.675  1.00  0.00    -0.206 F 
ATOM     67  C   UNL A   1      46.098  26.877  37.089  1.00  0.00     0.060 A 
BRANCH  67  68
ATOM     68  S   UNL A   1      47.432  26.055  37.985  1.00  0.00     0.124 S 
ATOM     69  O   UNL A   1      47.261  24.670  37.557  1.00  0.00    -0.237 OA
ATOM     70  O   UNL A   1      48.616  26.736  37.470  1.00  0.00    -0.237 OA
ATOM     71  O   UNL A   1      47.118  26.322  39.384  1.00  0.00    -0.744 OA
ENDBRANCH  67  68
ENDBRANCH  46  60
BRANCH  47  72
ATOM     72  C   UNL A   1      36.849  32.829  30.664  1.00  0.00     0.058 A 
ATOM     73  C   UNL A   1      37.020  33.970  29.866  1.00  0.00     0.135 A 
ATOM     74  C   UNL A   1      35.547  32.327  30.813  1.00  0.00     0.135 A 
ATOM     75  F   UNL A   1      38.244  34.496  29.707  1.00  0.00    -0.206 F 
ATOM     76  C   UNL A   1      35.941  34.611  29.267  1.00  0.00     0.059 A 
ATOM     77  C   UNL A   1      34.452  32.937  30.204  1.00  0.00     0.059 A 
ATOM     78  F   UNL A   1      35.325  31.239  31.569  1.00  0.00    -0.206 F 
ATOM     79  C   UNL A   1      34.658  34.088  29.445  1.00  0.00     0.060 A 
BRANCH  79  80
ATOM     80  S   UNL A   1      33.268  34.929  28.655  1.00  0.00     0.124 S 
ATOM     81  O   UNL A   1      33.952  35.938  27.853  1.00  0.00    -0.237 OA
ATOM     82  O   UNL A   1      32.638  33.843  27.913  1.00  0.00    -0.237 OA
ATOM     83  O   UNL A   1      32.497  35.438  29.786  1.00  0.00    -0.744 OA
ENDBRANCH  79  80
ENDBRANCH  47  72
BRANCH  59  84
ATOM     84  C   UNL A   1      39.807  33.894  36.887  1.00  0.00     0.058 A 
ATOM     85  C   UNL A   1      38.983  33.689  38.004  1.00  0.00     0.135 A 
ATOM     86  C   UNL A   1      40.511  35.109  36.808  1.00  0.00     0.135 A 
ATOM     87  F   UNL A   1      38.281  32.551  38.126  1.00  0.00    -0.206 F 
ATOM     88  C   UNL A   1      38.846  34.657  38.994  1.00  0.00     0.059 A 
ATOM     89  C   UNL A   1      40.413  36.077  37.802  1.00  0.00     0.059 A 
ATOM     90  F   UNL A   1      41.319  35.356  35.765  1.00  0.00    -0.206 F 
ATOM     91  C   UNL A   1      39.571  35.847  38.887  1.00  0.00     0.060 A 
BRANCH  91  92
ATOM     92  S   UNL A   1      39.417  37.074  40.202  1.00  0.00     0.124 S 
ATOM     93  O   UNL A   1      38.839  38.205  39.483  1.00  0.00    -0.237 OA
ATOM     94  O   UNL A   1      38.530  36.405  41.148  1.00  0.00    -0.237 OA
ATOM     95  O   UNL A   1      40.790  37.257  40.661  1.00  0.00    -0.744 OA
ENDBRANCH  91  92
ENDBRANCH  59  84
ENDBRANCH  33  34
ENDBRANCH  26  28
ENDBRANCH  25  26
ENDBRANCH  24  25
ENDBRANCH  23  24
ENDBRANCH  22  23
ENDBRANCH   1  22
TORSDOF 23
ENDMDL
