MODEL 1
REMARK VINA RESULT:     -11.5      0.000      0.000
REMARK SMILES C[C@@H]1C(=O)NC(=O)CN1C(=O)NC1(CC(=O)OCCOCCOC(=O)c2ccc(-c3c4nc(c(-c5c(F)cc(S(=O)(=O)[O-])cc5F)c5ccc([nH]5)c(-c5c(F)cc(S(=O)(=O)[O-])cc5F)c5nc(c(-c6c(F)cc(S(=O)(=O)[O-])cc6F)c6ccc3[nH]6)C=C5)C=C4)cc2)CCC1
REMARK SMILES IDX 20 1 19 2 18 3 17 4 15 5 16 6 14 7 13 8 92 9 94 10 93 11
REMARK SMILES IDX 12 12 10 13 11 14 9 16 1 17 2 18 3 19 4 20 5 21 8 22 6 23
REMARK SMILES IDX 7 25 21 26 22 27 23 28 24 29 25 30 26 31 27 32 91 33 28 34
REMARK SMILES IDX 90 35 29 36 30 37 31 38 84 39 32 40 89 41 83 42 85 43 33 44
REMARK SMILES IDX 88 45 82 46 81 47 34 49 68 50 47 51 67 52 48 53 51 54 66 55
REMARK SMILES IDX 86 56 49 57 50 58 65 60 87 61 52 62 35 63 36 64 45 65 37 66
REMARK SMILES IDX 38 67 44 68 46 69 39 70 40 71 41 72 42 73 43 74 69 75 70 76
REMARK SMILES IDX 79 77 71 78 72 79 78 80 80 81 73 82 74 83 75 84 76 85 77 86
REMARK SMILES IDX 53 87 54 88 63 89 55 90 56 91 62 92 64 93 57 94 58 95 59 96
REMARK SMILES IDX 60 97 61 98
REMARK H PARENT 12 15 5 24 85 48 51 59
REMARK Flexibility Score: inf
ROOT
ATOM      1  O   UNL A   1      34.402  32.186  27.583  1.00  0.00    -0.374 OA
ENDROOT
BRANCH   1   2
ATOM      2  C   UNL A   1      33.609  31.034  27.416  1.00  0.00     0.202 C 
BRANCH   2   3
ATOM      3  C   UNL A   1      34.276  29.615  27.168  1.00  0.00     0.261 C 
BRANCH   3   4
ATOM      4  O   UNL A   1      34.213  28.366  25.643  1.00  0.00    -0.463 OA
BRANCH   4   5
ATOM      5  C   UNL A   1      33.769  27.926  24.289  1.00  0.00     0.308 C 
ATOM      6  O   UNL A   1      33.555  28.840  23.484  1.00  0.00    -0.252 OA
BRANCH   5   7
ATOM      7  C   UNL A   1      33.551  26.370  23.745  1.00  0.00     0.151 C 
BRANCH   7   8
ATOM      8  C   UNL A   1      32.230  25.410  23.569  1.00  0.00     0.052 C 
ATOM      9  C   UNL A   1      30.902  26.218  23.864  1.00  0.00     0.029 C 
ATOM     10  C   UNL A   1      31.490  24.240  24.411  1.00  0.00     0.029 C 
ATOM     11  C   UNL A   1      30.635  25.314  25.078  1.00  0.00     0.005 C 
BRANCH   8  12
ATOM     12  N   UNL A   1      32.183  24.944  22.196  1.00  0.00    -0.332 N 
ATOM     13  C   UNL A   1      32.957  23.936  21.825  1.00  0.00     0.318 C 
ATOM     14  O   UNL A   1      33.307  23.870  20.651  1.00  0.00    -0.249 OA
ATOM     15  H   UNL A   1      31.582  25.373  21.546  1.00  0.00     0.165 HD
BRANCH  13  16
ATOM     16  N   UNL A   1      33.500  23.213  22.843  1.00  0.00    -0.304 N 
ATOM     17  C   UNL A   1      36.625  23.068  23.456  1.00  0.00     0.042 C 
ATOM     18  C   UNL A   1      35.127  23.322  23.933  1.00  0.00     0.174 C 
ATOM     19  C   UNL A   1      35.334  21.947  25.312  1.00  0.00     0.249 C 
ATOM     20  O   UNL A   1      36.271  21.924  26.109  1.00  0.00    -0.272 OA
ATOM     21  N   UNL A   1      34.142  20.791  25.403  1.00  0.00    -0.293 N 
ATOM     22  C   UNL A   1      32.383  21.729  23.100  1.00  0.00     0.222 C 
ATOM     23  C   UNL A   1      32.795  20.479  24.495  1.00  0.00     0.246 C 
ATOM     24  H   UNL A   1      34.261  20.162  26.151  1.00  0.00     0.173 HD
ATOM     25  O   UNL A   1      32.100  19.496  24.752  1.00  0.00    -0.273 OA
ENDBRANCH  13  16
ENDBRANCH   8  12
ENDBRANCH   7   8
ENDBRANCH   5   7
ENDBRANCH   4   5
ENDBRANCH   3   4
ENDBRANCH   2   3
ENDBRANCH   1   2
BRANCH   1  26
ATOM     26  C   UNL A   1      34.483  33.046  28.714  1.00  0.00     0.202 C 
BRANCH  26  27
ATOM     27  C   UNL A   1      34.794  32.698  30.182  1.00  0.00     0.261 C 
BRANCH  27  28
ATOM     28  O   UNL A   1      36.155  32.508  30.531  1.00  0.00    -0.460 OA
BRANCH  28  29
ATOM     29  C   UNL A   1      36.379  31.467  31.343  1.00  0.00     0.338 C 
ATOM     30  O   UNL A   1      35.809  31.201  32.395  1.00  0.00    -0.246 OA
BRANCH  29  31
ATOM     31  C   UNL A   1      37.343  30.593  30.681  1.00  0.00     0.060 A 
ATOM     32  C   UNL A   1      38.165  29.822  31.503  1.00  0.00     0.016 A 
ATOM     33  C   UNL A   1      37.508  30.618  29.291  1.00  0.00     0.016 A 
ATOM     34  C   UNL A   1      39.235  29.143  30.946  1.00  0.00     0.010 A 
ATOM     35  C   UNL A   1      38.596  29.947  28.733  1.00  0.00     0.010 A 
ATOM     36  C   UNL A   1      39.495  29.271  29.575  1.00  0.00    -0.014 A 
BRANCH  36  37
ATOM     37  C   UNL A   1      40.860  28.949  29.113  1.00  0.00     0.031 A 
ATOM     38  C   UNL A   1      41.909  30.024  29.222  1.00  0.00     0.074 A 
ATOM     39  C   UNL A   1      41.173  27.703  28.726  1.00  0.00     0.049 A 
ATOM     40  N   UNL A   1      43.181  29.975  28.931  1.00  0.00    -0.248 NA
ATOM     41  C   UNL A   1      41.463  31.330  29.742  1.00  0.00     0.031 C 
ATOM     42  C   UNL A   1      40.240  26.579  28.663  1.00  0.00     0.029 A 
ATOM     43  N   UNL A   1      42.372  27.172  28.332  1.00  0.00    -0.354 N 
ATOM     44  C   UNL A   1      43.684  31.238  29.228  1.00  0.00     0.074 A 
ATOM     45  C   UNL A   1      42.578  32.040  29.696  1.00  0.00     0.031 C 
ATOM     46  C   UNL A   1      40.904  25.486  28.251  1.00  0.00     0.029 A 
ATOM     47  C   UNL A   1      42.298  25.843  27.998  1.00  0.00     0.049 A 
ATOM     48  H   UNL A   1      43.206  27.695  28.292  1.00  0.00     0.167 HD
ATOM     49  C   UNL A   1      44.958  31.682  29.127  1.00  0.00     0.037 A 
ATOM     50  C   UNL A   1      43.254  25.019  27.529  1.00  0.00     0.037 A 
ATOM     51  C   UNL A   1      46.046  30.867  28.660  1.00  0.00     0.049 A 
ATOM     52  C   UNL A   1      44.652  25.554  27.360  1.00  0.00     0.074 A 
ATOM     53  C   UNL A   1      47.375  31.212  28.494  1.00  0.00     0.029 A 
ATOM     54  N   UNL A   1      45.925  29.537  28.279  1.00  0.00    -0.354 N 
ATOM     55  N   UNL A   1      45.114  26.755  27.625  1.00  0.00    -0.248 NA
ATOM     56  C   UNL A   1      45.658  24.625  26.831  1.00  0.00     0.031 C 
ATOM     57  C   UNL A   1      48.049  30.101  27.975  1.00  0.00     0.029 A 
ATOM     58  C   UNL A   1      47.150  29.050  27.863  1.00  0.00     0.049 A 
ATOM     59  H   UNL A   1      45.089  29.018  28.302  1.00  0.00     0.167 HD
ATOM     60  C   UNL A   1      46.469  26.719  27.318  1.00  0.00     0.074 A 
ATOM     61  C   UNL A   1      46.753  25.374  26.856  1.00  0.00     0.031 C 
ATOM     62  C   UNL A   1      47.398  27.703  27.410  1.00  0.00     0.037 A 
BRANCH  49  63
ATOM     63  C   UNL A   1      45.220  33.118  29.489  1.00  0.00     0.058 A 
ATOM     64  C   UNL A   1      45.601  33.501  30.786  1.00  0.00     0.135 A 
ATOM     65  C   UNL A   1      45.078  34.128  28.525  1.00  0.00     0.135 A 
ATOM     66  F   UNL A   1      45.726  32.578  31.753  1.00  0.00    -0.206 F 
ATOM     67  C   UNL A   1      45.802  34.837  31.120  1.00  0.00     0.059 A 
ATOM     68  C   UNL A   1      45.299  35.467  28.830  1.00  0.00     0.059 A 
ATOM     69  F   UNL A   1      44.707  33.819  27.272  1.00  0.00    -0.206 F 
ATOM     70  C   UNL A   1      45.645  35.813  30.135  1.00  0.00     0.060 A 
BRANCH  70  71
ATOM     71  S   UNL A   1      45.894  37.545  30.583  1.00  0.00     0.124 S 
ATOM     72  O   UNL A   1      46.244  37.431  31.996  1.00  0.00    -0.237 OA
ATOM     73  O   UNL A   1      46.978  37.947  29.692  1.00  0.00    -0.237 OA
ATOM     74  O   UNL A   1      44.599  38.158  30.306  1.00  0.00    -0.744 OA
ENDBRANCH  70  71
ENDBRANCH  49  63
BRANCH  50  75
ATOM     75  C   UNL A   1      42.912  23.616  27.180  1.00  0.00     0.058 A 
ATOM     76  C   UNL A   1      42.783  23.205  25.846  1.00  0.00     0.135 A 
ATOM     77  C   UNL A   1      42.731  22.649  28.183  1.00  0.00     0.135 A 
ATOM     78  F   UNL A   1      42.937  24.093  24.853  1.00  0.00    -0.206 F 
ATOM     79  C   UNL A   1      42.479  21.887  25.516  1.00  0.00     0.059 A 
ATOM     80  C   UNL A   1      42.452  21.322  27.879  1.00  0.00     0.059 A 
ATOM     81  F   UNL A   1      42.856  22.990  29.476  1.00  0.00    -0.206 F 
ATOM     82  C   UNL A   1      42.320  20.952  26.541  1.00  0.00     0.060 A 
BRANCH  82  83
ATOM     83  S   UNL A   1      41.984  19.232  26.104  1.00  0.00     0.124 S 
ATOM     84  O   UNL A   1      42.925  19.018  25.011  1.00  0.00    -0.237 OA
ATOM     85  O   UNL A   1      42.285  18.534  27.351  1.00  0.00    -0.237 OA
ATOM     86  O   UNL A   1      40.575  19.250  25.729  1.00  0.00    -0.744 OA
ENDBRANCH  82  83
ENDBRANCH  50  75
BRANCH  62  87
ATOM     87  C   UNL A   1      48.808  27.352  27.032  1.00  0.00     0.058 A 
ATOM     88  C   UNL A   1      49.733  26.894  27.982  1.00  0.00     0.135 A 
ATOM     89  C   UNL A   1      49.223  27.430  25.692  1.00  0.00     0.135 A 
ATOM     90  F   UNL A   1      49.384  26.806  29.275  1.00  0.00    -0.206 F 
ATOM     91  C   UNL A   1      51.030  26.549  27.621  1.00  0.00     0.059 A 
ATOM     92  C   UNL A   1      50.507  27.065  25.305  1.00  0.00     0.059 A 
ATOM     93  F   UNL A   1      48.370  27.848  24.743  1.00  0.00    -0.206 F 
ATOM     94  C   UNL A   1      51.409  26.639  26.280  1.00  0.00     0.060 A 
BRANCH  94  95
ATOM     95  S   UNL A   1      53.088  26.165  25.819  1.00  0.00     0.124 S 
ATOM     96  O   UNL A   1      53.143  24.786  26.294  1.00  0.00    -0.237 OA
ATOM     97  O   UNL A   1      53.077  26.338  24.370  1.00  0.00    -0.237 OA
ATOM     98  O   UNL A   1      53.920  27.115  26.550  1.00  0.00    -0.744 OA
ENDBRANCH  94  95
ENDBRANCH  62  87
ENDBRANCH  36  37
ENDBRANCH  29  31
ENDBRANCH  28  29
ENDBRANCH  27  28
ENDBRANCH  26  27
ENDBRANCH   1  26
TORSDOF 20
ENDMDL
MODEL 2
REMARK VINA RESULT:     -11.4      5.557     11.390
REMARK SMILES C[C@@H]1C(=O)NC(=O)CN1C(=O)NC1(CC(=O)OCCOCCOC(=O)c2ccc(-c3c4nc(c(-c5c(F)cc(S(=O)(=O)[O-])cc5F)c5ccc([nH]5)c(-c5c(F)cc(S(=O)(=O)[O-])cc5F)c5nc(c(-c6c(F)cc(S(=O)(=O)[O-])cc6F)c6ccc3[nH]6)C=C5)C=C4)cc2)CCC1
REMARK SMILES IDX 20 1 19 2 18 3 17 4 15 5 16 6 14 7 13 8 92 9 94 10 93 11
REMARK SMILES IDX 12 12 10 13 11 14 9 16 1 17 2 18 3 19 4 20 5 21 8 22 6 23
REMARK SMILES IDX 7 25 21 26 22 27 23 28 24 29 25 30 26 31 27 32 91 33 28 34
REMARK SMILES IDX 90 35 29 36 30 37 31 38 84 39 32 40 89 41 83 42 85 43 33 44
REMARK SMILES IDX 88 45 82 46 81 47 34 49 68 50 47 51 67 52 48 53 51 54 66 55
REMARK SMILES IDX 86 56 49 57 50 58 65 60 87 61 52 62 35 63 36 64 45 65 37 66
REMARK SMILES IDX 38 67 44 68 46 69 39 70 40 71 41 72 42 73 43 74 69 75 70 76
REMARK SMILES IDX 79 77 71 78 72 79 78 80 80 81 73 82 74 83 75 84 76 85 77 86
REMARK SMILES IDX 53 87 54 88 63 89 55 90 56 91 62 92 64 93 57 94 58 95 59 96
REMARK SMILES IDX 60 97 61 98
REMARK H PARENT 12 15 5 24 85 48 51 59
REMARK Flexibility Score: inf
ROOT
ATOM      1  O   UNL A   1      40.721  21.279  26.058  1.00  0.00    -0.374 OA
ENDROOT
BRANCH   1   2
ATOM      2  C   UNL A   1      39.687  22.115  26.526  1.00  0.00     0.202 C 
BRANCH   2   3
ATOM      3  C   UNL A   1      38.368  22.335  25.670  1.00  0.00     0.261 C 
BRANCH   3   4
ATOM      4  O   UNL A   1      36.597  23.075  26.126  1.00  0.00    -0.463 OA
BRANCH   4   5
ATOM      5  C   UNL A   1      35.106  23.078  26.125  1.00  0.00     0.308 C 
ATOM      6  O   UNL A   1      34.581  22.836  27.219  1.00  0.00    -0.252 OA
BRANCH   5   7
ATOM      7  C   UNL A   1      34.090  23.384  24.846  1.00  0.00     0.151 C 
BRANCH   7   8
ATOM      8  C   UNL A   1      32.577  22.875  24.458  1.00  0.00     0.052 C 
ATOM      9  C   UNL A   1      32.620  21.442  23.789  1.00  0.00     0.029 C 
ATOM     10  C   UNL A   1      31.478  23.181  23.308  1.00  0.00     0.029 C 
ATOM     11  C   UNL A   1      32.084  22.049  22.483  1.00  0.00     0.005 C 
BRANCH   8  12
ATOM     12  N   UNL A   1      31.799  22.784  25.679  1.00  0.00    -0.332 N 
ATOM     13  C   UNL A   1      31.449  23.893  26.311  1.00  0.00     0.318 C 
ATOM     14  O   UNL A   1      31.266  23.842  27.523  1.00  0.00    -0.249 OA
ATOM     15  H   UNL A   1      31.533  21.905  26.034  1.00  0.00     0.165 HD
BRANCH  13  16
ATOM     16  N   UNL A   1      31.578  25.041  25.590  1.00  0.00    -0.304 N 
ATOM     17  C   UNL A   1      33.822  27.241  26.128  1.00  0.00     0.042 C 
ATOM     18  C   UNL A   1      33.047  26.261  25.141  1.00  0.00     0.174 C 
ATOM     19  C   UNL A   1      32.584  27.781  23.996  1.00  0.00     0.249 C 
ATOM     20  O   UNL A   1      33.411  28.593  23.584  1.00  0.00    -0.272 OA
ATOM     21  N   UNL A   1      30.989  27.925  23.549  1.00  0.00    -0.293 N 
ATOM     22  C   UNL A   1      29.853  25.518  25.031  1.00  0.00     0.222 C 
ATOM     23  C   UNL A   1      29.623  27.077  23.937  1.00  0.00     0.246 C 
ATOM     24  H   UNL A   1      30.822  28.668  22.925  1.00  0.00     0.173 HD
ATOM     25  O   UNL A   1      28.532  27.445  23.502  1.00  0.00    -0.273 OA
ENDBRANCH  13  16
ENDBRANCH   8  12
ENDBRANCH   7   8
ENDBRANCH   5   7
ENDBRANCH   4   5
ENDBRANCH   3   4
ENDBRANCH   2   3
ENDBRANCH   1   2
BRANCH   1  26
ATOM     26  C   UNL A   1      42.063  21.193  26.519  1.00  0.00     0.202 C 
BRANCH  26  27
ATOM     27  C   UNL A   1      43.164  22.272  26.521  1.00  0.00     0.261 C 
BRANCH  27  28
ATOM     28  O   UNL A   1      42.894  23.476  27.218  1.00  0.00    -0.460 OA
BRANCH  28  29
ATOM     29  C   UNL A   1      42.864  24.569  26.444  1.00  0.00     0.338 C 
ATOM     30  O   UNL A   1      43.270  24.684  25.294  1.00  0.00    -0.246 OA
BRANCH  29  31
ATOM     31  C   UNL A   1      42.117  25.596  27.164  1.00  0.00     0.060 A 
ATOM     32  C   UNL A   1      42.662  26.880  27.180  1.00  0.00     0.016 A 
ATOM     33  C   UNL A   1      40.969  25.276  27.898  1.00  0.00     0.016 A 
ATOM     34  C   UNL A   1      42.119  27.837  28.018  1.00  0.00     0.010 A 
ATOM     35  C   UNL A   1      40.432  26.236  28.755  1.00  0.00     0.010 A 
ATOM     36  C   UNL A   1      41.054  27.491  28.863  1.00  0.00    -0.014 A 
BRANCH  36  37
ATOM     37  C   UNL A   1      40.822  28.347  30.043  1.00  0.00     0.031 A 
ATOM     38  C   UNL A   1      41.746  28.185  31.220  1.00  0.00     0.074 A 
ATOM     39  C   UNL A   1      39.895  29.316  30.010  1.00  0.00     0.049 A 
ATOM     40  N   UNL A   1      41.780  28.845  32.346  1.00  0.00    -0.248 NA
ATOM     41  C   UNL A   1      42.782  27.142  31.106  1.00  0.00     0.031 C 
ATOM     42  C   UNL A   1      39.006  29.597  28.882  1.00  0.00     0.029 A 
ATOM     43  N   UNL A   1      39.562  30.257  30.947  1.00  0.00    -0.354 N 
ATOM     44  C   UNL A   1      42.833  28.298  33.072  1.00  0.00     0.074 A 
ATOM     45  C   UNL A   1      43.396  27.234  32.274  1.00  0.00     0.031 C 
ATOM     46  C   UNL A   1      38.225  30.644  29.196  1.00  0.00     0.029 A 
ATOM     47  C   UNL A   1      38.542  31.086  30.552  1.00  0.00     0.049 A 
ATOM     48  H   UNL A   1      40.012  30.331  31.820  1.00  0.00     0.167 HD
ATOM     49  C   UNL A   1      43.292  28.660  34.292  1.00  0.00     0.037 A 
ATOM     50  C   UNL A   1      37.931  32.079  31.225  1.00  0.00     0.037 A 
ATOM     51  C   UNL A   1      42.718  29.722  35.072  1.00  0.00     0.049 A 
ATOM     52  C   UNL A   1      38.414  32.420  32.610  1.00  0.00     0.074 A 
ATOM     53  C   UNL A   1      43.083  30.166  36.329  1.00  0.00     0.029 A 
ATOM     54  N   UNL A   1      41.649  30.508  34.662  1.00  0.00    -0.354 N 
ATOM     55  N   UNL A   1      39.398  31.885  33.296  1.00  0.00    -0.248 NA
ATOM     56  C   UNL A   1      37.709  33.500  33.311  1.00  0.00     0.031 C 
ATOM     57  C   UNL A   1      42.208  31.194  36.696  1.00  0.00     0.029 A 
ATOM     58  C   UNL A   1      41.329  31.423  35.648  1.00  0.00     0.049 A 
ATOM     59  H   UNL A   1      41.186  30.425  33.796  1.00  0.00     0.167 HD
ATOM     60  C   UNL A   1      39.445  32.577  34.500  1.00  0.00     0.074 A 
ATOM     61  C   UNL A   1      38.396  33.577  34.443  1.00  0.00     0.031 C 
ATOM     62  C   UNL A   1      40.278  32.407  35.557  1.00  0.00     0.037 A 
BRANCH  49  63
ATOM     63  C   UNL A   1      44.437  27.869  34.862  1.00  0.00     0.058 A 
ATOM     64  C   UNL A   1      45.775  28.252  34.670  1.00  0.00     0.135 A 
ATOM     65  C   UNL A   1      44.192  26.703  35.605  1.00  0.00     0.135 A 
ATOM     66  F   UNL A   1      46.067  29.344  33.945  1.00  0.00    -0.206 F 
ATOM     67  C   UNL A   1      46.828  27.491  35.168  1.00  0.00     0.059 A 
ATOM     68  C   UNL A   1      45.229  25.941  36.133  1.00  0.00     0.059 A 
ATOM     69  F   UNL A   1      42.933  26.286  35.811  1.00  0.00    -0.206 F 
ATOM     70  C   UNL A   1      46.545  26.334  35.895  1.00  0.00     0.060 A 
BRANCH  70  71
ATOM     71  S   UNL A   1      47.920  25.346  36.524  1.00  0.00     0.124 S 
ATOM     72  O   UNL A   1      49.059  26.204  36.213  1.00  0.00    -0.237 OA
ATOM     73  O   UNL A   1      47.591  25.217  37.941  1.00  0.00    -0.237 OA
ATOM     74  O   UNL A   1      47.834  24.112  35.749  1.00  0.00    -0.744 OA
ENDBRANCH  70  71
ENDBRANCH  49  63
BRANCH  50  75
ATOM     75  C   UNL A   1      36.796  32.804  30.598  1.00  0.00     0.058 A 
ATOM     76  C   UNL A   1      35.466  32.492  30.911  1.00  0.00     0.135 A 
ATOM     77  C   UNL A   1      37.025  33.848  29.685  1.00  0.00     0.135 A 
ATOM     78  F   UNL A   1      35.195  31.498  31.770  1.00  0.00    -0.206 F 
ATOM     79  C   UNL A   1      34.401  33.182  30.338  1.00  0.00     0.059 A 
ATOM     80  C   UNL A   1      35.980  34.568  29.119  1.00  0.00     0.059 A 
ATOM     81  F   UNL A   1      38.281  34.194  29.361  1.00  0.00    -0.206 F 
ATOM     82  C   UNL A   1      34.670  34.222  29.446  1.00  0.00     0.060 A 
BRANCH  82  83
ATOM     83  S   UNL A   1      33.285  35.151  28.751  1.00  0.00     0.124 S 
ATOM     84  O   UNL A   1      33.976  36.218  28.038  1.00  0.00    -0.237 OA
ATOM     85  O   UNL A   1      32.630  34.147  27.918  1.00  0.00    -0.237 OA
ATOM     86  O   UNL A   1      32.532  35.563  29.930  1.00  0.00    -0.744 OA
ENDBRANCH  82  83
ENDBRANCH  50  75
BRANCH  62  87
ATOM     87  C   UNL A   1      40.107  33.341  36.721  1.00  0.00     0.058 A 
ATOM     88  C   UNL A   1      40.855  34.522  36.834  1.00  0.00     0.135 A 
ATOM     89  C   UNL A   1      39.145  33.072  37.709  1.00  0.00     0.135 A 
ATOM     90  F   UNL A   1      41.788  34.820  35.917  1.00  0.00    -0.206 F 
ATOM     91  C   UNL A   1      40.675  35.392  37.903  1.00  0.00     0.059 A 
ATOM     92  C   UNL A   1      38.930  33.942  38.772  1.00  0.00     0.059 A 
ATOM     93  F   UNL A   1      38.393  31.962  37.637  1.00  0.00    -0.206 F 
ATOM     94  C   UNL A   1      39.711  35.093  38.868  1.00  0.00     0.060 A 
BRANCH  94  95
ATOM     95  S   UNL A   1      39.469  36.244  40.237  1.00  0.00     0.124 S 
ATOM     96  O   UNL A   1      38.530  35.506  41.076  1.00  0.00    -0.237 OA
ATOM     97  O   UNL A   1      40.820  36.386  40.770  1.00  0.00    -0.237 OA
ATOM     98  O   UNL A   1      38.930  37.435  39.588  1.00  0.00    -0.744 OA
ENDBRANCH  94  95
ENDBRANCH  62  87
ENDBRANCH  36  37
ENDBRANCH  29  31
ENDBRANCH  28  29
ENDBRANCH  27  28
ENDBRANCH  26  27
ENDBRANCH   1  26
TORSDOF 20
ENDMDL
MODEL 3
REMARK VINA RESULT:     -11.4      2.587      9.029
REMARK SMILES C[C@@H]1C(=O)NC(=O)CN1C(=O)NC1(CC(=O)OCCOCCOC(=O)c2ccc(-c3c4nc(c(-c5c(F)cc(S(=O)(=O)[O-])cc5F)c5ccc([nH]5)c(-c5c(F)cc(S(=O)(=O)[O-])cc5F)c5nc(c(-c6c(F)cc(S(=O)(=O)[O-])cc6F)c6ccc3[nH]6)C=C5)C=C4)cc2)CCC1
REMARK SMILES IDX 20 1 19 2 18 3 17 4 15 5 16 6 14 7 13 8 92 9 94 10 93 11
REMARK SMILES IDX 12 12 10 13 11 14 9 16 1 17 2 18 3 19 4 20 5 21 8 22 6 23
REMARK SMILES IDX 7 25 21 26 22 27 23 28 24 29 25 30 26 31 27 32 91 33 28 34
REMARK SMILES IDX 90 35 29 36 30 37 31 38 84 39 32 40 89 41 83 42 85 43 33 44
REMARK SMILES IDX 88 45 82 46 81 47 34 49 68 50 47 51 67 52 48 53 51 54 66 55
REMARK SMILES IDX 86 56 49 57 50 58 65 60 87 61 52 62 35 63 36 64 45 65 37 66
REMARK SMILES IDX 38 67 44 68 46 69 39 70 40 71 41 72 42 73 43 74 69 75 70 76
REMARK SMILES IDX 79 77 71 78 72 79 78 80 80 81 73 82 74 83 75 84 76 85 77 86
REMARK SMILES IDX 53 87 54 88 63 89 55 90 56 91 62 92 64 93 57 94 58 95 59 96
REMARK SMILES IDX 60 97 61 98
REMARK H PARENT 12 15 5 24 85 48 51 59
REMARK Flexibility Score: inf
ROOT
ATOM      1  O   UNL A   1      39.410  22.724  26.316  1.00  0.00    -0.374 OA
ENDROOT
BRANCH   1   2
ATOM      2  C   UNL A   1      38.560  23.820  26.566  1.00  0.00     0.202 C 
BRANCH   2   3
ATOM      3  C   UNL A   1      37.076  23.844  26.000  1.00  0.00     0.261 C 
BRANCH   3   4
ATOM      4  O   UNL A   1      35.338  23.391  26.814  1.00  0.00    -0.463 OA
BRANCH   4   5
ATOM      5  C   UNL A   1      33.853  23.251  26.811  1.00  0.00     0.308 C 
ATOM      6  O   UNL A   1      33.419  22.261  27.412  1.00  0.00    -0.252 OA
BRANCH   5   7
ATOM      7  C   UNL A   1      32.736  24.269  26.119  1.00  0.00     0.151 C 
BRANCH   7   8
ATOM      8  C   UNL A   1      31.653  24.094  24.896  1.00  0.00     0.052 C 
ATOM      9  C   UNL A   1      31.885  22.730  24.130  1.00  0.00     0.029 C 
ATOM     10  C   UNL A   1      31.440  24.688  23.404  1.00  0.00     0.029 C 
ATOM     11  C   UNL A   1      32.257  23.517  22.865  1.00  0.00     0.005 C 
BRANCH   8  12
ATOM     12  N   UNL A   1      30.319  24.076  25.467  1.00  0.00    -0.332 N 
ATOM     13  C   UNL A   1      29.781  25.205  25.899  1.00  0.00     0.318 C 
ATOM     14  O   UNL A   1      28.946  25.148  26.795  1.00  0.00    -0.249 OA
ATOM     15  H   UNL A   1      29.818  23.231  25.530  1.00  0.00     0.165 HD
BRANCH  13  16
ATOM     16  N   UNL A   1      30.401  26.344  25.482  1.00  0.00    -0.304 N 
ATOM     17  C   UNL A   1      31.789  28.438  27.444  1.00  0.00     0.042 C 
ATOM     18  C   UNL A   1      31.837  27.493  26.164  1.00  0.00     0.174 C 
ATOM     19  C   UNL A   1      32.314  29.030  25.047  1.00  0.00     0.249 C 
ATOM     20  O   UNL A   1      33.233  29.802  25.315  1.00  0.00    -0.272 OA
ATOM     21  N   UNL A   1      31.431  29.247  23.654  1.00  0.00    -0.293 N 
ATOM     22  C   UNL A   1      29.510  26.899  23.928  1.00  0.00     0.222 C 
ATOM     23  C   UNL A   1      30.126  28.464  23.006  1.00  0.00     0.246 C 
ATOM     24  H   UNL A   1      31.751  29.995  23.100  1.00  0.00     0.173 HD
ATOM     25  O   UNL A   1      29.619  28.881  21.965  1.00  0.00    -0.273 OA
ENDBRANCH  13  16
ENDBRANCH   8  12
ENDBRANCH   7   8
ENDBRANCH   5   7
ENDBRANCH   4   5
ENDBRANCH   3   4
ENDBRANCH   2   3
ENDBRANCH   1   2
BRANCH   1  26
ATOM     26  C   UNL A   1      39.082  21.467  25.737  1.00  0.00     0.202 C 
BRANCH  26  27
ATOM     27  C   UNL A   1      39.605  20.063  26.096  1.00  0.00     0.261 C 
BRANCH  27  28
ATOM     28  O   UNL A   1      40.807  19.988  26.843  1.00  0.00    -0.460 OA
BRANCH  28  29
ATOM     29  C   UNL A   1      41.914  19.862  26.100  1.00  0.00     0.338 C 
ATOM     30  O   UNL A   1      42.112  19.080  25.178  1.00  0.00    -0.246 OA
BRANCH  29  31
ATOM     31  C   UNL A   1      42.825  20.937  26.483  1.00  0.00     0.060 A 
ATOM     32  C   UNL A   1      42.709  21.430  27.782  1.00  0.00     0.016 A 
ATOM     33  C   UNL A   1      43.692  21.518  25.550  1.00  0.00     0.016 A 
ATOM     34  C   UNL A   1      43.389  22.584  28.133  1.00  0.00     0.010 A 
ATOM     35  C   UNL A   1      44.365  22.688  25.899  1.00  0.00     0.010 A 
ATOM     36  C   UNL A   1      44.153  23.254  27.167  1.00  0.00    -0.014 A 
BRANCH  36  37
ATOM     37  C   UNL A   1      44.459  24.677  27.416  1.00  0.00     0.031 A 
ATOM     38  C   UNL A   1      45.880  25.134  27.220  1.00  0.00     0.074 A 
ATOM     39  C   UNL A   1      43.475  25.549  27.687  1.00  0.00     0.049 A 
ATOM     40  N   UNL A   1      46.389  26.331  27.328  1.00  0.00    -0.248 NA
ATOM     41  C   UNL A   1      46.858  24.098  26.839  1.00  0.00     0.031 C 
ATOM     42  C   UNL A   1      42.059  25.209  27.819  1.00  0.00     0.029 A 
ATOM     43  N   UNL A   1      43.520  26.903  27.881  1.00  0.00    -0.354 N 
ATOM     44  C   UNL A   1      47.742  26.193  27.032  1.00  0.00     0.074 A 
ATOM     45  C   UNL A   1      47.981  24.794  26.767  1.00  0.00     0.031 C 
ATOM     46  C   UNL A   1      41.365  26.332  28.075  1.00  0.00     0.029 A 
ATOM     47  C   UNL A   1      42.293  27.458  28.150  1.00  0.00     0.049 A 
ATOM     48  H   UNL A   1      44.352  27.428  27.833  1.00  0.00     0.167 HD
ATOM     49  C   UNL A   1      48.695  27.152  26.978  1.00  0.00     0.037 A 
ATOM     50  C   UNL A   1      41.970  28.733  28.436  1.00  0.00     0.037 A 
ATOM     51  C   UNL A   1      48.437  28.541  27.244  1.00  0.00     0.049 A 
ATOM     52  C   UNL A   1      43.059  29.774  28.437  1.00  0.00     0.074 A 
ATOM     53  C   UNL A   1      49.323  29.601  27.242  1.00  0.00     0.029 A 
ATOM     54  N   UNL A   1      47.189  29.060  27.566  1.00  0.00    -0.354 N 
ATOM     55  N   UNL A   1      44.337  29.630  28.175  1.00  0.00    -0.248 NA
ATOM     56  C   UNL A   1      42.662  31.148  28.770  1.00  0.00     0.031 C 
ATOM     57  C   UNL A   1      48.620  30.756  27.601  1.00  0.00     0.029 A 
ATOM     58  C   UNL A   1      47.285  30.423  27.781  1.00  0.00     0.049 A 
ATOM     59  H   UNL A   1      46.359  28.535  27.632  1.00  0.00     0.167 HD
ATOM     60  C   UNL A   1      44.895  30.898  28.288  1.00  0.00     0.074 A 
ATOM     61  C   UNL A   1      43.810  31.797  28.632  1.00  0.00     0.031 C 
ATOM     62  C   UNL A   1      46.183  31.289  28.121  1.00  0.00     0.037 A 
BRANCH  49  63
ATOM     63  C   UNL A   1      50.098  26.715  26.661  1.00  0.00     0.058 A 
ATOM     64  C   UNL A   1      50.534  26.510  25.341  1.00  0.00     0.135 A 
ATOM     65  C   UNL A   1      51.019  26.489  27.695  1.00  0.00     0.135 A 
ATOM     66  F   UNL A   1      49.686  26.686  24.315  1.00  0.00    -0.206 F 
ATOM     67  C   UNL A   1      51.823  26.067  25.062  1.00  0.00     0.059 A 
ATOM     68  C   UNL A   1      52.321  26.071  27.438  1.00  0.00     0.059 A 
ATOM     69  F   UNL A   1      50.654  26.661  28.976  1.00  0.00    -0.206 F 
ATOM     70  C   UNL A   1      52.708  25.846  26.118  1.00  0.00     0.060 A 
BRANCH  70  71
ATOM     71  S   UNL A   1      54.375  25.257  25.744  1.00  0.00     0.124 S 
ATOM     72  O   UNL A   1      54.822  24.803  27.057  1.00  0.00    -0.237 OA
ATOM     73  O   UNL A   1      54.123  24.208  24.762  1.00  0.00    -0.237 OA
ATOM     74  O   UNL A   1      55.047  26.446  25.229  1.00  0.00    -0.744 OA
ENDBRANCH  70  71
ENDBRANCH  49  63
BRANCH  50  75
ATOM     75  C   UNL A   1      40.561  29.082  28.753  1.00  0.00     0.058 A 
ATOM     76  C   UNL A   1      40.115  29.192  30.077  1.00  0.00     0.135 A 
ATOM     77  C   UNL A   1      39.635  29.340  27.728  1.00  0.00     0.135 A 
ATOM     78  F   UNL A   1      40.958  28.947  31.091  1.00  0.00    -0.206 F 
ATOM     79  C   UNL A   1      38.800  29.536  30.377  1.00  0.00     0.059 A 
ATOM     80  C   UNL A   1      38.324  29.709  28.001  1.00  0.00     0.059 A 
ATOM     81  F   UNL A   1      40.016  29.260  26.443  1.00  0.00    -0.206 F 
ATOM     82  C   UNL A   1      37.913  29.797  29.330  1.00  0.00     0.060 A 
BRANCH  82  83
ATOM     83  S   UNL A   1      36.224  30.300  29.727  1.00  0.00     0.124 S 
ATOM     84  O   UNL A   1      35.482  29.754  28.596  1.00  0.00    -0.237 OA
ATOM     85  O   UNL A   1      36.002  29.644  31.012  1.00  0.00    -0.237 OA
ATOM     86  O   UNL A   1      36.311  31.755  29.781  1.00  0.00    -0.744 OA
ENDBRANCH  82  83
ENDBRANCH  50  75
BRANCH  62  87
ATOM     87  C   UNL A   1      46.481  32.753  28.279  1.00  0.00     0.058 A 
ATOM     88  C   UNL A   1      46.927  33.286  29.498  1.00  0.00     0.135 A 
ATOM     89  C   UNL A   1      46.366  33.622  27.182  1.00  0.00     0.135 A 
ATOM     90  F   UNL A   1      47.050  32.496  30.576  1.00  0.00    -0.206 F 
ATOM     91  C   UNL A   1      47.223  34.638  29.631  1.00  0.00     0.059 A 
ATOM     92  C   UNL A   1      46.681  34.972  27.286  1.00  0.00     0.059 A 
ATOM     93  F   UNL A   1      45.958  33.157  25.991  1.00  0.00    -0.206 F 
ATOM     94  C   UNL A   1      47.096  35.474  28.519  1.00  0.00     0.060 A 
BRANCH  94  95
ATOM     95  S   UNL A   1      47.507  37.222  28.697  1.00  0.00     0.124 S 
ATOM     96  O   UNL A   1      47.114  37.474  30.080  1.00  0.00    -0.237 OA
ATOM     97  O   UNL A   1      48.942  37.236  28.432  1.00  0.00    -0.237 OA
ATOM     98  O   UNL A   1      46.682  37.869  27.681  1.00  0.00    -0.744 OA
ENDBRANCH  94  95
ENDBRANCH  62  87
ENDBRANCH  36  37
ENDBRANCH  29  31
ENDBRANCH  28  29
ENDBRANCH  27  28
ENDBRANCH  26  27
ENDBRANCH   1  26
TORSDOF 20
ENDMDL
