MODEL 1
REMARK VINA RESULT:      -9.0      0.000      0.000
REMARK SMILES C[C@@H](C(=O)OCCOCCOC(=O)c1ccc(-c2c3nc(c(-c4c(F)cc(S(=O)(=O)[O-])cc4F)c4ccc([nH]4)c(-c4c(F)cc(S(=O)(=O)[O-])cc4F)c4nc(c(-c5c(F)cc(S(=O)(=O)[O-])cc5F)c5ccc2[nH]5)C=C4)C=C3)cc1)c1ccc(Cc2ccco2)cc1F
REMARK SMILES IDX 8 1 7 2 6 3 5 4 3 5 4 6 2 7 1 8 80 9 81 10 91 11 82 12 90 13
REMARK SMILES IDX 92 14 83 15 84 16 85 17 86 18 89 19 87 20 88 21 9 22 10 23
REMARK SMILES IDX 11 24 12 25 13 26 14 27 15 28 79 29 16 30 78 31 17 32 18 33
REMARK SMILES IDX 19 34 72 35 20 36 77 37 71 38 73 39 21 40 76 41 70 42 69 43
REMARK SMILES IDX 22 45 56 46 35 47 55 48 36 49 39 50 54 51 74 52 37 53 38 54
REMARK SMILES IDX 53 56 75 57 40 58 23 59 24 60 33 61 25 62 26 63 32 64 34 65
REMARK SMILES IDX 27 66 28 67 29 68 30 69 31 70 57 71 58 72 67 73 59 74 60 75
REMARK SMILES IDX 66 76 68 77 61 78 62 79 63 80 64 81 65 82 41 83 42 84 51 85
REMARK SMILES IDX 43 86 44 87 50 88 52 89 45 90 46 91 47 92 48 93 49 94
REMARK H PARENT 73 44 39 55
REMARK Flexibility Score: inf
ROOT
ATOM      1  O   UNL A   1      32.895  34.349  29.512  1.00  0.00    -0.374 OA
ENDROOT
BRANCH   1   2
ATOM      2  C   UNL A   1      33.262  35.624  30.048  1.00  0.00     0.202 C 
BRANCH   2   3
ATOM      3  C   UNL A   1      33.731  35.632  31.507  1.00  0.00     0.261 C 
BRANCH   3   4
ATOM      4  O   UNL A   1      34.607  34.521  31.757  1.00  0.00    -0.463 OA
BRANCH   4   5
ATOM      5  C   UNL A   1      35.702  34.791  32.517  1.00  0.00     0.313 C 
ATOM      6  O   UNL A   1      35.663  35.341  33.612  1.00  0.00    -0.252 OA
BRANCH   5   7
ATOM      7  C   UNL A   1      36.989  34.211  31.921  1.00  0.00     0.129 C 
ATOM      8  C   UNL A   1      36.815  33.517  30.564  1.00  0.00     0.025 C 
BRANCH   7   9
ATOM      9  C   UNL A   1      37.736  33.316  32.906  1.00  0.00     0.002 A 
ATOM     10  C   UNL A   1      38.989  33.654  33.440  1.00  0.00     0.008 A 
ATOM     11  C   UNL A   1      37.175  32.097  33.300  1.00  0.00     0.127 A 
ATOM     12  C   UNL A   1      39.662  32.786  34.304  1.00  0.00     0.005 A 
ATOM     13  C   UNL A   1      37.851  31.213  34.143  1.00  0.00     0.043 A 
ATOM     14  F   UNL A   1      35.962  31.748  32.848  1.00  0.00    -0.207 F 
ATOM     15  C   UNL A   1      39.119  31.539  34.638  1.00  0.00    -0.038 A 
BRANCH  15  16
ATOM     16  C   UNL A   1      39.902  30.562  35.490  1.00  0.00     0.111 C 
BRANCH  16  17
ATOM     17  C   UNL A   1      40.600  29.507  34.695  1.00  0.00     0.108 A 
ATOM     18  C   UNL A   1      40.901  29.362  33.354  1.00  0.00     0.046 A 
ATOM     19  O   UNL A   1      41.087  28.437  35.391  1.00  0.00    -0.469 OA
ATOM     20  C   UNL A   1      41.586  28.132  33.222  1.00  0.00     0.042 A 
ATOM     21  C   UNL A   1      41.676  27.610  34.490  1.00  0.00     0.195 A 
ENDBRANCH  16  17
ENDBRANCH  15  16
ENDBRANCH   7   9
ENDBRANCH   5   7
ENDBRANCH   4   5
ENDBRANCH   3   4
ENDBRANCH   2   3
ENDBRANCH   1   2
BRANCH   1  22
ATOM     22  C   UNL A   1      33.296  34.063  28.171  1.00  0.00     0.202 C 
BRANCH  22  23
ATOM     23  C   UNL A   1      34.401  33.021  27.972  1.00  0.00     0.261 C 
BRANCH  23  24
ATOM     24  O   UNL A   1      34.238  31.875  28.825  1.00  0.00    -0.460 OA
BRANCH  24  25
ATOM     25  C   UNL A   1      34.337  30.684  28.190  1.00  0.00     0.338 C 
ATOM     26  O   UNL A   1      33.506  30.175  27.448  1.00  0.00    -0.246 OA
BRANCH  25  27
ATOM     27  C   UNL A   1      35.691  30.128  28.354  1.00  0.00     0.060 A 
ATOM     28  C   UNL A   1      36.074  29.746  29.647  1.00  0.00     0.016 A 
ATOM     29  C   UNL A   1      36.597  30.053  27.294  1.00  0.00     0.016 A 
ATOM     30  C   UNL A   1      37.382  29.341  29.896  1.00  0.00     0.010 A 
ATOM     31  C   UNL A   1      37.914  29.654  27.548  1.00  0.00     0.010 A 
ATOM     32  C   UNL A   1      38.321  29.335  28.856  1.00  0.00    -0.014 A 
BRANCH  32  33
ATOM     33  C   UNL A   1      39.757  29.143  29.180  1.00  0.00     0.031 A 
ATOM     34  C   UNL A   1      40.412  27.835  28.826  1.00  0.00     0.074 A 
ATOM     35  C   UNL A   1      40.474  30.133  29.739  1.00  0.00     0.049 A 
ATOM     36  N   UNL A   1      41.644  27.445  29.025  1.00  0.00    -0.248 NA
ATOM     37  C   UNL A   1      39.565  26.833  28.157  1.00  0.00     0.031 C 
ATOM     38  C   UNL A   1      39.958  31.457  30.088  1.00  0.00     0.029 A 
ATOM     39  N   UNL A   1      41.794  30.177  30.112  1.00  0.00    -0.354 N 
ATOM     40  C   UNL A   1      41.720  26.154  28.514  1.00  0.00     0.074 A 
ATOM     41  C   UNL A   1      40.403  25.816  28.020  1.00  0.00     0.031 C 
ATOM     42  C   UNL A   1      40.950  32.181  30.634  1.00  0.00     0.029 A 
ATOM     43  C   UNL A   1      42.161  31.365  30.698  1.00  0.00     0.049 A 
ATOM     44  H   UNL A   1      42.418  29.429  29.973  1.00  0.00     0.167 HD
ATOM     45  C   UNL A   1      42.792  25.330  28.455  1.00  0.00     0.037 A 
ATOM     46  C   UNL A   1      43.335  31.741  31.242  1.00  0.00     0.037 A 
ATOM     47  C   UNL A   1      44.102  25.674  28.942  1.00  0.00     0.049 A 
ATOM     48  C   UNL A   1      44.499  30.783  31.218  1.00  0.00     0.074 A 
ATOM     49  C   UNL A   1      45.260  24.917  28.909  1.00  0.00     0.029 A 
ATOM     50  N   UNL A   1      44.428  26.874  29.557  1.00  0.00    -0.354 N 
ATOM     51  N   UNL A   1      44.562  29.574  30.712  1.00  0.00    -0.248 NA
ATOM     52  C   UNL A   1      45.751  31.240  31.837  1.00  0.00     0.031 C 
ATOM     53  C   UNL A   1      46.273  25.640  29.545  1.00  0.00     0.029 A 
ATOM     54  C   UNL A   1      45.761  26.868  29.930  1.00  0.00     0.049 A 
ATOM     55  H   UNL A   1      43.802  27.620  29.706  1.00  0.00     0.167 HD
ATOM     56  C   UNL A   1      45.867  29.139  30.926  1.00  0.00     0.074 A 
ATOM     57  C   UNL A   1      46.560  30.217  31.600  1.00  0.00     0.031 C 
ATOM     58  C   UNL A   1      46.439  27.955  30.593  1.00  0.00     0.037 A 
BRANCH  45  59
ATOM     59  C   UNL A   1      42.589  23.963  27.863  1.00  0.00     0.058 A 
ATOM     60  C   UNL A   1      42.556  23.755  26.474  1.00  0.00     0.135 A 
ATOM     61  C   UNL A   1      42.463  22.839  28.696  1.00  0.00     0.135 A 
ATOM     62  F   UNL A   1      42.652  24.796  25.633  1.00  0.00    -0.206 F 
ATOM     63  C   UNL A   1      42.383  22.484  25.933  1.00  0.00     0.059 A 
ATOM     64  C   UNL A   1      42.315  21.557  28.177  1.00  0.00     0.059 A 
ATOM     65  F   UNL A   1      42.485  22.983  30.030  1.00  0.00    -0.206 F 
ATOM     66  C   UNL A   1      42.264  21.391  26.793  1.00  0.00     0.060 A 
BRANCH  66  67
ATOM     67  S   UNL A   1      42.049  19.748  26.078  1.00  0.00     0.124 S 
ATOM     68  O   UNL A   1      42.425  18.891  27.198  1.00  0.00    -0.237 OA
ATOM     69  O   UNL A   1      40.632  19.744  25.725  1.00  0.00    -0.237 OA
ATOM     70  O   UNL A   1      42.973  19.744  24.948  1.00  0.00    -0.744 OA
ENDBRANCH  66  67
ENDBRANCH  45  59
BRANCH  46  71
ATOM     71  C   UNL A   1      43.471  33.084  31.867  1.00  0.00     0.058 A 
ATOM     72  C   UNL A   1      43.214  33.281  33.231  1.00  0.00     0.135 A 
ATOM     73  C   UNL A   1      43.857  34.199  31.106  1.00  0.00     0.135 A 
ATOM     74  F   UNL A   1      42.830  32.248  33.997  1.00  0.00    -0.206 F 
ATOM     75  C   UNL A   1      43.318  34.537  33.818  1.00  0.00     0.059 A 
ATOM     76  C   UNL A   1      43.994  35.461  31.676  1.00  0.00     0.059 A 
ATOM     77  F   UNL A   1      44.125  34.062  29.799  1.00  0.00    -0.206 F 
ATOM     78  C   UNL A   1      43.711  35.622  33.032  1.00  0.00     0.060 A 
BRANCH  78  79
ATOM     79  S   UNL A   1      43.888  37.242  33.812  1.00  0.00     0.124 S 
ATOM     80  O   UNL A   1      44.013  38.114  32.650  1.00  0.00    -0.237 OA
ATOM     81  O   UNL A   1      42.644  37.356  34.566  1.00  0.00    -0.237 OA
ATOM     82  O   UNL A   1      45.092  37.092  34.623  1.00  0.00    -0.744 OA
ENDBRANCH  78  79
ENDBRANCH  46  71
BRANCH  58  83
ATOM     83  C   UNL A   1      47.895  27.772  30.918  1.00  0.00     0.058 A 
ATOM     84  C   UNL A   1      48.316  27.228  32.142  1.00  0.00     0.135 A 
ATOM     85  C   UNL A   1      48.880  28.094  29.970  1.00  0.00     0.135 A 
ATOM     86  F   UNL A   1      47.416  26.908  33.084  1.00  0.00    -0.206 F 
ATOM     87  C   UNL A   1      49.665  27.030  32.423  1.00  0.00     0.059 A 
ATOM     88  C   UNL A   1      50.233  27.881  30.219  1.00  0.00     0.059 A 
ATOM     89  F   UNL A   1      48.530  28.606  28.779  1.00  0.00    -0.206 F 
ATOM     90  C   UNL A   1      50.616  27.359  31.453  1.00  0.00     0.060 A 
BRANCH  90  91
ATOM     91  S   UNL A   1      52.360  27.065  31.816  1.00  0.00     0.124 S 
ATOM     92  O   UNL A   1      52.277  26.313  33.063  1.00  0.00    -0.237 OA
ATOM     93  O   UNL A   1      52.801  26.309  30.647  1.00  0.00    -0.237 OA
ATOM     94  O   UNL A   1      52.914  28.411  31.929  1.00  0.00    -0.744 OA
ENDBRANCH  90  91
ENDBRANCH  58  83
ENDBRANCH  32  33
ENDBRANCH  25  27
ENDBRANCH  24  25
ENDBRANCH  23  24
ENDBRANCH  22  23
ENDBRANCH   1  22
TORSDOF 20
ENDMDL
MODEL 2
REMARK VINA RESULT:      -8.7      4.636     11.035
REMARK SMILES C[C@@H](C(=O)OCCOCCOC(=O)c1ccc(-c2c3nc(c(-c4c(F)cc(S(=O)(=O)[O-])cc4F)c4ccc([nH]4)c(-c4c(F)cc(S(=O)(=O)[O-])cc4F)c4nc(c(-c5c(F)cc(S(=O)(=O)[O-])cc5F)c5ccc2[nH]5)C=C4)C=C3)cc1)c1ccc(Cc2ccco2)cc1F
REMARK SMILES IDX 8 1 7 2 6 3 5 4 3 5 4 6 2 7 1 8 80 9 81 10 91 11 82 12 90 13
REMARK SMILES IDX 92 14 83 15 84 16 85 17 86 18 89 19 87 20 88 21 9 22 10 23
REMARK SMILES IDX 11 24 12 25 13 26 14 27 15 28 79 29 16 30 78 31 17 32 18 33
REMARK SMILES IDX 19 34 72 35 20 36 77 37 71 38 73 39 21 40 76 41 70 42 69 43
REMARK SMILES IDX 22 45 56 46 35 47 55 48 36 49 39 50 54 51 74 52 37 53 38 54
REMARK SMILES IDX 53 56 75 57 40 58 23 59 24 60 33 61 25 62 26 63 32 64 34 65
REMARK SMILES IDX 27 66 28 67 29 68 30 69 31 70 57 71 58 72 67 73 59 74 60 75
REMARK SMILES IDX 66 76 68 77 61 78 62 79 63 80 64 81 65 82 41 83 42 84 51 85
REMARK SMILES IDX 43 86 44 87 50 88 52 89 45 90 46 91 47 92 48 93 49 94
REMARK H PARENT 73 44 39 55
REMARK Flexibility Score: inf
ROOT
ATOM      1  O   UNL A   1      37.080  22.302  24.848  1.00  0.00    -0.374 OA
ENDROOT
BRANCH   1   2
ATOM      2  C   UNL A   1      36.201  23.411  24.638  1.00  0.00     0.202 C 
BRANCH   2   3
ATOM      3  C   UNL A   1      35.175  23.252  23.510  1.00  0.00     0.261 C 
BRANCH   3   4
ATOM      4  O   UNL A   1      33.839  23.293  24.038  1.00  0.00    -0.463 OA
BRANCH   4   5
ATOM      5  C   UNL A   1      32.910  23.898  23.252  1.00  0.00     0.313 C 
ATOM      6  O   UNL A   1      33.023  24.045  22.039  1.00  0.00    -0.252 OA
BRANCH   5   7
ATOM      7  C   UNL A   1      31.635  24.262  24.020  1.00  0.00     0.129 C 
ATOM      8  C   UNL A   1      30.352  24.253  23.180  1.00  0.00     0.025 C 
BRANCH   7   9
ATOM      9  C   UNL A   1      31.776  25.568  24.797  1.00  0.00     0.002 A 
ATOM     10  C   UNL A   1      31.809  25.617  26.199  1.00  0.00     0.008 A 
ATOM     11  C   UNL A   1      31.865  26.781  24.106  1.00  0.00     0.127 A 
ATOM     12  C   UNL A   1      31.892  26.837  26.875  1.00  0.00     0.005 A 
ATOM     13  C   UNL A   1      31.924  28.006  24.775  1.00  0.00     0.043 A 
ATOM     14  F   UNL A   1      31.877  26.782  22.766  1.00  0.00    -0.207 F 
ATOM     15  C   UNL A   1      31.913  28.049  26.173  1.00  0.00    -0.038 A 
BRANCH  15  16
ATOM     16  C   UNL A   1      31.898  29.369  26.915  1.00  0.00     0.111 C 
BRANCH  16  17
ATOM     17  C   UNL A   1      33.263  29.896  27.218  1.00  0.00     0.108 A 
ATOM     18  C   UNL A   1      34.519  29.321  27.278  1.00  0.00     0.046 A 
ATOM     19  O   UNL A   1      33.359  31.233  27.480  1.00  0.00    -0.469 OA
ATOM     20  C   UNL A   1      35.422  30.355  27.617  1.00  0.00     0.042 A 
ATOM     21  C   UNL A   1      34.668  31.498  27.726  1.00  0.00     0.195 A 
ENDBRANCH  16  17
ENDBRANCH  15  16
ENDBRANCH   7   9
ENDBRANCH   5   7
ENDBRANCH   4   5
ENDBRANCH   3   4
ENDBRANCH   2   3
ENDBRANCH   1   2
BRANCH   1  22
ATOM     22  C   UNL A   1      38.161  22.488  25.763  1.00  0.00     0.202 C 
BRANCH  22  23
ATOM     23  C   UNL A   1      38.527  23.927  26.140  1.00  0.00     0.261 C 
BRANCH  23  24
ATOM     24  O   UNL A   1      39.862  24.035  26.664  1.00  0.00    -0.460 OA
BRANCH  24  25
ATOM     25  C   UNL A   1      40.476  25.211  26.395  1.00  0.00     0.338 C 
ATOM     26  O   UNL A   1      40.749  25.662  25.290  1.00  0.00    -0.246 OA
BRANCH  25  27
ATOM     27  C   UNL A   1      40.625  26.005  27.627  1.00  0.00     0.060 A 
ATOM     28  C   UNL A   1      39.627  25.869  28.601  1.00  0.00     0.016 A 
ATOM     29  C   UNL A   1      41.666  26.920  27.800  1.00  0.00     0.016 A 
ATOM     30  C   UNL A   1      39.633  26.688  29.726  1.00  0.00     0.010 A 
ATOM     31  C   UNL A   1      41.665  27.750  28.927  1.00  0.00     0.010 A 
ATOM     32  C   UNL A   1      40.628  27.663  29.874  1.00  0.00    -0.014 A 
BRANCH  32  33
ATOM     33  C   UNL A   1      40.486  28.685  30.940  1.00  0.00     0.031 A 
ATOM     34  C   UNL A   1      41.378  28.603  32.149  1.00  0.00     0.074 A 
ATOM     35  C   UNL A   1      39.607  29.695  30.812  1.00  0.00     0.049 A 
ATOM     36  N   UNL A   1      41.420  29.376  33.202  1.00  0.00    -0.248 NA
ATOM     37  C   UNL A   1      42.356  27.501  32.173  1.00  0.00     0.031 C 
ATOM     38  C   UNL A   1      38.719  29.902  29.668  1.00  0.00     0.029 A 
ATOM     39  N   UNL A   1      39.316  30.737  31.656  1.00  0.00    -0.354 N 
ATOM     40  C   UNL A   1      42.419  28.854  34.016  1.00  0.00     0.074 A 
ATOM     41  C   UNL A   1      42.941  27.682  33.348  1.00  0.00     0.031 C 
ATOM     42  C   UNL A   1      37.975  30.999  29.887  1.00  0.00     0.029 A 
ATOM     43  C   UNL A   1      38.313  31.556  31.194  1.00  0.00     0.049 A 
ATOM     44  H   UNL A   1      39.782  30.884  32.511  1.00  0.00     0.167 HD
ATOM     45  C   UNL A   1      42.866  29.316  35.208  1.00  0.00     0.037 A 
ATOM     46  C   UNL A   1      37.723  32.621  31.773  1.00  0.00     0.037 A 
ATOM     47  C   UNL A   1      42.348  30.486  35.865  1.00  0.00     0.049 A 
ATOM     48  C   UNL A   1      38.198  33.080  33.128  1.00  0.00     0.074 A 
ATOM     49  C   UNL A   1      42.748  31.049  37.065  1.00  0.00     0.029 A 
ATOM     50  N   UNL A   1      41.312  31.272  35.382  1.00  0.00    -0.354 N 
ATOM     51  N   UNL A   1      39.159  32.589  33.876  1.00  0.00    -0.248 NA
ATOM     52  C   UNL A   1      37.511  34.237  33.718  1.00  0.00     0.031 C 
ATOM     53  C   UNL A   1      41.923  32.147  37.329  1.00  0.00     0.029 A 
ATOM     54  C   UNL A   1      41.043  32.299  36.271  1.00  0.00     0.049 A 
ATOM     55  H   UNL A   1      40.838  31.122  34.532  1.00  0.00     0.167 HD
ATOM     56  C   UNL A   1      39.209  33.396  35.009  1.00  0.00     0.074 A 
ATOM     57  C   UNL A   1      38.188  34.410  34.845  1.00  0.00     0.031 C 
ATOM     58  C   UNL A   1      40.027  33.307  36.087  1.00  0.00     0.037 A 
BRANCH  45  59
ATOM     59  C   UNL A   1      43.956  28.539  35.893  1.00  0.00     0.058 A 
ATOM     60  C   UNL A   1      45.313  28.856  35.718  1.00  0.00     0.135 A 
ATOM     61  C   UNL A   1      43.638  27.485  36.765  1.00  0.00     0.135 A 
ATOM     62  F   UNL A   1      45.674  29.841  34.881  1.00  0.00    -0.206 F 
ATOM     63  C   UNL A   1      46.316  28.142  36.367  1.00  0.00     0.059 A 
ATOM     64  C   UNL A   1      44.623  26.774  37.443  1.00  0.00     0.059 A 
ATOM     65  F   UNL A   1      42.356  27.139  36.965  1.00  0.00    -0.206 F 
ATOM     66  C   UNL A   1      45.960  27.102  37.228  1.00  0.00     0.060 A 
BRANCH  66  67
ATOM     67  S   UNL A   1      47.271  26.190  38.070  1.00  0.00     0.124 S 
ATOM     68  O   UNL A   1      48.025  27.273  38.693  1.00  0.00    -0.237 OA
ATOM     69  O   UNL A   1      46.520  25.334  38.983  1.00  0.00    -0.237 OA
ATOM     70  O   UNL A   1      47.954  25.495  36.983  1.00  0.00    -0.744 OA
ENDBRANCH  66  67
ENDBRANCH  45  59
BRANCH  46  71
ATOM     71  C   UNL A   1      36.610  33.323  31.081  1.00  0.00     0.058 A 
ATOM     72  C   UNL A   1      36.849  34.149  29.974  1.00  0.00     0.135 A 
ATOM     73  C   UNL A   1      35.284  33.183  31.520  1.00  0.00     0.135 A 
ATOM     74  F   UNL A   1      38.101  34.323  29.525  1.00  0.00    -0.206 F 
ATOM     75  C   UNL A   1      35.816  34.825  29.333  1.00  0.00     0.059 A 
ATOM     76  C   UNL A   1      34.230  33.829  30.881  1.00  0.00     0.059 A 
ATOM     77  F   UNL A   1      35.001  32.396  32.569  1.00  0.00    -0.206 F 
ATOM     78  C   UNL A   1      34.508  34.658  29.793  1.00  0.00     0.060 A 
BRANCH  78  79
ATOM     79  S   UNL A   1      33.167  35.503  28.928  1.00  0.00     0.124 S 
ATOM     80  O   UNL A   1      32.569  34.408  28.174  1.00  0.00    -0.237 OA
ATOM     81  O   UNL A   1      32.371  36.027  30.034  1.00  0.00    -0.237 OA
ATOM     82  O   UNL A   1      33.863  36.511  28.135  1.00  0.00    -0.744 OA
ENDBRANCH  78  79
ENDBRANCH  46  71
BRANCH  58  83
ATOM     83  C   UNL A   1      39.881  34.351  37.159  1.00  0.00     0.058 A 
ATOM     84  C   UNL A   1      40.485  35.613  37.048  1.00  0.00     0.135 A 
ATOM     85  C   UNL A   1      39.080  34.104  38.286  1.00  0.00     0.135 A 
ATOM     86  F   UNL A   1      41.265  35.898  35.993  1.00  0.00    -0.206 F 
ATOM     87  C   UNL A   1      40.318  36.587  38.027  1.00  0.00     0.059 A 
ATOM     88  C   UNL A   1      38.877  35.072  39.265  1.00  0.00     0.059 A 
ATOM     89  F   UNL A   1      38.470  32.918  38.435  1.00  0.00    -0.206 F 
ATOM     90  C   UNL A   1      39.510  36.307  39.133  1.00  0.00     0.060 A 
BRANCH  90  91
ATOM     91  S   UNL A   1      39.273  37.591  40.380  1.00  0.00     0.124 S 
ATOM     92  O   UNL A   1      38.948  36.796  41.560  1.00  0.00    -0.237 OA
ATOM     93  O   UNL A   1      40.573  38.255  40.399  1.00  0.00    -0.237 OA
ATOM     94  O   UNL A   1      38.177  38.390  39.840  1.00  0.00    -0.744 OA
ENDBRANCH  90  91
ENDBRANCH  58  83
ENDBRANCH  32  33
ENDBRANCH  25  27
ENDBRANCH  24  25
ENDBRANCH  23  24
ENDBRANCH  22  23
ENDBRANCH   1  22
TORSDOF 20
ENDMDL
MODEL 3
REMARK VINA RESULT:      -8.5      4.139     11.225
REMARK SMILES C[C@@H](C(=O)OCCOCCOC(=O)c1ccc(-c2c3nc(c(-c4c(F)cc(S(=O)(=O)[O-])cc4F)c4ccc([nH]4)c(-c4c(F)cc(S(=O)(=O)[O-])cc4F)c4nc(c(-c5c(F)cc(S(=O)(=O)[O-])cc5F)c5ccc2[nH]5)C=C4)C=C3)cc1)c1ccc(Cc2ccco2)cc1F
REMARK SMILES IDX 8 1 7 2 6 3 5 4 3 5 4 6 2 7 1 8 80 9 81 10 91 11 82 12 90 13
REMARK SMILES IDX 92 14 83 15 84 16 85 17 86 18 89 19 87 20 88 21 9 22 10 23
REMARK SMILES IDX 11 24 12 25 13 26 14 27 15 28 79 29 16 30 78 31 17 32 18 33
REMARK SMILES IDX 19 34 72 35 20 36 77 37 71 38 73 39 21 40 76 41 70 42 69 43
REMARK SMILES IDX 22 45 56 46 35 47 55 48 36 49 39 50 54 51 74 52 37 53 38 54
REMARK SMILES IDX 53 56 75 57 40 58 23 59 24 60 33 61 25 62 26 63 32 64 34 65
REMARK SMILES IDX 27 66 28 67 29 68 30 69 31 70 57 71 58 72 67 73 59 74 60 75
REMARK SMILES IDX 66 76 68 77 61 78 62 79 63 80 64 81 65 82 41 83 42 84 51 85
REMARK SMILES IDX 43 86 44 87 50 88 52 89 45 90 46 91 47 92 48 93 49 94
REMARK H PARENT 73 44 39 55
REMARK Flexibility Score: inf
ROOT
ATOM      1  O   UNL A   1      40.341  21.311  25.862  1.00  0.00    -0.374 OA
ENDROOT
BRANCH   1   2
ATOM      2  C   UNL A   1      40.728  20.111  26.538  1.00  0.00     0.202 C 
BRANCH   2   3
ATOM      3  C   UNL A   1      42.233  19.920  26.760  1.00  0.00     0.261 C 
BRANCH   3   4
ATOM      4  O   UNL A   1      42.946  20.076  25.522  1.00  0.00    -0.463 OA
BRANCH   4   5
ATOM      5  C   UNL A   1      44.019  20.910  25.558  1.00  0.00     0.313 C 
ATOM      6  O   UNL A   1      45.186  20.536  25.497  1.00  0.00    -0.252 OA
BRANCH   5   7
ATOM      7  C   UNL A   1      43.616  22.389  25.548  1.00  0.00     0.129 C 
ATOM      8  C   UNL A   1      44.140  23.190  24.350  1.00  0.00     0.025 C 
BRANCH   7   9
ATOM      9  C   UNL A   1      43.940  23.089  26.864  1.00  0.00     0.002 A 
ATOM     10  C   UNL A   1      42.957  23.420  27.810  1.00  0.00     0.008 A 
ATOM     11  C   UNL A   1      45.262  23.439  27.159  1.00  0.00     0.127 A 
ATOM     12  C   UNL A   1      43.287  24.105  28.983  1.00  0.00     0.005 A 
ATOM     13  C   UNL A   1      45.597  24.143  28.317  1.00  0.00     0.043 A 
ATOM     14  F   UNL A   1      46.241  23.109  26.305  1.00  0.00    -0.207 F 
ATOM     15  C   UNL A   1      44.605  24.507  29.235  1.00  0.00    -0.038 A 
BRANCH  15  16
ATOM     16  C   UNL A   1      44.936  25.338  30.457  1.00  0.00     0.111 C 
BRANCH  16  17
ATOM     17  C   UNL A   1      44.706  24.617  31.745  1.00  0.00     0.108 A 
ATOM     18  C   UNL A   1      44.960  24.919  33.069  1.00  0.00     0.046 A 
ATOM     19  O   UNL A   1      44.098  23.396  31.663  1.00  0.00    -0.469 OA
ATOM     20  C   UNL A   1      44.505  23.818  33.831  1.00  0.00     0.042 A 
ATOM     21  C   UNL A   1      43.987  22.920  32.930  1.00  0.00     0.195 A 
ENDBRANCH  16  17
ENDBRANCH  15  16
ENDBRANCH   7   9
ENDBRANCH   5   7
ENDBRANCH   4   5
ENDBRANCH   3   4
ENDBRANCH   2   3
ENDBRANCH   1   2
BRANCH   1  22
ATOM     22  C   UNL A   1      39.649  22.299  26.628  1.00  0.00     0.202 C 
BRANCH  22  23
ATOM     23  C   UNL A   1      38.801  23.320  25.862  1.00  0.00     0.261 C 
BRANCH  23  24
ATOM     24  O   UNL A   1      38.850  24.629  26.455  1.00  0.00    -0.460 OA
BRANCH  24  25
ATOM     25  C   UNL A   1      40.071  25.212  26.427  1.00  0.00     0.338 C 
ATOM     26  O   UNL A   1      40.859  25.223  25.489  1.00  0.00    -0.246 OA
BRANCH  25  27
ATOM     27  C   UNL A   1      40.280  26.022  27.639  1.00  0.00     0.060 A 
ATOM     28  C   UNL A   1      39.383  25.831  28.699  1.00  0.00     0.016 A 
ATOM     29  C   UNL A   1      41.274  27.001  27.717  1.00  0.00     0.016 A 
ATOM     30  C   UNL A   1      39.440  26.657  29.818  1.00  0.00     0.010 A 
ATOM     31  C   UNL A   1      41.322  27.836  28.839  1.00  0.00     0.010 A 
ATOM     32  C   UNL A   1      40.382  27.692  29.875  1.00  0.00    -0.014 A 
BRANCH  32  33
ATOM     33  C   UNL A   1      40.272  28.711  30.948  1.00  0.00     0.031 A 
ATOM     34  C   UNL A   1      41.184  28.610  32.141  1.00  0.00     0.074 A 
ATOM     35  C   UNL A   1      39.406  29.734  30.840  1.00  0.00     0.049 A 
ATOM     36  N   UNL A   1      41.255  29.377  33.198  1.00  0.00    -0.248 NA
ATOM     37  C   UNL A   1      42.145  27.494  32.143  1.00  0.00     0.031 C 
ATOM     38  C   UNL A   1      38.502  29.960  29.711  1.00  0.00     0.029 A 
ATOM     39  N   UNL A   1      39.145  30.776  31.694  1.00  0.00    -0.354 N 
ATOM     40  C   UNL A   1      42.259  28.836  33.992  1.00  0.00     0.074 A 
ATOM     41  C   UNL A   1      42.752  27.660  33.309  1.00  0.00     0.031 C 
ATOM     42  C   UNL A   1      37.778  31.067  29.948  1.00  0.00     0.029 A 
ATOM     43  C   UNL A   1      38.147  31.612  31.253  1.00  0.00     0.049 A 
ATOM     44  H   UNL A   1      39.627  30.912  32.541  1.00  0.00     0.167 HD
ATOM     45  C   UNL A   1      42.732  29.285  35.179  1.00  0.00     0.037 A 
ATOM     46  C   UNL A   1      37.583  32.682  31.847  1.00  0.00     0.037 A 
ATOM     47  C   UNL A   1      42.243  30.460  35.850  1.00  0.00     0.049 A 
ATOM     48  C   UNL A   1      38.086  33.127  33.196  1.00  0.00     0.074 A 
ATOM     49  C   UNL A   1      42.671  31.010  37.045  1.00  0.00     0.029 A 
ATOM     50  N   UNL A   1      41.210  31.263  35.388  1.00  0.00    -0.354 N 
ATOM     51  N   UNL A   1      39.052  32.619  33.925  1.00  0.00    -0.248 NA
ATOM     52  C   UNL A   1      37.426  34.292  33.802  1.00  0.00     0.031 C 
ATOM     53  C   UNL A   1      41.867  32.119  37.329  1.00  0.00     0.029 A 
ATOM     54  C   UNL A   1      40.971  32.289  36.286  1.00  0.00     0.049 A 
ATOM     55  H   UNL A   1      40.721  31.124  34.545  1.00  0.00     0.167 HD
ATOM     56  C   UNL A   1      39.133  33.420  35.061  1.00  0.00     0.074 A 
ATOM     57  C   UNL A   1      38.125  34.449  34.918  1.00  0.00     0.031 C 
ATOM     58  C   UNL A   1      39.968  33.313  36.125  1.00  0.00     0.037 A 
BRANCH  45  59
ATOM     59  C   UNL A   1      43.823  28.489  35.841  1.00  0.00     0.058 A 
ATOM     60  C   UNL A   1      45.182  28.765  35.618  1.00  0.00     0.135 A 
ATOM     61  C   UNL A   1      43.503  27.457  36.739  1.00  0.00     0.135 A 
ATOM     62  F   UNL A   1      45.542  29.727  34.754  1.00  0.00    -0.206 F 
ATOM     63  C   UNL A   1      46.185  28.034  36.247  1.00  0.00     0.059 A 
ATOM     64  C   UNL A   1      44.490  26.730  37.398  1.00  0.00     0.059 A 
ATOM     65  F   UNL A   1      42.220  27.150  36.985  1.00  0.00    -0.206 F 
ATOM     66  C   UNL A   1      45.829  27.018  37.136  1.00  0.00     0.060 A 
BRANCH  66  67
ATOM     67  S   UNL A   1      47.140  26.083  37.950  1.00  0.00     0.124 S 
ATOM     68  O   UNL A   1      46.881  24.732  37.462  1.00  0.00    -0.237 OA
ATOM     69  O   UNL A   1      48.347  26.722  37.433  1.00  0.00    -0.237 OA
ATOM     70  O   UNL A   1      46.880  26.297  39.370  1.00  0.00    -0.744 OA
ENDBRANCH  66  67
ENDBRANCH  45  59
BRANCH  46  71
ATOM     71  C   UNL A   1      36.468  33.404  31.177  1.00  0.00     0.058 A 
ATOM     72  C   UNL A   1      36.692  34.187  30.036  1.00  0.00     0.135 A 
ATOM     73  C   UNL A   1      35.156  33.327  31.671  1.00  0.00     0.135 A 
ATOM     74  F   UNL A   1      37.930  34.301  29.532  1.00  0.00    -0.206 F 
ATOM     75  C   UNL A   1      35.659  34.882  29.415  1.00  0.00     0.059 A 
ATOM     76  C   UNL A   1      34.102  33.992  31.053  1.00  0.00     0.059 A 
ATOM     77  F   UNL A   1      34.888  32.584  32.755  1.00  0.00    -0.206 F 
ATOM     78  C   UNL A   1      34.365  34.777  29.931  1.00  0.00     0.060 A 
BRANCH  78  79
ATOM     79  S   UNL A   1      33.022  35.645  29.092  1.00  0.00     0.124 S 
ATOM     80  O   UNL A   1      32.448  34.581  28.278  1.00  0.00    -0.237 OA
ATOM     81  O   UNL A   1      32.207  36.103  30.213  1.00  0.00    -0.237 OA
ATOM     82  O   UNL A   1      33.712  36.701  28.358  1.00  0.00    -0.744 OA
ENDBRANCH  78  79
ENDBRANCH  46  71
BRANCH  58  83
ATOM     83  C   UNL A   1      39.855  34.354  37.204  1.00  0.00     0.058 A 
ATOM     84  C   UNL A   1      40.481  35.605  37.091  1.00  0.00     0.135 A 
ATOM     85  C   UNL A   1      39.064  34.115  38.339  1.00  0.00     0.135 A 
ATOM     86  F   UNL A   1      41.253  35.880  36.028  1.00  0.00    -0.206 F 
ATOM     87  C   UNL A   1      40.345  36.576  38.078  1.00  0.00     0.059 A 
ATOM     88  C   UNL A   1      38.893  35.082  39.327  1.00  0.00     0.059 A 
ATOM     89  F   UNL A   1      38.434  32.940  38.490  1.00  0.00    -0.206 F 
ATOM     90  C   UNL A   1      39.547  36.305  39.192  1.00  0.00     0.060 A 
BRANCH  90  91
ATOM     91  S   UNL A   1      39.349  37.586  40.449  1.00  0.00     0.124 S 
ATOM     92  O   UNL A   1      38.219  38.343  39.921  1.00  0.00    -0.237 OA
ATOM     93  O   UNL A   1      39.083  36.806  41.654  1.00  0.00    -0.237 OA
ATOM     94  O   UNL A   1      40.633  38.279  40.431  1.00  0.00    -0.744 OA
ENDBRANCH  90  91
ENDBRANCH  58  83
ENDBRANCH  32  33
ENDBRANCH  25  27
ENDBRANCH  24  25
ENDBRANCH  23  24
ENDBRANCH  22  23
ENDBRANCH   1  22
TORSDOF 20
ENDMDL
