MODEL 1
REMARK VINA RESULT:      -8.3      0.000      0.000
REMARK SMILES C[C@@H](C(=O)OCCOCCOC(=O)c1ccc(-c2c3nc(c(-c4c(F)cc(S(=O)(=O)[O-])cc4F)c4ccc([nH]4)c(-c4c(F)cc(S(=O)(=O)[O-])cc4F)c4nc(c(-c5c(F)cc(S(=O)(=O)[O-])cc5F)c5ccc2[nH]5)C=C4)C=C3)cc1)c1ccc(C[C@H]2CCC[C@H]2O)cc1
REMARK SMILES IDX 7 1 6 2 5 3 3 4 4 5 2 6 1 7 80 8 81 9 92 10 82 11 91 12
REMARK SMILES IDX 83 13 84 14 85 15 86 16 89 17 87 18 88 19 90 20 8 22 9 23
REMARK SMILES IDX 10 24 11 25 12 26 13 27 14 28 15 29 79 30 16 31 78 32 17 33
REMARK SMILES IDX 18 34 19 35 72 36 20 37 77 38 71 39 73 40 21 41 76 42 70 43
REMARK SMILES IDX 69 44 22 46 56 47 35 48 55 49 36 50 39 51 54 52 74 53 37 54
REMARK SMILES IDX 38 55 53 57 75 58 40 59 23 60 24 61 33 62 25 63 26 64 32 65
REMARK SMILES IDX 34 66 27 67 28 68 29 69 30 70 31 71 57 72 58 73 67 74 59 75
REMARK SMILES IDX 60 76 66 77 68 78 61 79 62 80 63 81 64 82 65 83 41 84 42 85
REMARK SMILES IDX 51 86 43 87 44 88 50 89 52 90 45 91 46 92 47 93 48 94 49 95
REMARK H PARENT 90 21 73 45 39 56
REMARK Flexibility Score: inf
ROOT
ATOM      1  C   UNL A   1      44.019  21.309  25.317  1.00  0.00     0.202 C 
ENDROOT
BRANCH   1   2
ATOM      2  C   UNL A   1      44.099  22.526  24.391  1.00  0.00     0.261 C 
BRANCH   2   3
ATOM      3  O   UNL A   1      43.310  23.603  24.910  1.00  0.00    -0.463 OA
BRANCH   3   4
ATOM      4  C   UNL A   1      43.783  24.178  26.048  1.00  0.00     0.313 C 
ATOM      5  O   UNL A   1      43.384  23.910  27.176  1.00  0.00    -0.252 OA
BRANCH   4   6
ATOM      6  C   UNL A   1      44.962  25.115  25.771  1.00  0.00     0.126 C 
ATOM      7  C   UNL A   1      46.226  24.649  26.507  1.00  0.00     0.025 C 
BRANCH   6   8
ATOM      8  C   UNL A   1      44.625  26.603  25.943  1.00  0.00    -0.034 A 
ATOM      9  C   UNL A   1      45.510  27.468  26.609  1.00  0.00     0.005 A 
ATOM     10  C   UNL A   1      43.377  27.130  25.571  1.00  0.00     0.005 A 
ATOM     11  C   UNL A   1      45.136  28.768  26.958  1.00  0.00     0.004 A 
ATOM     12  C   UNL A   1      42.992  28.423  25.945  1.00  0.00     0.004 A 
ATOM     13  C   UNL A   1      43.843  29.226  26.711  1.00  0.00    -0.048 A 
BRANCH  13  14
ATOM     14  C   UNL A   1      43.352  30.507  27.342  1.00  0.00     0.041 C 
BRANCH  14  15
ATOM     15  C   UNL A   1      44.353  31.683  27.396  1.00  0.00     0.022 C 
ATOM     16  C   UNL A   1      44.297  32.675  26.218  1.00  0.00     0.007 C 
ATOM     17  C   UNL A   1      44.382  32.571  28.653  1.00  0.00     0.117 C 
ATOM     18  C   UNL A   1      44.706  34.038  26.783  1.00  0.00     0.003 C 
ATOM     19  C   UNL A   1      45.202  33.775  28.199  1.00  0.00     0.032 C 
BRANCH  17  20
ATOM     20  O   UNL A   1      43.121  33.034  29.096  1.00  0.00    -0.393 OA
ATOM     21  H   UNL A   1      43.157  33.205  30.050  1.00  0.00     0.210 HD
ENDBRANCH  17  20
ENDBRANCH  14  15
ENDBRANCH  13  14
ENDBRANCH   6   8
ENDBRANCH   4   6
ENDBRANCH   3   4
ENDBRANCH   2   3
ENDBRANCH   1   2
BRANCH   1  22
ATOM     22  O   UNL A   1      42.728  20.718  25.479  1.00  0.00    -0.374 OA
BRANCH  22  23
ATOM     23  C   UNL A   1      42.169  20.687  26.794  1.00  0.00     0.202 C 
BRANCH  23  24
ATOM     24  C   UNL A   1      40.757  21.264  26.970  1.00  0.00     0.261 C 
BRANCH  24  25
ATOM     25  O   UNL A   1      40.528  22.446  26.178  1.00  0.00    -0.460 OA
BRANCH  25  26
ATOM     26  C   UNL A   1      39.296  22.992  26.322  1.00  0.00     0.338 C 
ATOM     27  O   UNL A   1      38.219  22.457  26.085  1.00  0.00    -0.246 OA
BRANCH  26  28
ATOM     28  C   UNL A   1      39.383  24.303  26.989  1.00  0.00     0.060 A 
ATOM     29  C   UNL A   1      40.050  25.332  26.311  1.00  0.00     0.016 A 
ATOM     30  C   UNL A   1      38.922  24.497  28.293  1.00  0.00     0.016 A 
ATOM     31  C   UNL A   1      40.299  26.545  26.951  1.00  0.00     0.010 A 
ATOM     32  C   UNL A   1      39.183  25.712  28.938  1.00  0.00     0.010 A 
ATOM     33  C   UNL A   1      39.904  26.728  28.282  1.00  0.00    -0.014 A 
BRANCH  33  34
ATOM     34  C   UNL A   1      40.377  27.924  29.024  1.00  0.00     0.031 A 
ATOM     35  C   UNL A   1      41.782  27.939  29.564  1.00  0.00     0.074 A 
ATOM     36  C   UNL A   1      39.584  28.998  29.176  1.00  0.00     0.049 A 
ATOM     37  N   UNL A   1      42.396  28.866  30.253  1.00  0.00    -0.248 NA
ATOM     38  C   UNL A   1      42.605  26.749  29.290  1.00  0.00     0.031 C 
ATOM     39  C   UNL A   1      38.220  29.120  28.666  1.00  0.00     0.029 A 
ATOM     40  N   UNL A   1      39.812  30.193  29.812  1.00  0.00    -0.354 N 
ATOM     41  C   UNL A   1      43.674  28.376  30.496  1.00  0.00     0.074 A 
ATOM     42  C   UNL A   1      43.738  27.054  29.907  1.00  0.00     0.031 C 
ATOM     43  C   UNL A   1      37.726  30.319  29.019  1.00  0.00     0.029 A 
ATOM     44  C   UNL A   1      38.728  31.038  29.804  1.00  0.00     0.049 A 
ATOM     45  H   UNL A   1      40.672  30.423  30.234  1.00  0.00     0.167 HD
ATOM     46  C   UNL A   1      44.703  28.973  31.141  1.00  0.00     0.037 A 
ATOM     47  C   UNL A   1      38.558  32.245  30.382  1.00  0.00     0.037 A 
ATOM     48  C   UNL A   1      44.636  30.287  31.727  1.00  0.00     0.049 A 
ATOM     49  C   UNL A   1      39.697  32.866  31.147  1.00  0.00     0.074 A 
ATOM     50  C   UNL A   1      45.628  30.984  32.396  1.00  0.00     0.029 A 
ATOM     51  N   UNL A   1      43.514  31.102  31.719  1.00  0.00    -0.354 N 
ATOM     52  N   UNL A   1      40.904  32.396  31.356  1.00  0.00    -0.248 NA
ATOM     53  C   UNL A   1      39.453  34.183  31.752  1.00  0.00     0.031 C 
ATOM     54  C   UNL A   1      45.092  32.202  32.829  1.00  0.00     0.029 A 
ATOM     55  C   UNL A   1      43.780  32.284  32.389  1.00  0.00     0.049 A 
ATOM     56  H   UNL A   1      42.652  30.872  31.299  1.00  0.00     0.167 HD
ATOM     57  C   UNL A   1      41.570  33.369  32.095  1.00  0.00     0.074 A 
ATOM     58  C   UNL A   1      40.634  34.458  32.289  1.00  0.00     0.031 C 
ATOM     59  C   UNL A   1      42.841  33.362  32.569  1.00  0.00     0.037 A 
BRANCH  46  60
ATOM     60  C   UNL A   1      45.988  28.201  31.265  1.00  0.00     0.058 A 
ATOM     61  C   UNL A   1      47.066  28.420  30.393  1.00  0.00     0.135 A 
ATOM     62  C   UNL A   1      46.151  27.249  32.284  1.00  0.00     0.135 A 
ATOM     63  F   UNL A   1      46.957  29.306  29.390  1.00  0.00    -0.206 F 
ATOM     64  C   UNL A   1      48.253  27.704  30.512  1.00  0.00     0.059 A 
ATOM     65  C   UNL A   1      47.338  26.539  32.436  1.00  0.00     0.059 A 
ATOM     66  F   UNL A   1      45.150  27.000  33.144  1.00  0.00    -0.206 F 
ATOM     67  C   UNL A   1      48.378  26.763  31.536  1.00  0.00     0.060 A 
BRANCH  67  68
ATOM     68  S   UNL A   1      49.924  25.839  31.676  1.00  0.00     0.124 S 
ATOM     69  O   UNL A   1      50.834  26.869  32.165  1.00  0.00    -0.237 OA
ATOM     70  O   UNL A   1      49.577  24.793  32.633  1.00  0.00    -0.237 OA
ATOM     71  O   UNL A   1      50.170  25.379  30.312  1.00  0.00    -0.744 OA
ENDBRANCH  67  68
ENDBRANCH  46  60
BRANCH  47  72
ATOM     72  C   UNL A   1      37.248  32.939  30.271  1.00  0.00     0.058 A 
ATOM     73  C   UNL A   1      36.338  32.952  31.337  1.00  0.00     0.135 A 
ATOM     74  C   UNL A   1      36.883  33.609  29.091  1.00  0.00     0.135 A 
ATOM     75  F   UNL A   1      36.635  32.318  32.481  1.00  0.00    -0.206 F 
ATOM     76  C   UNL A   1      35.108  33.595  31.237  1.00  0.00     0.059 A 
ATOM     77  C   UNL A   1      35.670  34.277  28.975  1.00  0.00     0.059 A 
ATOM     78  F   UNL A   1      37.724  33.633  28.045  1.00  0.00    -0.206 F 
ATOM     79  C   UNL A   1      34.784  34.257  30.052  1.00  0.00     0.060 A 
BRANCH  79  80
ATOM     80  S   UNL A   1      33.207  35.131  29.946  1.00  0.00     0.124 S 
ATOM     81  O   UNL A   1      32.542  34.409  28.869  1.00  0.00    -0.237 OA
ATOM     82  O   UNL A   1      32.657  34.934  31.285  1.00  0.00    -0.237 OA
ATOM     83  O   UNL A   1      33.605  36.502  29.637  1.00  0.00    -0.744 OA
ENDBRANCH  79  80
ENDBRANCH  47  72
BRANCH  59  84
ATOM     84  C   UNL A   1      43.310  34.580  33.318  1.00  0.00     0.058 A 
ATOM     85  C   UNL A   1      43.252  34.652  34.718  1.00  0.00     0.135 A 
ATOM     86  C   UNL A   1      43.876  35.665  32.627  1.00  0.00     0.135 A 
ATOM     87  F   UNL A   1      42.716  33.645  35.425  1.00  0.00    -0.206 F 
ATOM     88  C   UNL A   1      43.720  35.767  35.407  1.00  0.00     0.059 A 
ATOM     89  C   UNL A   1      44.372  36.778  33.297  1.00  0.00     0.059 A 
ATOM     90  F   UNL A   1      43.965  35.641  31.289  1.00  0.00    -0.206 F 
ATOM     91  C   UNL A   1      44.279  36.825  34.688  1.00  0.00     0.060 A 
BRANCH  91  92
ATOM     92  S   UNL A   1      44.914  38.252  35.595  1.00  0.00     0.124 S 
ATOM     93  O   UNL A   1      44.036  39.316  35.121  1.00  0.00    -0.237 OA
ATOM     94  O   UNL A   1      44.727  37.848  36.986  1.00  0.00    -0.237 OA
ATOM     95  O   UNL A   1      46.304  38.341  35.157  1.00  0.00    -0.744 OA
ENDBRANCH  91  92
ENDBRANCH  59  84
ENDBRANCH  33  34
ENDBRANCH  26  28
ENDBRANCH  25  26
ENDBRANCH  24  25
ENDBRANCH  23  24
ENDBRANCH  22  23
ENDBRANCH   1  22
TORSDOF 21
ENDMDL
MODEL 2
REMARK VINA RESULT:      -8.2      4.775      7.335
REMARK SMILES C[C@@H](C(=O)OCCOCCOC(=O)c1ccc(-c2c3nc(c(-c4c(F)cc(S(=O)(=O)[O-])cc4F)c4ccc([nH]4)c(-c4c(F)cc(S(=O)(=O)[O-])cc4F)c4nc(c(-c5c(F)cc(S(=O)(=O)[O-])cc5F)c5ccc2[nH]5)C=C4)C=C3)cc1)c1ccc(C[C@H]2CCC[C@H]2O)cc1
REMARK SMILES IDX 7 1 6 2 5 3 3 4 4 5 2 6 1 7 80 8 81 9 92 10 82 11 91 12
REMARK SMILES IDX 83 13 84 14 85 15 86 16 89 17 87 18 88 19 90 20 8 22 9 23
REMARK SMILES IDX 10 24 11 25 12 26 13 27 14 28 15 29 79 30 16 31 78 32 17 33
REMARK SMILES IDX 18 34 19 35 72 36 20 37 77 38 71 39 73 40 21 41 76 42 70 43
REMARK SMILES IDX 69 44 22 46 56 47 35 48 55 49 36 50 39 51 54 52 74 53 37 54
REMARK SMILES IDX 38 55 53 57 75 58 40 59 23 60 24 61 33 62 25 63 26 64 32 65
REMARK SMILES IDX 34 66 27 67 28 68 29 69 30 70 31 71 57 72 58 73 67 74 59 75
REMARK SMILES IDX 60 76 66 77 68 78 61 79 62 80 63 81 64 82 65 83 41 84 42 85
REMARK SMILES IDX 51 86 43 87 44 88 50 89 52 90 45 91 46 92 47 93 48 94 49 95
REMARK H PARENT 90 21 73 45 39 56
REMARK Flexibility Score: inf
ROOT
ATOM      1  C   UNL A   1      35.702  21.654  25.851  1.00  0.00     0.202 C 
ENDROOT
BRANCH   1   2
ATOM      2  C   UNL A   1      34.827  21.780  24.601  1.00  0.00     0.261 C 
BRANCH   2   3
ATOM      3  O   UNL A   1      33.620  22.489  24.903  1.00  0.00    -0.463 OA
BRANCH   3   4
ATOM      4  C   UNL A   1      33.731  23.843  24.940  1.00  0.00     0.313 C 
ATOM      5  O   UNL A   1      34.244  24.519  24.055  1.00  0.00    -0.252 OA
BRANCH   4   6
ATOM      6  C   UNL A   1      33.031  24.445  26.162  1.00  0.00     0.126 C 
ATOM      7  C   UNL A   1      32.059  23.441  26.796  1.00  0.00     0.025 C 
BRANCH   6   8
ATOM      8  C   UNL A   1      32.446  25.843  25.914  1.00  0.00    -0.034 A 
ATOM      9  C   UNL A   1      31.210  26.000  25.266  1.00  0.00     0.005 A 
ATOM     10  C   UNL A   1      33.171  27.012  26.197  1.00  0.00     0.005 A 
ATOM     11  C   UNL A   1      30.759  27.254  24.847  1.00  0.00     0.004 A 
ATOM     12  C   UNL A   1      32.732  28.266  25.753  1.00  0.00     0.004 A 
ATOM     13  C   UNL A   1      31.558  28.386  25.005  1.00  0.00    -0.048 A 
BRANCH  13  14
ATOM     14  C   UNL A   1      31.207  29.674  24.299  1.00  0.00     0.041 C 
BRANCH  14  15
ATOM     15  C   UNL A   1      29.807  29.751  23.650  1.00  0.00     0.022 C 
ATOM     16  C   UNL A   1      29.043  31.076  23.840  1.00  0.00     0.007 C 
ATOM     17  C   UNL A   1      29.670  29.434  22.150  1.00  0.00     0.117 C 
ATOM     18  C   UNL A   1      28.173  31.254  22.594  1.00  0.00     0.003 C 
ATOM     19  C   UNL A   1      28.272  29.945  21.821  1.00  0.00     0.032 C 
BRANCH  17  20
ATOM     20  O   UNL A   1      30.594  30.093  21.306  1.00  0.00    -0.393 OA
ATOM     21  H   UNL A   1      31.282  30.513  21.846  1.00  0.00     0.210 HD
ENDBRANCH  17  20
ENDBRANCH  14  15
ENDBRANCH  13  14
ENDBRANCH   6   8
ENDBRANCH   4   6
ENDBRANCH   3   4
ENDBRANCH   2   3
ENDBRANCH   1   2
BRANCH   1  22
ATOM     22  O   UNL A   1      36.736  22.628  26.005  1.00  0.00    -0.374 OA
BRANCH  22  23
ATOM     23  C   UNL A   1      38.089  22.166  26.027  1.00  0.00     0.202 C 
BRANCH  23  24
ATOM     24  C   UNL A   1      39.192  23.230  26.122  1.00  0.00     0.261 C 
BRANCH  24  25
ATOM     25  O   UNL A   1      39.831  23.265  27.413  1.00  0.00    -0.460 OA
BRANCH  25  26
ATOM     26  C   UNL A   1      40.945  24.036  27.471  1.00  0.00     0.338 C 
ATOM     27  O   UNL A   1      42.009  23.840  26.894  1.00  0.00    -0.246 OA
BRANCH  26  28
ATOM     28  C   UNL A   1      40.675  25.287  28.201  1.00  0.00     0.060 A 
ATOM     29  C   UNL A   1      41.752  26.154  28.422  1.00  0.00     0.016 A 
ATOM     30  C   UNL A   1      39.421  25.559  28.755  1.00  0.00     0.016 A 
ATOM     31  C   UNL A   1      41.594  27.274  29.236  1.00  0.00     0.010 A 
ATOM     32  C   UNL A   1      39.267  26.679  29.581  1.00  0.00     0.010 A 
ATOM     33  C   UNL A   1      40.361  27.522  29.854  1.00  0.00    -0.014 A 
BRANCH  33  34
ATOM     34  C   UNL A   1      40.269  28.575  30.895  1.00  0.00     0.031 A 
ATOM     35  C   UNL A   1      41.168  28.492  32.100  1.00  0.00     0.074 A 
ATOM     36  C   UNL A   1      39.428  29.614  30.751  1.00  0.00     0.049 A 
ATOM     37  N   UNL A   1      41.244  29.288  33.135  1.00  0.00    -0.248 NA
ATOM     38  C   UNL A   1      42.108  27.360  32.142  1.00  0.00     0.031 C 
ATOM     39  C   UNL A   1      38.535  29.826  29.613  1.00  0.00     0.029 A 
ATOM     40  N   UNL A   1      39.184  30.685  31.574  1.00  0.00    -0.354 N 
ATOM     41  C   UNL A   1      42.237  28.757  33.951  1.00  0.00     0.074 A 
ATOM     42  C   UNL A   1      42.712  27.552  33.306  1.00  0.00     0.031 C 
ATOM     43  C   UNL A   1      37.830  30.953  29.815  1.00  0.00     0.029 A 
ATOM     44  C   UNL A   1      38.202  31.526  31.108  1.00  0.00     0.049 A 
ATOM     45  H   UNL A   1      39.667  30.837  32.418  1.00  0.00     0.167 HD
ATOM     46  C   UNL A   1      42.714  29.234  35.124  1.00  0.00     0.037 A 
ATOM     47  C   UNL A   1      37.651  32.621  31.670  1.00  0.00     0.037 A 
ATOM     48  C   UNL A   1      42.237  30.432  35.765  1.00  0.00     0.049 A 
ATOM     49  C   UNL A   1      38.155  33.100  33.006  1.00  0.00     0.074 A 
ATOM     50  C   UNL A   1      42.663  31.003  36.952  1.00  0.00     0.029 A 
ATOM     51  N   UNL A   1      41.225  31.243  35.273  1.00  0.00    -0.354 N 
ATOM     52  N   UNL A   1      39.104  32.595  33.760  1.00  0.00    -0.248 NA
ATOM     53  C   UNL A   1      37.519  34.300  33.568  1.00  0.00     0.031 C 
ATOM     54  C   UNL A   1      41.879  32.135  37.200  1.00  0.00     0.029 A 
ATOM     55  C   UNL A   1      40.996  32.297  36.143  1.00  0.00     0.049 A 
ATOM     56  H   UNL A   1      40.739  31.092  34.430  1.00  0.00     0.167 HD
ATOM     57  C   UNL A   1      39.194  33.428  34.870  1.00  0.00     0.074 A 
ATOM     58  C   UNL A   1      38.210  34.475  34.686  1.00  0.00     0.031 C 
ATOM     59  C   UNL A   1      40.017  33.336  35.944  1.00  0.00     0.037 A 
BRANCH  46  60
ATOM     60  C   UNL A   1      43.798  28.444  35.805  1.00  0.00     0.058 A 
ATOM     61  C   UNL A   1      45.158  28.697  35.561  1.00  0.00     0.135 A 
ATOM     62  C   UNL A   1      43.474  27.440  36.731  1.00  0.00     0.135 A 
ATOM     63  F   UNL A   1      45.523  29.634  34.671  1.00  0.00    -0.206 F 
ATOM     64  C   UNL A   1      46.157  27.965  36.193  1.00  0.00     0.059 A 
ATOM     65  C   UNL A   1      44.458  26.712  37.393  1.00  0.00     0.059 A 
ATOM     66  F   UNL A   1      42.189  27.157  36.999  1.00  0.00    -0.206 F 
ATOM     67  C   UNL A   1      45.797  26.972  37.106  1.00  0.00     0.060 A 
BRANCH  67  68
ATOM     68  S   UNL A   1      47.106  26.028  37.917  1.00  0.00     0.124 S 
ATOM     69  O   UNL A   1      48.294  26.772  37.513  1.00  0.00    -0.237 OA
ATOM     70  O   UNL A   1      46.740  26.133  39.326  1.00  0.00    -0.237 OA
ATOM     71  O   UNL A   1      46.972  24.695  37.337  1.00  0.00    -0.744 OA
ENDBRANCH  67  68
ENDBRANCH  46  60
BRANCH  47  72
ATOM     72  C   UNL A   1      36.544  33.331  30.976  1.00  0.00     0.058 A 
ATOM     73  C   UNL A   1      36.792  34.177  29.886  1.00  0.00     0.135 A 
ATOM     74  C   UNL A   1      35.212  33.172  31.392  1.00  0.00     0.135 A 
ATOM     75  F   UNL A   1      38.048  34.370  29.458  1.00  0.00    -0.206 F 
ATOM     76  C   UNL A   1      35.760  34.849  29.237  1.00  0.00     0.059 A 
ATOM     77  C   UNL A   1      34.163  33.815  30.746  1.00  0.00     0.059 A 
ATOM     78  F   UNL A   1      34.922  32.366  32.426  1.00  0.00    -0.206 F 
ATOM     79  C   UNL A   1      34.448  34.660  29.674  1.00  0.00     0.060 A 
BRANCH  79  80
ATOM     80  S   UNL A   1      33.109  35.496  28.796  1.00  0.00     0.124 S 
ATOM     81  O   UNL A   1      33.848  36.433  27.958  1.00  0.00    -0.237 OA
ATOM     82  O   UNL A   1      32.461  34.388  28.099  1.00  0.00    -0.237 OA
ATOM     83  O   UNL A   1      32.324  36.093  29.872  1.00  0.00    -0.744 OA
ENDBRANCH  79  80
ENDBRANCH  47  72
BRANCH  59  84
ATOM     84  C   UNL A   1      39.915  34.409  36.993  1.00  0.00     0.058 A 
ATOM     85  C   UNL A   1      40.608  35.624  36.875  1.00  0.00     0.135 A 
ATOM     86  C   UNL A   1      39.067  34.242  38.101  1.00  0.00     0.135 A 
ATOM     87  F   UNL A   1      41.434  35.833  35.838  1.00  0.00    -0.206 F 
ATOM     88  C   UNL A   1      40.481  36.627  37.831  1.00  0.00     0.059 A 
ATOM     89  C   UNL A   1      38.906  35.241  39.055  1.00  0.00     0.059 A 
ATOM     90  F   UNL A   1      38.373  33.103  38.254  1.00  0.00    -0.206 F 
ATOM     91  C   UNL A   1      39.627  36.427  38.918  1.00  0.00     0.060 A 
BRANCH  91  92
ATOM     92  S   UNL A   1      39.444  37.749  40.134  1.00  0.00     0.124 S 
ATOM     93  O   UNL A   1      40.714  38.455  39.993  1.00  0.00    -0.237 OA
ATOM     94  O   UNL A   1      38.266  38.462  39.648  1.00  0.00    -0.237 OA
ATOM     95  O   UNL A   1      39.260  37.031  41.391  1.00  0.00    -0.744 OA
ENDBRANCH  91  92
ENDBRANCH  59  84
ENDBRANCH  33  34
ENDBRANCH  26  28
ENDBRANCH  25  26
ENDBRANCH  24  25
ENDBRANCH  23  24
ENDBRANCH  22  23
ENDBRANCH   1  22
TORSDOF 21
ENDMDL
MODEL 3
REMARK VINA RESULT:      -8.2      4.248      6.732
REMARK SMILES C[C@@H](C(=O)OCCOCCOC(=O)c1ccc(-c2c3nc(c(-c4c(F)cc(S(=O)(=O)[O-])cc4F)c4ccc([nH]4)c(-c4c(F)cc(S(=O)(=O)[O-])cc4F)c4nc(c(-c5c(F)cc(S(=O)(=O)[O-])cc5F)c5ccc2[nH]5)C=C4)C=C3)cc1)c1ccc(C[C@H]2CCC[C@H]2O)cc1
REMARK SMILES IDX 7 1 6 2 5 3 3 4 4 5 2 6 1 7 80 8 81 9 92 10 82 11 91 12
REMARK SMILES IDX 83 13 84 14 85 15 86 16 89 17 87 18 88 19 90 20 8 22 9 23
REMARK SMILES IDX 10 24 11 25 12 26 13 27 14 28 15 29 79 30 16 31 78 32 17 33
REMARK SMILES IDX 18 34 19 35 72 36 20 37 77 38 71 39 73 40 21 41 76 42 70 43
REMARK SMILES IDX 69 44 22 46 56 47 35 48 55 49 36 50 39 51 54 52 74 53 37 54
REMARK SMILES IDX 38 55 53 57 75 58 40 59 23 60 24 61 33 62 25 63 26 64 32 65
REMARK SMILES IDX 34 66 27 67 28 68 29 69 30 70 31 71 57 72 58 73 67 74 59 75
REMARK SMILES IDX 60 76 66 77 68 78 61 79 62 80 63 81 64 82 65 83 41 84 42 85
REMARK SMILES IDX 51 86 43 87 44 88 50 89 52 90 45 91 46 92 47 93 48 94 49 95
REMARK H PARENT 90 21 73 45 39 56
REMARK Flexibility Score: inf
ROOT
ATOM      1  C   UNL A   1      37.803  21.599  25.352  1.00  0.00     0.202 C 
ENDROOT
BRANCH   1   2
ATOM      2  C   UNL A   1      36.696  20.560  25.155  1.00  0.00     0.261 C 
BRANCH   2   3
ATOM      3  O   UNL A   1      35.514  21.181  24.633  1.00  0.00    -0.463 OA
BRANCH   3   4
ATOM      4  C   UNL A   1      34.444  21.195  25.471  1.00  0.00     0.313 C 
ATOM      5  O   UNL A   1      33.703  20.236  25.663  1.00  0.00    -0.252 OA
BRANCH   4   6
ATOM      6  C   UNL A   1      34.338  22.511  26.247  1.00  0.00     0.126 C 
ATOM      7  C   UNL A   1      33.651  22.301  27.604  1.00  0.00     0.025 C 
BRANCH   6   8
ATOM      8  C   UNL A   1      33.785  23.677  25.415  1.00  0.00    -0.034 A 
ATOM      9  C   UNL A   1      34.545  24.843  25.220  1.00  0.00     0.005 A 
ATOM     10  C   UNL A   1      32.465  23.687  24.936  1.00  0.00     0.005 A 
ATOM     11  C   UNL A   1      33.988  25.990  24.648  1.00  0.00     0.004 A 
ATOM     12  C   UNL A   1      31.899  24.845  24.388  1.00  0.00     0.004 A 
ATOM     13  C   UNL A   1      32.636  26.031  24.312  1.00  0.00    -0.048 A 
BRANCH  13  14
ATOM     14  C   UNL A   1      31.972  27.344  23.973  1.00  0.00     0.041 C 
BRANCH  14  15
ATOM     15  C   UNL A   1      31.562  28.242  25.161  1.00  0.00     0.022 C 
ATOM     16  C   UNL A   1      31.557  27.571  26.548  1.00  0.00     0.007 C 
ATOM     17  C   UNL A   1      32.309  29.572  25.375  1.00  0.00     0.117 C 
ATOM     18  C   UNL A   1      31.906  28.666  27.559  1.00  0.00     0.003 C 
ATOM     19  C   UNL A   1      31.885  29.977  26.782  1.00  0.00     0.032 C 
BRANCH  17  20
ATOM     20  O   UNL A   1      33.720  29.484  25.343  1.00  0.00    -0.393 OA
ATOM     21  H   UNL A   1      34.101  30.369  25.455  1.00  0.00     0.210 HD
ENDBRANCH  17  20
ENDBRANCH  14  15
ENDBRANCH  13  14
ENDBRANCH   6   8
ENDBRANCH   4   6
ENDBRANCH   3   4
ENDBRANCH   2   3
ENDBRANCH   1   2
BRANCH   1  22
ATOM     22  O   UNL A   1      39.068  21.103  25.797  1.00  0.00    -0.374 OA
BRANCH  22  23
ATOM     23  C   UNL A   1      40.062  22.058  26.176  1.00  0.00     0.202 C 
BRANCH  23  24
ATOM     24  C   UNL A   1      39.619  23.208  27.090  1.00  0.00     0.261 C 
BRANCH  24  25
ATOM     25  O   UNL A   1      39.391  24.439  26.377  1.00  0.00    -0.460 OA
BRANCH  25  26
ATOM     26  C   UNL A   1      40.466  25.261  26.310  1.00  0.00     0.338 C 
ATOM     27  O   UNL A   1      41.167  25.479  25.328  1.00  0.00    -0.246 OA
BRANCH  26  28
ATOM     28  C   UNL A   1      40.608  26.035  27.555  1.00  0.00     0.060 A 
ATOM     29  C   UNL A   1      39.580  25.936  28.501  1.00  0.00     0.016 A 
ATOM     30  C   UNL A   1      41.667  26.925  27.751  1.00  0.00     0.016 A 
ATOM     31  C   UNL A   1      39.581  26.759  29.626  1.00  0.00     0.010 A 
ATOM     32  C   UNL A   1      41.661  27.759  28.876  1.00  0.00     0.010 A 
ATOM     33  C   UNL A   1      40.600  27.704  29.800  1.00  0.00    -0.014 A 
BRANCH  33  34
ATOM     34  C   UNL A   1      40.469  28.727  30.868  1.00  0.00     0.031 A 
ATOM     35  C   UNL A   1      41.365  28.642  32.075  1.00  0.00     0.074 A 
ATOM     36  C   UNL A   1      39.595  29.741  30.746  1.00  0.00     0.049 A 
ATOM     37  N   UNL A   1      41.411  29.414  33.130  1.00  0.00    -0.248 NA
ATOM     38  C   UNL A   1      42.342  27.540  32.092  1.00  0.00     0.031 C 
ATOM     39  C   UNL A   1      38.701  29.953  29.610  1.00  0.00     0.029 A 
ATOM     40  N   UNL A   1      39.313  30.782  31.595  1.00  0.00    -0.354 N 
ATOM     41  C   UNL A   1      42.417  28.894  33.937  1.00  0.00     0.074 A 
ATOM     42  C   UNL A   1      42.935  27.722  33.264  1.00  0.00     0.031 C 
ATOM     43  C   UNL A   1      37.959  31.050  29.837  1.00  0.00     0.029 A 
ATOM     44  C   UNL A   1      38.306  31.602  31.145  1.00  0.00     0.049 A 
ATOM     45  H   UNL A   1      39.787  30.928  32.446  1.00  0.00     0.167 HD
ATOM     46  C   UNL A   1      42.874  29.356  35.125  1.00  0.00     0.037 A 
ATOM     47  C   UNL A   1      37.716  32.664  31.733  1.00  0.00     0.037 A 
ATOM     48  C   UNL A   1      42.355  30.521  35.793  1.00  0.00     0.049 A 
ATOM     49  C   UNL A   1      38.199  33.124  33.083  1.00  0.00     0.074 A 
ATOM     50  C   UNL A   1      42.756  31.075  36.997  1.00  0.00     0.029 A 
ATOM     51  N   UNL A   1      41.319  31.311  35.318  1.00  0.00    -0.354 N 
ATOM     52  N   UNL A   1      39.161  32.632  33.828  1.00  0.00    -0.248 NA
ATOM     53  C   UNL A   1      37.521  34.288  33.672  1.00  0.00     0.031 C 
ATOM     54  C   UNL A   1      41.935  32.174  37.270  1.00  0.00     0.029 A 
ATOM     55  C   UNL A   1      41.052  32.334  36.213  1.00  0.00     0.049 A 
ATOM     56  H   UNL A   1      40.841  31.166  34.468  1.00  0.00     0.167 HD
ATOM     57  C   UNL A   1      39.219  33.439  34.960  1.00  0.00     0.074 A 
ATOM     58  C   UNL A   1      38.202  34.457  34.798  1.00  0.00     0.031 C 
ATOM     59  C   UNL A   1      40.040  33.345  36.035  1.00  0.00     0.037 A 
BRANCH  46  60
ATOM     60  C   UNL A   1      43.980  28.585  35.790  1.00  0.00     0.058 A 
ATOM     61  C   UNL A   1      43.713  27.552  36.703  1.00  0.00     0.135 A 
ATOM     62  C   UNL A   1      45.323  28.866  35.493  1.00  0.00     0.135 A 
ATOM     63  F   UNL A   1      42.447  27.254  37.036  1.00  0.00    -0.206 F 
ATOM     64  C   UNL A   1      44.740  26.841  37.316  1.00  0.00     0.059 A 
ATOM     65  C   UNL A   1      46.365  28.151  36.075  1.00  0.00     0.059 A 
ATOM     66  F   UNL A   1      45.634  29.846  34.629  1.00  0.00    -0.206 F 
ATOM     67  C   UNL A   1      46.063  27.150  36.997  1.00  0.00     0.060 A 
BRANCH  67  68
ATOM     68  S   UNL A   1      47.386  26.220  37.803  1.00  0.00     0.124 S 
ATOM     69  O   UNL A   1      46.707  24.968  38.123  1.00  0.00    -0.237 OA
ATOM     70  O   UNL A   1      48.397  26.142  36.753  1.00  0.00    -0.237 OA
ATOM     71  O   UNL A   1      47.739  27.054  38.947  1.00  0.00    -0.744 OA
ENDBRANCH  67  68
ENDBRANCH  46  60
BRANCH  47  72
ATOM     72  C   UNL A   1      36.590  33.355  31.052  1.00  0.00     0.058 A 
ATOM     73  C   UNL A   1      36.808  34.184  29.943  1.00  0.00     0.135 A 
ATOM     74  C   UNL A   1      35.269  33.194  31.500  1.00  0.00     0.135 A 
ATOM     75  F   UNL A   1      38.053  34.378  29.485  1.00  0.00    -0.206 F 
ATOM     76  C   UNL A   1      35.758  34.839  29.306  1.00  0.00     0.059 A 
ATOM     77  C   UNL A   1      34.201  33.819  30.866  1.00  0.00     0.059 A 
ATOM     78  F   UNL A   1      35.007  32.404  32.552  1.00  0.00    -0.206 F 
ATOM     79  C   UNL A   1      34.457  34.649  29.774  1.00  0.00     0.060 A 
BRANCH  79  80
ATOM     80  S   UNL A   1      33.094  35.461  28.912  1.00  0.00     0.124 S 
ATOM     81  O   UNL A   1      32.315  35.989  30.025  1.00  0.00    -0.237 OA
ATOM     82  O   UNL A   1      33.794  36.449  28.095  1.00  0.00    -0.237 OA
ATOM     83  O   UNL A   1      32.472  34.371  28.165  1.00  0.00    -0.744 OA
ENDBRANCH  79  80
ENDBRANCH  47  72
BRANCH  59  84
ATOM     84  C   UNL A   1      39.898  34.388  37.111  1.00  0.00     0.058 A 
ATOM     85  C   UNL A   1      40.476  35.660  36.986  1.00  0.00     0.135 A 
ATOM     86  C   UNL A   1      39.125  34.127  38.255  1.00  0.00     0.135 A 
ATOM     87  F   UNL A   1      41.228  35.958  35.915  1.00  0.00    -0.206 F 
ATOM     88  C   UNL A   1      40.312  36.631  37.968  1.00  0.00     0.059 A 
ATOM     89  C   UNL A   1      38.927  35.092  39.238  1.00  0.00     0.059 A 
ATOM     90  F   UNL A   1      38.541  32.930  38.418  1.00  0.00    -0.206 F 
ATOM     91  C   UNL A   1      39.535  36.339  39.091  1.00  0.00     0.060 A 
BRANCH  91  92
ATOM     92  S   UNL A   1      39.299  37.619  40.342  1.00  0.00     0.124 S 
ATOM     93  O   UNL A   1      38.321  38.487  39.695  1.00  0.00    -0.237 OA
ATOM     94  O   UNL A   1      38.809  36.854  41.486  1.00  0.00    -0.237 OA
ATOM     95  O   UNL A   1      40.635  38.186  40.503  1.00  0.00    -0.744 OA
ENDBRANCH  91  92
ENDBRANCH  59  84
ENDBRANCH  33  34
ENDBRANCH  26  28
ENDBRANCH  25  26
ENDBRANCH  24  25
ENDBRANCH  23  24
ENDBRANCH  22  23
ENDBRANCH   1  22
TORSDOF 21
ENDMDL
