MODEL 1
REMARK VINA RESULT:     -11.1      0.000      0.000
REMARK SMILES CCc1ccccc1C[N@@H+]1CC2(CC[NH+](C(=O)C3CC3)CC2)C[C@H]1C(=O)OCCOCCOC(=O)c1ccc(-c2c3nc(c(-c4c(F)cc(S(=O)(=O)[O-])cc4F)c4ccc([nH]4)c(-c4c(F)cc(S(=O)(=O)[O-])cc4F)c4nc(c(-c5c(F)cc(S(=O)(=O)[O-])cc5F)c5ccc2[nH]5)C=C4)C=C3)cc1
REMARK SMILES IDX 30 1 29 2 28 3 27 4 25 5 26 6 24 7 10 8 11 9 12 11 23 12
REMARK SMILES IDX 13 13 22 14 14 15 21 16 15 17 9 19 8 20 3 21 4 22 5 23 7 24
REMARK SMILES IDX 6 25 2 26 1 27 16 28 17 29 18 30 19 31 20 32 31 33 32 34
REMARK SMILES IDX 33 35 34 36 35 37 36 38 37 39 101 40 38 41 100 42 39 43
REMARK SMILES IDX 40 44 41 45 94 46 42 47 99 48 93 49 95 50 43 51 98 52 92 53
REMARK SMILES IDX 91 54 44 56 78 57 57 58 77 59 58 60 61 61 76 62 96 63 59 64
REMARK SMILES IDX 60 65 75 67 97 68 62 69 45 70 46 71 55 72 47 73 48 74 54 75
REMARK SMILES IDX 56 76 49 77 50 78 51 79 52 80 53 81 79 82 80 83 89 84 81 85
REMARK SMILES IDX 82 86 88 87 90 88 83 89 84 90 85 91 86 92 87 93 63 94 64 95
REMARK SMILES IDX 73 96 65 97 66 98 72 99 74 100 67 101 68 102 69 103 70 104
REMARK SMILES IDX 71 105
REMARK H PARENT 10 10 15 18 95 55 61 66
REMARK Flexibility Score: inf
ROOT
ATOM      1  O   UNL A   1      35.104  29.991  27.914  1.00  0.00    -0.374 OA
ENDROOT
BRANCH   1   2
ATOM      2  C   UNL A   1      34.348  29.346  26.891  1.00  0.00     0.202 C 
BRANCH   2   3
ATOM      3  C   UNL A   1      32.829  29.505  26.962  1.00  0.00     0.261 C 
BRANCH   3   4
ATOM      4  O   UNL A   1      32.148  28.505  26.188  1.00  0.00    -0.459 OA
BRANCH   4   5
ATOM      5  C   UNL A   1      31.362  27.646  26.894  1.00  0.00     0.365 C 
ATOM      6  O   UNL A   1      31.162  27.716  28.104  1.00  0.00    -0.245 OA
BRANCH   5   7
ATOM      7  C   UNL A   1      30.785  26.512  26.042  1.00  0.00     0.296 C 
ATOM      8  N   UNL A   1      31.145  26.587  24.616  1.00  0.00    -0.319 N 
ATOM      9  C   UNL A   1      32.269  25.686  24.381  1.00  0.00     0.270 C 
ATOM     10  H   UNL A   1      31.438  27.545  24.423  1.00  0.00     0.349 HD
ATOM     11  C   UNL A   1      32.348  24.688  25.559  1.00  0.00     0.036 C 
ATOM     12  C   UNL A   1      31.305  25.187  26.572  1.00  0.00     0.091 C 
ATOM     13  C   UNL A   1      33.779  24.658  26.147  1.00  0.00     0.075 C 
ATOM     14  C   UNL A   1      32.003  23.233  25.189  1.00  0.00     0.075 C 
ATOM     15  C   UNL A   1      34.776  23.974  25.197  1.00  0.00     0.271 C 
ATOM     16  C   UNL A   1      32.981  22.648  24.185  1.00  0.00     0.271 C 
ATOM     17  N   UNL A   1      34.310  22.647  24.779  1.00  0.00    -0.272 N 
ATOM     18  H   UNL A   1      33.930  21.746  24.665  1.00  0.00     0.356 HD
BRANCH   8  19
ATOM     19  C   UNL A   1      30.045  26.507  23.639  1.00  0.00     0.300 C 
BRANCH  19  20
ATOM     20  C   UNL A   1      29.344  27.803  23.268  1.00  0.00     0.009 A 
ATOM     21  C   UNL A   1      30.017  28.916  22.721  1.00  0.00    -0.039 A 
ATOM     22  C   UNL A   1      29.359  30.162  22.685  1.00  0.00     0.004 A 
ATOM     23  C   UNL A   1      28.026  30.287  23.069  1.00  0.00     0.000 A 
ATOM     24  C   UNL A   1      27.963  27.923  23.518  1.00  0.00     0.010 A 
ATOM     25  C   UNL A   1      27.310  29.155  23.427  1.00  0.00     0.001 A 
BRANCH  21  26
ATOM     26  C   UNL A   1      31.385  28.829  22.076  1.00  0.00     0.032 C 
ATOM     27  C   UNL A   1      32.505  29.144  23.066  1.00  0.00     0.009 C 
ENDBRANCH  21  26
ENDBRANCH  19  20
ENDBRANCH   8  19
BRANCH  17  28
ATOM     28  C   UNL A   1      34.948  21.408  24.867  1.00  0.00     0.315 C 
ATOM     29  O   UNL A   1      34.324  20.369  24.650  1.00  0.00    -0.231 OA
BRANCH  28  30
ATOM     30  C   UNL A   1      36.359  21.215  25.303  1.00  0.00     0.119 C 
ATOM     31  C   UNL A   1      37.331  20.162  24.865  1.00  0.00     0.019 C 
ATOM     32  C   UNL A   1      37.542  21.600  24.455  1.00  0.00     0.019 C 
ENDBRANCH  28  30
ENDBRANCH  17  28
ENDBRANCH   5   7
ENDBRANCH   4   5
ENDBRANCH   3   4
ENDBRANCH   2   3
ENDBRANCH   1   2
BRANCH   1  33
ATOM     33  C   UNL A   1      34.834  31.373  28.153  1.00  0.00     0.202 C 
BRANCH  33  34
ATOM     34  C   UNL A   1      34.928  31.857  29.605  1.00  0.00     0.261 C 
BRANCH  34  35
ATOM     35  O   UNL A   1      36.163  32.537  29.887  1.00  0.00    -0.460 OA
BRANCH  35  36
ATOM     36  C   UNL A   1      36.901  31.970  30.873  1.00  0.00     0.338 C 
ATOM     37  O   UNL A   1      36.677  32.010  32.071  1.00  0.00    -0.246 OA
BRANCH  36  38
ATOM     38  C   UNL A   1      37.969  31.126  30.300  1.00  0.00     0.060 A 
ATOM     39  C   UNL A   1      38.880  30.553  31.195  1.00  0.00     0.016 A 
ATOM     40  C   UNL A   1      38.139  30.974  28.922  1.00  0.00     0.016 A 
ATOM     41  C   UNL A   1      40.005  29.887  30.716  1.00  0.00     0.010 A 
ATOM     42  C   UNL A   1      39.274  30.309  28.441  1.00  0.00     0.010 A 
ATOM     43  C   UNL A   1      40.234  29.803  29.336  1.00  0.00    -0.014 A 
BRANCH  43  44
ATOM     44  C   UNL A   1      41.554  29.325  28.852  1.00  0.00     0.031 A 
ATOM     45  C   UNL A   1      42.686  30.313  28.729  1.00  0.00     0.074 A 
ATOM     46  C   UNL A   1      41.756  28.024  28.578  1.00  0.00     0.049 A 
ATOM     47  N   UNL A   1      43.918  30.116  28.339  1.00  0.00    -0.248 NA
ATOM     48  C   UNL A   1      42.388  31.710  29.092  1.00  0.00     0.031 C 
ATOM     49  C   UNL A   1      40.747  26.970  28.684  1.00  0.00     0.029 A 
ATOM     50  N   UNL A   1      42.884  27.368  28.150  1.00  0.00    -0.354 N 
ATOM     51  C   UNL A   1      44.540  31.358  28.400  1.00  0.00     0.074 A 
ATOM     52  C   UNL A   1      43.543  32.310  28.842  1.00  0.00     0.031 C 
ATOM     53  C   UNL A   1      41.298  25.800  28.318  1.00  0.00     0.029 A 
ATOM     54  C   UNL A   1      42.691  26.024  27.933  1.00  0.00     0.049 A 
ATOM     55  H   UNL A   1      43.749  27.816  28.012  1.00  0.00     0.167 HD
ATOM     56  C   UNL A   1      45.827  31.675  28.122  1.00  0.00     0.037 A 
ATOM     57  C   UNL A   1      43.539  25.087  27.465  1.00  0.00     0.037 A 
ATOM     58  C   UNL A   1      46.822  30.722  27.705  1.00  0.00     0.049 A 
ATOM     59  C   UNL A   1      44.960  25.472  27.144  1.00  0.00     0.074 A 
ATOM     60  C   UNL A   1      48.162  30.941  27.434  1.00  0.00     0.029 A 
ATOM     61  N   UNL A   1      46.588  29.371  27.499  1.00  0.00    -0.354 N 
ATOM     62  N   UNL A   1      45.541  26.644  27.243  1.00  0.00    -0.248 NA
ATOM     63  C   UNL A   1      45.847  24.403  26.660  1.00  0.00     0.031 C 
ATOM     64  C   UNL A   1      48.730  29.731  27.024  1.00  0.00     0.029 A 
ATOM     65  C   UNL A   1      47.755  28.748  27.087  1.00  0.00     0.049 A 
ATOM     66  H   UNL A   1      45.723  28.920  27.626  1.00  0.00     0.167 HD
ATOM     67  C   UNL A   1      46.866  26.445  26.867  1.00  0.00     0.074 A 
ATOM     68  C   UNL A   1      47.004  25.039  26.550  1.00  0.00     0.031 C 
ATOM     69  C   UNL A   1      47.880  27.343  26.793  1.00  0.00     0.037 A 
BRANCH  56  70
ATOM     70  C   UNL A   1      46.243  33.113  28.246  1.00  0.00     0.058 A 
ATOM     71  C   UNL A   1      46.125  34.011  27.175  1.00  0.00     0.135 A 
ATOM     72  C   UNL A   1      46.690  33.617  29.478  1.00  0.00     0.135 A 
ATOM     73  F   UNL A   1      45.723  33.577  25.970  1.00  0.00    -0.206 F 
ATOM     74  C   UNL A   1      46.437  35.360  27.320  1.00  0.00     0.059 A 
ATOM     75  C   UNL A   1      46.986  34.965  29.653  1.00  0.00     0.059 A 
ATOM     76  F   UNL A   1      46.827  32.797  30.533  1.00  0.00    -0.206 F 
ATOM     77  C   UNL A   1      46.860  35.829  28.566  1.00  0.00     0.060 A 
BRANCH  77  78
ATOM     78  S   UNL A   1      47.210  37.590  28.752  1.00  0.00     0.124 S 
ATOM     79  O   UNL A   1      47.586  37.957  27.390  1.00  0.00    -0.237 OA
ATOM     80  O   UNL A   1      45.932  38.115  29.221  1.00  0.00    -0.237 OA
ATOM     81  O   UNL A   1      48.293  37.619  29.730  1.00  0.00    -0.744 OA
ENDBRANCH  77  78
ENDBRANCH  56  70
BRANCH  57  82
ATOM     82  C   UNL A   1      43.070  23.691  27.250  1.00  0.00     0.058 A 
ATOM     83  C   UNL A   1      43.063  22.754  28.294  1.00  0.00     0.135 A 
ATOM     84  C   UNL A   1      42.654  23.259  25.981  1.00  0.00     0.135 A 
ATOM     85  F   UNL A   1      43.458  23.117  29.524  1.00  0.00    -0.206 F 
ATOM     86  C   UNL A   1      42.696  21.428  28.082  1.00  0.00     0.059 A 
ATOM     87  C   UNL A   1      42.256  21.946  25.749  1.00  0.00     0.059 A 
ATOM     88  F   UNL A   1      42.625  24.120  24.953  1.00  0.00    -0.206 F 
ATOM     89  C   UNL A   1      42.299  21.034  26.802  1.00  0.00     0.060 A 
BRANCH  89  90
ATOM     90  S   UNL A   1      41.808  19.317  26.534  1.00  0.00     0.124 S 
ATOM     91  O   UNL A   1      40.969  19.435  25.348  1.00  0.00    -0.237 OA
ATOM     92  O   UNL A   1      43.095  18.654  26.344  1.00  0.00    -0.237 OA
ATOM     93  O   UNL A   1      41.113  18.973  27.771  1.00  0.00    -0.744 OA
ENDBRANCH  89  90
ENDBRANCH  57  82
BRANCH  69  94
ATOM     94  C   UNL A   1      49.237  26.826  26.405  1.00  0.00     0.058 A 
ATOM     95  C   UNL A   1      49.766  27.023  25.120  1.00  0.00     0.135 A 
ATOM     96  C   UNL A   1      50.033  26.150  27.345  1.00  0.00     0.135 A 
ATOM     97  F   UNL A   1      49.046  27.661  24.184  1.00  0.00    -0.206 F 
ATOM     98  C   UNL A   1      51.021  26.536  24.768  1.00  0.00     0.059 A 
ATOM     99  C   UNL A   1      51.301  25.679  27.024  1.00  0.00     0.059 A 
ATOM    100  F   UNL A   1      49.581  25.949  28.592  1.00  0.00    -0.206 F 
ATOM    101  C   UNL A   1      51.780  25.861  25.727  1.00  0.00     0.060 A 
BRANCH 101 102
ATOM    102  S   UNL A   1      53.410  25.238  25.264  1.00  0.00     0.124 S 
ATOM    103  O   UNL A   1      53.538  25.738  23.900  1.00  0.00    -0.237 OA
ATOM    104  O   UNL A   1      54.280  25.866  26.254  1.00  0.00    -0.237 OA
ATOM    105  O   UNL A   1      53.268  23.791  25.394  1.00  0.00    -0.744 OA
ENDBRANCH 101 102
ENDBRANCH  69  94
ENDBRANCH  43  44
ENDBRANCH  36  38
ENDBRANCH  35  36
ENDBRANCH  34  35
ENDBRANCH  33  34
ENDBRANCH   1  33
TORSDOF 22
ENDMDL
MODEL 2
REMARK VINA RESULT:     -10.6      4.172     10.506
REMARK SMILES CCc1ccccc1C[N@@H+]1CC2(CC[NH+](C(=O)C3CC3)CC2)C[C@H]1C(=O)OCCOCCOC(=O)c1ccc(-c2c3nc(c(-c4c(F)cc(S(=O)(=O)[O-])cc4F)c4ccc([nH]4)c(-c4c(F)cc(S(=O)(=O)[O-])cc4F)c4nc(c(-c5c(F)cc(S(=O)(=O)[O-])cc5F)c5ccc2[nH]5)C=C4)C=C3)cc1
REMARK SMILES IDX 30 1 29 2 28 3 27 4 25 5 26 6 24 7 10 8 11 9 12 11 23 12
REMARK SMILES IDX 13 13 22 14 14 15 21 16 15 17 9 19 8 20 3 21 4 22 5 23 7 24
REMARK SMILES IDX 6 25 2 26 1 27 16 28 17 29 18 30 19 31 20 32 31 33 32 34
REMARK SMILES IDX 33 35 34 36 35 37 36 38 37 39 101 40 38 41 100 42 39 43
REMARK SMILES IDX 40 44 41 45 94 46 42 47 99 48 93 49 95 50 43 51 98 52 92 53
REMARK SMILES IDX 91 54 44 56 78 57 57 58 77 59 58 60 61 61 76 62 96 63 59 64
REMARK SMILES IDX 60 65 75 67 97 68 62 69 45 70 46 71 55 72 47 73 48 74 54 75
REMARK SMILES IDX 56 76 49 77 50 78 51 79 52 80 53 81 79 82 80 83 89 84 81 85
REMARK SMILES IDX 82 86 88 87 90 88 83 89 84 90 85 91 86 92 87 93 63 94 64 95
REMARK SMILES IDX 73 96 65 97 66 98 72 99 74 100 67 101 68 102 69 103 70 104
REMARK SMILES IDX 71 105
REMARK H PARENT 10 10 15 18 95 55 61 66
REMARK Flexibility Score: inf
ROOT
ATOM      1  O   UNL A   1      41.000  21.543  26.614  1.00  0.00    -0.374 OA
ENDROOT
BRANCH   1   2
ATOM      2  C   UNL A   1      39.844  21.063  25.929  1.00  0.00     0.202 C 
BRANCH   2   3
ATOM      3  C   UNL A   1      38.575  21.906  26.062  1.00  0.00     0.261 C 
BRANCH   3   4
ATOM      4  O   UNL A   1      37.449  21.285  25.423  1.00  0.00    -0.459 OA
BRANCH   4   5
ATOM      5  C   UNL A   1      36.801  22.046  24.498  1.00  0.00     0.365 C 
ATOM      6  O   UNL A   1      37.275  23.040  23.956  1.00  0.00    -0.245 OA
BRANCH   5   7
ATOM      7  C   UNL A   1      35.365  21.584  24.232  1.00  0.00     0.296 C 
ATOM      8  N   UNL A   1      34.491  21.620  25.416  1.00  0.00    -0.319 N 
ATOM      9  C   UNL A   1      33.706  22.849  25.365  1.00  0.00     0.270 C 
ATOM     10  H   UNL A   1      35.091  21.641  26.240  1.00  0.00     0.349 HD
ATOM     11  C   UNL A   1      33.743  23.392  23.918  1.00  0.00     0.036 C 
ATOM     12  C   UNL A   1      34.746  22.490  23.182  1.00  0.00     0.091 C 
ATOM     13  C   UNL A   1      34.166  24.880  23.910  1.00  0.00     0.075 C 
ATOM     14  C   UNL A   1      32.396  23.322  23.173  1.00  0.00     0.075 C 
ATOM     15  C   UNL A   1      33.063  25.794  24.471  1.00  0.00     0.271 C 
ATOM     16  C   UNL A   1      31.330  24.184  23.830  1.00  0.00     0.271 C 
ATOM     17  N   UNL A   1      31.776  25.570  23.804  1.00  0.00    -0.272 N 
ATOM     18  H   UNL A   1      31.012  25.392  23.210  1.00  0.00     0.356 HD
BRANCH   8  19
ATOM     19  C   UNL A   1      33.741  20.394  25.736  1.00  0.00     0.300 C 
BRANCH  19  20
ATOM     20  C   UNL A   1      33.309  19.516  24.573  1.00  0.00     0.009 A 
ATOM     21  C   UNL A   1      33.915  18.278  24.272  1.00  0.00    -0.039 A 
ATOM     22  C   UNL A   1      33.661  17.679  23.022  1.00  0.00     0.004 A 
ATOM     23  C   UNL A   1      32.738  18.223  22.133  1.00  0.00     0.000 A 
ATOM     24  C   UNL A   1      32.281  19.972  23.724  1.00  0.00     0.010 A 
ATOM     25  C   UNL A   1      32.002  19.337  22.511  1.00  0.00     0.001 A 
BRANCH  21  26
ATOM     26  C   UNL A   1      34.758  17.500  25.262  1.00  0.00     0.032 C 
ATOM     27  C   UNL A   1      34.514  15.995  25.162  1.00  0.00     0.009 C 
ENDBRANCH  21  26
ENDBRANCH  19  20
ENDBRANCH   8  19
BRANCH  17  28
ATOM     28  C   UNL A   1      30.933  26.479  23.163  1.00  0.00     0.315 C 
ATOM     29  O   UNL A   1      31.132  26.794  21.989  1.00  0.00    -0.231 OA
BRANCH  28  30
ATOM     30  C   UNL A   1      29.812  27.202  23.826  1.00  0.00     0.119 C 
ATOM     31  C   UNL A   1      28.699  27.976  23.188  1.00  0.00     0.019 C 
ATOM     32  C   UNL A   1      28.406  26.667  23.881  1.00  0.00     0.019 C 
ENDBRANCH  28  30
ENDBRANCH  17  28
ENDBRANCH   5   7
ENDBRANCH   4   5
ENDBRANCH   3   4
ENDBRANCH   2   3
ENDBRANCH   1   2
BRANCH   1  33
ATOM     33  C   UNL A   1      42.181  20.742  26.542  1.00  0.00     0.202 C 
BRANCH  33  34
ATOM     34  C   UNL A   1      43.371  21.330  25.775  1.00  0.00     0.261 C 
BRANCH  34  35
ATOM     35  O   UNL A   1      44.011  22.409  26.479  1.00  0.00    -0.460 OA
BRANCH  35  36
ATOM     36  C   UNL A   1      45.319  22.581  26.168  1.00  0.00     0.338 C 
ATOM     37  O   UNL A   1      46.072  21.756  25.681  1.00  0.00    -0.246 OA
BRANCH  36  38
ATOM     38  C   UNL A   1      45.711  23.994  26.349  1.00  0.00     0.060 A 
ATOM     39  C   UNL A   1      45.643  24.824  25.224  1.00  0.00     0.016 A 
ATOM     40  C   UNL A   1      46.222  24.477  27.555  1.00  0.00     0.016 A 
ATOM     41  C   UNL A   1      46.153  26.119  25.279  1.00  0.00     0.010 A 
ATOM     42  C   UNL A   1      46.740  25.777  27.608  1.00  0.00     0.010 A 
ATOM     43  C   UNL A   1      46.748  26.587  26.457  1.00  0.00    -0.014 A 
BRANCH  43  44
ATOM     44  C   UNL A   1      47.514  27.859  26.422  1.00  0.00     0.031 A 
ATOM     45  C   UNL A   1      48.998  27.809  26.169  1.00  0.00     0.074 A 
ATOM     46  C   UNL A   1      46.888  29.042  26.562  1.00  0.00     0.049 A 
ATOM     47  N   UNL A   1      49.857  28.791  26.087  1.00  0.00    -0.248 NA
ATOM     48  C   UNL A   1      49.594  26.475  25.984  1.00  0.00     0.031 C 
ATOM     49  C   UNL A   1      45.453  29.219  26.786  1.00  0.00     0.029 A 
ATOM     50  N   UNL A   1      47.384  30.321  26.537  1.00  0.00    -0.354 N 
ATOM     51  C   UNL A   1      51.092  28.198  25.851  1.00  0.00     0.074 A 
ATOM     52  C   UNL A   1      50.878  26.767  25.827  1.00  0.00     0.031 C 
ATOM     53  C   UNL A   1      45.187  30.532  26.892  1.00  0.00     0.029 A 
ATOM     54  C   UNL A   1      46.432  31.287  26.762  1.00  0.00     0.049 A 
ATOM     55  H   UNL A   1      48.332  30.528  26.374  1.00  0.00     0.167 HD
ATOM     56  C   UNL A   1      52.295  28.792  25.663  1.00  0.00     0.037 A 
ATOM     57  C   UNL A   1      46.556  32.625  26.865  1.00  0.00     0.037 A 
ATOM     58  C   UNL A   1      52.502  30.217  25.666  1.00  0.00     0.049 A 
ATOM     59  C   UNL A   1      47.910  33.258  26.672  1.00  0.00     0.074 A 
ATOM     60  C   UNL A   1      53.678  30.915  25.449  1.00  0.00     0.029 A 
ATOM     61  N   UNL A   1      51.513  31.161  25.895  1.00  0.00    -0.354 N 
ATOM     62  N   UNL A   1      49.061  32.683  26.413  1.00  0.00    -0.248 NA
ATOM     63  C   UNL A   1      47.981  34.724  26.771  1.00  0.00     0.031 C 
ATOM     64  C   UNL A   1      53.409  32.280  25.588  1.00  0.00     0.029 A 
ATOM     65  C   UNL A   1      52.055  32.434  25.843  1.00  0.00     0.049 A 
ATOM     66  H   UNL A   1      50.566  30.958  26.068  1.00  0.00     0.167 HD
ATOM     67  C   UNL A   1      49.982  33.719  26.285  1.00  0.00     0.074 A 
ATOM     68  C   UNL A   1      49.254  34.954  26.484  1.00  0.00     0.031 C 
ATOM     69  C   UNL A   1      51.312  33.655  26.024  1.00  0.00     0.037 A 
BRANCH  56  70
ATOM     70  C   UNL A   1      53.493  27.911  25.449  1.00  0.00     0.058 A 
ATOM     71  C   UNL A   1      53.980  27.626  24.164  1.00  0.00     0.135 A 
ATOM     72  C   UNL A   1      54.210  27.412  26.548  1.00  0.00     0.135 A 
ATOM     73  F   UNL A   1      53.319  28.061  23.079  1.00  0.00    -0.206 F 
ATOM     74  C   UNL A   1      55.136  26.876  23.975  1.00  0.00     0.059 A 
ATOM     75  C   UNL A   1      55.381  26.679  26.384  1.00  0.00     0.059 A 
ATOM     76  F   UNL A   1      53.782  27.651  27.798  1.00  0.00    -0.206 F 
ATOM     77  C   UNL A   1      55.835  26.413  25.093  1.00  0.00     0.060 A 
BRANCH  77  78
ATOM     78  S   UNL A   1      57.362  25.485  24.833  1.00  0.00     0.124 S 
ATOM     79  O   UNL A   1      58.223  26.046  25.870  1.00  0.00    -0.237 OA
ATOM     80  O   UNL A   1      56.930  24.107  25.044  1.00  0.00    -0.237 OA
ATOM     81  O   UNL A   1      57.733  25.820  23.462  1.00  0.00    -0.744 OA
ENDBRANCH  77  78
ENDBRANCH  56  70
BRANCH  57  82
ATOM     82  C   UNL A   1      45.370  33.466  27.185  1.00  0.00     0.058 A 
ATOM     83  C   UNL A   1      44.655  34.131  26.179  1.00  0.00     0.135 A 
ATOM     84  C   UNL A   1      44.955  33.648  28.513  1.00  0.00     0.135 A 
ATOM     85  F   UNL A   1      45.018  33.993  24.894  1.00  0.00    -0.206 F 
ATOM     86  C   UNL A   1      43.591  34.978  26.479  1.00  0.00     0.059 A 
ATOM     87  C   UNL A   1      43.877  34.467  28.836  1.00  0.00     0.059 A 
ATOM     88  F   UNL A   1      45.594  33.020  29.511  1.00  0.00    -0.206 F 
ATOM     89  C   UNL A   1      43.214  35.142  27.813  1.00  0.00     0.060 A 
BRANCH  89  90
ATOM     90  S   UNL A   1      41.824  36.229  28.197  1.00  0.00     0.124 S 
ATOM     91  O   UNL A   1      42.483  37.296  28.939  1.00  0.00    -0.237 OA
ATOM     92  O   UNL A   1      41.331  36.581  26.869  1.00  0.00    -0.237 OA
ATOM     93  O   UNL A   1      40.937  35.369  28.977  1.00  0.00    -0.744 OA
ENDBRANCH  89  90
ENDBRANCH  57  82
BRANCH  69  94
ATOM     94  C   UNL A   1      52.054  34.955  25.885  1.00  0.00     0.058 A 
ATOM     95  C   UNL A   1      52.189  35.605  24.649  1.00  0.00     0.135 A 
ATOM     96  C   UNL A   1      52.614  35.574  27.015  1.00  0.00     0.135 A 
ATOM     97  F   UNL A   1      51.674  35.054  23.537  1.00  0.00    -0.206 F 
ATOM     98  C   UNL A   1      52.883  36.805  24.530  1.00  0.00     0.059 A 
ATOM     99  C   UNL A   1      53.288  36.787  26.924  1.00  0.00     0.059 A 
ATOM    100  F   UNL A   1      52.502  35.003  28.224  1.00  0.00    -0.206 F 
ATOM    101  C   UNL A   1      53.433  37.387  25.674  1.00  0.00     0.060 A 
BRANCH 101 102
ATOM    102  S   UNL A   1      54.327  38.947  25.511  1.00  0.00     0.124 S 
ATOM    103  O   UNL A   1      53.853  39.678  26.681  1.00  0.00    -0.237 OA
ATOM    104  O   UNL A   1      55.720  38.516  25.553  1.00  0.00    -0.237 OA
ATOM    105  O   UNL A   1      53.875  39.462  24.222  1.00  0.00    -0.744 OA
ENDBRANCH 101 102
ENDBRANCH  69  94
ENDBRANCH  43  44
ENDBRANCH  36  38
ENDBRANCH  35  36
ENDBRANCH  34  35
ENDBRANCH  33  34
ENDBRANCH   1  33
TORSDOF 22
ENDMDL
MODEL 3
REMARK VINA RESULT:     -10.5      6.840     10.602
REMARK SMILES CCc1ccccc1C[N@@H+]1CC2(CC[NH+](C(=O)C3CC3)CC2)C[C@H]1C(=O)OCCOCCOC(=O)c1ccc(-c2c3nc(c(-c4c(F)cc(S(=O)(=O)[O-])cc4F)c4ccc([nH]4)c(-c4c(F)cc(S(=O)(=O)[O-])cc4F)c4nc(c(-c5c(F)cc(S(=O)(=O)[O-])cc5F)c5ccc2[nH]5)C=C4)C=C3)cc1
REMARK SMILES IDX 30 1 29 2 28 3 27 4 25 5 26 6 24 7 10 8 11 9 12 11 23 12
REMARK SMILES IDX 13 13 22 14 14 15 21 16 15 17 9 19 8 20 3 21 4 22 5 23 7 24
REMARK SMILES IDX 6 25 2 26 1 27 16 28 17 29 18 30 19 31 20 32 31 33 32 34
REMARK SMILES IDX 33 35 34 36 35 37 36 38 37 39 101 40 38 41 100 42 39 43
REMARK SMILES IDX 40 44 41 45 94 46 42 47 99 48 93 49 95 50 43 51 98 52 92 53
REMARK SMILES IDX 91 54 44 56 78 57 57 58 77 59 58 60 61 61 76 62 96 63 59 64
REMARK SMILES IDX 60 65 75 67 97 68 62 69 45 70 46 71 55 72 47 73 48 74 54 75
REMARK SMILES IDX 56 76 49 77 50 78 51 79 52 80 53 81 79 82 80 83 89 84 81 85
REMARK SMILES IDX 82 86 88 87 90 88 83 89 84 90 85 91 86 92 87 93 63 94 64 95
REMARK SMILES IDX 73 96 65 97 66 98 72 99 74 100 67 101 68 102 69 103 70 104
REMARK SMILES IDX 71 105
REMARK H PARENT 10 10 15 18 95 55 61 66
REMARK Flexibility Score: inf
ROOT
ATOM      1  O   UNL A   1      33.741  30.885  27.999  1.00  0.00    -0.374 OA
ENDROOT
BRANCH   1   2
ATOM      2  C   UNL A   1      33.200  30.402  26.771  1.00  0.00     0.202 C 
BRANCH   2   3
ATOM      3  C   UNL A   1      31.822  29.741  26.846  1.00  0.00     0.261 C 
BRANCH   3   4
ATOM      4  O   UNL A   1      31.685  28.677  25.892  1.00  0.00    -0.459 OA
BRANCH   4   5
ATOM      5  C   UNL A   1      31.407  27.450  26.412  1.00  0.00     0.365 C 
ATOM      6  O   UNL A   1      31.650  27.109  27.567  1.00  0.00    -0.245 OA
BRANCH   5   7
ATOM      7  C   UNL A   1      30.808  26.479  25.390  1.00  0.00     0.296 C 
ATOM      8  N   UNL A   1      31.457  26.520  24.069  1.00  0.00    -0.319 N 
ATOM      9  C   UNL A   1      32.410  25.417  23.996  1.00  0.00     0.270 C 
ATOM     10  H   UNL A   1      31.961  27.404  24.001  1.00  0.00     0.349 HD
ATOM     11  C   UNL A   1      32.055  24.392  25.097  1.00  0.00     0.036 C 
ATOM     12  C   UNL A   1      30.945  25.062  25.920  1.00  0.00     0.091 C 
ATOM     13  C   UNL A   1      33.305  24.058  25.946  1.00  0.00     0.075 C 
ATOM     14  C   UNL A   1      31.519  23.047  24.570  1.00  0.00     0.075 C 
ATOM     15  C   UNL A   1      34.323  23.213  25.162  1.00  0.00     0.271 C 
ATOM     16  C   UNL A   1      32.549  22.305  23.736  1.00  0.00     0.271 C 
ATOM     17  N   UNL A   1      33.706  22.019  24.575  1.00  0.00    -0.272 N 
ATOM     18  H   UNL A   1      33.191  21.217  24.329  1.00  0.00     0.356 HD
BRANCH   8  19
ATOM     19  C   UNL A   1      30.583  26.690  22.895  1.00  0.00     0.300 C 
BRANCH  19  20
ATOM     20  C   UNL A   1      29.868  28.023  22.744  1.00  0.00     0.009 A 
ATOM     21  C   UNL A   1      28.493  28.197  23.010  1.00  0.00    -0.039 A 
ATOM     22  C   UNL A   1      27.855  29.372  22.565  1.00  0.00     0.004 A 
ATOM     23  C   UNL A   1      28.575  30.408  21.976  1.00  0.00     0.000 A 
ATOM     24  C   UNL A   1      30.596  29.134  22.275  1.00  0.00     0.010 A 
ATOM     25  C   UNL A   1      29.957  30.313  21.887  1.00  0.00     0.001 A 
BRANCH  21  26
ATOM     26  C   UNL A   1      27.676  27.228  23.839  1.00  0.00     0.032 C 
ATOM     27  C   UNL A   1      26.207  27.641  23.917  1.00  0.00     0.009 C 
ENDBRANCH  21  26
ENDBRANCH  19  20
ENDBRANCH   8  19
BRANCH  17  28
ATOM     28  C   UNL A   1      34.063  20.675  24.700  1.00  0.00     0.315 C 
ATOM     29  O   UNL A   1      35.219  20.361  24.988  1.00  0.00    -0.231 OA
BRANCH  28  30
ATOM     30  C   UNL A   1      33.151  19.531  24.421  1.00  0.00     0.119 C 
ATOM     31  C   UNL A   1      33.504  18.087  24.230  1.00  0.00     0.019 C 
ATOM     32  C   UNL A   1      32.752  18.523  25.465  1.00  0.00     0.019 C 
ENDBRANCH  28  30
ENDBRANCH  17  28
ENDBRANCH   5   7
ENDBRANCH   4   5
ENDBRANCH   3   4
ENDBRANCH   2   3
ENDBRANCH   1   2
BRANCH   1  33
ATOM     33  C   UNL A   1      34.449  32.125  27.958  1.00  0.00     0.202 C 
BRANCH  33  34
ATOM     34  C   UNL A   1      33.619  33.403  28.125  1.00  0.00     0.261 C 
BRANCH  34  35
ATOM     35  O   UNL A   1      34.258  34.376  28.970  1.00  0.00    -0.460 OA
BRANCH  35  36
ATOM     36  C   UNL A   1      33.652  34.560  30.169  1.00  0.00     0.338 C 
ATOM     37  O   UNL A   1      32.493  34.881  30.363  1.00  0.00    -0.246 OA
BRANCH  36  38
ATOM     38  C   UNL A   1      34.552  34.155  31.269  1.00  0.00     0.060 A 
ATOM     39  C   UNL A   1      35.290  35.166  31.895  1.00  0.00     0.016 A 
ATOM     40  C   UNL A   1      34.744  32.816  31.620  1.00  0.00     0.016 A 
ATOM     41  C   UNL A   1      36.277  34.839  32.822  1.00  0.00     0.010 A 
ATOM     42  C   UNL A   1      35.740  32.489  32.548  1.00  0.00     0.010 A 
ATOM     43  C   UNL A   1      36.541  33.495  33.118  1.00  0.00    -0.014 A 
BRANCH  43  44
ATOM     44  C   UNL A   1      37.757  33.155  33.900  1.00  0.00     0.031 A 
ATOM     45  C   UNL A   1      38.993  32.705  33.165  1.00  0.00     0.074 A 
ATOM     46  C   UNL A   1      37.775  33.295  35.238  1.00  0.00     0.049 A 
ATOM     47  N   UNL A   1      40.163  32.369  33.642  1.00  0.00    -0.248 NA
ATOM     48  C   UNL A   1      38.898  32.622  31.697  1.00  0.00     0.031 C 
ATOM     49  C   UNL A   1      36.650  33.746  36.057  1.00  0.00     0.029 A 
ATOM     50  N   UNL A   1      38.780  33.068  36.144  1.00  0.00    -0.354 N 
ATOM     51  C   UNL A   1      40.939  32.027  32.541  1.00  0.00     0.074 A 
ATOM     52  C   UNL A   1      40.101  32.172  31.370  1.00  0.00     0.031 C 
ATOM     53  C   UNL A   1      37.025  33.750  37.348  1.00  0.00     0.029 A 
ATOM     54  C   UNL A   1      38.406  33.284  37.449  1.00  0.00     0.049 A 
ATOM     55  H   UNL A   1      39.684  32.778  35.885  1.00  0.00     0.167 HD
ATOM     56  C   UNL A   1      42.235  31.636  32.507  1.00  0.00     0.037 A 
ATOM     57  C   UNL A   1      39.097  33.113  38.593  1.00  0.00     0.037 A 
ATOM     58  C   UNL A   1      43.074  31.514  33.671  1.00  0.00     0.049 A 
ATOM     59  C   UNL A   1      40.533  32.656  38.528  1.00  0.00     0.074 A 
ATOM     60  C   UNL A   1      44.410  31.159  33.734  1.00  0.00     0.029 A 
ATOM     61  N   UNL A   1      42.659  31.744  34.974  1.00  0.00    -0.354 N 
ATOM     62  N   UNL A   1      41.262  32.373  37.474  1.00  0.00    -0.248 NA
ATOM     63  C   UNL A   1      41.245  32.509  39.806  1.00  0.00     0.031 C 
ATOM     64  C   UNL A   1      44.793  31.133  35.079  1.00  0.00     0.029 A 
ATOM     65  C   UNL A   1      43.708  31.521  35.850  1.00  0.00     0.049 A 
ATOM     66  H   UNL A   1      41.753  32.024  35.238  1.00  0.00     0.167 HD
ATOM     67  C   UNL A   1      42.524  32.048  37.962  1.00  0.00     0.074 A 
ATOM     68  C   UNL A   1      42.463  32.181  39.402  1.00  0.00     0.031 C 
ATOM     69  C   UNL A   1      43.636  31.676  37.280  1.00  0.00     0.037 A 
BRANCH  56  70
ATOM     70  C   UNL A   1      42.837  31.297  31.173  1.00  0.00     0.058 A 
ATOM     71  C   UNL A   1      43.523  32.252  30.408  1.00  0.00     0.135 A 
ATOM     72  C   UNL A   1      42.795  29.978  30.692  1.00  0.00     0.135 A 
ATOM     73  F   UNL A   1      43.575  33.531  30.811  1.00  0.00    -0.206 F 
ATOM     74  C   UNL A   1      44.147  31.912  29.211  1.00  0.00     0.059 A 
ATOM     75  C   UNL A   1      43.430  29.610  29.510  1.00  0.00     0.059 A 
ATOM     76  F   UNL A   1      42.145  29.028  31.383  1.00  0.00    -0.206 F 
ATOM     77  C   UNL A   1      44.101  30.586  28.774  1.00  0.00     0.060 A 
BRANCH  77  78
ATOM     78  S   UNL A   1      44.959  30.150  27.247  1.00  0.00     0.124 S 
ATOM     79  O   UNL A   1      43.856  30.121  26.292  1.00  0.00    -0.237 OA
ATOM     80  O   UNL A   1      45.903  31.252  27.093  1.00  0.00    -0.237 OA
ATOM     81  O   UNL A   1      45.558  28.854  27.552  1.00  0.00    -0.744 OA
ENDBRANCH  77  78
ENDBRANCH  56  70
BRANCH  57  82
ATOM     82  C   UNL A   1      38.444  33.353  39.909  1.00  0.00     0.058 A 
ATOM     83  C   UNL A   1      37.711  32.348  40.555  1.00  0.00     0.135 A 
ATOM     84  C   UNL A   1      38.512  34.613  40.526  1.00  0.00     0.135 A 
ATOM     85  F   UNL A   1      37.611  31.129  40.001  1.00  0.00    -0.206 F 
ATOM     86  C   UNL A   1      37.036  32.589  41.748  1.00  0.00     0.059 A 
ATOM     87  C   UNL A   1      37.869  34.871  41.732  1.00  0.00     0.059 A 
ATOM     88  F   UNL A   1      39.215  35.604  39.958  1.00  0.00    -0.206 F 
ATOM     89  C   UNL A   1      37.119  33.858  42.326  1.00  0.00     0.060 A 
BRANCH  89  90
ATOM     90  S   UNL A   1      36.256  34.164  43.882  1.00  0.00     0.124 S 
ATOM     91  O   UNL A   1      36.676  33.019  44.680  1.00  0.00    -0.237 OA
ATOM     92  O   UNL A   1      36.796  35.458  44.286  1.00  0.00    -0.237 OA
ATOM     93  O   UNL A   1      34.851  34.179  43.485  1.00  0.00    -0.744 OA
ENDBRANCH  89  90
ENDBRANCH  57  82
BRANCH  69  94
ATOM     94  C   UNL A   1      44.890  31.438  38.075  1.00  0.00     0.058 A 
ATOM     95  C   UNL A   1      45.702  32.495  38.514  1.00  0.00     0.135 A 
ATOM     96  C   UNL A   1      45.267  30.132  38.428  1.00  0.00     0.135 A 
ATOM     97  F   UNL A   1      45.388  33.762  38.201  1.00  0.00    -0.206 F 
ATOM     98  C   UNL A   1      46.864  32.264  39.244  1.00  0.00     0.059 A 
ATOM     99  C   UNL A   1      46.408  29.879  39.181  1.00  0.00     0.059 A 
ATOM    100  F   UNL A   1      44.517  29.085  38.047  1.00  0.00    -0.206 F 
ATOM    101  C   UNL A   1      47.210  30.951  39.570  1.00  0.00     0.060 A 
BRANCH 101 102
ATOM    102  S   UNL A   1      48.716  30.661  40.523  1.00  0.00     0.124 S 
ATOM    103  O   UNL A   1      49.742  30.783  39.493  1.00  0.00    -0.237 OA
ATOM    104  O   UNL A   1      48.676  31.736  41.509  1.00  0.00    -0.237 OA
ATOM    105  O   UNL A   1      48.521  29.318  41.062  1.00  0.00    -0.744 OA
ENDBRANCH 101 102
ENDBRANCH  69  94
ENDBRANCH  43  44
ENDBRANCH  36  38
ENDBRANCH  35  36
ENDBRANCH  34  35
ENDBRANCH  33  34
ENDBRANCH   1  33
TORSDOF 22
ENDMDL
