MODEL 1
REMARK VINA RESULT:     -10.3      0.000      0.000
REMARK SMILES COc1ccc(C[N@@H+]2CCO[C@H](CC(=O)OCCOCCOC(=O)c3ccc(-c4c5nc(c(-c6c(F)cc(S(=O)(=O)[O-])cc6F)c6ccc([nH]6)c(-c6c(F)cc(S(=O)(=O)[O-])cc6F)c6nc(c(-c7c(F)cc(S(=O)(=O)[O-])cc7F)c7ccc4[nH]7)C=C6)C=C5)cc3)C2)cc1OC
REMARK SMILES IDX 18 1 17 2 16 3 14 4 15 5 13 6 12 7 8 8 9 9 91 10 10 12 11 13
REMARK SMILES IDX 7 14 6 15 3 16 4 17 93 18 5 19 92 20 2 21 1 22 94 23 95 24
REMARK SMILES IDX 19 25 20 26 21 27 22 28 23 29 24 30 25 31 26 32 90 33 27 34
REMARK SMILES IDX 89 35 28 36 29 37 30 38 83 39 31 40 88 41 82 42 84 43 32 44
REMARK SMILES IDX 87 45 81 46 80 47 33 49 67 50 46 51 66 52 47 53 50 54 65 55
REMARK SMILES IDX 85 56 48 57 49 58 64 60 86 61 51 62 34 63 35 64 44 65 36 66
REMARK SMILES IDX 37 67 43 68 45 69 38 70 39 71 40 72 41 73 42 74 68 75 69 76
REMARK SMILES IDX 78 77 70 78 71 79 77 80 79 81 72 82 73 83 74 84 75 85 76 86
REMARK SMILES IDX 52 87 53 88 62 89 54 90 55 91 61 92 63 93 56 94 57 95 58 96
REMARK SMILES IDX 59 97 60 98
REMARK H PARENT 8 11 84 48 50 59
REMARK Flexibility Score: inf
ROOT
ATOM      1  C   UNL A   1      38.774  22.288  25.774  1.00  0.00     0.202 C 
ENDROOT
BRANCH   1   2
ATOM      2  C   UNL A   1      37.373  22.931  25.895  1.00  0.00     0.261 C 
BRANCH   2   3
ATOM      3  O   UNL A   1      36.830  23.662  24.785  1.00  0.00    -0.463 OA
BRANCH   3   4
ATOM      4  C   UNL A   1      36.315  22.848  23.837  1.00  0.00     0.308 C 
ATOM      5  O   UNL A   1      36.547  22.998  22.649  1.00  0.00    -0.252 OA
BRANCH   4   6
ATOM      6  C   UNL A   1      35.406  21.783  24.356  1.00  0.00     0.160 C 
BRANCH   6   7
ATOM      7  C   UNL A   1      33.949  21.923  23.943  1.00  0.00     0.184 C 
ATOM      8  N   UNL A   1      32.940  23.850  25.317  1.00  0.00    -0.327 N 
ATOM      9  C   UNL A   1      32.303  22.839  26.150  1.00  0.00     0.291 C 
ATOM     10  C   UNL A   1      33.317  23.340  24.002  1.00  0.00     0.295 C 
ATOM     11  H   UNL A   1      32.181  24.507  25.133  1.00  0.00     0.348 HD
ATOM     12  C   UNL A   1      32.952  21.444  26.069  1.00  0.00     0.222 C 
ATOM     13  O   UNL A   1      33.135  21.005  24.714  1.00  0.00    -0.366 OA
BRANCH   8  14
ATOM     14  C   UNL A   1      33.694  24.959  25.918  1.00  0.00     0.299 C 
BRANCH  14  15
ATOM     15  C   UNL A   1      33.136  26.355  25.737  1.00  0.00     0.010 A 
ATOM     16  C   UNL A   1      32.738  29.136  25.831  1.00  0.00     0.160 A 
ATOM     17  C   UNL A   1      32.151  28.285  26.773  1.00  0.00     0.051 A 
ATOM     18  C   UNL A   1      33.277  28.572  24.673  1.00  0.00     0.161 A 
ATOM     19  C   UNL A   1      32.294  26.905  26.697  1.00  0.00     0.013 A 
ATOM     20  C   UNL A   1      33.479  27.171  24.640  1.00  0.00     0.060 A 
BRANCH  16  21
ATOM     21  O   UNL A   1      32.826  30.399  26.330  1.00  0.00    -0.493 OA
ATOM     22  C   UNL A   1      33.728  30.738  27.357  1.00  0.00     0.278 C 
ENDBRANCH  16  21
BRANCH  18  23
ATOM     23  O   UNL A   1      33.591  29.250  23.528  1.00  0.00    -0.493 OA
ATOM     24  C   UNL A   1      34.142  28.461  22.479  1.00  0.00     0.278 C 
ENDBRANCH  18  23
ENDBRANCH  14  15
ENDBRANCH   8  14
ENDBRANCH   6   7
ENDBRANCH   4   6
ENDBRANCH   3   4
ENDBRANCH   2   3
ENDBRANCH   1   2
BRANCH   1  25
ATOM     25  O   UNL A   1      39.785  22.456  26.750  1.00  0.00    -0.374 OA
BRANCH  25  26
ATOM     26  C   UNL A   1      40.882  21.561  26.845  1.00  0.00     0.202 C 
BRANCH  26  27
ATOM     27  C   UNL A   1      42.326  22.023  27.093  1.00  0.00     0.261 C 
BRANCH  27  28
ATOM     28  O   UNL A   1      42.454  23.127  27.997  1.00  0.00    -0.460 OA
BRANCH  28  29
ATOM     29  C   UNL A   1      42.884  24.271  27.418  1.00  0.00     0.338 C 
ATOM     30  O   UNL A   1      43.558  24.367  26.396  1.00  0.00    -0.246 OA
BRANCH  29  31
ATOM     31  C   UNL A   1      42.229  25.437  28.029  1.00  0.00     0.060 A 
ATOM     32  C   UNL A   1      43.014  26.585  28.213  1.00  0.00     0.016 A 
ATOM     33  C   UNL A   1      40.913  25.388  28.489  1.00  0.00     0.016 A 
ATOM     34  C   UNL A   1      42.511  27.666  28.920  1.00  0.00     0.010 A 
ATOM     35  C   UNL A   1      40.419  26.464  29.234  1.00  0.00     0.010 A 
ATOM     36  C   UNL A   1      41.242  27.574  29.499  1.00  0.00    -0.014 A 
BRANCH  36  37
ATOM     37  C   UNL A   1      40.936  28.506  30.605  1.00  0.00     0.031 A 
ATOM     38  C   UNL A   1      41.788  28.428  31.843  1.00  0.00     0.074 A 
ATOM     39  C   UNL A   1      40.000  29.460  30.470  1.00  0.00     0.049 A 
ATOM     40  N   UNL A   1      41.766  29.173  32.916  1.00  0.00    -0.248 NA
ATOM     41  C   UNL A   1      42.805  27.364  31.870  1.00  0.00     0.031 C 
ATOM     42  C   UNL A   1      39.154  29.650  29.295  1.00  0.00     0.029 A 
ATOM     43  N   UNL A   1      39.611  30.448  31.335  1.00  0.00    -0.354 N 
ATOM     44  C   UNL A   1      42.755  28.662  33.748  1.00  0.00     0.074 A 
ATOM     45  C   UNL A   1      43.337  27.525  33.071  1.00  0.00     0.031 C 
ATOM     46  C   UNL A   1      38.327  30.686  29.521  1.00  0.00     0.029 A 
ATOM     47  C   UNL A   1      38.576  31.214  30.862  1.00  0.00     0.049 A 
ATOM     48  H   UNL A   1      40.035  30.596  32.212  1.00  0.00     0.167 HD
ATOM     49  C   UNL A   1      43.147  29.104  34.966  1.00  0.00     0.037 A 
ATOM     50  C   UNL A   1      37.894  32.212  31.456  1.00  0.00     0.037 A 
ATOM     51  C   UNL A   1      42.552  30.234  35.629  1.00  0.00     0.049 A 
ATOM     52  C   UNL A   1      38.317  32.670  32.827  1.00  0.00     0.074 A 
ATOM     53  C   UNL A   1      42.883  30.789  36.851  1.00  0.00     0.029 A 
ATOM     54  N   UNL A   1      41.488  30.973  35.128  1.00  0.00    -0.354 N 
ATOM     55  N   UNL A   1      39.276  32.203  33.593  1.00  0.00    -0.248 NA
ATOM     56  C   UNL A   1      37.580  33.798  33.408  1.00  0.00     0.031 C 
ATOM     57  C   UNL A   1      41.977  31.820  37.120  1.00  0.00     0.029 A 
ATOM     58  C   UNL A   1      41.126  31.957  36.033  1.00  0.00     0.049 A 
ATOM     59  H   UNL A   1      41.054  30.819  34.258  1.00  0.00     0.167 HD
ATOM     60  C   UNL A   1      39.274  32.995  34.737  1.00  0.00     0.074 A 
ATOM     61  C   UNL A   1      38.224  33.978  34.553  1.00  0.00     0.031 C 
ATOM     62  C   UNL A   1      40.070  32.922  35.834  1.00  0.00     0.037 A 
BRANCH  49  63
ATOM     63  C   UNL A   1      44.222  28.321  35.672  1.00  0.00     0.058 A 
ATOM     64  C   UNL A   1      43.928  27.275  36.563  1.00  0.00     0.135 A 
ATOM     65  C   UNL A   1      45.574  28.643  35.471  1.00  0.00     0.135 A 
ATOM     66  F   UNL A   1      42.652  26.936  36.811  1.00  0.00    -0.206 F 
ATOM     67  C   UNL A   1      44.931  26.611  37.264  1.00  0.00     0.059 A 
ATOM     68  C   UNL A   1      46.594  27.970  36.134  1.00  0.00     0.059 A 
ATOM     69  F   UNL A   1      45.915  29.635  34.633  1.00  0.00    -0.206 F 
ATOM     70  C   UNL A   1      46.262  26.971  37.047  1.00  0.00     0.060 A 
BRANCH  70  71
ATOM     71  S   UNL A   1      47.551  26.125  37.986  1.00  0.00     0.124 S 
ATOM     72  O   UNL A   1      48.205  25.341  36.943  1.00  0.00    -0.237 OA
ATOM     73  O   UNL A   1      48.327  27.237  38.524  1.00  0.00    -0.237 OA
ATOM     74  O   UNL A   1      46.802  25.353  38.972  1.00  0.00    -0.744 OA
ENDBRANCH  70  71
ENDBRANCH  49  63
BRANCH  50  75
ATOM     75  C   UNL A   1      36.742  32.827  30.747  1.00  0.00     0.058 A 
ATOM     76  C   UNL A   1      35.419  32.580  31.138  1.00  0.00     0.135 A 
ATOM     77  C   UNL A   1      36.953  33.731  29.691  1.00  0.00     0.135 A 
ATOM     78  F   UNL A   1      35.163  31.718  32.133  1.00  0.00    -0.206 F 
ATOM     79  C   UNL A   1      34.346  33.212  30.516  1.00  0.00     0.059 A 
ATOM     80  C   UNL A   1      35.900  34.393  29.071  1.00  0.00     0.059 A 
ATOM     81  F   UNL A   1      38.202  34.009  29.286  1.00  0.00    -0.206 F 
ATOM     82  C   UNL A   1      34.598  34.127  29.492  1.00  0.00     0.060 A 
BRANCH  82  83
ATOM     83  S   UNL A   1      33.207  35.017  28.762  1.00  0.00     0.124 S 
ATOM     84  O   UNL A   1      33.862  36.207  28.232  1.00  0.00    -0.237 OA
ATOM     85  O   UNL A   1      32.721  34.061  27.772  1.00  0.00    -0.237 OA
ATOM     86  O   UNL A   1      32.316  35.238  29.896  1.00  0.00    -0.744 OA
ENDBRANCH  82  83
ENDBRANCH  50  75
BRANCH  62  87
ATOM     87  C   UNL A   1      39.860  33.954  36.910  1.00  0.00     0.058 A 
ATOM     88  C   UNL A   1      39.073  33.698  38.044  1.00  0.00     0.135 A 
ATOM     89  C   UNL A   1      40.493  35.206  36.822  1.00  0.00     0.135 A 
ATOM     90  F   UNL A   1      38.445  32.520  38.179  1.00  0.00    -0.206 F 
ATOM     91  C   UNL A   1      38.889  34.661  39.032  1.00  0.00     0.059 A 
ATOM     92  C   UNL A   1      40.350  36.169  37.815  1.00  0.00     0.059 A 
ATOM     93  F   UNL A   1      41.271  35.497  35.768  1.00  0.00    -0.206 F 
ATOM     94  C   UNL A   1      39.530  35.894  38.908  1.00  0.00     0.060 A 
BRANCH  94  95
ATOM     95  S   UNL A   1      39.287  37.133  40.197  1.00  0.00     0.124 S 
ATOM     96  O   UNL A   1      38.489  36.392  41.169  1.00  0.00    -0.237 OA
ATOM     97  O   UNL A   1      40.658  37.435  40.601  1.00  0.00    -0.237 OA
ATOM     98  O   UNL A   1      38.591  38.213  39.506  1.00  0.00    -0.744 OA
ENDBRANCH  94  95
ENDBRANCH  62  87
ENDBRANCH  36  37
ENDBRANCH  29  31
ENDBRANCH  28  29
ENDBRANCH  27  28
ENDBRANCH  26  27
ENDBRANCH  25  26
ENDBRANCH   1  25
TORSDOF 22
ENDMDL
MODEL 2
REMARK VINA RESULT:      -9.7      4.753      6.517
REMARK SMILES COc1ccc(C[N@@H+]2CCO[C@H](CC(=O)OCCOCCOC(=O)c3ccc(-c4c5nc(c(-c6c(F)cc(S(=O)(=O)[O-])cc6F)c6ccc([nH]6)c(-c6c(F)cc(S(=O)(=O)[O-])cc6F)c6nc(c(-c7c(F)cc(S(=O)(=O)[O-])cc7F)c7ccc4[nH]7)C=C6)C=C5)cc3)C2)cc1OC
REMARK SMILES IDX 18 1 17 2 16 3 14 4 15 5 13 6 12 7 8 8 9 9 91 10 10 12 11 13
REMARK SMILES IDX 7 14 6 15 3 16 4 17 93 18 5 19 92 20 2 21 1 22 94 23 95 24
REMARK SMILES IDX 19 25 20 26 21 27 22 28 23 29 24 30 25 31 26 32 90 33 27 34
REMARK SMILES IDX 89 35 28 36 29 37 30 38 83 39 31 40 88 41 82 42 84 43 32 44
REMARK SMILES IDX 87 45 81 46 80 47 33 49 67 50 46 51 66 52 47 53 50 54 65 55
REMARK SMILES IDX 85 56 48 57 49 58 64 60 86 61 51 62 34 63 35 64 44 65 36 66
REMARK SMILES IDX 37 67 43 68 45 69 38 70 39 71 40 72 41 73 42 74 68 75 69 76
REMARK SMILES IDX 78 77 70 78 71 79 77 80 79 81 72 82 73 83 74 84 75 85 76 86
REMARK SMILES IDX 52 87 53 88 62 89 54 90 55 91 61 92 63 93 56 94 57 95 58 96
REMARK SMILES IDX 59 97 60 98
REMARK H PARENT 8 11 84 48 50 59
REMARK Flexibility Score: inf
ROOT
ATOM      1  C   UNL A   1      34.321  21.571  26.667  1.00  0.00     0.202 C 
ENDROOT
BRANCH   1   2
ATOM      2  C   UNL A   1      33.037  22.385  26.949  1.00  0.00     0.261 C 
BRANCH   2   3
ATOM      3  O   UNL A   1      32.650  23.433  26.047  1.00  0.00    -0.463 OA
BRANCH   3   4
ATOM      4  C   UNL A   1      31.826  24.332  26.629  1.00  0.00     0.308 C 
ATOM      5  O   UNL A   1      30.807  24.003  27.215  1.00  0.00    -0.252 OA
BRANCH   4   6
ATOM      6  C   UNL A   1      32.237  25.757  26.460  1.00  0.00     0.160 C 
BRANCH   6   7
ATOM      7  C   UNL A   1      31.134  26.777  26.700  1.00  0.00     0.184 C 
ATOM      8  N   UNL A   1      31.613  28.802  25.188  1.00  0.00    -0.327 N 
ATOM      9  C   UNL A   1      32.106  29.491  26.373  1.00  0.00     0.291 C 
ATOM     10  C   UNL A   1      30.726  27.689  25.513  1.00  0.00     0.295 C 
ATOM     11  H   UNL A   1      31.008  29.499  24.753  1.00  0.00     0.348 HD
ATOM     12  C   UNL A   1      32.503  28.559  27.534  1.00  0.00     0.222 C 
ATOM     13  O   UNL A   1      31.476  27.603  27.841  1.00  0.00    -0.366 OA
BRANCH   8  14
ATOM     14  C   UNL A   1      32.399  28.776  23.947  1.00  0.00     0.299 C 
BRANCH  14  15
ATOM     15  C   UNL A   1      32.395  27.489  23.149  1.00  0.00     0.010 A 
ATOM     16  C   UNL A   1      32.830  25.533  21.179  1.00  0.00     0.160 A 
ATOM     17  C   UNL A   1      31.699  26.355  21.150  1.00  0.00     0.051 A 
ATOM     18  C   UNL A   1      33.586  25.487  22.351  1.00  0.00     0.161 A 
ATOM     19  C   UNL A   1      31.447  27.282  22.154  1.00  0.00     0.013 A 
ATOM     20  C   UNL A   1      33.363  26.482  23.334  1.00  0.00     0.060 A 
BRANCH  16  21
ATOM     21  O   UNL A   1      33.084  25.039  19.936  1.00  0.00    -0.493 OA
ATOM     22  C   UNL A   1      32.251  25.318  18.836  1.00  0.00     0.278 C 
ENDBRANCH  16  21
BRANCH  18  23
ATOM     23  O   UNL A   1      34.508  24.528  22.668  1.00  0.00    -0.493 OA
ATOM     24  C   UNL A   1      34.002  23.201  22.777  1.00  0.00     0.278 C 
ENDBRANCH  18  23
ENDBRANCH  14  15
ENDBRANCH   8  14
ENDBRANCH   6   7
ENDBRANCH   4   6
ENDBRANCH   3   4
ENDBRANCH   2   3
ENDBRANCH   1   2
BRANCH   1  25
ATOM     25  O   UNL A   1      35.551  22.172  26.310  1.00  0.00    -0.374 OA
BRANCH  25  26
ATOM     26  C   UNL A   1      36.371  21.635  25.284  1.00  0.00     0.202 C 
BRANCH  26  27
ATOM     27  C   UNL A   1      37.906  21.677  25.324  1.00  0.00     0.261 C 
BRANCH  27  28
ATOM     28  O   UNL A   1      38.460  22.170  26.550  1.00  0.00    -0.460 OA
BRANCH  28  29
ATOM     29  C   UNL A   1      39.706  22.682  26.430  1.00  0.00     0.338 C 
ATOM     30  O   UNL A   1      40.644  22.189  25.811  1.00  0.00    -0.246 OA
BRANCH  29  31
ATOM     31  C   UNL A   1      39.748  24.063  26.935  1.00  0.00     0.060 A 
ATOM     32  C   UNL A   1      40.241  25.046  26.063  1.00  0.00     0.016 A 
ATOM     33  C   UNL A   1      39.398  24.381  28.248  1.00  0.00     0.016 A 
ATOM     34  C   UNL A   1      40.454  26.336  26.519  1.00  0.00     0.010 A 
ATOM     35  C   UNL A   1      39.648  25.674  28.717  1.00  0.00     0.010 A 
ATOM     36  C   UNL A   1      40.233  26.631  27.868  1.00  0.00    -0.014 A 
BRANCH  36  37
ATOM     37  C   UNL A   1      40.897  27.834  28.414  1.00  0.00     0.031 A 
ATOM     38  C   UNL A   1      42.401  27.887  28.363  1.00  0.00     0.074 A 
ATOM     39  C   UNL A   1      40.183  28.887  28.844  1.00  0.00     0.049 A 
ATOM     40  N   UNL A   1      43.211  28.851  28.712  1.00  0.00    -0.248 NA
ATOM     41  C   UNL A   1      43.080  26.688  27.843  1.00  0.00     0.031 C 
ATOM     42  C   UNL A   1      38.725  28.953  28.890  1.00  0.00     0.029 A 
ATOM     43  N   UNL A   1      40.597  30.102  29.320  1.00  0.00    -0.354 N 
ATOM     44  C   UNL A   1      44.492  28.371  28.466  1.00  0.00     0.074 A 
ATOM     45  C   UNL A   1      44.354  27.021  27.968  1.00  0.00     0.031 C 
ATOM     46  C   UNL A   1      38.363  30.148  29.390  1.00  0.00     0.029 A 
ATOM     47  C   UNL A   1      39.565  30.916  29.714  1.00  0.00     0.049 A 
ATOM     48  H   UNL A   1      41.544  30.367  29.374  1.00  0.00     0.167 HD
ATOM     49  C   UNL A   1      45.678  29.002  28.635  1.00  0.00     0.037 A 
ATOM     50  C   UNL A   1      39.593  32.133  30.290  1.00  0.00     0.037 A 
ATOM     51  C   UNL A   1      45.797  30.345  29.138  1.00  0.00     0.049 A 
ATOM     52  C   UNL A   1      40.921  32.808  30.507  1.00  0.00     0.074 A 
ATOM     53  C   UNL A   1      46.943  31.095  29.328  1.00  0.00     0.029 A 
ATOM     54  N   UNL A   1      44.729  31.132  29.549  1.00  0.00    -0.354 N 
ATOM     55  N   UNL A   1      42.126  32.362  30.239  1.00  0.00    -0.248 NA
ATOM     56  C   UNL A   1      40.894  34.157  31.085  1.00  0.00     0.031 C 
ATOM     57  C   UNL A   1      46.573  32.310  29.915  1.00  0.00     0.029 A 
ATOM     58  C   UNL A   1      45.191  32.348  30.024  1.00  0.00     0.049 A 
ATOM     59  H   UNL A   1      43.782  30.864  29.509  1.00  0.00     0.167 HD
ATOM     60  C   UNL A   1      43.002  33.383  30.596  1.00  0.00     0.074 A 
ATOM     61  C   UNL A   1      42.182  34.474  31.085  1.00  0.00     0.031 C 
ATOM     62  C   UNL A   1      44.357  33.419  30.518  1.00  0.00     0.037 A 
BRANCH  49  63
ATOM     63  C   UNL A   1      46.927  28.218  28.332  1.00  0.00     0.058 A 
ATOM     64  C   UNL A   1      47.452  28.113  27.033  1.00  0.00     0.135 A 
ATOM     65  C   UNL A   1      47.597  27.536  29.361  1.00  0.00     0.135 A 
ATOM     66  F   UNL A   1      46.843  28.727  26.005  1.00  0.00    -0.206 F 
ATOM     67  C   UNL A   1      48.565  27.323  26.758  1.00  0.00     0.059 A 
ATOM     68  C   UNL A   1      48.730  26.769  29.115  1.00  0.00     0.059 A 
ATOM     69  F   UNL A   1      47.138  27.598  30.621  1.00  0.00    -0.206 F 
ATOM     70  C   UNL A   1      49.193  26.650  27.807  1.00  0.00     0.060 A 
BRANCH  70  71
ATOM     71  S   UNL A   1      50.616  25.602  27.433  1.00  0.00     0.124 S 
ATOM     72  O   UNL A   1      50.837  25.904  26.022  1.00  0.00    -0.237 OA
ATOM     73  O   UNL A   1      51.627  26.107  28.354  1.00  0.00    -0.237 OA
ATOM     74  O   UNL A   1      50.130  24.255  27.716  1.00  0.00    -0.744 OA
ENDBRANCH  70  71
ENDBRANCH  49  63
BRANCH  50  75
ATOM     75  C   UNL A   1      38.315  32.771  30.703  1.00  0.00     0.058 A 
ATOM     76  C   UNL A   1      37.497  33.444  29.785  1.00  0.00     0.135 A 
ATOM     77  C   UNL A   1      37.858  32.663  32.027  1.00  0.00     0.135 A 
ATOM     78  F   UNL A   1      37.893  33.584  28.510  1.00  0.00    -0.206 F 
ATOM     79  C   UNL A   1      36.269  33.980  30.161  1.00  0.00     0.059 A 
ATOM     80  C   UNL A   1      36.624  33.167  32.421  1.00  0.00     0.059 A 
ATOM     81  F   UNL A   1      38.599  32.019  32.943  1.00  0.00    -0.206 F 
ATOM     82  C   UNL A   1      35.835  33.824  31.479  1.00  0.00     0.060 A 
BRANCH  82  83
ATOM     83  S   UNL A   1      34.195  34.432  31.930  1.00  0.00     0.124 S 
ATOM     84  O   UNL A   1      34.516  35.705  32.562  1.00  0.00    -0.237 OA
ATOM     85  O   UNL A   1      33.534  34.511  30.631  1.00  0.00    -0.237 OA
ATOM     86  O   UNL A   1      33.685  33.394  32.821  1.00  0.00    -0.744 OA
ENDBRANCH  82  83
ENDBRANCH  50  75
BRANCH  62  87
ATOM     87  C   UNL A   1      45.040  34.692  30.942  1.00  0.00     0.058 A 
ATOM     88  C   UNL A   1      45.260  35.752  30.049  1.00  0.00     0.135 A 
ATOM     89  C   UNL A   1      45.442  34.867  32.277  1.00  0.00     0.135 A 
ATOM     90  F   UNL A   1      44.897  35.639  28.762  1.00  0.00    -0.206 F 
ATOM     91  C   UNL A   1      45.891  36.924  30.455  1.00  0.00     0.059 A 
ATOM     92  C   UNL A   1      46.042  36.044  32.712  1.00  0.00     0.059 A 
ATOM     93  F   UNL A   1      45.240  33.893  33.178  1.00  0.00    -0.206 F 
ATOM     94  C   UNL A   1      46.280  37.060  31.789  1.00  0.00     0.060 A 
BRANCH  94  95
ATOM     95  S   UNL A   1      47.093  38.586  32.305  1.00  0.00     0.124 S 
ATOM     96  O   UNL A   1      46.153  39.595  31.828  1.00  0.00    -0.237 OA
ATOM     97  O   UNL A   1      47.168  38.425  33.754  1.00  0.00    -0.237 OA
ATOM     98  O   UNL A   1      48.374  38.543  31.607  1.00  0.00    -0.744 OA
ENDBRANCH  94  95
ENDBRANCH  62  87
ENDBRANCH  36  37
ENDBRANCH  29  31
ENDBRANCH  28  29
ENDBRANCH  27  28
ENDBRANCH  26  27
ENDBRANCH  25  26
ENDBRANCH   1  25
TORSDOF 22
ENDMDL
MODEL 3
REMARK VINA RESULT:      -9.7      2.260      9.089
REMARK SMILES COc1ccc(C[N@@H+]2CCO[C@H](CC(=O)OCCOCCOC(=O)c3ccc(-c4c5nc(c(-c6c(F)cc(S(=O)(=O)[O-])cc6F)c6ccc([nH]6)c(-c6c(F)cc(S(=O)(=O)[O-])cc6F)c6nc(c(-c7c(F)cc(S(=O)(=O)[O-])cc7F)c7ccc4[nH]7)C=C6)C=C5)cc3)C2)cc1OC
REMARK SMILES IDX 18 1 17 2 16 3 14 4 15 5 13 6 12 7 8 8 9 9 91 10 10 12 11 13
REMARK SMILES IDX 7 14 6 15 3 16 4 17 93 18 5 19 92 20 2 21 1 22 94 23 95 24
REMARK SMILES IDX 19 25 20 26 21 27 22 28 23 29 24 30 25 31 26 32 90 33 27 34
REMARK SMILES IDX 89 35 28 36 29 37 30 38 83 39 31 40 88 41 82 42 84 43 32 44
REMARK SMILES IDX 87 45 81 46 80 47 33 49 67 50 46 51 66 52 47 53 50 54 65 55
REMARK SMILES IDX 85 56 48 57 49 58 64 60 86 61 51 62 34 63 35 64 44 65 36 66
REMARK SMILES IDX 37 67 43 68 45 69 38 70 39 71 40 72 41 73 42 74 68 75 69 76
REMARK SMILES IDX 78 77 70 78 71 79 77 80 79 81 72 82 73 83 74 84 75 85 76 86
REMARK SMILES IDX 52 87 53 88 62 89 54 90 55 91 61 92 63 93 56 94 57 95 58 96
REMARK SMILES IDX 59 97 60 98
REMARK H PARENT 8 11 84 48 50 59
REMARK Flexibility Score: inf
ROOT
ATOM      1  C   UNL A   1      31.871  29.327  27.215  1.00  0.00     0.202 C 
ENDROOT
BRANCH   1   2
ATOM      2  C   UNL A   1      31.389  27.970  26.654  1.00  0.00     0.261 C 
BRANCH   2   3
ATOM      3  O   UNL A   1      32.147  26.781  26.922  1.00  0.00    -0.463 OA
BRANCH   3   4
ATOM      4  C   UNL A   1      33.118  26.575  26.005  1.00  0.00     0.308 C 
ATOM      5  O   UNL A   1      34.099  27.295  25.916  1.00  0.00    -0.252 OA
BRANCH   4   6
ATOM      6  C   UNL A   1      32.873  25.425  25.084  1.00  0.00     0.160 C 
BRANCH   6   7
ATOM      7  C   UNL A   1      31.755  25.637  24.074  1.00  0.00     0.184 C 
ATOM      8  N   UNL A   1      32.368  24.312  21.956  1.00  0.00    -0.327 N 
ATOM      9  C   UNL A   1      32.757  25.579  21.352  1.00  0.00     0.291 C 
ATOM     10  C   UNL A   1      31.454  24.483  23.082  1.00  0.00     0.295 C 
ATOM     11  H   UNL A   1      31.804  23.874  21.227  1.00  0.00     0.348 HD
ATOM     12  C   UNL A   1      33.050  26.705  22.363  1.00  0.00     0.222 C 
ATOM     13  O   UNL A   1      31.999  26.856  23.330  1.00  0.00    -0.366 OA
BRANCH   8  14
ATOM     14  C   UNL A   1      33.258  23.144  21.905  1.00  0.00     0.299 C 
BRANCH  14  15
ATOM     15  C   UNL A   1      33.129  22.123  23.016  1.00  0.00     0.010 A 
ATOM     16  C   UNL A   1      33.401  19.833  24.622  1.00  0.00     0.160 A 
ATOM     17  C   UNL A   1      32.380  19.939  23.673  1.00  0.00     0.051 A 
ATOM     18  C   UNL A   1      34.099  20.989  24.974  1.00  0.00     0.161 A 
ATOM     19  C   UNL A   1      32.203  21.092  22.918  1.00  0.00     0.013 A 
ATOM     20  C   UNL A   1      33.960  22.135  24.154  1.00  0.00     0.060 A 
BRANCH  16  21
ATOM     21  O   UNL A   1      33.641  18.525  24.911  1.00  0.00    -0.493 OA
ATOM     22  C   UNL A   1      34.681  17.802  24.298  1.00  0.00     0.278 C 
ENDBRANCH  16  21
BRANCH  18  23
ATOM     23  O   UNL A   1      34.885  21.139  26.084  1.00  0.00    -0.493 OA
ATOM     24  C   UNL A   1      34.252  21.739  27.209  1.00  0.00     0.278 C 
ENDBRANCH  18  23
ENDBRANCH  14  15
ENDBRANCH   8  14
ENDBRANCH   6   7
ENDBRANCH   4   6
ENDBRANCH   3   4
ENDBRANCH   2   3
ENDBRANCH   1   2
BRANCH   1  25
ATOM     25  O   UNL A   1      31.726  30.547  26.512  1.00  0.00    -0.374 OA
BRANCH  25  26
ATOM     26  C   UNL A   1      32.238  31.767  27.026  1.00  0.00     0.202 C 
BRANCH  26  27
ATOM     27  C   UNL A   1      33.653  31.908  27.605  1.00  0.00     0.261 C 
BRANCH  27  28
ATOM     28  O   UNL A   1      34.226  33.215  27.475  1.00  0.00    -0.460 OA
BRANCH  28  29
ATOM     29  C   UNL A   1      33.908  34.063  28.480  1.00  0.00     0.338 C 
ATOM     30  O   UNL A   1      32.867  34.702  28.598  1.00  0.00    -0.246 OA
BRANCH  29  31
ATOM     31  C   UNL A   1      34.877  33.944  29.580  1.00  0.00     0.060 A 
ATOM     32  C   UNL A   1      36.223  34.191  29.273  1.00  0.00     0.016 A 
ATOM     33  C   UNL A   1      34.499  33.522  30.855  1.00  0.00     0.016 A 
ATOM     34  C   UNL A   1      37.208  33.950  30.217  1.00  0.00     0.010 A 
ATOM     35  C   UNL A   1      35.495  33.243  31.796  1.00  0.00     0.010 A 
ATOM     36  C   UNL A   1      36.851  33.400  31.453  1.00  0.00    -0.014 A 
BRANCH  36  37
ATOM     37  C   UNL A   1      37.918  32.729  32.227  1.00  0.00     0.031 A 
ATOM     38  C   UNL A   1      38.574  31.522  31.613  1.00  0.00     0.074 A 
ATOM     39  C   UNL A   1      38.359  33.240  33.387  1.00  0.00     0.049 A 
ATOM     40  N   UNL A   1      39.572  30.803  32.055  1.00  0.00    -0.248 NA
ATOM     41  C   UNL A   1      38.031  31.067  30.322  1.00  0.00     0.031 C 
ATOM     42  C   UNL A   1      37.823  34.431  34.042  1.00  0.00     0.029 A 
ATOM     43  N   UNL A   1      39.364  32.818  34.216  1.00  0.00    -0.354 N 
ATOM     44  C   UNL A   1      39.767  29.807  31.106  1.00  0.00     0.074 A 
ATOM     45  C   UNL A   1      38.766  29.995  30.079  1.00  0.00     0.031 C 
ATOM     46  C   UNL A   1      38.496  34.634  35.188  1.00  0.00     0.029 A 
ATOM     47  C   UNL A   1      39.493  33.576  35.352  1.00  0.00     0.049 A 
ATOM     48  H   UNL A   1      39.940  32.044  34.016  1.00  0.00     0.167 HD
ATOM     49  C   UNL A   1      40.701  28.827  31.088  1.00  0.00     0.037 A 
ATOM     50  C   UNL A   1      40.309  33.418  36.412  1.00  0.00     0.037 A 
ATOM     51  C   UNL A   1      41.686  28.651  32.122  1.00  0.00     0.049 A 
ATOM     52  C   UNL A   1      41.319  32.301  36.396  1.00  0.00     0.074 A 
ATOM     53  C   UNL A   1      42.696  27.711  32.198  1.00  0.00     0.029 A 
ATOM     54  N   UNL A   1      41.771  29.426  33.270  1.00  0.00    -0.354 N 
ATOM     55  N   UNL A   1      41.519  31.384  35.477  1.00  0.00    -0.248 NA
ATOM     56  C   UNL A   1      42.223  32.205  37.547  1.00  0.00     0.031 C 
ATOM     57  C   UNL A   1      43.350  27.875  33.424  1.00  0.00     0.029 A 
ATOM     58  C   UNL A   1      42.796  28.964  34.080  1.00  0.00     0.049 A 
ATOM     59  H   UNL A   1      41.189  30.192  33.480  1.00  0.00     0.167 HD
ATOM     60  C   UNL A   1      42.588  30.615  35.929  1.00  0.00     0.074 A 
ATOM     61  C   UNL A   1      42.997  31.187  37.197  1.00  0.00     0.031 C 
ATOM     62  C   UNL A   1      43.181  29.542  35.346  1.00  0.00     0.037 A 
BRANCH  49  63
ATOM     63  C   UNL A   1      40.649  27.845  29.948  1.00  0.00     0.058 A 
ATOM     64  C   UNL A   1      41.572  27.870  28.890  1.00  0.00     0.135 A 
ATOM     65  C   UNL A   1      39.636  26.872  29.904  1.00  0.00     0.135 A 
ATOM     66  F   UNL A   1      42.551  28.791  28.868  1.00  0.00    -0.206 F 
ATOM     67  C   UNL A   1      41.465  27.003  27.807  1.00  0.00     0.059 A 
ATOM     68  C   UNL A   1      39.530  25.972  28.849  1.00  0.00     0.059 A 
ATOM     69  F   UNL A   1      38.723  26.802  30.886  1.00  0.00    -0.206 F 
ATOM     70  C   UNL A   1      40.435  26.060  27.793  1.00  0.00     0.060 A 
BRANCH  70  71
ATOM     71  S   UNL A   1      40.286  24.962  26.368  1.00  0.00     0.124 S 
ATOM     72  O   UNL A   1      40.815  25.801  25.297  1.00  0.00    -0.237 OA
ATOM     73  O   UNL A   1      41.121  23.830  26.757  1.00  0.00    -0.237 OA
ATOM     74  O   UNL A   1      38.854  24.686  26.299  1.00  0.00    -0.744 OA
ENDBRANCH  70  71
ENDBRANCH  49  63
BRANCH  50  75
ATOM     75  C   UNL A   1      40.186  34.344  37.568  1.00  0.00     0.058 A 
ATOM     76  C   UNL A   1      41.010  35.469  37.702  1.00  0.00     0.135 A 
ATOM     77  C   UNL A   1      39.189  34.146  38.538  1.00  0.00     0.135 A 
ATOM     78  F   UNL A   1      41.984  35.698  36.808  1.00  0.00    -0.206 F 
ATOM     79  C   UNL A   1      40.846  36.371  38.749  1.00  0.00     0.059 A 
ATOM     80  C   UNL A   1      38.988  35.046  39.578  1.00  0.00     0.059 A 
ATOM     81  F   UNL A   1      38.367  33.088  38.449  1.00  0.00    -0.206 F 
ATOM     82  C   UNL A   1      39.823  36.157  39.675  1.00  0.00     0.060 A 
BRANCH  82  83
ATOM     83  S   UNL A   1      39.552  37.388  40.969  1.00  0.00     0.124 S 
ATOM     84  O   UNL A   1      40.853  38.044  41.030  1.00  0.00    -0.237 OA
ATOM     85  O   UNL A   1      38.462  38.181  40.410  1.00  0.00    -0.237 OA
ATOM     86  O   UNL A   1      39.196  36.581  42.132  1.00  0.00    -0.744 OA
ENDBRANCH  82  83
ENDBRANCH  50  75
BRANCH  62  87
ATOM     87  C   UNL A   1      44.360  28.934  36.058  1.00  0.00     0.058 A 
ATOM     88  C   UNL A   1      44.224  27.829  36.913  1.00  0.00     0.135 A 
ATOM     89  C   UNL A   1      45.653  29.441  35.845  1.00  0.00     0.135 A 
ATOM     90  F   UNL A   1      43.012  27.305  37.153  1.00  0.00    -0.206 F 
ATOM     91  C   UNL A   1      45.323  27.276  37.564  1.00  0.00     0.059 A 
ATOM     92  C   UNL A   1      46.769  28.881  36.458  1.00  0.00     0.059 A 
ATOM     93  F   UNL A   1      45.844  30.485  35.023  1.00  0.00    -0.206 F 
ATOM     94  C   UNL A   1      46.591  27.809  37.331  1.00  0.00     0.060 A 
BRANCH  94  95
ATOM     95  S   UNL A   1      48.008  27.080  38.177  1.00  0.00     0.124 S 
ATOM     96  O   UNL A   1      47.996  25.719  37.650  1.00  0.00    -0.237 OA
ATOM     97  O   UNL A   1      49.111  27.924  37.723  1.00  0.00    -0.237 OA
ATOM     98  O   UNL A   1      47.667  27.210  39.589  1.00  0.00    -0.744 OA
ENDBRANCH  94  95
ENDBRANCH  62  87
ENDBRANCH  36  37
ENDBRANCH  29  31
ENDBRANCH  28  29
ENDBRANCH  27  28
ENDBRANCH  26  27
ENDBRANCH  25  26
ENDBRANCH   1  25
TORSDOF 22
ENDMDL
