MODEL 1
REMARK VINA RESULT:     -10.7      0.000      0.000
REMARK SMILES C[C@H]1[C@H](C(=O)OCCOCCOC(=O)c2ccc(-c3c4nc(c(-c5c(F)cc(S(=O)(=O)[O-])cc5F)c5ccc([nH]5)c(-c5c(F)cc(S(=O)(=O)[O-])cc5F)c5nc(c(-c6c(F)cc(S(=O)(=O)[O-])cc6F)c6ccc3[nH]6)C=C5)C=C4)cc2)CCN1c1ncnc2sccc12
REMARK SMILES IDX 10 1 9 2 8 3 7 4 6 5 4 6 5 7 3 8 1 9 2 10 83 11 81 12 82 13
REMARK SMILES IDX 84 14 85 15 92 16 86 17 88 18 91 19 87 20 89 21 90 22 11 23
REMARK SMILES IDX 12 24 13 25 14 26 15 27 16 28 80 29 17 30 79 31 18 32 19 33
REMARK SMILES IDX 20 34 73 35 21 36 78 37 72 38 74 39 22 40 77 41 71 42 70 43
REMARK SMILES IDX 23 45 57 46 36 47 56 48 37 49 40 50 55 51 75 52 38 53 39 54
REMARK SMILES IDX 54 56 76 57 41 58 24 59 25 60 34 61 26 62 27 63 33 64 35 65
REMARK SMILES IDX 28 66 29 67 30 68 31 69 32 70 58 71 59 72 68 73 60 74 61 75
REMARK SMILES IDX 67 76 69 77 62 78 63 79 64 80 65 81 66 82 42 83 43 84 52 85
REMARK SMILES IDX 44 86 45 87 51 88 53 89 46 90 47 91 48 92 49 93 50 94
REMARK H PARENT 74 44 40 55
REMARK Flexibility Score: inf
ROOT
ATOM      1  C   UNL A   1      34.822  33.903  30.859  1.00  0.00     0.202 C 
ENDROOT
BRANCH   1   2
ATOM      2  O   UNL A   1      34.289  32.836  30.077  1.00  0.00    -0.374 OA
BRANCH   2   3
ATOM      3  C   UNL A   1      34.109  33.075  28.681  1.00  0.00     0.202 C 
BRANCH   3   4
ATOM      4  C   UNL A   1      34.646  31.999  27.735  1.00  0.00     0.261 C 
BRANCH   4   5
ATOM      5  O   UNL A   1      33.630  31.056  27.345  1.00  0.00    -0.463 OA
BRANCH   5   6
ATOM      6  C   UNL A   1      34.043  29.780  27.136  1.00  0.00     0.311 C 
ATOM      7  O   UNL A   1      35.095  29.304  27.550  1.00  0.00    -0.252 OA
BRANCH   6   8
ATOM      8  C   UNL A   1      33.108  28.991  26.250  1.00  0.00     0.123 C 
ATOM      9  C   UNL A   1      33.521  29.041  23.772  1.00  0.00     0.032 C 
ATOM     10  C   UNL A   1      33.743  28.238  25.062  1.00  0.00     0.095 C 
ATOM     11  N   UNL A   1      33.019  26.954  25.026  1.00  0.00    -0.352 N 
ATOM     12  C   UNL A   1      32.428  27.923  27.088  1.00  0.00     0.039 C 
ATOM     13  C   UNL A   1      32.052  26.838  26.099  1.00  0.00     0.119 C 
BRANCH  11  14
ATOM     14  C   UNL A   1      33.360  25.936  24.159  1.00  0.00     0.141 A 
ATOM     15  N   UNL A   1      32.731  25.912  22.952  1.00  0.00    -0.219 NA
ATOM     16  C   UNL A   1      34.312  24.903  24.403  1.00  0.00     0.054 A 
ATOM     17  C   UNL A   1      33.003  24.947  22.063  1.00  0.00     0.225 A 
ATOM     18  C   UNL A   1      34.501  23.982  23.377  1.00  0.00     0.128 A 
ATOM     19  C   UNL A   1      35.166  24.552  25.514  1.00  0.00     0.026 A 
ATOM     20  N   UNL A   1      33.867  23.946  22.197  1.00  0.00    -0.225 NA
ATOM     21  S   UNL A   1      35.680  22.799  23.730  1.00  0.00    -0.124 S 
ATOM     22  C   UNL A   1      35.974  23.465  25.269  1.00  0.00     0.068 A 
ENDBRANCH  11  14
ENDBRANCH   6   8
ENDBRANCH   5   6
ENDBRANCH   4   5
ENDBRANCH   3   4
ENDBRANCH   2   3
ENDBRANCH   1   2
BRANCH   1  23
ATOM     23  C   UNL A   1      36.242  33.717  31.406  1.00  0.00     0.261 C 
BRANCH  23  24
ATOM     24  O   UNL A   1      36.973  32.710  30.684  1.00  0.00    -0.460 OA
BRANCH  24  25
ATOM     25  C   UNL A   1      37.260  31.605  31.410  1.00  0.00     0.338 C 
ATOM     26  O   UNL A   1      36.706  31.242  32.440  1.00  0.00    -0.246 OA
BRANCH  25  27
ATOM     27  C   UNL A   1      38.248  30.755  30.718  1.00  0.00     0.060 A 
ATOM     28  C   UNL A   1      39.242  30.171  31.512  1.00  0.00     0.016 A 
ATOM     29  C   UNL A   1      38.280  30.617  29.327  1.00  0.00     0.016 A 
ATOM     30  C   UNL A   1      40.321  29.527  30.917  1.00  0.00     0.010 A 
ATOM     31  C   UNL A   1      39.370  29.970  28.729  1.00  0.00     0.010 A 
ATOM     32  C   UNL A   1      40.422  29.474  29.521  1.00  0.00    -0.014 A 
BRANCH  32  33
ATOM     33  C   UNL A   1      41.721  29.072  28.924  1.00  0.00     0.031 A 
ATOM     34  C   UNL A   1      42.837  30.083  28.867  1.00  0.00     0.074 A 
ATOM     35  C   UNL A   1      41.938  27.803  28.534  1.00  0.00     0.049 A 
ATOM     36  N   UNL A   1      44.077  29.930  28.478  1.00  0.00    -0.248 NA
ATOM     37  C   UNL A   1      42.513  31.448  29.315  1.00  0.00     0.031 C 
ATOM     38  C   UNL A   1      40.948  26.728  28.569  1.00  0.00     0.029 A 
ATOM     39  N   UNL A   1      43.070  27.202  28.043  1.00  0.00    -0.354 N 
ATOM     40  C   UNL A   1      44.680  31.173  28.636  1.00  0.00     0.074 A 
ATOM     41  C   UNL A   1      43.662  32.079  29.121  1.00  0.00     0.031 C 
ATOM     42  C   UNL A   1      41.518  25.596  28.121  1.00  0.00     0.029 A 
ATOM     43  C   UNL A   1      42.907  25.869  27.757  1.00  0.00     0.049 A 
ATOM     44  H   UNL A   1      43.919  27.683  27.908  1.00  0.00     0.167 HD
ATOM     45  C   UNL A   1      45.969  31.526  28.413  1.00  0.00     0.037 A 
ATOM     46  C   UNL A   1      43.780  24.972  27.257  1.00  0.00     0.037 A 
ATOM     47  C   UNL A   1      46.982  30.623  27.934  1.00  0.00     0.049 A 
ATOM     48  C   UNL A   1      45.199  25.396  26.982  1.00  0.00     0.074 A 
ATOM     49  C   UNL A   1      48.319  30.881  27.686  1.00  0.00     0.029 A 
ATOM     50  N   UNL A   1      46.770  29.288  27.627  1.00  0.00    -0.354 N 
ATOM     51  N   UNL A   1      45.760  26.569  27.161  1.00  0.00    -0.248 NA
ATOM     52  C   UNL A   1      46.107  24.371  26.449  1.00  0.00     0.031 C 
ATOM     53  C   UNL A   1      48.907  29.710  27.193  1.00  0.00     0.029 A 
ATOM     54  C   UNL A   1      47.946  28.712  27.177  1.00  0.00     0.049 A 
ATOM     55  H   UNL A   1      45.909  28.818  27.717  1.00  0.00     0.167 HD
ATOM     56  C   UNL A   1      47.091  26.415  26.787  1.00  0.00     0.074 A 
ATOM     57  C   UNL A   1      47.254  25.033  26.385  1.00  0.00     0.031 C 
ATOM     58  C   UNL A   1      48.091  27.333  26.782  1.00  0.00     0.037 A 
BRANCH  45  59
ATOM     59  C   UNL A   1      46.348  32.958  28.671  1.00  0.00     0.058 A 
ATOM     60  C   UNL A   1      46.256  33.937  27.668  1.00  0.00     0.135 A 
ATOM     61  C   UNL A   1      46.793  33.360  29.940  1.00  0.00     0.135 A 
ATOM     62  F   UNL A   1      45.855  33.602  26.432  1.00  0.00    -0.206 F 
ATOM     63  C   UNL A   1      46.616  35.259  27.909  1.00  0.00     0.059 A 
ATOM     64  C   UNL A   1      47.135  34.682  30.210  1.00  0.00     0.059 A 
ATOM     65  F   UNL A   1      46.903  32.464  30.933  1.00  0.00    -0.206 F 
ATOM     66  C   UNL A   1      47.058  35.622  29.182  1.00  0.00     0.060 A 
BRANCH  66  67
ATOM     67  S   UNL A   1      47.524  37.341  29.481  1.00  0.00     0.124 S 
ATOM     68  O   UNL A   1      46.770  38.030  28.438  1.00  0.00    -0.237 OA
ATOM     69  O   UNL A   1      47.059  37.559  30.847  1.00  0.00    -0.237 OA
ATOM     70  O   UNL A   1      48.973  37.334  29.308  1.00  0.00    -0.744 OA
ENDBRANCH  66  67
ENDBRANCH  45  59
BRANCH  46  71
ATOM     71  C   UNL A   1      43.339  23.578  26.992  1.00  0.00     0.058 A 
ATOM     72  C   UNL A   1      43.172  22.655  28.035  1.00  0.00     0.135 A 
ATOM     73  C   UNL A   1      43.073  23.142  25.684  1.00  0.00     0.135 A 
ATOM     74  F   UNL A   1      43.423  23.021  29.301  1.00  0.00    -0.206 F 
ATOM     75  C   UNL A   1      42.770  21.345  27.791  1.00  0.00     0.059 A 
ATOM     76  C   UNL A   1      42.648  21.845  25.417  1.00  0.00     0.059 A 
ATOM     77  F   UNL A   1      43.208  23.989  24.652  1.00  0.00    -0.206 F 
ATOM     78  C   UNL A   1      42.509  20.950  26.478  1.00  0.00     0.060 A 
BRANCH  78  79
ATOM     79  S   UNL A   1      41.934  19.265  26.175  1.00  0.00     0.124 S 
ATOM     80  O   UNL A   1      42.743  18.880  25.026  1.00  0.00    -0.237 OA
ATOM     81  O   UNL A   1      42.253  18.599  27.434  1.00  0.00    -0.237 OA
ATOM     82  O   UNL A   1      40.508  19.441  25.914  1.00  0.00    -0.744 OA
ENDBRANCH  78  79
ENDBRANCH  46  71
BRANCH  58  83
ATOM     83  C   UNL A   1      49.454  26.863  26.355  1.00  0.00     0.058 A 
ATOM     84  C   UNL A   1      50.327  26.221  27.247  1.00  0.00     0.135 A 
ATOM     85  C   UNL A   1      49.882  27.033  25.028  1.00  0.00     0.135 A 
ATOM     86  F   UNL A   1      49.968  26.035  28.528  1.00  0.00    -0.206 F 
ATOM     87  C   UNL A   1      51.590  25.795  26.849  1.00  0.00     0.059 A 
ATOM     88  C   UNL A   1      51.130  26.592  24.601  1.00  0.00     0.059 A 
ATOM     89  F   UNL A   1      49.080  27.629  24.131  1.00  0.00    -0.206 F 
ATOM     90  C   UNL A   1      51.985  25.991  25.524  1.00  0.00     0.060 A 
BRANCH  90  91
ATOM     91  S   UNL A   1      53.624  25.430  25.013  1.00  0.00     0.124 S 
ATOM     92  O   UNL A   1      54.487  26.223  25.882  1.00  0.00    -0.237 OA
ATOM     93  O   UNL A   1      53.573  24.000  25.303  1.00  0.00    -0.237 OA
ATOM     94  O   UNL A   1      53.672  25.773  23.595  1.00  0.00    -0.744 OA
ENDBRANCH  90  91
ENDBRANCH  58  83
ENDBRANCH  32  33
ENDBRANCH  25  27
ENDBRANCH  24  25
ENDBRANCH  23  24
ENDBRANCH   1  23
TORSDOF 18
ENDMDL
MODEL 2
REMARK VINA RESULT:     -10.7      1.272      2.040
REMARK SMILES C[C@H]1[C@H](C(=O)OCCOCCOC(=O)c2ccc(-c3c4nc(c(-c5c(F)cc(S(=O)(=O)[O-])cc5F)c5ccc([nH]5)c(-c5c(F)cc(S(=O)(=O)[O-])cc5F)c5nc(c(-c6c(F)cc(S(=O)(=O)[O-])cc6F)c6ccc3[nH]6)C=C5)C=C4)cc2)CCN1c1ncnc2sccc12
REMARK SMILES IDX 10 1 9 2 8 3 7 4 6 5 4 6 5 7 3 8 1 9 2 10 83 11 81 12 82 13
REMARK SMILES IDX 84 14 85 15 92 16 86 17 88 18 91 19 87 20 89 21 90 22 11 23
REMARK SMILES IDX 12 24 13 25 14 26 15 27 16 28 80 29 17 30 79 31 18 32 19 33
REMARK SMILES IDX 20 34 73 35 21 36 78 37 72 38 74 39 22 40 77 41 71 42 70 43
REMARK SMILES IDX 23 45 57 46 36 47 56 48 37 49 40 50 55 51 75 52 38 53 39 54
REMARK SMILES IDX 54 56 76 57 41 58 24 59 25 60 34 61 26 62 27 63 33 64 35 65
REMARK SMILES IDX 28 66 29 67 30 68 31 69 32 70 58 71 59 72 68 73 60 74 61 75
REMARK SMILES IDX 67 76 69 77 62 78 63 79 64 80 65 81 66 82 42 83 43 84 52 85
REMARK SMILES IDX 44 86 45 87 51 88 53 89 46 90 47 91 48 92 49 93 50 94
REMARK H PARENT 74 44 40 55
REMARK Flexibility Score: inf
ROOT
ATOM      1  C   UNL A   1      34.376  31.995  28.316  1.00  0.00     0.202 C 
ENDROOT
BRANCH   1   2
ATOM      2  O   UNL A   1      34.276  31.005  27.294  1.00  0.00    -0.374 OA
BRANCH   2   3
ATOM      3  C   UNL A   1      33.118  30.171  27.301  1.00  0.00     0.202 C 
BRANCH   3   4
ATOM      4  C   UNL A   1      32.425  29.961  25.953  1.00  0.00     0.261 C 
BRANCH   4   5
ATOM      5  O   UNL A   1      32.246  28.566  25.641  1.00  0.00    -0.463 OA
BRANCH   5   6
ATOM      6  C   UNL A   1      31.443  28.285  24.584  1.00  0.00     0.311 C 
ATOM      7  O   UNL A   1      31.060  29.103  23.754  1.00  0.00    -0.252 OA
BRANCH   6   8
ATOM      8  C   UNL A   1      30.974  26.849  24.560  1.00  0.00     0.123 C 
ATOM      9  C   UNL A   1      31.551  25.462  22.545  1.00  0.00     0.032 C 
ATOM     10  C   UNL A   1      31.957  25.806  23.987  1.00  0.00     0.095 C 
ATOM     11  N   UNL A   1      31.802  24.642  24.879  1.00  0.00    -0.352 N 
ATOM     12  C   UNL A   1      30.699  26.403  25.984  1.00  0.00     0.039 C 
ATOM     13  C   UNL A   1      30.868  24.897  25.957  1.00  0.00     0.119 C 
BRANCH  11  14
ATOM     14  C   UNL A   1      32.590  23.515  24.769  1.00  0.00     0.141 A 
ATOM     15  N   UNL A   1      31.970  22.355  24.417  1.00  0.00    -0.219 NA
ATOM     16  C   UNL A   1      33.997  23.445  24.987  1.00  0.00     0.054 A 
ATOM     17  C   UNL A   1      32.670  21.219  24.302  1.00  0.00     0.225 A 
ATOM     18  C   UNL A   1      34.589  22.198  24.811  1.00  0.00     0.128 A 
ATOM     19  C   UNL A   1      35.012  24.397  25.374  1.00  0.00     0.026 A 
ATOM     20  N   UNL A   1      33.975  21.052  24.484  1.00  0.00    -0.225 NA
ATOM     21  S   UNL A   1      36.279  22.203  25.054  1.00  0.00    -0.124 S 
ATOM     22  C   UNL A   1      36.283  23.867  25.414  1.00  0.00     0.068 A 
ENDBRANCH  11  14
ENDBRANCH   6   8
ENDBRANCH   5   6
ENDBRANCH   4   5
ENDBRANCH   3   4
ENDBRANCH   2   3
ENDBRANCH   1   2
BRANCH   1  23
ATOM     23  C   UNL A   1      35.390  31.734  29.434  1.00  0.00     0.261 C 
BRANCH  23  24
ATOM     24  O   UNL A   1      35.846  30.370  29.445  1.00  0.00    -0.460 OA
BRANCH  24  25
ATOM     25  C   UNL A   1      36.657  30.064  30.485  1.00  0.00     0.338 C 
ATOM     26  O   UNL A   1      36.311  29.668  31.591  1.00  0.00    -0.246 OA
BRANCH  25  27
ATOM     27  C   UNL A   1      38.076  30.103  30.083  1.00  0.00     0.060 A 
ATOM     28  C   UNL A   1      38.342  30.113  28.708  1.00  0.00     0.016 A 
ATOM     29  C   UNL A   1      39.123  30.018  31.006  1.00  0.00     0.016 A 
ATOM     30  C   UNL A   1      39.643  29.945  28.248  1.00  0.00     0.010 A 
ATOM     31  C   UNL A   1      40.433  29.847  30.540  1.00  0.00     0.010 A 
ATOM     32  C   UNL A   1      40.689  29.752  29.159  1.00  0.00    -0.014 A 
BRANCH  32  33
ATOM     33  C   UNL A   1      41.991  29.263  28.642  1.00  0.00     0.031 A 
ATOM     34  C   UNL A   1      43.158  30.215  28.594  1.00  0.00     0.074 A 
ATOM     35  C   UNL A   1      42.161  27.968  28.316  1.00  0.00     0.049 A 
ATOM     36  N   UNL A   1      44.404  29.987  28.271  1.00  0.00    -0.248 NA
ATOM     37  C   UNL A   1      42.882  31.613  28.968  1.00  0.00     0.031 C 
ATOM     38  C   UNL A   1      41.118  26.945  28.350  1.00  0.00     0.029 A 
ATOM     39  N   UNL A   1      43.283  27.293  27.905  1.00  0.00    -0.354 N 
ATOM     40  C   UNL A   1      45.061  31.205  28.404  1.00  0.00     0.074 A 
ATOM     41  C   UNL A   1      44.069  32.179  28.802  1.00  0.00     0.031 C 
ATOM     42  C   UNL A   1      41.651  25.768  27.978  1.00  0.00     0.029 A 
ATOM     43  C   UNL A   1      43.067  25.957  27.668  1.00  0.00     0.049 A 
ATOM     44  H   UNL A   1      44.160  27.726  27.790  1.00  0.00     0.167 HD
ATOM     45  C   UNL A   1      46.375  31.485  28.228  1.00  0.00     0.037 A 
ATOM     46  C   UNL A   1      43.916  24.999  27.248  1.00  0.00     0.037 A 
ATOM     47  C   UNL A   1      47.362  30.514  27.835  1.00  0.00     0.049 A 
ATOM     48  C   UNL A   1      45.366  25.341  27.022  1.00  0.00     0.074 A 
ATOM     49  C   UNL A   1      48.720  30.697  27.639  1.00  0.00     0.029 A 
ATOM     50  N   UNL A   1      47.097  29.178  27.576  1.00  0.00    -0.354 N 
ATOM     51  N   UNL A   1      45.975  26.493  27.178  1.00  0.00    -0.248 NA
ATOM     52  C   UNL A   1      46.244  24.251  26.577  1.00  0.00     0.031 C 
ATOM     53  C   UNL A   1      49.270  29.478  27.225  1.00  0.00     0.029 A 
ATOM     54  C   UNL A   1      48.262  28.528  27.206  1.00  0.00     0.049 A 
ATOM     55  H   UNL A   1      46.211  28.755  27.645  1.00  0.00     0.167 HD
ATOM     56  C   UNL A   1      47.313  26.259  26.874  1.00  0.00     0.074 A 
ATOM     57  C   UNL A   1      47.425  24.854  26.539  1.00  0.00     0.031 C 
ATOM     58  C   UNL A   1      48.356  27.127  26.877  1.00  0.00     0.037 A 
BRANCH  45  59
ATOM     59  C   UNL A   1      46.813  32.908  28.441  1.00  0.00     0.058 A 
ATOM     60  C   UNL A   1      47.251  33.364  29.695  1.00  0.00     0.135 A 
ATOM     61  C   UNL A   1      46.812  33.822  27.375  1.00  0.00     0.135 A 
ATOM     62  F   UNL A   1      47.253  32.537  30.752  1.00  0.00    -0.206 F 
ATOM     63  C   UNL A   1      47.647  34.683  29.890  1.00  0.00     0.059 A 
ATOM     64  C   UNL A   1      47.228  35.139  27.542  1.00  0.00     0.059 A 
ATOM     65  F   UNL A   1      46.399  33.438  26.157  1.00  0.00    -0.206 F 
ATOM     66  C   UNL A   1      47.629  35.565  28.808  1.00  0.00     0.060 A 
BRANCH  66  67
ATOM     67  S   UNL A   1      48.145  37.275  29.075  1.00  0.00     0.124 S 
ATOM     68  O   UNL A   1      48.511  37.249  30.487  1.00  0.00    -0.237 OA
ATOM     69  O   UNL A   1      49.253  37.418  28.136  1.00  0.00    -0.237 OA
ATOM     70  O   UNL A   1      46.949  38.044  28.750  1.00  0.00    -0.744 OA
ENDBRANCH  66  67
ENDBRANCH  45  59
BRANCH  46  71
ATOM     71  C   UNL A   1      43.418  23.616  27.022  1.00  0.00     0.058 A 
ATOM     72  C   UNL A   1      43.229  22.726  28.088  1.00  0.00     0.135 A 
ATOM     73  C   UNL A   1      43.119  23.160  25.729  1.00  0.00     0.135 A 
ATOM     74  F   UNL A   1      43.511  23.112  29.343  1.00  0.00    -0.206 F 
ATOM     75  C   UNL A   1      42.774  21.427  27.881  1.00  0.00     0.059 A 
ATOM     76  C   UNL A   1      42.641  21.875  25.498  1.00  0.00     0.059 A 
ATOM     77  F   UNL A   1      43.273  23.977  24.675  1.00  0.00    -0.206 F 
ATOM     78  C   UNL A   1      42.481  21.011  26.582  1.00  0.00     0.060 A 
BRANCH  78  79
ATOM     79  S   UNL A   1      41.838  19.343  26.326  1.00  0.00     0.124 S 
ATOM     80  O   UNL A   1      42.550  18.935  25.121  1.00  0.00    -0.237 OA
ATOM     81  O   UNL A   1      42.231  18.669  27.560  1.00  0.00    -0.237 OA
ATOM     82  O   UNL A   1      40.403  19.559  26.170  1.00  0.00    -0.744 OA
ENDBRANCH  78  79
ENDBRANCH  46  71
BRANCH  58  83
ATOM     83  C   UNL A   1      49.712  26.574  26.535  1.00  0.00     0.058 A 
ATOM     84  C   UNL A   1      50.567  26.055  27.520  1.00  0.00     0.135 A 
ATOM     85  C   UNL A   1      50.150  26.537  25.201  1.00  0.00     0.135 A 
ATOM     86  F   UNL A   1      50.198  26.068  28.811  1.00  0.00    -0.206 F 
ATOM     87  C   UNL A   1      51.824  25.551  27.199  1.00  0.00     0.059 A 
ATOM     88  C   UNL A   1      51.391  26.015  24.854  1.00  0.00     0.059 A 
ATOM     89  F   UNL A   1      49.364  27.008  24.219  1.00  0.00    -0.206 F 
ATOM     90  C   UNL A   1      52.229  25.541  25.862  1.00  0.00     0.060 A 
BRANCH  90  91
ATOM     91  S   UNL A   1      53.860  24.880  25.453  1.00  0.00     0.124 S 
ATOM     92  O   UNL A   1      54.577  25.077  26.708  1.00  0.00    -0.237 OA
ATOM     93  O   UNL A   1      53.560  23.495  25.103  1.00  0.00    -0.237 OA
ATOM     94  O   UNL A   1      54.295  25.720  24.341  1.00  0.00    -0.744 OA
ENDBRANCH  90  91
ENDBRANCH  58  83
ENDBRANCH  32  33
ENDBRANCH  25  27
ENDBRANCH  24  25
ENDBRANCH  23  24
ENDBRANCH   1  23
TORSDOF 18
ENDMDL
MODEL 3
REMARK VINA RESULT:     -10.7      6.043     12.131
REMARK SMILES C[C@H]1[C@H](C(=O)OCCOCCOC(=O)c2ccc(-c3c4nc(c(-c5c(F)cc(S(=O)(=O)[O-])cc5F)c5ccc([nH]5)c(-c5c(F)cc(S(=O)(=O)[O-])cc5F)c5nc(c(-c6c(F)cc(S(=O)(=O)[O-])cc6F)c6ccc3[nH]6)C=C5)C=C4)cc2)CCN1c1ncnc2sccc12
REMARK SMILES IDX 10 1 9 2 8 3 7 4 6 5 4 6 5 7 3 8 1 9 2 10 83 11 81 12 82 13
REMARK SMILES IDX 84 14 85 15 92 16 86 17 88 18 91 19 87 20 89 21 90 22 11 23
REMARK SMILES IDX 12 24 13 25 14 26 15 27 16 28 80 29 17 30 79 31 18 32 19 33
REMARK SMILES IDX 20 34 73 35 21 36 78 37 72 38 74 39 22 40 77 41 71 42 70 43
REMARK SMILES IDX 23 45 57 46 36 47 56 48 37 49 40 50 55 51 75 52 38 53 39 54
REMARK SMILES IDX 54 56 76 57 41 58 24 59 25 60 34 61 26 62 27 63 33 64 35 65
REMARK SMILES IDX 28 66 29 67 30 68 31 69 32 70 58 71 59 72 68 73 60 74 61 75
REMARK SMILES IDX 67 76 69 77 62 78 63 79 64 80 65 81 66 82 42 83 43 84 52 85
REMARK SMILES IDX 44 86 45 87 51 88 53 89 46 90 47 91 48 92 49 93 50 94
REMARK H PARENT 74 44 40 55
REMARK Flexibility Score: inf
ROOT
ATOM      1  C   UNL A   1      41.914  21.864  27.788  1.00  0.00     0.202 C 
ENDROOT
BRANCH   1   2
ATOM      2  O   UNL A   1      40.543  21.515  27.605  1.00  0.00    -0.374 OA
BRANCH   2   3
ATOM      3  C   UNL A   1      40.186  20.892  26.372  1.00  0.00     0.202 C 
BRANCH   3   4
ATOM      4  C   UNL A   1      38.726  21.041  25.936  1.00  0.00     0.261 C 
BRANCH   4   5
ATOM      5  O   UNL A   1      38.501  22.246  25.180  1.00  0.00    -0.463 OA
BRANCH   5   6
ATOM      6  C   UNL A   1      37.607  23.124  25.702  1.00  0.00     0.311 C 
ATOM      7  O   UNL A   1      37.883  24.037  26.472  1.00  0.00    -0.252 OA
BRANCH   6   8
ATOM      8  C   UNL A   1      36.180  22.820  25.308  1.00  0.00     0.123 C 
ATOM      9  C   UNL A   1      34.541  22.308  27.143  1.00  0.00     0.032 C 
ATOM     10  C   UNL A   1      35.070  23.406  26.207  1.00  0.00     0.095 C 
ATOM     11  N   UNL A   1      34.033  23.843  25.254  1.00  0.00    -0.352 N 
ATOM     12  C   UNL A   1      35.924  23.394  23.926  1.00  0.00     0.039 C 
ATOM     13  C   UNL A   1      34.426  23.628  23.877  1.00  0.00     0.119 C 
BRANCH  11  14
ATOM     14  C   UNL A   1      32.900  24.522  25.654  1.00  0.00     0.141 A 
ATOM     15  N   UNL A   1      31.743  23.810  25.729  1.00  0.00    -0.219 NA
ATOM     16  C   UNL A   1      32.823  25.904  25.997  1.00  0.00     0.054 A 
ATOM     17  C   UNL A   1      30.601  24.406  26.099  1.00  0.00     0.225 A 
ATOM     18  C   UNL A   1      31.572  26.377  26.381  1.00  0.00     0.128 A 
ATOM     19  C   UNL A   1      33.771  26.993  26.040  1.00  0.00     0.026 A 
ATOM     20  N   UNL A   1      30.428  25.680  26.436  1.00  0.00    -0.225 NA
ATOM     21  S   UNL A   1      31.568  28.028  26.812  1.00  0.00    -0.124 S 
ATOM     22  C   UNL A   1      33.233  28.178  26.492  1.00  0.00     0.068 A 
ENDBRANCH  11  14
ENDBRANCH   6   8
ENDBRANCH   5   6
ENDBRANCH   4   5
ENDBRANCH   3   4
ENDBRANCH   2   3
ENDBRANCH   1   2
BRANCH   1  23
ATOM     23  C   UNL A   1      42.620  22.537  26.606  1.00  0.00     0.261 C 
BRANCH  23  24
ATOM     24  O   UNL A   1      42.122  23.865  26.362  1.00  0.00    -0.460 OA
BRANCH  24  25
ATOM     25  C   UNL A   1      42.960  24.852  26.754  1.00  0.00     0.338 C 
ATOM     26  O   UNL A   1      44.124  25.005  26.405  1.00  0.00    -0.246 OA
BRANCH  25  27
ATOM     27  C   UNL A   1      42.250  25.867  27.556  1.00  0.00     0.060 A 
ATOM     28  C   UNL A   1      42.890  27.101  27.722  1.00  0.00     0.016 A 
ATOM     29  C   UNL A   1      41.053  25.595  28.226  1.00  0.00     0.016 A 
ATOM     30  C   UNL A   1      42.389  28.031  28.624  1.00  0.00     0.010 A 
ATOM     31  C   UNL A   1      40.550  26.534  29.137  1.00  0.00     0.010 A 
ATOM     32  C   UNL A   1      41.249  27.730  29.381  1.00  0.00    -0.014 A 
BRANCH  32  33
ATOM     33  C   UNL A   1      40.930  28.593  30.546  1.00  0.00     0.031 A 
ATOM     34  C   UNL A   1      41.782  28.485  31.784  1.00  0.00     0.074 A 
ATOM     35  C   UNL A   1      39.965  29.527  30.469  1.00  0.00     0.049 A 
ATOM     36  N   UNL A   1      41.748  29.198  32.881  1.00  0.00    -0.248 NA
ATOM     37  C   UNL A   1      42.814  27.435  31.783  1.00  0.00     0.031 C 
ATOM     38  C   UNL A   1      39.096  29.750  29.315  1.00  0.00     0.029 A 
ATOM     39  N   UNL A   1      39.566  30.474  31.379  1.00  0.00    -0.354 N 
ATOM     40  C   UNL A   1      42.751  28.688  33.696  1.00  0.00     0.074 A 
ATOM     41  C   UNL A   1      43.354  27.581  32.985  1.00  0.00     0.031 C 
ATOM     42  C   UNL A   1      38.265  30.772  29.585  1.00  0.00     0.029 A 
ATOM     43  C   UNL A   1      38.536  31.267  30.934  1.00  0.00     0.049 A 
ATOM     44  H   UNL A   1      39.979  30.574  32.267  1.00  0.00     0.167 HD
ATOM     45  C   UNL A   1      43.149  29.112  34.920  1.00  0.00     0.037 A 
ATOM     46  C   UNL A   1      37.887  32.277  31.547  1.00  0.00     0.037 A 
ATOM     47  C   UNL A   1      42.552  30.216  35.625  1.00  0.00     0.049 A 
ATOM     48  C   UNL A   1      38.322  32.708  32.923  1.00  0.00     0.074 A 
ATOM     49  C   UNL A   1      42.889  30.729  36.866  1.00  0.00     0.029 A 
ATOM     50  N   UNL A   1      41.492  30.974  35.154  1.00  0.00    -0.354 N 
ATOM     51  N   UNL A   1      39.290  32.232  33.670  1.00  0.00    -0.248 NA
ATOM     52  C   UNL A   1      37.584  33.823  33.534  1.00  0.00     0.031 C 
ATOM     53  C   UNL A   1      42.008  31.776  37.160  1.00  0.00     0.029 A 
ATOM     54  C   UNL A   1      41.151  31.942  36.084  1.00  0.00     0.049 A 
ATOM     55  H   UNL A   1      41.047  30.845  34.285  1.00  0.00     0.167 HD
ATOM     56  C   UNL A   1      39.294  33.005  34.827  1.00  0.00     0.074 A 
ATOM     57  C   UNL A   1      38.240  33.987  34.675  1.00  0.00     0.031 C 
ATOM     58  C   UNL A   1      40.099  32.914  35.915  1.00  0.00     0.037 A 
BRANCH  45  59
ATOM     59  C   UNL A   1      44.274  28.363  35.580  1.00  0.00     0.058 A 
ATOM     60  C   UNL A   1      45.614  28.755  35.422  1.00  0.00     0.135 A 
ATOM     61  C   UNL A   1      44.009  27.251  36.394  1.00  0.00     0.135 A 
ATOM     62  F   UNL A   1      45.923  29.800  34.639  1.00  0.00    -0.206 F 
ATOM     63  C   UNL A   1      46.651  28.055  36.028  1.00  0.00     0.059 A 
ATOM     64  C   UNL A   1      45.030  26.550  37.029  1.00  0.00     0.059 A 
ATOM     65  F   UNL A   1      42.746  26.832  36.575  1.00  0.00    -0.206 F 
ATOM     66  C   UNL A   1      46.350  26.951  36.827  1.00  0.00     0.060 A 
BRANCH  66  67
ATOM     67  S   UNL A   1      47.707  26.049  37.606  1.00  0.00     0.124 S 
ATOM     68  O   UNL A   1      46.998  24.929  38.215  1.00  0.00    -0.237 OA
ATOM     69  O   UNL A   1      48.557  25.716  36.468  1.00  0.00    -0.237 OA
ATOM     70  O   UNL A   1      48.267  27.020  38.540  1.00  0.00    -0.744 OA
ENDBRANCH  66  67
ENDBRANCH  45  59
BRANCH  46  71
ATOM     71  C   UNL A   1      36.761  32.959  30.858  1.00  0.00     0.058 A 
ATOM     72  C   UNL A   1      35.428  32.698  31.207  1.00  0.00     0.135 A 
ATOM     73  C   UNL A   1      36.998  33.891  29.835  1.00  0.00     0.135 A 
ATOM     74  F   UNL A   1      35.149  31.807  32.171  1.00  0.00    -0.206 F 
ATOM     75  C   UNL A   1      34.368  33.325  30.558  1.00  0.00     0.059 A 
ATOM     76  C   UNL A   1      35.958  34.548  29.188  1.00  0.00     0.059 A 
ATOM     77  F   UNL A   1      38.257  34.184  29.472  1.00  0.00    -0.206 F 
ATOM     78  C   UNL A   1      34.644  34.251  29.550  1.00  0.00     0.060 A 
BRANCH  78  79
ATOM     79  S   UNL A   1      33.267  35.102  28.750  1.00  0.00     0.124 S 
ATOM     80  O   UNL A   1      32.484  35.540  29.900  1.00  0.00    -0.237 OA
ATOM     81  O   UNL A   1      33.947  36.155  28.002  1.00  0.00    -0.237 OA
ATOM     82  O   UNL A   1      32.658  34.057  27.932  1.00  0.00    -0.744 OA
ENDBRANCH  78  79
ENDBRANCH  46  71
BRANCH  58  83
ATOM     83  C   UNL A   1      39.890  33.921  37.013  1.00  0.00     0.058 A 
ATOM     84  C   UNL A   1      39.032  33.667  38.093  1.00  0.00     0.135 A 
ATOM     85  C   UNL A   1      40.581  35.143  36.997  1.00  0.00     0.135 A 
ATOM     86  F   UNL A   1      38.346  32.515  38.156  1.00  0.00    -0.206 F 
ATOM     87  C   UNL A   1      38.837  34.606  39.103  1.00  0.00     0.059 A 
ATOM     88  C   UNL A   1      40.422  36.085  38.008  1.00  0.00     0.059 A 
ATOM     89  F   UNL A   1      41.426  35.429  35.992  1.00  0.00    -0.206 F 
ATOM     90  C   UNL A   1      39.534  35.815  39.048  1.00  0.00     0.060 A 
BRANCH  90  91
ATOM     91  S   UNL A   1      39.280  37.025  40.364  1.00  0.00     0.124 S 
ATOM     92  O   UNL A   1      40.655  37.383  40.700  1.00  0.00    -0.237 OA
ATOM     93  O   UNL A   1      38.501  38.062  39.694  1.00  0.00    -0.237 OA
ATOM     94  O   UNL A   1      38.559  36.269  41.384  1.00  0.00    -0.744 OA
ENDBRANCH  90  91
ENDBRANCH  58  83
ENDBRANCH  32  33
ENDBRANCH  25  27
ENDBRANCH  24  25
ENDBRANCH  23  24
ENDBRANCH   1  23
TORSDOF 18
ENDMDL
