MODEL 1
REMARK VINA RESULT:     -12.2      0.000      0.000
REMARK SMILES Cc1nc(-c2ccccc2)sc1C(=O)N[C@@H](CC1=c2ccccc2=NC1)C(=O)OCCOCCOC(=O)c1ccc(-c2c3nc(c(-c4c(F)cc(S(=O)(=O)[O-])cc4F)c4ccc([nH]4)c(-c4c(F)cc(S(=O)(=O)[O-])cc4F)c4nc(c(-c5c(F)cc(S(=O)(=O)[O-])cc5F)c5ccc2[nH]5)C=C4)C=C3)cc1
REMARK SMILES IDX 32 1 31 2 30 3 29 4 27 5 28 6 16 7 15 8 13 9 14 10 12 12
REMARK SMILES IDX 1 13 2 14 3 15 4 16 11 17 5 18 6 19 10 20 7 21 9 22 8 23
REMARK SMILES IDX 17 24 18 25 19 26 26 27 20 28 24 29 25 30 21 31 23 32 22 33
REMARK SMILES IDX 33 34 34 35 35 36 36 37 37 38 38 39 39 40 103 41 40 42
REMARK SMILES IDX 102 43 41 44 42 45 43 46 96 47 44 48 101 49 95 50 97 51
REMARK SMILES IDX 45 52 100 53 94 54 93 55 46 57 80 58 59 59 79 60 60 61 63 62
REMARK SMILES IDX 78 63 98 64 61 65 62 66 77 68 99 69 64 70 47 71 48 72 57 73
REMARK SMILES IDX 49 74 50 75 56 76 58 77 51 78 52 79 53 80 54 81 55 82 81 83
REMARK SMILES IDX 82 84 91 85 83 86 84 87 90 88 92 89 85 90 86 91 87 92 88 93
REMARK SMILES IDX 89 94 65 95 66 96 75 97 67 98 68 99 74 100 76 101 69 102
REMARK SMILES IDX 70 103 71 104 72 105 73 106
REMARK H PARENT 15 11 97 56 63 67
REMARK Flexibility Score: inf
ROOT
ATOM      1  O   UNL A   1      38.063  22.247  25.605  1.00  0.00    -0.374 OA
ENDROOT
BRANCH   1   2
ATOM      2  C   UNL A   1      37.219  21.914  24.506  1.00  0.00     0.202 C 
BRANCH   2   3
ATOM      3  C   UNL A   1      36.683  23.082  23.666  1.00  0.00     0.261 C 
BRANCH   3   4
ATOM      4  O   UNL A   1      35.248  23.117  23.630  1.00  0.00    -0.462 OA
BRANCH   4   5
ATOM      5  C   UNL A   1      34.690  24.266  24.090  1.00  0.00     0.329 C 
ATOM      6  O   UNL A   1      34.925  24.778  25.180  1.00  0.00    -0.250 OA
BRANCH   5   7
ATOM      7  C   UNL A   1      33.739  24.919  23.080  1.00  0.00     0.196 C 
BRANCH   7   8
ATOM      8  N   UNL A   1      32.307  24.702  23.246  1.00  0.00    -0.338 N 
ATOM      9  C   UNL A   1      31.534  23.659  23.693  1.00  0.00     0.264 C 
ATOM     10  O   UNL A   1      30.330  23.857  23.483  1.00  0.00    -0.268 OA
ATOM     11  H   UNL A   1      31.771  25.483  22.976  1.00  0.00     0.164 HD
BRANCH   9  12
ATOM     12  C   UNL A   1      32.004  22.451  24.386  1.00  0.00     0.115 A 
ATOM     13  C   UNL A   1      32.406  22.694  26.995  1.00  0.00     0.068 C 
ATOM     14  C   UNL A   1      32.329  22.019  25.675  1.00  0.00     0.062 A 
ATOM     15  N   UNL A   1      32.633  20.670  25.791  1.00  0.00    -0.241 NA
ATOM     16  C   UNL A   1      32.615  20.062  24.636  1.00  0.00     0.124 A 
ATOM     17  S   UNL A   1      32.233  21.055  23.316  1.00  0.00    -0.108 S 
BRANCH  16  18
ATOM     18  C   UNL A   1      32.877  18.631  24.513  1.00  0.00     0.010 A 
ATOM     19  C   UNL A   1      32.666  17.807  25.630  1.00  0.00     0.011 A 
ATOM     20  C   UNL A   1      33.497  18.097  23.378  1.00  0.00     0.011 A 
ATOM     21  C   UNL A   1      33.082  16.476  25.618  1.00  0.00     0.001 A 
ATOM     22  C   UNL A   1      33.920  16.765  23.372  1.00  0.00     0.001 A 
ATOM     23  C   UNL A   1      33.719  15.959  24.493  1.00  0.00     0.000 A 
ENDBRANCH  16  18
ENDBRANCH   9  12
ENDBRANCH   7   8
BRANCH   7  24
ATOM     24  C   UNL A   1      34.057  26.414  22.912  1.00  0.00     0.070 C 
BRANCH  24  25
ATOM     25  C   UNL A   1      33.037  27.299  23.557  1.00  0.00    -0.037 C 
ATOM     26  C   UNL A   1      33.066  27.850  24.767  1.00  0.00     0.001 A 
ATOM     27  C   UNL A   1      31.795  27.714  22.818  1.00  0.00     0.174 C 
ATOM     28  C   UNL A   1      33.963  27.816  25.877  1.00  0.00     0.010 A 
ATOM     29  C   UNL A   1      31.873  28.712  24.759  1.00  0.00     0.065 A 
ATOM     30  N   UNL A   1      31.118  28.682  23.705  1.00  0.00    -0.280 NA
ATOM     31  C   UNL A   1      33.714  28.615  26.928  1.00  0.00     0.001 A 
ATOM     32  C   UNL A   1      31.671  29.566  25.947  1.00  0.00     0.028 A 
ATOM     33  C   UNL A   1      32.563  29.503  26.950  1.00  0.00     0.002 A 
ENDBRANCH  24  25
ENDBRANCH   7  24
ENDBRANCH   5   7
ENDBRANCH   4   5
ENDBRANCH   3   4
ENDBRANCH   2   3
ENDBRANCH   1   2
BRANCH   1  34
ATOM     34  C   UNL A   1      39.149  21.362  25.898  1.00  0.00     0.202 C 
BRANCH  34  35
ATOM     35  C   UNL A   1      40.401  21.957  26.560  1.00  0.00     0.261 C 
BRANCH  35  36
ATOM     36  O   UNL A   1      40.142  23.192  27.261  1.00  0.00    -0.460 OA
BRANCH  36  37
ATOM     37  C   UNL A   1      41.074  24.154  27.064  1.00  0.00     0.338 C 
ATOM     38  O   UNL A   1      42.029  24.110  26.294  1.00  0.00    -0.246 OA
BRANCH  37  39
ATOM     39  C   UNL A   1      40.732  25.385  27.795  1.00  0.00     0.060 A 
ATOM     40  C   UNL A   1      41.715  26.376  27.918  1.00  0.00     0.016 A 
ATOM     41  C   UNL A   1      39.535  25.483  28.505  1.00  0.00     0.016 A 
ATOM     42  C   UNL A   1      41.517  27.451  28.783  1.00  0.00     0.010 A 
ATOM     43  C   UNL A   1      39.343  26.558  29.381  1.00  0.00     0.010 A 
ATOM     44  C   UNL A   1      40.347  27.527  29.552  1.00  0.00    -0.014 A 
BRANCH  44  45
ATOM     45  C   UNL A   1      40.243  28.548  30.627  1.00  0.00     0.031 A 
ATOM     46  C   UNL A   1      41.153  28.457  31.823  1.00  0.00     0.074 A 
ATOM     47  C   UNL A   1      39.372  29.567  30.521  1.00  0.00     0.049 A 
ATOM     48  N   UNL A   1      41.222  29.235  32.874  1.00  0.00    -0.248 NA
ATOM     49  C   UNL A   1      42.115  27.343  31.836  1.00  0.00     0.031 C 
ATOM     50  C   UNL A   1      38.464  29.786  29.396  1.00  0.00     0.029 A 
ATOM     51  N   UNL A   1      39.110  30.610  31.374  1.00  0.00    -0.354 N 
ATOM     52  C   UNL A   1      42.229  28.706  33.673  1.00  0.00     0.074 A 
ATOM     53  C   UNL A   1      42.727  27.526  32.997  1.00  0.00     0.031 C 
ATOM     54  C   UNL A   1      37.739  30.893  29.631  1.00  0.00     0.029 A 
ATOM     55  C   UNL A   1      38.114  31.445  30.933  1.00  0.00     0.049 A 
ATOM     56  H   UNL A   1      39.592  30.746  32.222  1.00  0.00     0.167 HD
ATOM     57  C   UNL A   1      42.701  29.164  34.858  1.00  0.00     0.037 A 
ATOM     58  C   UNL A   1      37.553  32.522  31.520  1.00  0.00     0.037 A 
ATOM     59  C   UNL A   1      42.204  30.335  35.532  1.00  0.00     0.049 A 
ATOM     60  C   UNL A   1      38.050  32.976  32.867  1.00  0.00     0.074 A 
ATOM     61  C   UNL A   1      42.627  30.885  36.729  1.00  0.00     0.029 A 
ATOM     62  N   UNL A   1      41.167  31.133  35.071  1.00  0.00    -0.354 N 
ATOM     63  N   UNL A   1      39.013  32.475  33.603  1.00  0.00    -0.248 NA
ATOM     64  C   UNL A   1      37.382  34.141  33.464  1.00  0.00     0.031 C 
ATOM     65  C   UNL A   1      41.819  31.994  37.012  1.00  0.00     0.029 A 
ATOM     66  C   UNL A   1      40.920  32.157  35.971  1.00  0.00     0.049 A 
ATOM     67  H   UNL A   1      40.677  30.991  34.229  1.00  0.00     0.167 HD
ATOM     68  C   UNL A   1      39.079  33.273  34.741  1.00  0.00     0.074 A 
ATOM     69  C   UNL A   1      38.064  34.297  34.591  1.00  0.00     0.031 C 
ATOM     70  C   UNL A   1      39.904  33.168  35.812  1.00  0.00     0.037 A 
BRANCH  57  71
ATOM     71  C   UNL A   1      43.800  28.375  35.515  1.00  0.00     0.058 A 
ATOM     72  C   UNL A   1      43.524  27.355  36.438  1.00  0.00     0.135 A 
ATOM     73  C   UNL A   1      45.145  28.633  35.205  1.00  0.00     0.135 A 
ATOM     74  F   UNL A   1      42.255  27.079  36.782  1.00  0.00    -0.206 F 
ATOM     75  C   UNL A   1      44.544  26.636  37.054  1.00  0.00     0.059 A 
ATOM     76  C   UNL A   1      46.180  27.911  35.792  1.00  0.00     0.059 A 
ATOM     77  F   UNL A   1      45.464  29.597  34.327  1.00  0.00    -0.206 F 
ATOM     78  C   UNL A   1      45.870  26.927  36.729  1.00  0.00     0.060 A 
BRANCH  78  79
ATOM     79  S   UNL A   1      47.187  25.999  37.546  1.00  0.00     0.124 S 
ATOM     80  O   UNL A   1      47.035  24.683  36.934  1.00  0.00    -0.237 OA
ATOM     81  O   UNL A   1      48.383  26.742  37.160  1.00  0.00    -0.237 OA
ATOM     82  O   UNL A   1      46.833  26.079  38.959  1.00  0.00    -0.744 OA
ENDBRANCH  78  79
ENDBRANCH  57  71
BRANCH  58  83
ATOM     83  C   UNL A   1      36.448  33.241  30.836  1.00  0.00     0.058 A 
ATOM     84  C   UNL A   1      35.130  33.158  31.307  1.00  0.00     0.135 A 
ATOM     85  C   UNL A   1      36.692  34.037  29.707  1.00  0.00     0.135 A 
ATOM     86  F   UNL A   1      34.846  32.398  32.376  1.00  0.00    -0.206 F 
ATOM     87  C   UNL A   1      34.090  33.837  30.679  1.00  0.00     0.059 A 
ATOM     88  C   UNL A   1      35.672  34.743  29.075  1.00  0.00     0.059 A 
ATOM     89  F   UNL A   1      37.938  34.151  29.221  1.00  0.00    -0.206 F 
ATOM     90  C   UNL A   1      34.372  34.630  29.566  1.00  0.00     0.060 A 
BRANCH  90  91
ATOM     91  S   UNL A   1      33.026  35.555  28.794  1.00  0.00     0.124 S 
ATOM     92  O   UNL A   1      33.755  36.619  28.113  1.00  0.00    -0.237 OA
ATOM     93  O   UNL A   1      32.413  34.548  27.934  1.00  0.00    -0.237 OA
ATOM     94  O   UNL A   1      32.212  35.976  29.931  1.00  0.00    -0.744 OA
ENDBRANCH  90  91
ENDBRANCH  58  83
BRANCH  70  95
ATOM     95  C   UNL A   1      39.761  34.195  36.899  1.00  0.00     0.058 A 
ATOM     96  C   UNL A   1      39.053  33.922  38.079  1.00  0.00     0.135 A 
ATOM     97  C   UNL A   1      40.381  35.450  36.781  1.00  0.00     0.135 A 
ATOM     98  F   UNL A   1      38.437  32.739  38.238  1.00  0.00    -0.206 F 
ATOM     99  C   UNL A   1      38.948  34.863  39.098  1.00  0.00     0.059 A 
ATOM    100  C   UNL A   1      40.308  36.399  37.797  1.00  0.00     0.059 A 
ATOM    101  F   UNL A   1      41.080  35.758  35.677  1.00  0.00    -0.206 F 
ATOM    102  C   UNL A   1      39.579  36.100  38.948  1.00  0.00     0.060 A 
BRANCH 102 103
ATOM    103  S   UNL A   1      39.466  37.303  40.291  1.00  0.00     0.124 S 
ATOM    104  O   UNL A   1      38.693  36.563  41.283  1.00  0.00    -0.237 OA
ATOM    105  O   UNL A   1      40.868  37.536  40.624  1.00  0.00    -0.237 OA
ATOM    106  O   UNL A   1      38.779  38.434  39.675  1.00  0.00    -0.744 OA
ENDBRANCH 102 103
ENDBRANCH  70  95
ENDBRANCH  44  45
ENDBRANCH  37  39
ENDBRANCH  36  37
ENDBRANCH  35  36
ENDBRANCH  34  35
ENDBRANCH   1  34
TORSDOF 22
ENDMDL
MODEL 2
REMARK VINA RESULT:     -11.3      1.745      8.743
REMARK SMILES Cc1nc(-c2ccccc2)sc1C(=O)N[C@@H](CC1=c2ccccc2=NC1)C(=O)OCCOCCOC(=O)c1ccc(-c2c3nc(c(-c4c(F)cc(S(=O)(=O)[O-])cc4F)c4ccc([nH]4)c(-c4c(F)cc(S(=O)(=O)[O-])cc4F)c4nc(c(-c5c(F)cc(S(=O)(=O)[O-])cc5F)c5ccc2[nH]5)C=C4)C=C3)cc1
REMARK SMILES IDX 32 1 31 2 30 3 29 4 27 5 28 6 16 7 15 8 13 9 14 10 12 12
REMARK SMILES IDX 1 13 2 14 3 15 4 16 11 17 5 18 6 19 10 20 7 21 9 22 8 23
REMARK SMILES IDX 17 24 18 25 19 26 26 27 20 28 24 29 25 30 21 31 23 32 22 33
REMARK SMILES IDX 33 34 34 35 35 36 36 37 37 38 38 39 39 40 103 41 40 42
REMARK SMILES IDX 102 43 41 44 42 45 43 46 96 47 44 48 101 49 95 50 97 51
REMARK SMILES IDX 45 52 100 53 94 54 93 55 46 57 80 58 59 59 79 60 60 61 63 62
REMARK SMILES IDX 78 63 98 64 61 65 62 66 77 68 99 69 64 70 47 71 48 72 57 73
REMARK SMILES IDX 49 74 50 75 56 76 58 77 51 78 52 79 53 80 54 81 55 82 81 83
REMARK SMILES IDX 82 84 91 85 83 86 84 87 90 88 92 89 85 90 86 91 87 92 88 93
REMARK SMILES IDX 89 94 65 95 66 96 75 97 67 98 68 99 74 100 76 101 69 102
REMARK SMILES IDX 70 103 71 104 72 105 73 106
REMARK H PARENT 15 11 97 56 63 67
REMARK Flexibility Score: inf
ROOT
ATOM      1  O   UNL A   1      41.709  21.164  26.634  1.00  0.00    -0.374 OA
ENDROOT
BRANCH   1   2
ATOM      2  C   UNL A   1      40.464  21.023  25.952  1.00  0.00     0.202 C 
BRANCH   2   3
ATOM      3  C   UNL A   1      39.280  21.830  26.502  1.00  0.00     0.261 C 
BRANCH   3   4
ATOM      4  O   UNL A   1      38.153  21.821  25.611  1.00  0.00    -0.462 OA
BRANCH   4   5
ATOM      5  C   UNL A   1      37.448  22.980  25.566  1.00  0.00     0.329 C 
ATOM      6  O   UNL A   1      37.919  24.100  25.740  1.00  0.00    -0.250 OA
BRANCH   5   7
ATOM      7  C   UNL A   1      35.968  22.771  25.225  1.00  0.00     0.196 C 
BRANCH   7   8
ATOM      8  N   UNL A   1      35.558  22.905  23.832  1.00  0.00    -0.338 N 
ATOM      9  C   UNL A   1      34.566  23.594  23.181  1.00  0.00     0.264 C 
ATOM     10  O   UNL A   1      34.480  23.260  21.991  1.00  0.00    -0.268 OA
ATOM     11  H   UNL A   1      36.122  22.382  23.219  1.00  0.00     0.164 HD
BRANCH   9  12
ATOM     12  C   UNL A   1      33.706  24.644  23.747  1.00  0.00     0.115 A 
ATOM     13  C   UNL A   1      34.755  26.055  25.732  1.00  0.00     0.068 C 
ATOM     14  C   UNL A   1      33.748  25.646  24.722  1.00  0.00     0.062 A 
ATOM     15  N   UNL A   1      32.632  26.469  24.774  1.00  0.00    -0.241 NA
ATOM     16  C   UNL A   1      31.712  26.105  23.923  1.00  0.00     0.124 A 
ATOM     17  S   UNL A   1      32.105  24.745  22.991  1.00  0.00    -0.108 S 
BRANCH  16  18
ATOM     18  C   UNL A   1      30.459  26.840  23.780  1.00  0.00     0.010 A 
ATOM     19  C   UNL A   1      29.264  26.222  24.179  1.00  0.00     0.011 A 
ATOM     20  C   UNL A   1      30.401  28.059  23.093  1.00  0.00     0.011 A 
ATOM     21  C   UNL A   1      28.030  26.805  23.886  1.00  0.00     0.001 A 
ATOM     22  C   UNL A   1      29.164  28.636  22.793  1.00  0.00     0.001 A 
ATOM     23  C   UNL A   1      27.982  28.006  23.183  1.00  0.00     0.000 A 
ENDBRANCH  16  18
ENDBRANCH   9  12
ENDBRANCH   7   8
BRANCH   7  24
ATOM     24  C   UNL A   1      35.444  21.460  25.832  1.00  0.00     0.070 C 
BRANCH  24  25
ATOM     25  C   UNL A   1      33.966  21.293  25.664  1.00  0.00    -0.037 C 
ATOM     26  C   UNL A   1      32.987  22.048  26.156  1.00  0.00     0.001 A 
ATOM     27  C   UNL A   1      33.403  20.184  24.819  1.00  0.00     0.174 C 
ATOM     28  C   UNL A   1      32.917  23.198  26.998  1.00  0.00     0.010 A 
ATOM     29  C   UNL A   1      31.787  21.470  25.530  1.00  0.00     0.065 A 
ATOM     30  N   UNL A   1      31.947  20.427  24.776  1.00  0.00    -0.280 NA
ATOM     31  C   UNL A   1      31.721  23.775  27.199  1.00  0.00     0.001 A 
ATOM     32  C   UNL A   1      30.510  22.163  25.792  1.00  0.00     0.028 A 
ATOM     33  C   UNL A   1      30.514  23.254  26.577  1.00  0.00     0.002 A 
ENDBRANCH  24  25
ENDBRANCH   7  24
ENDBRANCH   5   7
ENDBRANCH   4   5
ENDBRANCH   3   4
ENDBRANCH   2   3
ENDBRANCH   1   2
BRANCH   1  34
ATOM     34  C   UNL A   1      42.785  21.786  25.925  1.00  0.00     0.202 C 
BRANCH  34  35
ATOM     35  C   UNL A   1      42.560  23.203  25.376  1.00  0.00     0.261 C 
BRANCH  35  36
ATOM     36  O   UNL A   1      41.930  24.088  26.327  1.00  0.00    -0.460 OA
BRANCH  36  37
ATOM     37  C   UNL A   1      42.140  25.405  26.091  1.00  0.00     0.338 C 
ATOM     38  O   UNL A   1      42.104  25.975  25.005  1.00  0.00    -0.246 OA
BRANCH  37  39
ATOM     39  C   UNL A   1      42.280  26.156  27.349  1.00  0.00     0.060 A 
ATOM     40  C   UNL A   1      41.737  25.600  28.514  1.00  0.00     0.016 A 
ATOM     41  C   UNL A   1      42.768  27.464  27.348  1.00  0.00     0.016 A 
ATOM     42  C   UNL A   1      41.645  26.367  29.675  1.00  0.00     0.010 A 
ATOM     43  C   UNL A   1      42.665  28.235  28.512  1.00  0.00     0.010 A 
ATOM     44  C   UNL A   1      42.070  27.703  29.670  1.00  0.00    -0.014 A 
BRANCH  44  45
ATOM     45  C   UNL A   1      41.766  28.573  30.836  1.00  0.00     0.031 A 
ATOM     46  C   UNL A   1      40.594  29.515  30.770  1.00  0.00     0.074 A 
ATOM     47  C   UNL A   1      42.504  28.496  31.957  1.00  0.00     0.049 A 
ATOM     48  N   UNL A   1      40.160  30.363  31.667  1.00  0.00    -0.248 NA
ATOM     49  C   UNL A   1      39.805  29.497  29.528  1.00  0.00     0.031 C 
ATOM     50  C   UNL A   1      43.641  27.599  32.159  1.00  0.00     0.029 A 
ATOM     51  N   UNL A   1      42.406  29.187  33.139  1.00  0.00    -0.354 N 
ATOM     52  C   UNL A   1      39.051  30.982  31.100  1.00  0.00     0.074 A 
ATOM     53  C   UNL A   1      38.894  30.428  29.772  1.00  0.00     0.031 C 
ATOM     54  C   UNL A   1      44.139  27.798  33.391  1.00  0.00     0.029 A 
ATOM     55  C   UNL A   1      43.375  28.854  34.054  1.00  0.00     0.049 A 
ATOM     56  H   UNL A   1      41.707  29.858  33.314  1.00  0.00     0.167 HD
ATOM     57  C   UNL A   1      38.234  31.920  31.639  1.00  0.00     0.037 A 
ATOM     58  C   UNL A   1      43.628  29.356  35.280  1.00  0.00     0.037 A 
ATOM     59  C   UNL A   1      38.393  32.473  32.959  1.00  0.00     0.049 A 
ATOM     60  C   UNL A   1      42.746  30.443  35.833  1.00  0.00     0.074 A 
ATOM     61  C   UNL A   1      37.609  33.418  33.598  1.00  0.00     0.029 A 
ATOM     62  N   UNL A   1      39.410  32.137  33.841  1.00  0.00    -0.354 N 
ATOM     63  N   UNL A   1      41.693  31.007  35.293  1.00  0.00    -0.248 NA
ATOM     64  C   UNL A   1      43.089  30.965  37.165  1.00  0.00     0.031 C 
ATOM     65  C   UNL A   1      38.174  33.682  34.852  1.00  0.00     0.029 A 
ATOM     66  C   UNL A   1      39.287  32.872  35.009  1.00  0.00     0.049 A 
ATOM     67  H   UNL A   1      40.115  31.474  33.662  1.00  0.00     0.167 HD
ATOM     68  C   UNL A   1      41.237  31.936  36.222  1.00  0.00     0.074 A 
ATOM     69  C   UNL A   1      42.123  31.851  37.366  1.00  0.00     0.031 C 
ATOM     70  C   UNL A   1      40.179  32.781  36.137  1.00  0.00     0.037 A 
BRANCH  57  71
ATOM     71  C   UNL A   1      37.106  32.427  30.784  1.00  0.00     0.058 A 
ATOM     72  C   UNL A   1      37.303  33.434  29.827  1.00  0.00     0.135 A 
ATOM     73  C   UNL A   1      35.817  31.887  30.913  1.00  0.00     0.135 A 
ATOM     74  F   UNL A   1      38.513  33.995  29.674  1.00  0.00    -0.206 F 
ATOM     75  C   UNL A   1      36.254  33.910  29.046  1.00  0.00     0.059 A 
ATOM     76  C   UNL A   1      34.757  32.332  30.127  1.00  0.00     0.059 A 
ATOM     77  F   UNL A   1      35.575  30.920  31.812  1.00  0.00    -0.206 F 
ATOM     78  C   UNL A   1      34.982  33.357  29.210  1.00  0.00     0.060 A 
BRANCH  78  79
ATOM     79  S   UNL A   1      33.624  33.993  28.203  1.00  0.00     0.124 S 
ATOM     80  O   UNL A   1      32.802  34.656  29.210  1.00  0.00    -0.237 OA
ATOM     81  O   UNL A   1      34.312  34.876  27.266  1.00  0.00    -0.237 OA
ATOM     82  O   UNL A   1      33.046  32.790  27.614  1.00  0.00    -0.744 OA
ENDBRANCH  78  79
ENDBRANCH  57  71
BRANCH  58  83
ATOM     83  C   UNL A   1      44.778  28.837  36.064  1.00  0.00     0.058 A 
ATOM     84  C   UNL A   1      46.046  29.427  35.967  1.00  0.00     0.135 A 
ATOM     85  C   UNL A   1      44.626  27.750  36.938  1.00  0.00     0.135 A 
ATOM     86  F   UNL A   1      46.243  30.461  35.134  1.00  0.00    -0.206 F 
ATOM     87  C   UNL A   1      47.126  28.955  36.705  1.00  0.00     0.059 A 
ATOM     88  C   UNL A   1      45.686  27.274  37.704  1.00  0.00     0.059 A 
ATOM     89  F   UNL A   1      43.431  27.154  37.069  1.00  0.00    -0.206 F 
ATOM     90  C   UNL A   1      46.935  27.880  37.575  1.00  0.00     0.060 A 
BRANCH  90  91
ATOM     91  S   UNL A   1      48.329  27.312  38.575  1.00  0.00     0.124 S 
ATOM     92  O   UNL A   1      47.654  26.859  39.786  1.00  0.00    -0.237 OA
ATOM     93  O   UNL A   1      48.905  26.266  37.736  1.00  0.00    -0.237 OA
ATOM     94  O   UNL A   1      49.149  28.511  38.719  1.00  0.00    -0.744 OA
ENDBRANCH  90  91
ENDBRANCH  58  83
BRANCH  70  95
ATOM     95  C   UNL A   1      39.908  33.671  37.319  1.00  0.00     0.058 A 
ATOM     96  C   UNL A   1      40.421  34.975  37.388  1.00  0.00     0.135 A 
ATOM     97  C   UNL A   1      39.087  33.231  38.369  1.00  0.00     0.135 A 
ATOM     98  F   UNL A   1      41.217  35.441  36.412  1.00  0.00    -0.206 F 
ATOM     99  C   UNL A   1      40.143  35.808  38.467  1.00  0.00     0.059 A 
ATOM    100  C   UNL A   1      38.778  34.055  39.448  1.00  0.00     0.059 A 
ATOM    101  F   UNL A   1      38.563  31.995  38.346  1.00  0.00    -0.206 F 
ATOM    102  C   UNL A   1      39.320  35.339  39.493  1.00  0.00     0.060 A 
BRANCH 102 103
ATOM    103  S   UNL A   1      38.937  36.439  40.874  1.00  0.00     0.124 S 
ATOM    104  O   UNL A   1      37.828  35.736  41.511  1.00  0.00    -0.237 OA
ATOM    105  O   UNL A   1      40.191  36.455  41.621  1.00  0.00    -0.237 OA
ATOM    106  O   UNL A   1      38.591  37.697  40.218  1.00  0.00    -0.744 OA
ENDBRANCH 102 103
ENDBRANCH  70  95
ENDBRANCH  44  45
ENDBRANCH  37  39
ENDBRANCH  36  37
ENDBRANCH  35  36
ENDBRANCH  34  35
ENDBRANCH   1  34
TORSDOF 22
ENDMDL
MODEL 3
REMARK VINA RESULT:     -11.1      4.695      5.582
REMARK SMILES Cc1nc(-c2ccccc2)sc1C(=O)N[C@@H](CC1=c2ccccc2=NC1)C(=O)OCCOCCOC(=O)c1ccc(-c2c3nc(c(-c4c(F)cc(S(=O)(=O)[O-])cc4F)c4ccc([nH]4)c(-c4c(F)cc(S(=O)(=O)[O-])cc4F)c4nc(c(-c5c(F)cc(S(=O)(=O)[O-])cc5F)c5ccc2[nH]5)C=C4)C=C3)cc1
REMARK SMILES IDX 32 1 31 2 30 3 29 4 27 5 28 6 16 7 15 8 13 9 14 10 12 12
REMARK SMILES IDX 1 13 2 14 3 15 4 16 11 17 5 18 6 19 10 20 7 21 9 22 8 23
REMARK SMILES IDX 17 24 18 25 19 26 26 27 20 28 24 29 25 30 21 31 23 32 22 33
REMARK SMILES IDX 33 34 34 35 35 36 36 37 37 38 38 39 39 40 103 41 40 42
REMARK SMILES IDX 102 43 41 44 42 45 43 46 96 47 44 48 101 49 95 50 97 51
REMARK SMILES IDX 45 52 100 53 94 54 93 55 46 57 80 58 59 59 79 60 60 61 63 62
REMARK SMILES IDX 78 63 98 64 61 65 62 66 77 68 99 69 64 70 47 71 48 72 57 73
REMARK SMILES IDX 49 74 50 75 56 76 58 77 51 78 52 79 53 80 54 81 55 82 81 83
REMARK SMILES IDX 82 84 91 85 83 86 84 87 90 88 92 89 85 90 86 91 87 92 88 93
REMARK SMILES IDX 89 94 65 95 66 96 75 97 67 98 68 99 74 100 76 101 69 102
REMARK SMILES IDX 70 103 71 104 72 105 73 106
REMARK H PARENT 15 11 97 56 63 67
REMARK Flexibility Score: inf
ROOT
ATOM      1  O   UNL A   1      37.585  23.041  26.376  1.00  0.00    -0.374 OA
ENDROOT
BRANCH   1   2
ATOM      2  C   UNL A   1      36.735  24.078  25.891  1.00  0.00     0.202 C 
BRANCH   2   3
ATOM      3  C   UNL A   1      35.944  23.783  24.609  1.00  0.00     0.261 C 
BRANCH   3   4
ATOM      4  O   UNL A   1      34.970  24.799  24.322  1.00  0.00    -0.462 OA
BRANCH   4   5
ATOM      5  C   UNL A   1      34.207  24.568  23.223  1.00  0.00     0.329 C 
ATOM      6  O   UNL A   1      34.462  23.748  22.347  1.00  0.00    -0.250 OA
BRANCH   5   7
ATOM      7  C   UNL A   1      32.931  25.417  23.187  1.00  0.00     0.196 C 
BRANCH   7   8
ATOM      8  N   UNL A   1      31.998  25.301  24.301  1.00  0.00    -0.338 N 
ATOM      9  C   UNL A   1      31.641  24.291  25.159  1.00  0.00     0.264 C 
ATOM     10  O   UNL A   1      30.655  24.597  25.843  1.00  0.00    -0.268 OA
ATOM     11  H   UNL A   1      31.511  26.138  24.477  1.00  0.00     0.164 HD
BRANCH   9  12
ATOM     12  C   UNL A   1      32.326  23.001  25.333  1.00  0.00     0.115 A 
ATOM     13  C   UNL A   1      33.690  22.709  27.588  1.00  0.00     0.068 C 
ATOM     14  C   UNL A   1      33.112  22.330  26.275  1.00  0.00     0.062 A 
ATOM     15  N   UNL A   1      33.422  21.015  25.959  1.00  0.00    -0.241 NA
ATOM     16  C   UNL A   1      32.961  20.669  24.788  1.00  0.00     0.124 A 
ATOM     17  S   UNL A   1      32.118  21.890  23.968  1.00  0.00    -0.108 S 
BRANCH  16  18
ATOM     18  C   UNL A   1      33.142  19.322  24.254  1.00  0.00     0.010 A 
ATOM     19  C   UNL A   1      34.235  18.561  24.696  1.00  0.00     0.011 A 
ATOM     20  C   UNL A   1      32.366  18.848  23.190  1.00  0.00     0.011 A 
ATOM     21  C   UNL A   1      34.556  17.353  24.078  1.00  0.00     0.001 A 
ATOM     22  C   UNL A   1      32.694  17.641  22.567  1.00  0.00     0.001 A 
ATOM     23  C   UNL A   1      33.792  16.900  23.005  1.00  0.00     0.000 A 
ENDBRANCH  16  18
ENDBRANCH   9  12
ENDBRANCH   7   8
BRANCH   7  24
ATOM     24  C   UNL A   1      33.259  26.889  22.891  1.00  0.00     0.070 C 
BRANCH  24  25
ATOM     25  C   UNL A   1      32.486  27.840  23.751  1.00  0.00    -0.037 C 
ATOM     26  C   UNL A   1      32.815  28.330  24.944  1.00  0.00     0.001 A 
ATOM     27  C   UNL A   1      31.172  28.406  23.291  1.00  0.00     0.174 C 
ATOM     28  C   UNL A   1      33.907  28.159  25.846  1.00  0.00     0.010 A 
ATOM     29  C   UNL A   1      31.741  29.303  25.200  1.00  0.00     0.065 A 
ATOM     30  N   UNL A   1      30.792  29.394  24.321  1.00  0.00    -0.280 NA
ATOM     31  C   UNL A   1      33.959  28.929  26.945  1.00  0.00     0.001 A 
ATOM     32  C   UNL A   1      31.871  30.118  26.424  1.00  0.00     0.028 A 
ATOM     33  C   UNL A   1      32.934  29.923  27.223  1.00  0.00     0.002 A 
ENDBRANCH  24  25
ENDBRANCH   7  24
ENDBRANCH   5   7
ENDBRANCH   4   5
ENDBRANCH   3   4
ENDBRANCH   2   3
ENDBRANCH   1   2
BRANCH   1  34
ATOM     34  C   UNL A   1      37.892  21.966  25.484  1.00  0.00     0.202 C 
BRANCH  34  35
ATOM     35  C   UNL A   1      39.208  21.204  25.702  1.00  0.00     0.261 C 
BRANCH  35  36
ATOM     36  O   UNL A   1      40.015  21.757  26.763  1.00  0.00    -0.460 OA
BRANCH  36  37
ATOM     37  C   UNL A   1      41.077  22.483  26.339  1.00  0.00     0.338 C 
ATOM     38  O   UNL A   1      41.866  22.184  25.448  1.00  0.00    -0.246 OA
BRANCH  37  39
ATOM     39  C   UNL A   1      41.111  23.806  26.983  1.00  0.00     0.060 A 
ATOM     40  C   UNL A   1      40.927  24.938  26.178  1.00  0.00     0.016 A 
ATOM     41  C   UNL A   1      41.502  23.939  28.316  1.00  0.00     0.016 A 
ATOM     42  C   UNL A   1      41.172  26.209  26.697  1.00  0.00     0.010 A 
ATOM     43  C   UNL A   1      41.756  25.217  28.831  1.00  0.00     0.010 A 
ATOM     44  C   UNL A   1      41.629  26.354  28.014  1.00  0.00    -0.014 A 
BRANCH  44  45
ATOM     45  C   UNL A   1      42.097  27.683  28.484  1.00  0.00     0.031 A 
ATOM     46  C   UNL A   1      43.571  27.990  28.487  1.00  0.00     0.074 A 
ATOM     47  C   UNL A   1      41.215  28.623  28.869  1.00  0.00     0.049 A 
ATOM     48  N   UNL A   1      44.191  29.079  28.863  1.00  0.00    -0.248 NA
ATOM     49  C   UNL A   1      44.465  26.928  27.998  1.00  0.00     0.031 C 
ATOM     50  C   UNL A   1      39.761  28.461  28.878  1.00  0.00     0.029 A 
ATOM     51  N   UNL A   1      41.415  29.900  29.329  1.00  0.00    -0.354 N 
ATOM     52  C   UNL A   1      45.545  28.835  28.661  1.00  0.00     0.074 A 
ATOM     53  C   UNL A   1      45.657  27.485  28.151  1.00  0.00     0.031 C 
ATOM     54  C   UNL A   1      39.201  29.597  29.326  1.00  0.00     0.029 A 
ATOM     55  C   UNL A   1      40.254  30.554  29.661  1.00  0.00     0.049 A 
ATOM     56  H   UNL A   1      42.307  30.309  29.412  1.00  0.00     0.167 HD
ATOM     57  C   UNL A   1      46.597  29.662  28.873  1.00  0.00     0.037 A 
ATOM     58  C   UNL A   1      40.063  31.779  30.192  1.00  0.00     0.037 A 
ATOM     59  C   UNL A   1      46.486  31.004  29.384  1.00  0.00     0.049 A 
ATOM     60  C   UNL A   1      41.252  32.657  30.480  1.00  0.00     0.074 A 
ATOM     61  C   UNL A   1      47.494  31.923  29.620  1.00  0.00     0.029 A 
ATOM     62  N   UNL A   1      45.295  31.617  29.744  1.00  0.00    -0.354 N 
ATOM     63  N   UNL A   1      42.524  32.419  30.269  1.00  0.00    -0.248 NA
ATOM     64  C   UNL A   1      40.979  33.971  31.081  1.00  0.00     0.031 C 
ATOM     65  C   UNL A   1      46.915  33.078  30.161  1.00  0.00     0.029 A 
ATOM     66  C   UNL A   1      45.544  32.893  30.223  1.00  0.00     0.049 A 
ATOM     67  H   UNL A   1      44.404  31.205  29.671  1.00  0.00     0.167 HD
ATOM     68  C   UNL A   1      43.202  33.558  30.693  1.00  0.00     0.074 A 
ATOM     69  C   UNL A   1      42.197  34.489  31.165  1.00  0.00     0.031 C 
ATOM     70  C   UNL A   1      44.534  33.809  30.693  1.00  0.00     0.037 A 
BRANCH  57  71
ATOM     71  C   UNL A   1      47.970  29.124  28.576  1.00  0.00     0.058 A 
ATOM     72  C   UNL A   1      48.773  28.561  29.579  1.00  0.00     0.135 A 
ATOM     73  C   UNL A   1      48.480  29.157  27.268  1.00  0.00     0.135 A 
ATOM     74  F   UNL A   1      48.339  28.519  30.849  1.00  0.00    -0.206 F 
ATOM     75  C   UNL A   1      50.048  28.076  29.303  1.00  0.00     0.059 A 
ATOM     76  C   UNL A   1      49.744  28.658  26.965  1.00  0.00     0.059 A 
ATOM     77  F   UNL A   1      47.752  29.684  26.271  1.00  0.00    -0.206 F 
ATOM     78  C   UNL A   1      50.527  28.136  27.993  1.00  0.00     0.060 A 
BRANCH  78  79
ATOM     79  S   UNL A   1      52.188  27.517  27.648  1.00  0.00     0.124 S 
ATOM     80  O   UNL A   1      52.796  27.566  28.973  1.00  0.00    -0.237 OA
ATOM     81  O   UNL A   1      51.925  26.181  27.121  1.00  0.00    -0.237 OA
ATOM     82  O   UNL A   1      52.713  28.475  26.681  1.00  0.00    -0.744 OA
ENDBRANCH  78  79
ENDBRANCH  57  71
BRANCH  58  83
ATOM     83  C   UNL A   1      38.684  32.243  30.494  1.00  0.00     0.058 A 
ATOM     84  C   UNL A   1      38.009  31.805  31.642  1.00  0.00     0.135 A 
ATOM     85  C   UNL A   1      38.023  33.146  29.648  1.00  0.00     0.135 A 
ATOM     86  F   UNL A   1      38.597  30.931  32.474  1.00  0.00    -0.206 F 
ATOM     87  C   UNL A   1      36.722  32.242  31.940  1.00  0.00     0.059 A 
ATOM     88  C   UNL A   1      36.744  33.615  29.936  1.00  0.00     0.059 A 
ATOM     89  F   UNL A   1      38.630  33.597  28.539  1.00  0.00    -0.206 F 
ATOM     90  C   UNL A   1      36.099  33.151  31.082  1.00  0.00     0.060 A 
BRANCH  90  91
ATOM     91  S   UNL A   1      34.453  33.760  31.508  1.00  0.00     0.124 S 
ATOM     92  O   UNL A   1      33.952  32.683  32.355  1.00  0.00    -0.237 OA
ATOM     93  O   UNL A   1      34.754  35.017  32.185  1.00  0.00    -0.237 OA
ATOM     94  O   UNL A   1      33.799  33.897  30.209  1.00  0.00    -0.744 OA
ENDBRANCH  90  91
ENDBRANCH  58  83
BRANCH  70  95
ATOM     95  C   UNL A   1      44.986  35.150  31.199  1.00  0.00     0.058 A 
ATOM     96  C   UNL A   1      45.075  36.263  30.349  1.00  0.00     0.135 A 
ATOM     97  C   UNL A   1      45.285  35.337  32.558  1.00  0.00     0.135 A 
ATOM     98  F   UNL A   1      44.806  36.136  29.039  1.00  0.00    -0.206 F 
ATOM     99  C   UNL A   1      45.463  37.512  30.825  1.00  0.00     0.059 A 
ATOM    100  C   UNL A   1      45.654  36.581  33.060  1.00  0.00     0.059 A 
ATOM    101  F   UNL A   1      45.205  34.306  33.415  1.00  0.00    -0.206 F 
ATOM    102  C   UNL A   1      45.750  37.661  32.183  1.00  0.00     0.060 A 
BRANCH 102 103
ATOM    103  S   UNL A   1      46.220  39.293  32.798  1.00  0.00     0.124 S 
ATOM    104  O   UNL A   1      45.952  40.134  31.636  1.00  0.00    -0.237 OA
ATOM    105  O   UNL A   1      45.320  39.474  33.933  1.00  0.00    -0.237 OA
ATOM    106  O   UNL A   1      47.629  39.132  33.145  1.00  0.00    -0.744 OA
ENDBRANCH 102 103
ENDBRANCH  70  95
ENDBRANCH  44  45
ENDBRANCH  37  39
ENDBRANCH  36  37
ENDBRANCH  35  36
ENDBRANCH  34  35
ENDBRANCH   1  34
TORSDOF 22
ENDMDL
