MODEL 1
REMARK VINA RESULT:      -9.8      0.000      0.000
REMARK SMILES C[C@H](C[N@H+](C)[C@H]1CC[C@H]([NH3+])CC1)C(=O)OCCOCCOC(=O)c1ccc(-c2c3nc(c(-c4c(F)cc(S(=O)(=O)[O-])cc4F)c4ccc([nH]4)c(-c4c(F)cc(S(=O)(=O)[O-])cc4F)c4nc(c(-c5c(F)cc(S(=O)(=O)[O-])cc5F)c5ccc2[nH]5)C=C4)C=C3)cc1
REMARK SMILES IDX 17 1 16 2 15 3 13 4 14 5 2 6 1 7 3 8 4 9 5 10 6 12 7 13
REMARK SMILES IDX 12 14 8 15 11 16 9 17 10 18 18 22 19 23 20 24 21 25 22 26
REMARK SMILES IDX 23 27 24 28 25 29 89 30 26 31 88 32 27 33 28 34 29 35 82 36
REMARK SMILES IDX 30 37 87 38 81 39 83 40 31 41 86 42 80 43 79 44 32 46 66 47
REMARK SMILES IDX 45 48 65 49 46 50 49 51 64 52 84 53 47 54 48 55 63 57 85 58
REMARK SMILES IDX 50 59 33 60 34 61 43 62 35 63 36 64 42 65 44 66 37 67 38 68
REMARK SMILES IDX 39 69 40 70 41 71 67 72 68 73 77 74 69 75 70 76 76 77 78 78
REMARK SMILES IDX 71 79 72 80 73 81 74 82 75 83 51 84 52 85 61 86 53 87 54 88
REMARK SMILES IDX 60 89 62 90 55 91 56 92 57 93 58 94 59 95
REMARK H PARENT 4 11 10 19 10 20 10 21 83 45 49 56
REMARK Flexibility Score: inf
ROOT
ATOM      1  C   UNL A   1      38.696  21.531  25.759  1.00  0.00     0.202 C 
ENDROOT
BRANCH   1   2
ATOM      2  C   UNL A   1      37.769  20.607  24.959  1.00  0.00     0.261 C 
BRANCH   2   3
ATOM      3  O   UNL A   1      36.395  21.044  24.945  1.00  0.00    -0.463 OA
BRANCH   3   4
ATOM      4  C   UNL A   1      36.173  22.226  24.310  1.00  0.00     0.314 C 
ATOM      5  O   UNL A   1      36.659  22.542  23.229  1.00  0.00    -0.252 OA
BRANCH   4   6
ATOM      6  C   UNL A   1      35.288  23.179  25.088  1.00  0.00     0.151 C 
ATOM      7  C   UNL A   1      36.147  24.283  25.698  1.00  0.00     0.026 C 
BRANCH   6   8
ATOM      8  C   UNL A   1      34.375  22.523  26.143  1.00  0.00     0.277 C 
BRANCH   8   9
ATOM      9  N   UNL A   1      32.961  22.553  25.698  1.00  0.00    -0.334 N 
ATOM     10  C   UNL A   1      32.087  23.066  26.751  1.00  0.00     0.332 C 
ATOM     11  H   UNL A   1      32.884  23.217  24.928  1.00  0.00     0.348 HD
BRANCH   9  12
ATOM     12  C   UNL A   1      32.529  21.257  25.121  1.00  0.00     0.184 C 
ATOM     13  C   UNL A   1      33.231  20.101  25.859  1.00  0.00     0.071 C 
ATOM     14  C   UNL A   1      32.704  21.103  23.596  1.00  0.00     0.071 C 
ATOM     15  C   UNL A   1      32.731  18.739  25.369  1.00  0.00     0.071 C 
ATOM     16  C   UNL A   1      32.195  19.742  23.112  1.00  0.00     0.071 C 
ATOM     17  C   UNL A   1      32.891  18.594  23.852  1.00  0.00     0.181 C 
BRANCH  17  18
ATOM     18  N   UNL A   1      32.351  17.313  23.399  1.00  0.00    -0.355 N 
ATOM     19  H   UNL A   1      32.116  17.374  22.409  1.00  0.00     0.344 HD
ATOM     20  H   UNL A   1      31.512  17.090  23.934  1.00  0.00     0.344 HD
ATOM     21  H   UNL A   1      33.047  16.581  23.539  1.00  0.00     0.344 HD
ENDBRANCH  17  18
ENDBRANCH   9  12
ENDBRANCH   8   9
ENDBRANCH   6   8
ENDBRANCH   4   6
ENDBRANCH   3   4
ENDBRANCH   2   3
ENDBRANCH   1   2
BRANCH   1  22
ATOM     22  O   UNL A   1      39.828  20.936  26.388  1.00  0.00    -0.374 OA
BRANCH  22  23
ATOM     23  C   UNL A   1      40.614  21.770  27.236  1.00  0.00     0.202 C 
BRANCH  23  24
ATOM     24  C   UNL A   1      41.808  22.490  26.594  1.00  0.00     0.261 C 
BRANCH  24  25
ATOM     25  O   UNL A   1      41.543  23.879  26.320  1.00  0.00    -0.460 OA
BRANCH  25  26
ATOM     26  C   UNL A   1      42.495  24.727  26.780  1.00  0.00     0.338 C 
ATOM     27  O   UNL A   1      43.673  24.760  26.445  1.00  0.00    -0.246 OA
BRANCH  26  28
ATOM     28  C   UNL A   1      41.907  25.768  27.642  1.00  0.00     0.060 A 
ATOM     29  C   UNL A   1      42.675  26.918  27.864  1.00  0.00     0.016 A 
ATOM     30  C   UNL A   1      40.692  25.590  28.310  1.00  0.00     0.016 A 
ATOM     31  C   UNL A   1      42.264  27.862  28.800  1.00  0.00     0.010 A 
ATOM     32  C   UNL A   1      40.283  26.542  29.256  1.00  0.00     0.010 A 
ATOM     33  C   UNL A   1      41.087  27.662  29.535  1.00  0.00    -0.014 A 
BRANCH  33  34
ATOM     34  C   UNL A   1      40.803  28.571  30.675  1.00  0.00     0.031 A 
ATOM     35  C   UNL A   1      41.645  28.482  31.920  1.00  0.00     0.074 A 
ATOM     36  C   UNL A   1      39.868  29.533  30.562  1.00  0.00     0.049 A 
ATOM     37  N   UNL A   1      41.637  29.246  32.983  1.00  0.00    -0.248 NA
ATOM     38  C   UNL A   1      42.631  27.389  31.975  1.00  0.00     0.031 C 
ATOM     39  C   UNL A   1      38.998  29.729  29.403  1.00  0.00     0.029 A 
ATOM     40  N   UNL A   1      39.507  30.533  31.428  1.00  0.00    -0.354 N 
ATOM     41  C   UNL A   1      42.625  28.743  33.821  1.00  0.00     0.074 A 
ATOM     42  C   UNL A   1      43.180  27.578  33.167  1.00  0.00     0.031 C 
ATOM     43  C   UNL A   1      38.202  30.789  29.630  1.00  0.00     0.029 A 
ATOM     44  C   UNL A   1      38.500  31.339  30.951  1.00  0.00     0.049 A 
ATOM     45  H   UNL A   1      39.928  30.661  32.308  1.00  0.00     0.167 HD
ATOM     46  C   UNL A   1      43.047  29.219  35.018  1.00  0.00     0.037 A 
ATOM     47  C   UNL A   1      37.888  32.399  31.516  1.00  0.00     0.037 A 
ATOM     48  C   UNL A   1      42.489  30.373  35.675  1.00  0.00     0.049 A 
ATOM     49  C   UNL A   1      38.353  32.890  32.861  1.00  0.00     0.074 A 
ATOM     50  C   UNL A   1      42.845  30.931  36.891  1.00  0.00     0.029 A 
ATOM     51  N   UNL A   1      41.455  31.149  35.171  1.00  0.00    -0.354 N 
ATOM     52  N   UNL A   1      39.306  32.416  33.629  1.00  0.00    -0.248 NA
ATOM     53  C   UNL A   1      37.670  34.070  33.409  1.00  0.00     0.031 C 
ATOM     54  C   UNL A   1      42.004  32.022  37.138  1.00  0.00     0.029 A 
ATOM     55  C   UNL A   1      41.151  32.170  36.057  1.00  0.00     0.049 A 
ATOM     56  H   UNL A   1      41.003  30.996  34.309  1.00  0.00     0.167 HD
ATOM     57  C   UNL A   1      39.344  33.247  34.744  1.00  0.00     0.074 A 
ATOM     58  C   UNL A   1      38.337  34.268  34.538  1.00  0.00     0.031 C 
ATOM     59  C   UNL A   1      40.137  33.172  35.842  1.00  0.00     0.037 A 
BRANCH  46  60
ATOM     60  C   UNL A   1      44.170  28.487  35.699  1.00  0.00     0.058 A 
ATOM     61  C   UNL A   1      45.513  28.818  35.456  1.00  0.00     0.135 A 
ATOM     62  C   UNL A   1      43.905  27.472  36.631  1.00  0.00     0.135 A 
ATOM     63  F   UNL A   1      45.823  29.770  34.561  1.00  0.00    -0.206 F 
ATOM     64  C   UNL A   1      46.553  28.156  36.099  1.00  0.00     0.059 A 
ATOM     65  C   UNL A   1      44.929  26.810  37.303  1.00  0.00     0.059 A 
ATOM     66  F   UNL A   1      42.639  27.114  36.898  1.00  0.00    -0.206 F 
ATOM     67  C   UNL A   1      46.252  27.152  37.021  1.00  0.00     0.060 A 
BRANCH  67  68
ATOM     68  S   UNL A   1      47.612  26.309  37.857  1.00  0.00     0.124 S 
ATOM     69  O   UNL A   1      47.895  25.221  36.925  1.00  0.00    -0.237 OA
ATOM     70  O   UNL A   1      48.627  27.354  37.937  1.00  0.00    -0.237 OA
ATOM     71  O   UNL A   1      47.029  25.905  39.133  1.00  0.00    -0.744 OA
ENDBRANCH  67  68
ENDBRANCH  46  60
BRANCH  47  72
ATOM     72  C   UNL A   1      36.763  33.067  30.809  1.00  0.00     0.058 A 
ATOM     73  C   UNL A   1      36.991  34.026  29.811  1.00  0.00     0.135 A 
ATOM     74  C   UNL A   1      35.433  32.758  31.130  1.00  0.00     0.135 A 
ATOM     75  F   UNL A   1      38.247  34.361  29.478  1.00  0.00    -0.206 F 
ATOM     76  C   UNL A   1      35.939  34.669  29.167  1.00  0.00     0.059 A 
ATOM     77  C   UNL A   1      34.364  33.369  30.482  1.00  0.00     0.059 A 
ATOM     78  F   UNL A   1      35.163  31.838  32.068  1.00  0.00    -0.206 F 
ATOM     79  C   UNL A   1      34.627  34.332  29.510  1.00  0.00     0.060 A 
BRANCH  79  80
ATOM     80  S   UNL A   1      33.265  35.134  28.637  1.00  0.00     0.124 S 
ATOM     81  O   UNL A   1      32.535  35.753  29.738  1.00  0.00    -0.237 OA
ATOM     82  O   UNL A   1      33.966  36.048  27.742  1.00  0.00    -0.237 OA
ATOM     83  O   UNL A   1      32.590  34.020  27.978  1.00  0.00    -0.744 OA
ENDBRANCH  79  80
ENDBRANCH  47  72
BRANCH  59  84
ATOM     84  C   UNL A   1      39.950  34.229  36.895  1.00  0.00     0.058 A 
ATOM     85  C   UNL A   1      40.595  35.474  36.809  1.00  0.00     0.135 A 
ATOM     86  C   UNL A   1      39.112  34.000  37.998  1.00  0.00     0.135 A 
ATOM     87  F   UNL A   1      41.408  35.742  35.775  1.00  0.00    -0.206 F 
ATOM     88  C   UNL A   1      40.449  36.438  37.802  1.00  0.00     0.059 A 
ATOM     89  C   UNL A   1      38.931  34.960  38.990  1.00  0.00     0.059 A 
ATOM     90  F   UNL A   1      38.461  32.832  38.122  1.00  0.00    -0.206 F 
ATOM     91  C   UNL A   1      39.621  36.168  38.892  1.00  0.00     0.060 A 
BRANCH  91  92
ATOM     92  S   UNL A   1      39.447  37.421  40.181  1.00  0.00     0.124 S 
ATOM     93  O   UNL A   1      40.818  37.902  40.310  1.00  0.00    -0.237 OA
ATOM     94  O   UNL A   1      38.500  38.358  39.584  1.00  0.00    -0.237 OA
ATOM     95  O   UNL A   1      38.936  36.664  41.320  1.00  0.00    -0.744 OA
ENDBRANCH  91  92
ENDBRANCH  59  84
ENDBRANCH  33  34
ENDBRANCH  26  28
ENDBRANCH  25  26
ENDBRANCH  24  25
ENDBRANCH  23  24
ENDBRANCH  22  23
ENDBRANCH   1  22
TORSDOF 21
ENDMDL
MODEL 2
REMARK VINA RESULT:      -9.7      2.561      9.019
REMARK SMILES C[C@H](C[N@H+](C)[C@H]1CC[C@H]([NH3+])CC1)C(=O)OCCOCCOC(=O)c1ccc(-c2c3nc(c(-c4c(F)cc(S(=O)(=O)[O-])cc4F)c4ccc([nH]4)c(-c4c(F)cc(S(=O)(=O)[O-])cc4F)c4nc(c(-c5c(F)cc(S(=O)(=O)[O-])cc5F)c5ccc2[nH]5)C=C4)C=C3)cc1
REMARK SMILES IDX 17 1 16 2 15 3 13 4 14 5 2 6 1 7 3 8 4 9 5 10 6 12 7 13
REMARK SMILES IDX 12 14 8 15 11 16 9 17 10 18 18 22 19 23 20 24 21 25 22 26
REMARK SMILES IDX 23 27 24 28 25 29 89 30 26 31 88 32 27 33 28 34 29 35 82 36
REMARK SMILES IDX 30 37 87 38 81 39 83 40 31 41 86 42 80 43 79 44 32 46 66 47
REMARK SMILES IDX 45 48 65 49 46 50 49 51 64 52 84 53 47 54 48 55 63 57 85 58
REMARK SMILES IDX 50 59 33 60 34 61 43 62 35 63 36 64 42 65 44 66 37 67 38 68
REMARK SMILES IDX 39 69 40 70 41 71 67 72 68 73 77 74 69 75 70 76 76 77 78 78
REMARK SMILES IDX 71 79 72 80 73 81 74 82 75 83 51 84 52 85 61 86 53 87 54 88
REMARK SMILES IDX 60 89 62 90 55 91 56 92 57 93 58 94 59 95
REMARK H PARENT 4 11 10 19 10 20 10 21 83 45 49 56
REMARK Flexibility Score: inf
ROOT
ATOM      1  C   UNL A   1      34.751  29.726  27.539  1.00  0.00     0.202 C 
ENDROOT
BRANCH   1   2
ATOM      2  C   UNL A   1      33.731  28.630  27.209  1.00  0.00     0.261 C 
BRANCH   2   3
ATOM      3  O   UNL A   1      34.057  27.880  26.021  1.00  0.00    -0.463 OA
BRANCH   3   4
ATOM      4  C   UNL A   1      33.293  28.164  24.933  1.00  0.00     0.314 C 
ATOM      5  O   UNL A   1      33.246  29.256  24.375  1.00  0.00    -0.252 OA
BRANCH   4   6
ATOM      6  C   UNL A   1      32.435  27.003  24.471  1.00  0.00     0.151 C 
ATOM      7  C   UNL A   1      31.016  27.497  24.205  1.00  0.00     0.026 C 
BRANCH   6   8
ATOM      8  C   UNL A   1      32.442  25.767  25.393  1.00  0.00     0.277 C 
BRANCH   8   9
ATOM      9  N   UNL A   1      32.398  24.520  24.593  1.00  0.00    -0.334 N 
ATOM     10  C   UNL A   1      31.243  23.701  24.953  1.00  0.00     0.332 C 
ATOM     11  H   UNL A   1      32.261  24.775  23.614  1.00  0.00     0.348 HD
BRANCH   9  12
ATOM     12  C   UNL A   1      33.692  23.796  24.614  1.00  0.00     0.184 C 
ATOM     13  C   UNL A   1      34.541  24.286  25.803  1.00  0.00     0.071 C 
ATOM     14  C   UNL A   1      34.517  23.846  23.311  1.00  0.00     0.071 C 
ATOM     15  C   UNL A   1      35.842  23.488  25.928  1.00  0.00     0.071 C 
ATOM     16  C   UNL A   1      35.813  23.040  23.442  1.00  0.00     0.071 C 
ATOM     17  C   UNL A   1      36.652  23.525  24.629  1.00  0.00     0.181 C 
BRANCH  17  18
ATOM     18  N   UNL A   1      37.857  22.706  24.751  1.00  0.00    -0.355 N 
ATOM     19  H   UNL A   1      37.596  21.756  25.015  1.00  0.00     0.344 HD
ATOM     20  H   UNL A   1      38.466  23.102  25.467  1.00  0.00     0.344 HD
ATOM     21  H   UNL A   1      38.349  22.689  23.858  1.00  0.00     0.344 HD
ENDBRANCH  17  18
ENDBRANCH   9  12
ENDBRANCH   8   9
ENDBRANCH   6   8
ENDBRANCH   4   6
ENDBRANCH   3   4
ENDBRANCH   2   3
ENDBRANCH   1   2
BRANCH   1  22
ATOM     22  O   UNL A   1      34.272  31.067  27.602  1.00  0.00    -0.374 OA
BRANCH  22  23
ATOM     23  C   UNL A   1      32.903  31.285  27.270  1.00  0.00     0.202 C 
BRANCH  23  24
ATOM     24  C   UNL A   1      32.379  32.724  27.378  1.00  0.00     0.261 C 
BRANCH  24  25
ATOM     25  O   UNL A   1      33.436  33.701  27.441  1.00  0.00    -0.460 OA
BRANCH  25  26
ATOM     26  C   UNL A   1      33.399  34.488  28.544  1.00  0.00     0.338 C 
ATOM     27  O   UNL A   1      32.497  35.248  28.874  1.00  0.00    -0.246 OA
BRANCH  26  28
ATOM     28  C   UNL A   1      34.535  34.201  29.439  1.00  0.00     0.060 A 
ATOM     29  C   UNL A   1      35.818  34.304  28.888  1.00  0.00     0.016 A 
ATOM     30  C   UNL A   1      34.362  33.734  30.744  1.00  0.00     0.016 A 
ATOM     31  C   UNL A   1      36.927  33.883  29.617  1.00  0.00     0.010 A 
ATOM     32  C   UNL A   1      35.480  33.306  31.475  1.00  0.00     0.010 A 
ATOM     33  C   UNL A   1      36.763  33.340  30.900  1.00  0.00    -0.014 A 
BRANCH  33  34
ATOM     34  C   UNL A   1      37.935  32.697  31.550  1.00  0.00     0.031 A 
ATOM     35  C   UNL A   1      38.416  33.210  32.881  1.00  0.00     0.074 A 
ATOM     36  C   UNL A   1      38.499  31.604  31.006  1.00  0.00     0.049 A 
ATOM     37  N   UNL A   1      39.346  32.730  33.667  1.00  0.00    -0.248 NA
ATOM     38  C   UNL A   1      37.760  34.423  33.398  1.00  0.00     0.031 C 
ATOM     39  C   UNL A   1      38.114  31.004  29.729  1.00  0.00     0.029 A 
ATOM     40  N   UNL A   1      39.508  30.796  31.467  1.00  0.00    -0.354 N 
ATOM     41  C   UNL A   1      39.374  33.566  34.778  1.00  0.00     0.074 A 
ATOM     42  C   UNL A   1      38.402  34.612  34.543  1.00  0.00     0.031 C 
ATOM     43  C   UNL A   1      38.878  29.919  29.508  1.00  0.00     0.029 A 
ATOM     44  C   UNL A   1      39.810  29.754  30.622  1.00  0.00     0.049 A 
ATOM     45  H   UNL A   1      39.972  30.948  32.321  1.00  0.00     0.167 HD
ATOM     46  C   UNL A   1      40.125  33.461  35.902  1.00  0.00     0.037 A 
ATOM     47  C   UNL A   1      40.733  28.778  30.735  1.00  0.00     0.037 A 
ATOM     48  C   UNL A   1      41.099  32.425  36.132  1.00  0.00     0.049 A 
ATOM     49  C   UNL A   1      41.579  28.701  31.978  1.00  0.00     0.074 A 
ATOM     50  C   UNL A   1      41.913  32.237  37.236  1.00  0.00     0.029 A 
ATOM     51  N   UNL A   1      41.393  31.402  35.243  1.00  0.00    -0.354 N 
ATOM     52  N   UNL A   1      41.575  29.486  33.030  1.00  0.00    -0.248 NA
ATOM     53  C   UNL A   1      42.543  27.596  32.057  1.00  0.00     0.031 C 
ATOM     54  C   UNL A   1      42.723  31.120  37.000  1.00  0.00     0.029 A 
ATOM     55  C   UNL A   1      42.385  30.588  35.767  1.00  0.00     0.049 A 
ATOM     56  H   UNL A   1      40.960  31.273  34.368  1.00  0.00     0.167 HD
ATOM     57  C   UNL A   1      42.526  28.962  33.900  1.00  0.00     0.074 A 
ATOM     58  C   UNL A   1      43.066  27.779  33.262  1.00  0.00     0.031 C 
ATOM     59  C   UNL A   1      42.920  29.419  35.114  1.00  0.00     0.037 A 
BRANCH  46  60
ATOM     60  C   UNL A   1      39.923  34.499  36.970  1.00  0.00     0.058 A 
ATOM     61  C   UNL A   1      40.636  35.710  36.958  1.00  0.00     0.135 A 
ATOM     62  C   UNL A   1      38.983  34.304  37.993  1.00  0.00     0.135 A 
ATOM     63  F   UNL A   1      41.560  35.940  36.012  1.00  0.00    -0.206 F 
ATOM     64  C   UNL A   1      40.437  36.680  37.934  1.00  0.00     0.059 A 
ATOM     65  C   UNL A   1      38.751  35.271  38.968  1.00  0.00     0.059 A 
ATOM     66  F   UNL A   1      38.276  33.165  38.053  1.00  0.00    -0.206 F 
ATOM     67  C   UNL A   1      39.492  36.452  38.936  1.00  0.00     0.060 A 
BRANCH  67  68
ATOM     68  S   UNL A   1      39.236  37.726  40.189  1.00  0.00     0.124 S 
ATOM     69  O   UNL A   1      38.138  38.491  39.606  1.00  0.00    -0.237 OA
ATOM     70  O   UNL A   1      38.903  36.939  41.372  1.00  0.00    -0.237 OA
ATOM     71  O   UNL A   1      40.522  38.416  40.240  1.00  0.00    -0.744 OA
ENDBRANCH  67  68
ENDBRANCH  46  60
BRANCH  47  72
ATOM     72  C   UNL A   1      40.909  27.795  29.633  1.00  0.00     0.058 A 
ATOM     73  C   UNL A   1      40.006  26.739  29.444  1.00  0.00     0.135 A 
ATOM     74  C   UNL A   1      41.995  27.895  28.752  1.00  0.00     0.135 A 
ATOM     75  F   UNL A   1      38.957  26.596  30.268  1.00  0.00    -0.206 F 
ATOM     76  C   UNL A   1      40.183  25.804  28.428  1.00  0.00     0.059 A 
ATOM     77  C   UNL A   1      42.180  26.988  27.713  1.00  0.00     0.059 A 
ATOM     78  F   UNL A   1      42.879  28.896  28.883  1.00  0.00    -0.206 F 
ATOM     79  C   UNL A   1      41.275  25.938  27.567  1.00  0.00     0.060 A 
BRANCH  79  80
ATOM     80  S   UNL A   1      41.474  24.751  26.220  1.00  0.00     0.124 S 
ATOM     81  O   UNL A   1      40.220  24.011  26.295  1.00  0.00    -0.237 OA
ATOM     82  O   UNL A   1      41.634  25.623  25.061  1.00  0.00    -0.237 OA
ATOM     83  O   UNL A   1      42.671  24.010  26.606  1.00  0.00    -0.744 OA
ENDBRANCH  79  80
ENDBRANCH  47  72
BRANCH  59  84
ATOM     84  C   UNL A   1      43.980  28.629  35.832  1.00  0.00     0.058 A 
ATOM     85  C   UNL A   1      43.649  27.572  36.696  1.00  0.00     0.135 A 
ATOM     86  C   UNL A   1      45.340  28.925  35.649  1.00  0.00     0.135 A 
ATOM     87  F   UNL A   1      42.362  27.251  36.906  1.00  0.00    -0.206 F 
ATOM     88  C   UNL A   1      44.627  26.864  37.386  1.00  0.00     0.059 A 
ATOM     89  C   UNL A   1      46.337  28.212  36.310  1.00  0.00     0.059 A 
ATOM     90  F   UNL A   1      45.712  29.916  34.823  1.00  0.00    -0.206 F 
ATOM     91  C   UNL A   1      45.968  27.198  37.193  1.00  0.00     0.060 A 
BRANCH  91  92
ATOM     92  S   UNL A   1      47.231  26.281  38.102  1.00  0.00     0.124 S 
ATOM     93  O   UNL A   1      47.429  27.134  39.269  1.00  0.00    -0.237 OA
ATOM     94  O   UNL A   1      46.573  25.004  38.355  1.00  0.00    -0.237 OA
ATOM     95  O   UNL A   1      48.349  26.227  37.165  1.00  0.00    -0.744 OA
ENDBRANCH  91  92
ENDBRANCH  59  84
ENDBRANCH  33  34
ENDBRANCH  26  28
ENDBRANCH  25  26
ENDBRANCH  24  25
ENDBRANCH  23  24
ENDBRANCH  22  23
ENDBRANCH   1  22
TORSDOF 21
ENDMDL
MODEL 3
REMARK VINA RESULT:      -9.7      6.384     12.112
REMARK SMILES C[C@H](C[N@H+](C)[C@H]1CC[C@H]([NH3+])CC1)C(=O)OCCOCCOC(=O)c1ccc(-c2c3nc(c(-c4c(F)cc(S(=O)(=O)[O-])cc4F)c4ccc([nH]4)c(-c4c(F)cc(S(=O)(=O)[O-])cc4F)c4nc(c(-c5c(F)cc(S(=O)(=O)[O-])cc5F)c5ccc2[nH]5)C=C4)C=C3)cc1
REMARK SMILES IDX 17 1 16 2 15 3 13 4 14 5 2 6 1 7 3 8 4 9 5 10 6 12 7 13
REMARK SMILES IDX 12 14 8 15 11 16 9 17 10 18 18 22 19 23 20 24 21 25 22 26
REMARK SMILES IDX 23 27 24 28 25 29 89 30 26 31 88 32 27 33 28 34 29 35 82 36
REMARK SMILES IDX 30 37 87 38 81 39 83 40 31 41 86 42 80 43 79 44 32 46 66 47
REMARK SMILES IDX 45 48 65 49 46 50 49 51 64 52 84 53 47 54 48 55 63 57 85 58
REMARK SMILES IDX 50 59 33 60 34 61 43 62 35 63 36 64 42 65 44 66 37 67 38 68
REMARK SMILES IDX 39 69 40 70 41 71 67 72 68 73 77 74 69 75 70 76 76 77 78 78
REMARK SMILES IDX 71 79 72 80 73 81 74 82 75 83 51 84 52 85 61 86 53 87 54 88
REMARK SMILES IDX 60 89 62 90 55 91 56 92 57 93 58 94 59 95
REMARK H PARENT 4 11 10 19 10 20 10 21 83 45 49 56
REMARK Flexibility Score: inf
ROOT
ATOM      1  C   UNL A   1      34.357  30.110  27.033  1.00  0.00     0.202 C 
ENDROOT
BRANCH   1   2
ATOM      2  C   UNL A   1      33.229  29.075  27.105  1.00  0.00     0.261 C 
BRANCH   2   3
ATOM      3  O   UNL A   1      33.639  27.750  26.712  1.00  0.00    -0.463 OA
BRANCH   3   4
ATOM      4  C   UNL A   1      33.319  27.402  25.436  1.00  0.00     0.314 C 
ATOM      5  O   UNL A   1      33.770  27.942  24.431  1.00  0.00    -0.252 OA
BRANCH   4   6
ATOM      6  C   UNL A   1      32.292  26.292  25.346  1.00  0.00     0.151 C 
ATOM      7  C   UNL A   1      31.416  26.311  26.596  1.00  0.00     0.026 C 
BRANCH   6   8
ATOM      8  C   UNL A   1      32.860  24.886  25.071  1.00  0.00     0.277 C 
BRANCH   8   9
ATOM      9  N   UNL A   1      33.741  24.903  23.880  1.00  0.00    -0.334 N 
ATOM     10  C   UNL A   1      33.097  24.261  22.736  1.00  0.00     0.332 C 
ATOM     11  H   UNL A   1      33.886  25.875  23.605  1.00  0.00     0.348 HD
BRANCH   9  12
ATOM     12  C   UNL A   1      35.101  24.393  24.182  1.00  0.00     0.184 C 
ATOM     13  C   UNL A   1      35.341  23.075  23.420  1.00  0.00     0.071 C 
ATOM     14  C   UNL A   1      35.441  24.217  25.677  1.00  0.00     0.071 C 
ATOM     15  C   UNL A   1      36.772  22.568  23.617  1.00  0.00     0.071 C 
ATOM     16  C   UNL A   1      36.876  23.717  25.865  1.00  0.00     0.071 C 
ATOM     17  C   UNL A   1      37.114  22.409  25.102  1.00  0.00     0.181 C 
BRANCH  17  18
ATOM     18  N   UNL A   1      38.503  21.985  25.266  1.00  0.00    -0.355 N 
ATOM     19  H   UNL A   1      39.025  22.194  24.415  1.00  0.00     0.344 HD
ATOM     20  H   UNL A   1      38.534  20.982  25.446  1.00  0.00     0.344 HD
ATOM     21  H   UNL A   1      38.921  22.484  26.053  1.00  0.00     0.344 HD
ENDBRANCH  17  18
ENDBRANCH   9  12
ENDBRANCH   8   9
ENDBRANCH   6   8
ENDBRANCH   4   6
ENDBRANCH   3   4
ENDBRANCH   2   3
ENDBRANCH   1   2
BRANCH   1  22
ATOM     22  O   UNL A   1      34.992  30.472  28.258  1.00  0.00    -0.374 OA
BRANCH  22  23
ATOM     23  C   UNL A   1      34.872  31.830  28.676  1.00  0.00     0.202 C 
BRANCH  23  24
ATOM     24  C   UNL A   1      35.191  32.138  30.145  1.00  0.00     0.261 C 
BRANCH  24  25
ATOM     25  O   UNL A   1      36.565  32.519  30.352  1.00  0.00    -0.460 OA
BRANCH  25  26
ATOM     26  C   UNL A   1      37.225  31.750  31.253  1.00  0.00     0.338 C 
ATOM     27  O   UNL A   1      36.933  31.586  32.431  1.00  0.00    -0.246 OA
BRANCH  26  28
ATOM     28  C   UNL A   1      38.285  30.960  30.600  1.00  0.00     0.060 A 
ATOM     29  C   UNL A   1      39.289  30.440  31.427  1.00  0.00     0.016 A 
ATOM     30  C   UNL A   1      38.370  30.819  29.213  1.00  0.00     0.016 A 
ATOM     31  C   UNL A   1      40.410  29.834  30.867  1.00  0.00     0.010 A 
ATOM     32  C   UNL A   1      39.502  30.211  28.651  1.00  0.00     0.010 A 
ATOM     33  C   UNL A   1      40.547  29.753  29.474  1.00  0.00    -0.014 A 
BRANCH  33  34
ATOM     34  C   UNL A   1      41.850  29.307  28.917  1.00  0.00     0.031 A 
ATOM     35  C   UNL A   1      43.000  30.277  28.858  1.00  0.00     0.074 A 
ATOM     36  C   UNL A   1      42.035  28.022  28.562  1.00  0.00     0.049 A 
ATOM     37  N   UNL A   1      44.245  30.067  28.512  1.00  0.00    -0.248 NA
ATOM     38  C   UNL A   1      42.712  31.669  29.245  1.00  0.00     0.031 C 
ATOM     39  C   UNL A   1      41.004  26.986  28.586  1.00  0.00     0.029 A 
ATOM     40  N   UNL A   1      43.159  27.369  28.125  1.00  0.00    -0.354 N 
ATOM     41  C   UNL A   1      44.892  31.289  28.657  1.00  0.00     0.074 A 
ATOM     42  C   UNL A   1      43.892  32.248  29.076  1.00  0.00     0.031 C 
ATOM     43  C   UNL A   1      41.544  25.823  28.182  1.00  0.00     0.029 A 
ATOM     44  C   UNL A   1      42.955  26.035  27.863  1.00  0.00     0.049 A 
ATOM     45  H   UNL A   1      44.029  27.814  28.009  1.00  0.00     0.167 HD
ATOM     46  C   UNL A   1      46.204  31.583  28.479  1.00  0.00     0.037 A 
ATOM     47  C   UNL A   1      43.809  25.093  27.416  1.00  0.00     0.037 A 
ATOM     48  C   UNL A   1      47.197  30.631  28.053  1.00  0.00     0.049 A 
ATOM     49  C   UNL A   1      45.255  25.450  27.194  1.00  0.00     0.074 A 
ATOM     50  C   UNL A   1      48.550  30.834  27.839  1.00  0.00     0.029 A 
ATOM     51  N   UNL A   1      46.947  29.296  27.775  1.00  0.00    -0.354 N 
ATOM     52  N   UNL A   1      45.854  26.606  27.360  1.00  0.00    -0.248 NA
ATOM     53  C   UNL A   1      46.143  24.372  26.739  1.00  0.00     0.031 C 
ATOM     54  C   UNL A   1      49.111  29.629  27.399  1.00  0.00     0.029 A 
ATOM     55  C   UNL A   1      48.116  28.665  27.379  1.00  0.00     0.049 A 
ATOM     56  H   UNL A   1      46.068  28.859  27.849  1.00  0.00     0.167 HD
ATOM     57  C   UNL A   1      47.191  26.390  27.042  1.00  0.00     0.074 A 
ATOM     58  C   UNL A   1      47.317  24.988  26.700  1.00  0.00     0.031 C 
ATOM     59  C   UNL A   1      48.222  27.271  27.030  1.00  0.00     0.037 A 
BRANCH  46  60
ATOM     60  C   UNL A   1      46.639  32.998  28.743  1.00  0.00     0.058 A 
ATOM     61  C   UNL A   1      47.043  33.413  30.022  1.00  0.00     0.135 A 
ATOM     62  C   UNL A   1      46.692  33.938  27.702  1.00  0.00     0.135 A 
ATOM     63  F   UNL A   1      46.994  32.558  31.056  1.00  0.00    -0.206 F 
ATOM     64  C   UNL A   1      47.465  34.716  30.264  1.00  0.00     0.059 A 
ATOM     65  C   UNL A   1      47.133  35.242  27.917  1.00  0.00     0.059 A 
ATOM     66  F   UNL A   1      46.315  33.595  26.461  1.00  0.00    -0.206 F 
ATOM     67  C   UNL A   1      47.506  35.624  29.205  1.00  0.00     0.060 A 
BRANCH  67  68
ATOM     68  S   UNL A   1      48.067  37.308  29.532  1.00  0.00     0.124 S 
ATOM     69  O   UNL A   1      47.297  38.067  28.551  1.00  0.00    -0.237 OA
ATOM     70  O   UNL A   1      47.683  37.501  30.927  1.00  0.00    -0.237 OA
ATOM     71  O   UNL A   1      49.505  37.242  29.285  1.00  0.00    -0.744 OA
ENDBRANCH  67  68
ENDBRANCH  46  60
BRANCH  47  72
ATOM     72  C   UNL A   1      43.316  23.716  27.145  1.00  0.00     0.058 A 
ATOM     73  C   UNL A   1      43.083  22.804  28.184  1.00  0.00     0.135 A 
ATOM     74  C   UNL A   1      43.075  23.288  25.831  1.00  0.00     0.135 A 
ATOM     75  F   UNL A   1      43.308  23.164  29.457  1.00  0.00    -0.206 F 
ATOM     76  C   UNL A   1      42.644  21.507  27.929  1.00  0.00     0.059 A 
ATOM     77  C   UNL A   1      42.613  22.006  25.552  1.00  0.00     0.059 A 
ATOM     78  F   UNL A   1      43.271  24.128  24.803  1.00  0.00    -0.206 F 
ATOM     79  C   UNL A   1      42.412  21.118  26.608  1.00  0.00     0.060 A 
BRANCH  79  80
ATOM     80  S   UNL A   1      41.797  19.451  26.285  1.00  0.00     0.124 S 
ATOM     81  O   UNL A   1      40.378  19.701  26.062  1.00  0.00    -0.237 OA
ATOM     82  O   UNL A   1      42.570  19.059  25.111  1.00  0.00    -0.237 OA
ATOM     83  O   UNL A   1      42.128  18.732  27.511  1.00  0.00    -0.744 OA
ENDBRANCH  79  80
ENDBRANCH  47  72
BRANCH  59  84
ATOM     84  C   UNL A   1      49.574  26.737  26.643  1.00  0.00     0.058 A 
ATOM     85  C   UNL A   1      49.982  26.676  25.300  1.00  0.00     0.135 A 
ATOM     86  C   UNL A   1      50.474  26.289  27.622  1.00  0.00     0.135 A 
ATOM     87  F   UNL A   1      49.158  27.090  24.325  1.00  0.00    -0.206 F 
ATOM     88  C   UNL A   1      51.219  26.149  24.940  1.00  0.00     0.059 A 
ATOM     89  C   UNL A   1      51.726  25.782  27.286  1.00  0.00     0.059 A 
ATOM     90  F   UNL A   1      50.139  26.339  28.921  1.00  0.00    -0.206 F 
ATOM     91  C   UNL A   1      52.080  25.698  25.940  1.00  0.00     0.060 A 
BRANCH  91  92
ATOM     92  S   UNL A   1      53.678  25.006  25.463  1.00  0.00     0.124 S 
ATOM     93  O   UNL A   1      54.501  25.343  26.619  1.00  0.00    -0.237 OA
ATOM     94  O   UNL A   1      53.371  23.589  25.294  1.00  0.00    -0.237 OA
ATOM     95  O   UNL A   1      54.001  25.720  24.231  1.00  0.00    -0.744 OA
ENDBRANCH  91  92
ENDBRANCH  59  84
ENDBRANCH  33  34
ENDBRANCH  26  28
ENDBRANCH  25  26
ENDBRANCH  24  25
ENDBRANCH  23  24
ENDBRANCH  22  23
ENDBRANCH   1  22
TORSDOF 21
ENDMDL
