MODEL 1
REMARK VINA RESULT:     -12.3      0.000      0.000
REMARK SMILES O=C1C[C@H](c2cn[nH]c2C(=O)OCCOCCOC(=O)c2ccc(-c3c4nc(c(-c5c(F)cc(S(=O)(=O)[O-])cc5F)c5ccc([nH]5)c(-c5c(F)cc(S(=O)(=O)[O-])cc5F)c5nc(c(-c6c(F)cc(S(=O)(=O)[O-])cc6F)c6ccc3[nH]6)C=C5)C=C4)cc2)c2c(-c3cccs3)n[nH]c2N1
REMARK SMILES IDX 16 1 15 2 14 3 13 4 12 5 10 6 11 7 9 8 5 9 6 10 7 11 8 12
REMARK SMILES IDX 4 14 1 15 2 16 3 17 97 18 96 19 87 21 95 22 88 23 94 24
REMARK SMILES IDX 89 26 90 27 93 28 91 29 92 30 17 31 18 32 19 33 20 34 21 35
REMARK SMILES IDX 22 36 86 37 23 38 85 39 24 40 25 41 26 42 79 43 27 44 84 45
REMARK SMILES IDX 78 46 80 47 28 48 83 49 77 50 76 51 29 53 63 54 42 55 62 56
REMARK SMILES IDX 43 57 46 58 61 59 81 60 44 61 45 62 60 64 82 65 47 66 30 67
REMARK SMILES IDX 31 68 40 69 32 70 33 71 39 72 41 73 34 74 35 75 36 76 37 77
REMARK SMILES IDX 38 78 64 79 65 80 74 81 66 82 67 83 73 84 75 85 68 86 69 87
REMARK SMILES IDX 70 88 71 89 72 90 48 91 49 92 58 93 50 94 51 95 57 96 59 97
REMARK SMILES IDX 52 98 53 99 54 100 55 101 56 102
REMARK H PARENT 8 13 97 20 95 25 80 52 46 63
REMARK Flexibility Score: inf
ROOT
ATOM      1  C   UNL A   1      37.168  22.179  25.634  1.00  0.00     0.202 C 
ENDROOT
BRANCH   1   2
ATOM      2  O   UNL A   1      35.930  22.166  26.336  1.00  0.00    -0.374 OA
BRANCH   2   3
ATOM      3  C   UNL A   1      34.831  21.431  25.788  1.00  0.00     0.202 C 
BRANCH   3   4
ATOM      4  C   UNL A   1      33.620  21.273  26.698  1.00  0.00     0.261 C 
BRANCH   4   5
ATOM      5  O   UNL A   1      32.991  22.545  26.957  1.00  0.00    -0.459 OA
BRANCH   5   6
ATOM      6  C   UNL A   1      31.910  22.823  26.188  1.00  0.00     0.356 C 
ATOM      7  O   UNL A   1      31.135  21.983  25.749  1.00  0.00    -0.244 OA
BRANCH   6   8
ATOM      8  C   UNL A   1      31.646  24.236  26.092  1.00  0.00     0.147 A 
ATOM      9  C   UNL A   1      32.218  25.382  25.530  1.00  0.00     0.013 A 
ATOM     10  C   UNL A   1      31.239  26.390  25.805  1.00  0.00     0.140 A 
ATOM     11  N   UNL A   1      30.199  25.953  26.504  1.00  0.00    -0.183 NA
ATOM     12  N   UNL A   1      30.470  24.659  26.664  1.00  0.00    -0.271 N 
ATOM     13  H   UNL A   1      29.872  24.049  27.154  1.00  0.00     0.190 HD
BRANCH   9  14
ATOM     14  C   UNL A   1      33.443  25.688  24.679  1.00  0.00     0.069 C 
ATOM     15  O   UNL A   1      33.345  23.402  21.762  1.00  0.00    -0.275 OA
ATOM     16  C   UNL A   1      33.454  24.461  22.379  1.00  0.00     0.226 C 
ATOM     17  C   UNL A   1      33.893  24.471  23.833  1.00  0.00     0.114 C 
ATOM     18  N   UNL A   1      33.296  25.665  21.736  1.00  0.00    -0.311 N 
ATOM     19  C   UNL A   1      33.267  26.815  22.463  1.00  0.00     0.132 A 
ATOM     20  H   UNL A   1      33.205  25.697  20.756  1.00  0.00     0.171 HD
ATOM     21  C   UNL A   1      33.371  26.895  23.822  1.00  0.00     0.031 A 
ATOM     22  N   UNL A   1      33.070  28.077  21.997  1.00  0.00    -0.262 N 
ATOM     23  C   UNL A   1      33.337  28.281  24.092  1.00  0.00     0.108 A 
ATOM     24  N   UNL A   1      33.067  28.998  22.987  1.00  0.00    -0.173 NA
ATOM     25  H   UNL A   1      32.943  28.296  21.046  1.00  0.00     0.192 HD
BRANCH  23  26
ATOM     26  C   UNL A   1      33.416  28.875  25.457  1.00  0.00     0.055 A 
ATOM     27  C   UNL A   1      34.415  28.587  26.359  1.00  0.00     0.022 A 
ATOM     28  S   UNL A   1      32.350  30.075  26.032  1.00  0.00    -0.142 S 
ATOM     29  C   UNL A   1      34.375  29.465  27.482  1.00  0.00     0.012 A 
ATOM     30  C   UNL A   1      33.268  30.285  27.456  1.00  0.00     0.065 A 
ENDBRANCH  23  26
ENDBRANCH   9  14
ENDBRANCH   6   8
ENDBRANCH   5   6
ENDBRANCH   4   5
ENDBRANCH   3   4
ENDBRANCH   2   3
ENDBRANCH   1   2
BRANCH   1  31
ATOM     31  C   UNL A   1      37.992  23.448  25.718  1.00  0.00     0.261 C 
BRANCH  31  32
ATOM     32  O   UNL A   1      38.891  23.392  26.804  1.00  0.00    -0.460 OA
BRANCH  32  33
ATOM     33  C   UNL A   1      40.183  23.159  26.470  1.00  0.00     0.338 C 
ATOM     34  O   UNL A   1      40.690  22.123  26.106  1.00  0.00    -0.246 OA
BRANCH  33  35
ATOM     35  C   UNL A   1      40.889  24.406  26.764  1.00  0.00     0.060 A 
ATOM     36  C   UNL A   1      41.821  24.446  27.800  1.00  0.00     0.016 A 
ATOM     37  C   UNL A   1      40.413  25.570  26.150  1.00  0.00     0.016 A 
ATOM     38  C   UNL A   1      42.069  25.675  28.378  1.00  0.00     0.010 A 
ATOM     39  C   UNL A   1      40.771  26.786  26.629  1.00  0.00     0.010 A 
ATOM     40  C   UNL A   1      41.425  26.796  27.841  1.00  0.00    -0.014 A 
BRANCH  40  41
ATOM     41  C   UNL A   1      41.332  28.041  28.553  1.00  0.00     0.031 A 
ATOM     42  C   UNL A   1      42.464  28.925  28.247  1.00  0.00     0.074 A 
ATOM     43  C   UNL A   1      40.196  28.382  29.200  1.00  0.00     0.049 A 
ATOM     44  N   UNL A   1      43.530  29.084  28.955  1.00  0.00    -0.248 NA
ATOM     45  C   UNL A   1      42.578  29.440  26.870  1.00  0.00     0.031 C 
ATOM     46  C   UNL A   1      38.897  27.692  29.239  1.00  0.00     0.029 A 
ATOM     47  N   UNL A   1      39.949  29.511  29.909  1.00  0.00    -0.354 N 
ATOM     48  C   UNL A   1      44.299  29.983  28.234  1.00  0.00     0.074 A 
ATOM     49  C   UNL A   1      43.830  29.900  26.878  1.00  0.00     0.031 C 
ATOM     50  C   UNL A   1      37.953  28.527  29.734  1.00  0.00     0.029 A 
ATOM     51  C   UNL A   1      38.602  29.739  30.193  1.00  0.00     0.049 A 
ATOM     52  H   UNL A   1      40.664  30.123  30.198  1.00  0.00     0.167 HD
ATOM     53  C   UNL A   1      45.013  30.949  28.873  1.00  0.00     0.037 A 
ATOM     54  C   UNL A   1      38.110  30.894  30.715  1.00  0.00     0.037 A 
ATOM     55  C   UNL A   1      45.071  30.675  30.293  1.00  0.00     0.049 A 
ATOM     56  C   UNL A   1      39.280  31.596  31.333  1.00  0.00     0.074 A 
ATOM     57  C   UNL A   1      45.563  29.629  31.051  1.00  0.00     0.029 A 
ATOM     58  N   UNL A   1      44.168  31.336  31.098  1.00  0.00    -0.354 N 
ATOM     59  N   UNL A   1      39.953  31.111  32.347  1.00  0.00    -0.248 NA
ATOM     60  C   UNL A   1      40.022  32.519  30.484  1.00  0.00     0.031 C 
ATOM     61  C   UNL A   1      44.596  29.432  32.080  1.00  0.00     0.029 A 
ATOM     62  C   UNL A   1      43.618  30.422  31.964  1.00  0.00     0.049 A 
ATOM     63  H   UNL A   1      43.955  32.296  31.060  1.00  0.00     0.167 HD
ATOM     64  C   UNL A   1      41.292  31.337  32.040  1.00  0.00     0.074 A 
ATOM     65  C   UNL A   1      41.266  32.250  30.896  1.00  0.00     0.031 C 
ATOM     66  C   UNL A   1      42.285  30.532  32.528  1.00  0.00     0.037 A 
BRANCH  53  67
ATOM     67  C   UNL A   1      45.304  32.316  28.305  1.00  0.00     0.058 A 
ATOM     68  C   UNL A   1      46.649  32.692  28.123  1.00  0.00     0.135 A 
ATOM     69  C   UNL A   1      44.359  33.359  28.170  1.00  0.00     0.135 A 
ATOM     70  F   UNL A   1      47.633  31.782  28.216  1.00  0.00    -0.206 F 
ATOM     71  C   UNL A   1      47.032  34.015  27.913  1.00  0.00     0.059 A 
ATOM     72  C   UNL A   1      44.715  34.674  27.906  1.00  0.00     0.059 A 
ATOM     73  F   UNL A   1      43.049  33.188  28.375  1.00  0.00    -0.206 F 
ATOM     74  C   UNL A   1      46.055  35.002  27.823  1.00  0.00     0.060 A 
BRANCH  74  75
ATOM     75  S   UNL A   1      46.549  36.721  27.657  1.00  0.00     0.124 S 
ATOM     76  O   UNL A   1      46.652  36.855  26.208  1.00  0.00    -0.237 OA
ATOM     77  O   UNL A   1      45.432  37.415  28.288  1.00  0.00    -0.237 OA
ATOM     78  O   UNL A   1      47.811  36.780  28.390  1.00  0.00    -0.744 OA
ENDBRANCH  74  75
ENDBRANCH  53  67
BRANCH  54  79
ATOM     79  C   UNL A   1      36.842  31.587  30.350  1.00  0.00     0.058 A 
ATOM     80  C   UNL A   1      35.966  32.103  31.322  1.00  0.00     0.135 A 
ATOM     81  C   UNL A   1      36.597  31.995  29.022  1.00  0.00     0.135 A 
ATOM     82  F   UNL A   1      36.140  31.793  32.615  1.00  0.00    -0.206 F 
ATOM     83  C   UNL A   1      34.928  32.992  31.000  1.00  0.00     0.059 A 
ATOM     84  C   UNL A   1      35.571  32.876  28.677  1.00  0.00     0.059 A 
ATOM     85  F   UNL A   1      37.410  31.615  28.026  1.00  0.00    -0.206 F 
ATOM     86  C   UNL A   1      34.748  33.387  29.674  1.00  0.00     0.060 A 
BRANCH  86  87
ATOM     87  S   UNL A   1      33.508  34.644  29.269  1.00  0.00     0.124 S 
ATOM     88  O   UNL A   1      34.327  35.699  28.681  1.00  0.00    -0.237 OA
ATOM     89  O   UNL A   1      32.633  33.929  28.345  1.00  0.00    -0.237 OA
ATOM     90  O   UNL A   1      32.913  34.965  30.563  1.00  0.00    -0.744 OA
ENDBRANCH  86  87
ENDBRANCH  54  79
BRANCH  66  91
ATOM     91  C   UNL A   1      41.942  29.532  33.609  1.00  0.00     0.058 A 
ATOM     92  C   UNL A   1      41.446  28.234  33.376  1.00  0.00     0.135 A 
ATOM     93  C   UNL A   1      42.333  29.833  34.922  1.00  0.00     0.135 A 
ATOM     94  F   UNL A   1      41.137  27.829  32.137  1.00  0.00    -0.206 F 
ATOM     95  C   UNL A   1      41.329  27.291  34.402  1.00  0.00     0.059 A 
ATOM     96  C   UNL A   1      42.253  28.901  35.954  1.00  0.00     0.059 A 
ATOM     97  F   UNL A   1      42.873  31.030  35.201  1.00  0.00    -0.206 F 
ATOM     98  C   UNL A   1      41.742  27.633  35.689  1.00  0.00     0.060 A 
BRANCH  98  99
ATOM     99  S   UNL A   1      41.678  26.393  37.002  1.00  0.00     0.124 S 
ATOM    100  O   UNL A   1      40.415  26.707  37.660  1.00  0.00    -0.237 OA
ATOM    101  O   UNL A   1      41.711  25.138  36.256  1.00  0.00    -0.237 OA
ATOM    102  O   UNL A   1      42.877  26.669  37.791  1.00  0.00    -0.744 OA
ENDBRANCH  98  99
ENDBRANCH  66  91
ENDBRANCH  40  41
ENDBRANCH  33  35
ENDBRANCH  32  33
ENDBRANCH  31  32
ENDBRANCH   1  31
TORSDOF 19
ENDMDL
MODEL 2
REMARK VINA RESULT:     -12.1      2.961      9.110
REMARK SMILES O=C1C[C@H](c2cn[nH]c2C(=O)OCCOCCOC(=O)c2ccc(-c3c4nc(c(-c5c(F)cc(S(=O)(=O)[O-])cc5F)c5ccc([nH]5)c(-c5c(F)cc(S(=O)(=O)[O-])cc5F)c5nc(c(-c6c(F)cc(S(=O)(=O)[O-])cc6F)c6ccc3[nH]6)C=C5)C=C4)cc2)c2c(-c3cccs3)n[nH]c2N1
REMARK SMILES IDX 16 1 15 2 14 3 13 4 12 5 10 6 11 7 9 8 5 9 6 10 7 11 8 12
REMARK SMILES IDX 4 14 1 15 2 16 3 17 97 18 96 19 87 21 95 22 88 23 94 24
REMARK SMILES IDX 89 26 90 27 93 28 91 29 92 30 17 31 18 32 19 33 20 34 21 35
REMARK SMILES IDX 22 36 86 37 23 38 85 39 24 40 25 41 26 42 79 43 27 44 84 45
REMARK SMILES IDX 78 46 80 47 28 48 83 49 77 50 76 51 29 53 63 54 42 55 62 56
REMARK SMILES IDX 43 57 46 58 61 59 81 60 44 61 45 62 60 64 82 65 47 66 30 67
REMARK SMILES IDX 31 68 40 69 32 70 33 71 39 72 41 73 34 74 35 75 36 76 37 77
REMARK SMILES IDX 38 78 64 79 65 80 74 81 66 82 67 83 73 84 75 85 68 86 69 87
REMARK SMILES IDX 70 88 71 89 72 90 48 91 49 92 58 93 50 94 51 95 57 96 59 97
REMARK SMILES IDX 52 98 53 99 54 100 55 101 56 102
REMARK H PARENT 8 13 97 20 95 25 80 52 46 63
REMARK Flexibility Score: inf
ROOT
ATOM      1  C   UNL A   1      32.934  30.020  25.829  1.00  0.00     0.202 C 
ENDROOT
BRANCH   1   2
ATOM      2  O   UNL A   1      33.105  28.777  25.155  1.00  0.00    -0.374 OA
BRANCH   2   3
ATOM      3  C   UNL A   1      32.389  28.547  23.937  1.00  0.00     0.202 C 
BRANCH   3   4
ATOM      4  C   UNL A   1      33.234  28.117  22.744  1.00  0.00     0.261 C 
BRANCH   4   5
ATOM      5  O   UNL A   1      33.754  26.784  22.926  1.00  0.00    -0.459 OA
BRANCH   5   6
ATOM      6  C   UNL A   1      33.342  25.872  22.011  1.00  0.00     0.356 C 
ATOM      7  O   UNL A   1      33.290  26.074  20.804  1.00  0.00    -0.244 OA
BRANCH   6   8
ATOM      8  C   UNL A   1      33.148  24.563  22.580  1.00  0.00     0.147 A 
ATOM      9  C   UNL A   1      33.074  23.958  23.840  1.00  0.00     0.013 A 
ATOM     10  C   UNL A   1      32.737  22.604  23.519  1.00  0.00     0.140 A 
ATOM     11  N   UNL A   1      32.661  22.363  22.216  1.00  0.00    -0.183 NA
ATOM     12  N   UNL A   1      32.912  23.554  21.677  1.00  0.00    -0.271 N 
ATOM     13  H   UNL A   1      32.929  23.702  20.704  1.00  0.00     0.190 HD
BRANCH   9  14
ATOM     14  C   UNL A   1      33.137  24.432  25.286  1.00  0.00     0.069 C 
ATOM     15  O   UNL A   1      29.671  25.251  26.318  1.00  0.00    -0.275 OA
ATOM     16  C   UNL A   1      30.795  24.754  26.385  1.00  0.00     0.226 C 
ATOM     17  C   UNL A   1      31.966  25.379  25.647  1.00  0.00     0.114 C 
ATOM     18  N   UNL A   1      31.042  23.692  27.221  1.00  0.00    -0.311 N 
ATOM     19  C   UNL A   1      32.246  23.061  27.167  1.00  0.00     0.132 A 
ATOM     20  H   UNL A   1      30.353  23.389  27.856  1.00  0.00     0.171 HD
ATOM     21  C   UNL A   1      33.270  23.381  26.321  1.00  0.00     0.031 A 
ATOM     22  N   UNL A   1      32.637  21.971  27.880  1.00  0.00    -0.262 N 
ATOM     23  C   UNL A   1      34.305  22.487  26.675  1.00  0.00     0.108 A 
ATOM     24  N   UNL A   1      33.889  21.570  27.567  1.00  0.00    -0.173 NA
ATOM     25  H   UNL A   1      32.070  21.524  28.550  1.00  0.00     0.192 HD
BRANCH  23  26
ATOM     26  C   UNL A   1      35.643  22.447  26.020  1.00  0.00     0.055 A 
ATOM     27  C   UNL A   1      36.563  23.468  26.098  1.00  0.00     0.022 A 
ATOM     28  S   UNL A   1      36.253  21.086  25.193  1.00  0.00    -0.142 S 
ATOM     29  C   UNL A   1      37.832  23.068  25.583  1.00  0.00     0.012 A 
ATOM     30  C   UNL A   1      37.785  21.817  25.009  1.00  0.00     0.065 A 
ENDBRANCH  23  26
ENDBRANCH   9  14
ENDBRANCH   6   8
ENDBRANCH   5   6
ENDBRANCH   4   5
ENDBRANCH   3   4
ENDBRANCH   2   3
ENDBRANCH   1   2
BRANCH   1  31
ATOM     31  C   UNL A   1      33.515  30.130  27.223  1.00  0.00     0.261 C 
BRANCH  31  32
ATOM     32  O   UNL A   1      34.925  30.163  27.178  1.00  0.00    -0.460 OA
BRANCH  32  33
ATOM     33  C   UNL A   1      35.492  31.273  27.710  1.00  0.00     0.338 C 
ATOM     34  O   UNL A   1      35.304  32.430  27.412  1.00  0.00    -0.246 OA
BRANCH  33  35
ATOM     35  C   UNL A   1      36.496  30.780  28.653  1.00  0.00     0.060 A 
ATOM     36  C   UNL A   1      37.325  31.682  29.317  1.00  0.00     0.016 A 
ATOM     37  C   UNL A   1      36.746  29.402  28.657  1.00  0.00     0.016 A 
ATOM     38  C   UNL A   1      38.543  31.209  29.765  1.00  0.00     0.010 A 
ATOM     39  C   UNL A   1      37.877  28.919  29.225  1.00  0.00     0.010 A 
ATOM     40  C   UNL A   1      38.826  29.850  29.583  1.00  0.00    -0.014 A 
BRANCH  40  41
ATOM     41  C   UNL A   1      40.161  29.325  29.687  1.00  0.00     0.031 A 
ATOM     42  C   UNL A   1      40.546  29.101  31.086  1.00  0.00     0.074 A 
ATOM     43  C   UNL A   1      40.815  28.883  28.590  1.00  0.00     0.049 A 
ATOM     44  N   UNL A   1      41.250  29.888  31.826  1.00  0.00    -0.248 NA
ATOM     45  C   UNL A   1      39.818  28.065  31.840  1.00  0.00     0.031 C 
ATOM     46  C   UNL A   1      40.337  28.749  27.206  1.00  0.00     0.029 A 
ATOM     47  N   UNL A   1      42.064  28.362  28.521  1.00  0.00    -0.354 N 
ATOM     48  C   UNL A   1      41.307  29.256  33.057  1.00  0.00     0.074 A 
ATOM     49  C   UNL A   1      40.183  28.360  33.089  1.00  0.00     0.031 C 
ATOM     50  C   UNL A   1      41.197  27.977  26.500  1.00  0.00     0.029 A 
ATOM     51  C   UNL A   1      42.356  27.702  27.326  1.00  0.00     0.049 A 
ATOM     52  H   UNL A   1      42.714  28.441  29.256  1.00  0.00     0.167 HD
ATOM     53  C   UNL A   1      42.451  29.277  33.793  1.00  0.00     0.037 A 
ATOM     54  C   UNL A   1      43.464  26.943  27.117  1.00  0.00     0.037 A 
ATOM     55  C   UNL A   1      43.375  30.254  33.257  1.00  0.00     0.049 A 
ATOM     56  C   UNL A   1      44.449  27.357  28.166  1.00  0.00     0.074 A 
ATOM     57  C   UNL A   1      43.321  31.621  33.062  1.00  0.00     0.029 A 
ATOM     58  N   UNL A   1      44.366  29.789  32.421  1.00  0.00    -0.354 N 
ATOM     59  N   UNL A   1      44.960  28.563  28.235  1.00  0.00    -0.248 NA
ATOM     60  C   UNL A   1      44.421  26.627  29.427  1.00  0.00     0.031 C 
ATOM     61  C   UNL A   1      43.938  31.839  31.795  1.00  0.00     0.029 A 
ATOM     62  C   UNL A   1      44.424  30.616  31.325  1.00  0.00     0.049 A 
ATOM     63  H   UNL A   1      44.935  29.002  32.580  1.00  0.00     0.167 HD
ATOM     64  C   UNL A   1      44.938  28.893  29.587  1.00  0.00     0.074 A 
ATOM     65  C   UNL A   1      44.634  27.638  30.275  1.00  0.00     0.031 C 
ATOM     66  C   UNL A   1      44.857  30.194  30.005  1.00  0.00     0.037 A 
BRANCH  53  67
ATOM     67  C   UNL A   1      42.896  28.171  34.716  1.00  0.00     0.058 A 
ATOM     68  C   UNL A   1      43.057  28.466  36.084  1.00  0.00     0.135 A 
ATOM     69  C   UNL A   1      43.412  26.922  34.300  1.00  0.00     0.135 A 
ATOM     70  F   UNL A   1      42.595  29.619  36.595  1.00  0.00    -0.206 F 
ATOM     71  C   UNL A   1      43.755  27.627  36.951  1.00  0.00     0.059 A 
ATOM     72  C   UNL A   1      44.062  26.046  35.159  1.00  0.00     0.059 A 
ATOM     73  F   UNL A   1      43.400  26.515  33.026  1.00  0.00    -0.206 F 
ATOM     74  C   UNL A   1      44.268  26.426  36.472  1.00  0.00     0.060 A 
BRANCH  74  75
ATOM     75  S   UNL A   1      45.256  25.391  37.559  1.00  0.00     0.124 S 
ATOM     76  O   UNL A   1      46.608  25.816  37.214  1.00  0.00    -0.237 OA
ATOM     77  O   UNL A   1      44.772  25.793  38.875  1.00  0.00    -0.237 OA
ATOM     78  O   UNL A   1      44.895  24.036  37.152  1.00  0.00    -0.744 OA
ENDBRANCH  74  75
ENDBRANCH  53  67
BRANCH  54  79
ATOM     79  C   UNL A   1      43.555  25.652  26.377  1.00  0.00     0.058 A 
ATOM     80  C   UNL A   1      44.513  25.433  25.371  1.00  0.00     0.135 A 
ATOM     81  C   UNL A   1      42.869  24.507  26.834  1.00  0.00     0.135 A 
ATOM     82  F   UNL A   1      45.234  26.458  24.896  1.00  0.00    -0.206 F 
ATOM     83  C   UNL A   1      44.794  24.152  24.869  1.00  0.00     0.059 A 
ATOM     84  C   UNL A   1      43.129  23.225  26.349  1.00  0.00     0.059 A 
ATOM     85  F   UNL A   1      41.982  24.592  27.836  1.00  0.00    -0.206 F 
ATOM     86  C   UNL A   1      44.107  23.050  25.378  1.00  0.00     0.060 A 
BRANCH  86  87
ATOM     87  S   UNL A   1      44.564  21.380  24.844  1.00  0.00     0.124 S 
ATOM     88  O   UNL A   1      43.471  20.578  25.385  1.00  0.00    -0.237 OA
ATOM     89  O   UNL A   1      44.594  21.516  23.391  1.00  0.00    -0.237 OA
ATOM     90  O   UNL A   1      45.864  21.165  25.473  1.00  0.00    -0.744 OA
ENDBRANCH  86  87
ENDBRANCH  54  79
BRANCH  66  91
ATOM     91  C   UNL A   1      45.037  31.296  28.986  1.00  0.00     0.058 A 
ATOM     92  C   UNL A   1      43.986  31.955  28.320  1.00  0.00     0.135 A 
ATOM     93  C   UNL A   1      46.320  31.844  28.840  1.00  0.00     0.135 A 
ATOM     94  F   UNL A   1      42.717  31.558  28.479  1.00  0.00    -0.206 F 
ATOM     95  C   UNL A   1      44.204  33.092  27.534  1.00  0.00     0.059 A 
ATOM     96  C   UNL A   1      46.557  32.992  28.087  1.00  0.00     0.059 A 
ATOM     97  F   UNL A   1      47.357  31.302  29.499  1.00  0.00    -0.206 F 
ATOM     98  C   UNL A   1      45.495  33.607  27.430  1.00  0.00     0.060 A 
BRANCH  98  99
ATOM     99  S   UNL A   1      45.773  35.126  26.491  1.00  0.00     0.124 S 
ATOM    100  O   UNL A   1      46.725  35.840  27.335  1.00  0.00    -0.237 OA
ATOM    101  O   UNL A   1      46.298  34.625  25.224  1.00  0.00    -0.237 OA
ATOM    102  O   UNL A   1      44.442  35.724  26.409  1.00  0.00    -0.744 OA
ENDBRANCH  98  99
ENDBRANCH  66  91
ENDBRANCH  40  41
ENDBRANCH  33  35
ENDBRANCH  32  33
ENDBRANCH  31  32
ENDBRANCH   1  31
TORSDOF 19
ENDMDL
MODEL 3
REMARK VINA RESULT:     -12.0      3.067      7.875
REMARK SMILES O=C1C[C@H](c2cn[nH]c2C(=O)OCCOCCOC(=O)c2ccc(-c3c4nc(c(-c5c(F)cc(S(=O)(=O)[O-])cc5F)c5ccc([nH]5)c(-c5c(F)cc(S(=O)(=O)[O-])cc5F)c5nc(c(-c6c(F)cc(S(=O)(=O)[O-])cc6F)c6ccc3[nH]6)C=C5)C=C4)cc2)c2c(-c3cccs3)n[nH]c2N1
REMARK SMILES IDX 16 1 15 2 14 3 13 4 12 5 10 6 11 7 9 8 5 9 6 10 7 11 8 12
REMARK SMILES IDX 4 14 1 15 2 16 3 17 97 18 96 19 87 21 95 22 88 23 94 24
REMARK SMILES IDX 89 26 90 27 93 28 91 29 92 30 17 31 18 32 19 33 20 34 21 35
REMARK SMILES IDX 22 36 86 37 23 38 85 39 24 40 25 41 26 42 79 43 27 44 84 45
REMARK SMILES IDX 78 46 80 47 28 48 83 49 77 50 76 51 29 53 63 54 42 55 62 56
REMARK SMILES IDX 43 57 46 58 61 59 81 60 44 61 45 62 60 64 82 65 47 66 30 67
REMARK SMILES IDX 31 68 40 69 32 70 33 71 39 72 41 73 34 74 35 75 36 76 37 77
REMARK SMILES IDX 38 78 64 79 65 80 74 81 66 82 67 83 73 84 75 85 68 86 69 87
REMARK SMILES IDX 70 88 71 89 72 90 48 91 49 92 58 93 50 94 51 95 57 96 59 97
REMARK SMILES IDX 52 98 53 99 54 100 55 101 56 102
REMARK H PARENT 8 13 97 20 95 25 80 52 46 63
REMARK Flexibility Score: inf
ROOT
ATOM      1  C   UNL A   1      31.940  29.556  26.235  1.00  0.00     0.202 C 
ENDROOT
BRANCH   1   2
ATOM      2  O   UNL A   1      31.456  29.130  24.966  1.00  0.00    -0.374 OA
BRANCH   2   3
ATOM      3  C   UNL A   1      32.398  28.854  23.924  1.00  0.00     0.202 C 
BRANCH   3   4
ATOM      4  C   UNL A   1      31.804  28.390  22.600  1.00  0.00     0.261 C 
BRANCH   4   5
ATOM      5  O   UNL A   1      31.749  26.951  22.527  1.00  0.00    -0.459 OA
BRANCH   5   6
ATOM      6  C   UNL A   1      32.897  26.347  22.133  1.00  0.00     0.356 C 
ATOM      7  O   UNL A   1      33.822  26.916  21.566  1.00  0.00    -0.244 OA
BRANCH   6   8
ATOM      8  C   UNL A   1      33.008  24.995  22.618  1.00  0.00     0.147 A 
ATOM      9  C   UNL A   1      33.119  24.314  23.835  1.00  0.00     0.013 A 
ATOM     10  C   UNL A   1      33.061  22.941  23.434  1.00  0.00     0.140 A 
ATOM     11  N   UNL A   1      32.978  22.768  22.121  1.00  0.00    -0.183 NA
ATOM     12  N   UNL A   1      32.950  24.015  21.656  1.00  0.00    -0.271 N 
ATOM     13  H   UNL A   1      32.890  24.220  20.695  1.00  0.00     0.190 HD
BRANCH   9  14
ATOM     14  C   UNL A   1      33.146  24.703  25.307  1.00  0.00     0.069 C 
ATOM     15  O   UNL A   1      29.669  25.548  26.276  1.00  0.00    -0.275 OA
ATOM     16  C   UNL A   1      30.777  25.021  26.349  1.00  0.00     0.226 C 
ATOM     17  C   UNL A   1      31.986  25.658  25.686  1.00  0.00     0.114 C 
ATOM     18  N   UNL A   1      30.973  23.907  27.130  1.00  0.00    -0.311 N 
ATOM     19  C   UNL A   1      32.163  23.250  27.077  1.00  0.00     0.132 A 
ATOM     20  H   UNL A   1      30.257  23.586  27.725  1.00  0.00     0.171 HD
ATOM     21  C   UNL A   1      33.221  23.593  26.284  1.00  0.00     0.031 A 
ATOM     22  N   UNL A   1      32.505  22.113  27.739  1.00  0.00    -0.262 N 
ATOM     23  C   UNL A   1      34.223  22.654  26.618  1.00  0.00     0.108 A 
ATOM     24  N   UNL A   1      33.758  21.699  27.442  1.00  0.00    -0.173 NA
ATOM     25  H   UNL A   1      31.907  21.642  28.364  1.00  0.00     0.192 HD
BRANCH  23  26
ATOM     26  C   UNL A   1      35.580  22.618  26.004  1.00  0.00     0.055 A 
ATOM     27  C   UNL A   1      36.473  23.665  26.058  1.00  0.00     0.022 A 
ATOM     28  S   UNL A   1      36.248  21.236  25.260  1.00  0.00    -0.142 S 
ATOM     29  C   UNL A   1      37.765  23.275  25.600  1.00  0.00     0.012 A 
ATOM     30  C   UNL A   1      37.766  21.997  25.085  1.00  0.00     0.065 A 
ENDBRANCH  23  26
ENDBRANCH   9  14
ENDBRANCH   6   8
ENDBRANCH   5   6
ENDBRANCH   4   5
ENDBRANCH   3   4
ENDBRANCH   2   3
ENDBRANCH   1   2
BRANCH   1  31
ATOM     31  C   UNL A   1      31.826  31.032  26.554  1.00  0.00     0.261 C 
BRANCH  31  32
ATOM     32  O   UNL A   1      32.898  31.454  27.369  1.00  0.00    -0.460 OA
BRANCH  32  33
ATOM     33  C   UNL A   1      32.877  32.763  27.716  1.00  0.00     0.338 C 
ATOM     34  O   UNL A   1      32.098  33.621  27.368  1.00  0.00    -0.246 OA
BRANCH  33  35
ATOM     35  C   UNL A   1      34.087  32.972  28.512  1.00  0.00     0.060 A 
ATOM     36  C   UNL A   1      35.014  33.937  28.123  1.00  0.00     0.016 A 
ATOM     37  C   UNL A   1      34.379  32.017  29.493  1.00  0.00     0.016 A 
ATOM     38  C   UNL A   1      36.318  33.767  28.546  1.00  0.00     0.010 A 
ATOM     39  C   UNL A   1      35.626  31.941  30.017  1.00  0.00     0.010 A 
ATOM     40  C   UNL A   1      36.599  32.685  29.388  1.00  0.00    -0.014 A 
BRANCH  40  41
ATOM     41  C   UNL A   1      37.939  32.212  29.607  1.00  0.00     0.031 A 
ATOM     42  C   UNL A   1      38.123  30.851  29.086  1.00  0.00     0.074 A 
ATOM     43  C   UNL A   1      38.911  33.057  30.014  1.00  0.00     0.049 A 
ATOM     44  N   UNL A   1      38.074  29.754  29.762  1.00  0.00    -0.248 NA
ATOM     45  C   UNL A   1      38.032  30.658  27.627  1.00  0.00     0.031 C 
ATOM     46  C   UNL A   1      38.865  34.514  30.206  1.00  0.00     0.029 A 
ATOM     47  N   UNL A   1      40.213  32.770  30.260  1.00  0.00    -0.354 N 
ATOM     48  C   UNL A   1      38.273  28.754  28.824  1.00  0.00     0.074 A 
ATOM     49  C   UNL A   1      37.919  29.331  27.556  1.00  0.00     0.031 C 
ATOM     50  C   UNL A   1      40.124  35.000  30.310  1.00  0.00     0.029 A 
ATOM     51  C   UNL A   1      41.048  33.884  30.355  1.00  0.00     0.049 A 
ATOM     52  H   UNL A   1      40.543  31.848  30.363  1.00  0.00     0.167 HD
ATOM     53  C   UNL A   1      39.026  27.662  29.128  1.00  0.00     0.037 A 
ATOM     54  C   UNL A   1      42.405  33.826  30.401  1.00  0.00     0.037 A 
ATOM     55  C   UNL A   1      39.266  27.598  30.553  1.00  0.00     0.049 A 
ATOM     56  C   UNL A   1      42.743  32.426  30.809  1.00  0.00     0.074 A 
ATOM     57  C   UNL A   1      38.447  27.502  31.663  1.00  0.00     0.029 A 
ATOM     58  N   UNL A   1      40.470  28.088  31.011  1.00  0.00    -0.354 N 
ATOM     59  N   UNL A   1      42.415  31.919  31.973  1.00  0.00    -0.248 NA
ATOM     60  C   UNL A   1      42.929  31.451  29.742  1.00  0.00     0.031 C 
ATOM     61  C   UNL A   1      39.029  28.376  32.628  1.00  0.00     0.029 A 
ATOM     62  C   UNL A   1      40.221  28.882  32.105  1.00  0.00     0.049 A 
ATOM     63  H   UNL A   1      41.355  27.902  30.623  1.00  0.00     0.167 HD
ATOM     64  C   UNL A   1      41.959  30.632  31.696  1.00  0.00     0.074 A 
ATOM     65  C   UNL A   1      42.343  30.389  30.305  1.00  0.00     0.031 C 
ATOM     66  C   UNL A   1      41.048  30.007  32.503  1.00  0.00     0.037 A 
BRANCH  53  67
ATOM     67  C   UNL A   1      39.866  26.898  28.135  1.00  0.00     0.058 A 
ATOM     68  C   UNL A   1      39.732  25.497  28.083  1.00  0.00     0.135 A 
ATOM     69  C   UNL A   1      40.965  27.429  27.421  1.00  0.00     0.135 A 
ATOM     70  F   UNL A   1      38.718  24.883  28.715  1.00  0.00    -0.206 F 
ATOM     71  C   UNL A   1      40.666  24.681  27.447  1.00  0.00     0.059 A 
ATOM     72  C   UNL A   1      41.876  26.638  26.734  1.00  0.00     0.059 A 
ATOM     73  F   UNL A   1      41.275  28.730  27.420  1.00  0.00    -0.206 F 
ATOM     74  C   UNL A   1      41.744  25.263  26.790  1.00  0.00     0.060 A 
BRANCH  74  75
ATOM     75  S   UNL A   1      43.005  24.213  26.058  1.00  0.00     0.124 S 
ATOM     76  O   UNL A   1      43.985  24.142  27.135  1.00  0.00    -0.237 OA
ATOM     77  O   UNL A   1      42.255  22.990  25.790  1.00  0.00    -0.237 OA
ATOM     78  O   UNL A   1      43.418  24.960  24.873  1.00  0.00    -0.744 OA
ENDBRANCH  74  75
ENDBRANCH  53  67
BRANCH  54  79
ATOM     79  C   UNL A   1      43.376  34.738  29.731  1.00  0.00     0.058 A 
ATOM     80  C   UNL A   1      43.521  34.777  28.333  1.00  0.00     0.135 A 
ATOM     81  C   UNL A   1      43.993  35.787  30.444  1.00  0.00     0.135 A 
ATOM     82  F   UNL A   1      42.943  33.836  27.571  1.00  0.00    -0.206 F 
ATOM     83  C   UNL A   1      44.211  35.810  27.678  1.00  0.00     0.059 A 
ATOM     84  C   UNL A   1      44.686  36.824  29.816  1.00  0.00     0.059 A 
ATOM     85  F   UNL A   1      43.862  35.884  31.775  1.00  0.00    -0.206 F 
ATOM     86  C   UNL A   1      44.778  36.840  28.430  1.00  0.00     0.060 A 
BRANCH  86  87
ATOM     87  S   UNL A   1      45.542  38.251  27.589  1.00  0.00     0.124 S 
ATOM     88  O   UNL A   1      45.750  39.184  28.692  1.00  0.00    -0.237 OA
ATOM     89  O   UNL A   1      46.749  37.657  27.023  1.00  0.00    -0.237 OA
ATOM     90  O   UNL A   1      44.533  38.655  26.614  1.00  0.00    -0.744 OA
ENDBRANCH  86  87
ENDBRANCH  54  79
BRANCH  66  91
ATOM     91  C   UNL A   1      40.717  30.628  33.842  1.00  0.00     0.058 A 
ATOM     92  C   UNL A   1      41.528  30.543  34.990  1.00  0.00     0.135 A 
ATOM     93  C   UNL A   1      39.637  31.520  33.895  1.00  0.00     0.135 A 
ATOM     94  F   UNL A   1      42.635  29.788  34.994  1.00  0.00    -0.206 F 
ATOM     95  C   UNL A   1      41.265  31.295  36.140  1.00  0.00     0.059 A 
ATOM     96  C   UNL A   1      39.372  32.300  35.018  1.00  0.00     0.059 A 
ATOM     97  F   UNL A   1      38.861  31.697  32.813  1.00  0.00    -0.206 F 
ATOM     98  C   UNL A   1      40.186  32.177  36.141  1.00  0.00     0.060 A 
BRANCH  98  99
ATOM     99  S   UNL A   1      39.891  33.218  37.589  1.00  0.00     0.124 S 
ATOM    100  O   UNL A   1      39.127  34.324  37.021  1.00  0.00    -0.237 OA
ATOM    101  O   UNL A   1      39.152  32.325  38.476  1.00  0.00    -0.237 OA
ATOM    102  O   UNL A   1      41.237  33.560  38.043  1.00  0.00    -0.744 OA
ENDBRANCH  98  99
ENDBRANCH  66  91
ENDBRANCH  40  41
ENDBRANCH  33  35
ENDBRANCH  32  33
ENDBRANCH  31  32
ENDBRANCH   1  31
TORSDOF 19
ENDMDL
