MODEL 1
REMARK VINA RESULT:     -12.6      0.000      0.000
REMARK SMILES O=C(OCCOCCOC(=O)[C@H]1[C@H]2CC[C@H](CC2)[C@@H]1C(=O)Nc1ccc(Cc2ccncc2)cc1)c1ccc(-c2c3nc(c(-c4c(F)cc(S(=O)(=O)[O-])cc4F)c4ccc([nH]4)c(-c4c(F)cc(S(=O)(=O)[O-])cc4F)c4nc(c(-c5c(F)cc(S(=O)(=O)[O-])cc5F)c5ccc2[nH]5)C=C4)C=C3)cc1
REMARK SMILES IDX 7 1 6 2 5 3 4 4 3 5 2 6 1 7 36 8 37 9 101 10 38 11 100 12
REMARK SMILES IDX 39 13 40 14 41 15 94 16 42 17 99 18 93 19 95 20 43 21 98 22
REMARK SMILES IDX 92 23 91 24 44 26 78 27 57 28 77 29 58 30 61 31 76 32 96 33
REMARK SMILES IDX 59 34 60 35 75 37 97 38 62 39 45 40 46 41 55 42 47 43 48 44
REMARK SMILES IDX 54 45 56 46 49 47 50 48 51 49 52 50 53 51 79 52 80 53 89 54
REMARK SMILES IDX 81 55 82 56 88 57 90 58 83 59 84 60 85 61 86 62 87 63 63 64
REMARK SMILES IDX 64 65 73 66 65 67 66 68 72 69 74 70 67 71 68 72 69 73 70 74
REMARK SMILES IDX 71 75 8 76 9 77 10 78 11 79 12 80 13 81 19 82 18 83 14 84
REMARK SMILES IDX 16 85 17 86 15 87 20 88 21 89 22 90 23 92 24 93 35 94 25 95
REMARK SMILES IDX 34 96 26 97 27 98 28 99 29 100 33 101 30 102 32 103 31 104
REMARK H PARENT 95 25 61 36 22 91
REMARK Flexibility Score: inf
ROOT
ATOM      1  C   UNL A   1      32.646  28.266  27.234  1.00  0.00     0.202 C 
ENDROOT
BRANCH   1   2
ATOM      2  O   UNL A   1      33.171  29.381  26.510  1.00  0.00    -0.374 OA
BRANCH   2   3
ATOM      3  C   UNL A   1      33.222  30.615  27.227  1.00  0.00     0.202 C 
BRANCH   3   4
ATOM      4  C   UNL A   1      34.610  31.144  27.599  1.00  0.00     0.261 C 
BRANCH   4   5
ATOM      5  O   UNL A   1      35.361  30.117  28.266  1.00  0.00    -0.460 OA
BRANCH   5   6
ATOM      6  C   UNL A   1      36.337  30.300  29.188  1.00  0.00     0.338 C 
ATOM      7  O   UNL A   1      36.046  30.781  30.280  1.00  0.00    -0.246 OA
BRANCH   6   8
ATOM      8  C   UNL A   1      37.743  29.876  28.942  1.00  0.00     0.060 A 
ATOM      9  C   UNL A   1      38.293  29.701  27.675  1.00  0.00     0.016 A 
ATOM     10  C   UNL A   1      38.579  29.705  30.055  1.00  0.00     0.016 A 
ATOM     11  C   UNL A   1      39.594  29.317  27.487  1.00  0.00     0.010 A 
ATOM     12  C   UNL A   1      39.923  29.366  29.880  1.00  0.00     0.010 A 
ATOM     13  C   UNL A   1      40.422  29.182  28.586  1.00  0.00    -0.014 A 
BRANCH  13  14
ATOM     14  C   UNL A   1      41.792  28.782  28.279  1.00  0.00     0.031 A 
ATOM     15  C   UNL A   1      42.866  29.798  28.453  1.00  0.00     0.074 A 
ATOM     16  C   UNL A   1      42.038  27.475  28.079  1.00  0.00     0.049 A 
ATOM     17  N   UNL A   1      44.131  29.700  28.174  1.00  0.00    -0.248 NA
ATOM     18  C   UNL A   1      42.470  31.093  29.042  1.00  0.00     0.031 C 
ATOM     19  C   UNL A   1      41.023  26.410  28.108  1.00  0.00     0.029 A 
ATOM     20  N   UNL A   1      43.207  26.807  27.865  1.00  0.00    -0.354 N 
ATOM     21  C   UNL A   1      44.673  30.938  28.484  1.00  0.00     0.074 A 
ATOM     22  C   UNL A   1      43.615  31.759  29.022  1.00  0.00     0.031 C 
ATOM     23  C   UNL A   1      41.624  25.223  27.935  1.00  0.00     0.029 A 
ATOM     24  C   UNL A   1      43.036  25.455  27.676  1.00  0.00     0.049 A 
ATOM     25  H   UNL A   1      44.087  27.247  27.847  1.00  0.00     0.167 HD
ATOM     26  C   UNL A   1      45.947  31.337  28.285  1.00  0.00     0.037 A 
ATOM     27  C   UNL A   1      43.922  24.534  27.258  1.00  0.00     0.037 A 
ATOM     28  C   UNL A   1      46.951  30.457  27.756  1.00  0.00     0.049 A 
ATOM     29  C   UNL A   1      45.309  25.030  26.951  1.00  0.00     0.074 A 
ATOM     30  C   UNL A   1      48.262  30.734  27.425  1.00  0.00     0.029 A 
ATOM     31  N   UNL A   1      46.738  29.109  27.484  1.00  0.00    -0.354 N 
ATOM     32  N   UNL A   1      45.807  26.234  27.127  1.00  0.00    -0.248 NA
ATOM     33  C   UNL A   1      46.239  24.071  26.350  1.00  0.00     0.031 C 
ATOM     34  C   UNL A   1      48.828  29.562  26.912  1.00  0.00     0.029 A 
ATOM     35  C   UNL A   1      47.885  28.544  26.965  1.00  0.00     0.049 A 
ATOM     36  H   UNL A   1      45.893  28.628  27.640  1.00  0.00     0.167 HD
ATOM     37  C   UNL A   1      47.106  26.183  26.650  1.00  0.00     0.074 A 
ATOM     38  C   UNL A   1      47.328  24.816  26.211  1.00  0.00     0.031 C 
ATOM     39  C   UNL A   1      48.034  27.168  26.557  1.00  0.00     0.037 A 
BRANCH  26  40
ATOM     40  C   UNL A   1      46.266  32.780  28.528  1.00  0.00     0.058 A 
ATOM     41  C   UNL A   1      45.998  33.782  27.585  1.00  0.00     0.135 A 
ATOM     42  C   UNL A   1      46.871  33.161  29.737  1.00  0.00     0.135 A 
ATOM     43  F   UNL A   1      45.466  33.465  26.394  1.00  0.00    -0.206 F 
ATOM     44  C   UNL A   1      46.316  35.115  27.834  1.00  0.00     0.059 A 
ATOM     45  C   UNL A   1      47.182  34.487  30.014  1.00  0.00     0.059 A 
ATOM     46  F   UNL A   1      47.179  32.234  30.658  1.00  0.00    -0.206 F 
ATOM     47  C   UNL A   1      46.905  35.458  29.053  1.00  0.00     0.060 A 
BRANCH  47  48
ATOM     48  S   UNL A   1      47.293  37.192  29.372  1.00  0.00     0.124 S 
ATOM     49  O   UNL A   1      46.922  37.321  30.777  1.00  0.00    -0.237 OA
ATOM     50  O   UNL A   1      48.723  37.247  29.086  1.00  0.00    -0.237 OA
ATOM     51  O   UNL A   1      46.440  37.911  28.430  1.00  0.00    -0.744 OA
ENDBRANCH  47  48
ENDBRANCH  26  40
BRANCH  27  52
ATOM     52  C   UNL A   1      43.500  23.136  26.978  1.00  0.00     0.058 A 
ATOM     53  C   UNL A   1      43.203  22.234  28.010  1.00  0.00     0.135 A 
ATOM     54  C   UNL A   1      43.408  22.659  25.657  1.00  0.00     0.135 A 
ATOM     55  F   UNL A   1      43.276  22.633  29.289  1.00  0.00    -0.206 F 
ATOM     56  C   UNL A   1      42.862  20.910  27.748  1.00  0.00     0.059 A 
ATOM     57  C   UNL A   1      43.036  21.350  25.368  1.00  0.00     0.059 A 
ATOM     58  F   UNL A   1      43.668  23.477  24.625  1.00  0.00    -0.206 F 
ATOM     59  C   UNL A   1      42.789  20.476  26.423  1.00  0.00     0.060 A 
BRANCH  59  60
ATOM     60  S   UNL A   1      42.356  18.755  26.084  1.00  0.00     0.124 S 
ATOM     61  O   UNL A   1      42.625  18.129  27.373  1.00  0.00    -0.237 OA
ATOM     62  O   UNL A   1      40.949  18.858  25.705  1.00  0.00    -0.237 OA
ATOM     63  O   UNL A   1      43.263  18.389  25.000  1.00  0.00    -0.744 OA
ENDBRANCH  59  60
ENDBRANCH  27  52
BRANCH  39  64
ATOM     64  C   UNL A   1      49.354  26.782  25.974  1.00  0.00     0.058 A 
ATOM     65  C   UNL A   1      49.626  26.963  24.610  1.00  0.00     0.135 A 
ATOM     66  C   UNL A   1      50.376  26.294  26.801  1.00  0.00     0.135 A 
ATOM     67  F   UNL A   1      48.669  27.417  23.784  1.00  0.00    -0.206 F 
ATOM     68  C   UNL A   1      50.871  26.658  24.080  1.00  0.00     0.059 A 
ATOM     69  C   UNL A   1      51.636  26.008  26.297  1.00  0.00     0.059 A 
ATOM     70  F   UNL A   1      50.157  26.116  28.114  1.00  0.00    -0.206 F 
ATOM     71  C   UNL A   1      51.871  26.186  24.934  1.00  0.00     0.060 A 
BRANCH  71  72
ATOM     72  S   UNL A   1      53.502  25.849  24.245  1.00  0.00     0.124 S 
ATOM     73  O   UNL A   1      53.249  25.986  22.815  1.00  0.00    -0.237 OA
ATOM     74  O   UNL A   1      54.320  26.896  24.848  1.00  0.00    -0.237 OA
ATOM     75  O   UNL A   1      53.790  24.494  24.706  1.00  0.00    -0.744 OA
ENDBRANCH  71  72
ENDBRANCH  39  64
ENDBRANCH  13  14
ENDBRANCH   6   8
ENDBRANCH   5   6
ENDBRANCH   4   5
ENDBRANCH   3   4
ENDBRANCH   2   3
ENDBRANCH   1   2
BRANCH   1  76
ATOM     76  C   UNL A   1      32.426  27.072  26.308  1.00  0.00     0.261 C 
BRANCH  76  77
ATOM     77  O   UNL A   1      31.473  26.186  26.921  1.00  0.00    -0.463 OA
BRANCH  77  78
ATOM     78  C   UNL A   1      31.483  24.926  26.413  1.00  0.00     0.310 C 
ATOM     79  O   UNL A   1      30.528  24.174  26.435  1.00  0.00    -0.252 OA
BRANCH  78  80
ATOM     80  C   UNL A   1      32.849  24.507  25.876  1.00  0.00     0.115 C 
ATOM     81  C   UNL A   1      33.823  23.648  26.724  1.00  0.00     0.004 C 
ATOM     82  C   UNL A   1      32.641  23.889  24.493  1.00  0.00     0.096 C 
ATOM     83  C   UNL A   1      33.228  22.278  27.047  1.00  0.00     0.005 C 
ATOM     84  C   UNL A   1      35.105  23.402  25.896  1.00  0.00     0.005 C 
ATOM     85  C   UNL A   1      33.247  22.446  24.517  1.00  0.00     0.002 C 
ATOM     86  C   UNL A   1      32.704  21.661  25.745  1.00  0.00     0.005 C 
ATOM     87  C   UNL A   1      34.774  22.544  24.674  1.00  0.00     0.005 C 
BRANCH  82  88
ATOM     88  C   UNL A   1      33.074  24.698  23.234  1.00  0.00     0.228 C 
ATOM     89  O   UNL A   1      34.182  24.474  22.731  1.00  0.00    -0.274 OA
ATOM     90  N   UNL A   1      32.174  25.410  22.479  1.00  0.00    -0.326 N 
ATOM     91  H   UNL A   1      32.257  25.277  21.506  1.00  0.00     0.169 HD
BRANCH  90  92
ATOM     92  C   UNL A   1      31.156  26.296  22.865  1.00  0.00     0.041 A 
ATOM     93  C   UNL A   1      31.303  27.649  22.571  1.00  0.00     0.026 A 
ATOM     94  C   UNL A   1      29.990  25.855  23.499  1.00  0.00     0.026 A 
ATOM     95  C   UNL A   1      30.202  28.506  22.687  1.00  0.00     0.006 A 
ATOM     96  C   UNL A   1      28.893  26.716  23.632  1.00  0.00     0.006 A 
ATOM     97  C   UNL A   1      28.967  28.031  23.154  1.00  0.00    -0.043 A 
BRANCH  97  98
ATOM     98  C   UNL A   1      27.732  28.903  23.073  1.00  0.00     0.071 C 
BRANCH  98  99
ATOM     99  C   UNL A   1      27.988  30.332  22.673  1.00  0.00    -0.041 A 
ATOM    100  C   UNL A   1      27.877  30.729  21.337  1.00  0.00     0.024 A 
ATOM    101  C   UNL A   1      28.296  31.304  23.628  1.00  0.00     0.024 A 
ATOM    102  C   UNL A   1      28.103  32.058  21.016  1.00  0.00     0.111 A 
ATOM    103  C   UNL A   1      28.500  32.609  23.209  1.00  0.00     0.111 A 
ATOM    104  N   UNL A   1      28.428  33.005  21.921  1.00  0.00    -0.265 NA
ENDBRANCH  98  99
ENDBRANCH  97  98
ENDBRANCH  90  92
ENDBRANCH  82  88
ENDBRANCH  78  80
ENDBRANCH  77  78
ENDBRANCH  76  77
ENDBRANCH   1  76
TORSDOF 21
ENDMDL
MODEL 2
REMARK VINA RESULT:     -12.4      1.027      2.037
REMARK SMILES O=C(OCCOCCOC(=O)[C@H]1[C@H]2CC[C@H](CC2)[C@@H]1C(=O)Nc1ccc(Cc2ccncc2)cc1)c1ccc(-c2c3nc(c(-c4c(F)cc(S(=O)(=O)[O-])cc4F)c4ccc([nH]4)c(-c4c(F)cc(S(=O)(=O)[O-])cc4F)c4nc(c(-c5c(F)cc(S(=O)(=O)[O-])cc5F)c5ccc2[nH]5)C=C4)C=C3)cc1
REMARK SMILES IDX 7 1 6 2 5 3 4 4 3 5 2 6 1 7 36 8 37 9 101 10 38 11 100 12
REMARK SMILES IDX 39 13 40 14 41 15 94 16 42 17 99 18 93 19 95 20 43 21 98 22
REMARK SMILES IDX 92 23 91 24 44 26 78 27 57 28 77 29 58 30 61 31 76 32 96 33
REMARK SMILES IDX 59 34 60 35 75 37 97 38 62 39 45 40 46 41 55 42 47 43 48 44
REMARK SMILES IDX 54 45 56 46 49 47 50 48 51 49 52 50 53 51 79 52 80 53 89 54
REMARK SMILES IDX 81 55 82 56 88 57 90 58 83 59 84 60 85 61 86 62 87 63 63 64
REMARK SMILES IDX 64 65 73 66 65 67 66 68 72 69 74 70 67 71 68 72 69 73 70 74
REMARK SMILES IDX 71 75 8 76 9 77 10 78 11 79 12 80 13 81 19 82 18 83 14 84
REMARK SMILES IDX 16 85 17 86 15 87 20 88 21 89 22 90 23 92 24 93 35 94 25 95
REMARK SMILES IDX 34 96 26 97 27 98 28 99 29 100 33 101 30 102 32 103 31 104
REMARK H PARENT 95 25 61 36 22 91
REMARK Flexibility Score: inf
ROOT
ATOM      1  C   UNL A   1      33.917  28.416  26.991  1.00  0.00     0.202 C 
ENDROOT
BRANCH   1   2
ATOM      2  O   UNL A   1      33.103  29.591  26.952  1.00  0.00    -0.374 OA
BRANCH   2   3
ATOM      3  C   UNL A   1      33.680  30.761  27.532  1.00  0.00     0.202 C 
BRANCH   3   4
ATOM      4  C   UNL A   1      35.208  30.823  27.595  1.00  0.00     0.261 C 
BRANCH   4   5
ATOM      5  O   UNL A   1      35.632  31.072  28.944  1.00  0.00    -0.460 OA
BRANCH   5   6
ATOM      6  C   UNL A   1      36.388  30.254  29.716  1.00  0.00     0.338 C 
ATOM      7  O   UNL A   1      35.895  29.761  30.728  1.00  0.00    -0.246 OA
BRANCH   6   8
ATOM      8  C   UNL A   1      37.780  29.881  29.342  1.00  0.00     0.060 A 
ATOM      9  C   UNL A   1      38.772  29.552  30.263  1.00  0.00     0.016 A 
ATOM     10  C   UNL A   1      38.091  29.797  27.977  1.00  0.00     0.016 A 
ATOM     11  C   UNL A   1      40.041  29.207  29.882  1.00  0.00     0.010 A 
ATOM     12  C   UNL A   1      39.365  29.393  27.570  1.00  0.00     0.010 A 
ATOM     13  C   UNL A   1      40.332  29.092  28.535  1.00  0.00    -0.014 A 
BRANCH  13  14
ATOM     14  C   UNL A   1      41.707  28.707  28.232  1.00  0.00     0.031 A 
ATOM     15  C   UNL A   1      42.769  29.734  28.407  1.00  0.00     0.074 A 
ATOM     16  C   UNL A   1      41.967  27.402  28.036  1.00  0.00     0.049 A 
ATOM     17  N   UNL A   1      44.036  29.649  28.131  1.00  0.00    -0.248 NA
ATOM     18  C   UNL A   1      42.358  31.026  28.991  1.00  0.00     0.031 C 
ATOM     19  C   UNL A   1      40.964  26.326  28.064  1.00  0.00     0.029 A 
ATOM     20  N   UNL A   1      43.144  26.745  27.826  1.00  0.00    -0.354 N 
ATOM     21  C   UNL A   1      44.564  30.894  28.439  1.00  0.00     0.074 A 
ATOM     22  C   UNL A   1      43.496  31.704  28.973  1.00  0.00     0.031 C 
ATOM     23  C   UNL A   1      41.578  25.145  27.896  1.00  0.00     0.029 A 
ATOM     24  C   UNL A   1      42.988  25.392  27.640  1.00  0.00     0.049 A 
ATOM     25  H   UNL A   1      44.019  27.196  27.810  1.00  0.00     0.167 HD
ATOM     26  C   UNL A   1      45.834  31.306  28.243  1.00  0.00     0.037 A 
ATOM     27  C   UNL A   1      43.886  24.479  27.227  1.00  0.00     0.037 A 
ATOM     28  C   UNL A   1      46.849  30.435  27.719  1.00  0.00     0.049 A 
ATOM     29  C   UNL A   1      45.268  24.989  26.922  1.00  0.00     0.074 A 
ATOM     30  C   UNL A   1      48.158  30.726  27.391  1.00  0.00     0.029 A 
ATOM     31  N   UNL A   1      46.651  29.085  27.450  1.00  0.00    -0.354 N 
ATOM     32  N   UNL A   1      45.752  26.199  27.097  1.00  0.00    -0.248 NA
ATOM     33  C   UNL A   1      46.209  24.039  26.326  1.00  0.00     0.031 C 
ATOM     34  C   UNL A   1      48.738  29.558  26.882  1.00  0.00     0.029 A 
ATOM     35  C   UNL A   1      47.805  28.531  26.935  1.00  0.00     0.049 A 
ATOM     36  H   UNL A   1      45.811  28.595  27.605  1.00  0.00     0.167 HD
ATOM     37  C   UNL A   1      47.053  26.161  26.623  1.00  0.00     0.074 A 
ATOM     38  C   UNL A   1      47.290  24.795  26.188  1.00  0.00     0.031 C 
ATOM     39  C   UNL A   1      47.970  27.156  26.531  1.00  0.00     0.037 A 
BRANCH  26  40
ATOM     40  C   UNL A   1      46.137  32.753  28.483  1.00  0.00     0.058 A 
ATOM     41  C   UNL A   1      46.611  33.231  29.712  1.00  0.00     0.135 A 
ATOM     42  C   UNL A   1      45.931  33.683  27.451  1.00  0.00     0.135 A 
ATOM     43  F   UNL A   1      46.779  32.391  30.746  1.00  0.00    -0.206 F 
ATOM     44  C   UNL A   1      46.874  34.585  29.910  1.00  0.00     0.059 A 
ATOM     45  C   UNL A   1      46.202  35.036  27.621  1.00  0.00     0.059 A 
ATOM     46  F   UNL A   1      45.446  33.280  26.266  1.00  0.00    -0.206 F 
ATOM     47  C   UNL A   1      46.670  35.479  28.857  1.00  0.00     0.060 A 
BRANCH  47  48
ATOM     48  S   UNL A   1      47.033  37.228  29.120  1.00  0.00     0.124 S 
ATOM     49  O   UNL A   1      47.735  37.568  27.886  1.00  0.00    -0.237 OA
ATOM     50  O   UNL A   1      45.701  37.803  29.271  1.00  0.00    -0.237 OA
ATOM     51  O   UNL A   1      47.854  37.227  30.327  1.00  0.00    -0.744 OA
ENDBRANCH  47  48
ENDBRANCH  26  40
BRANCH  27  52
ATOM     52  C   UNL A   1      43.479  23.075  26.949  1.00  0.00     0.058 A 
ATOM     53  C   UNL A   1      43.178  22.177  27.982  1.00  0.00     0.135 A 
ATOM     54  C   UNL A   1      43.407  22.592  25.630  1.00  0.00     0.135 A 
ATOM     55  F   UNL A   1      43.231  22.583  29.260  1.00  0.00    -0.206 F 
ATOM     56  C   UNL A   1      42.851  20.848  27.723  1.00  0.00     0.059 A 
ATOM     57  C   UNL A   1      43.051  21.278  25.343  1.00  0.00     0.059 A 
ATOM     58  F   UNL A   1      43.673  23.406  24.597  1.00  0.00    -0.206 F 
ATOM     59  C   UNL A   1      42.798  20.407  26.399  1.00  0.00     0.060 A 
BRANCH  59  60
ATOM     60  S   UNL A   1      42.384  18.680  26.065  1.00  0.00     0.124 S 
ATOM     61  O   UNL A   1      42.687  18.055  27.346  1.00  0.00    -0.237 OA
ATOM     62  O   UNL A   1      40.970  18.763  25.712  1.00  0.00    -0.237 OA
ATOM     63  O   UNL A   1      43.276  18.330  24.963  1.00  0.00    -0.744 OA
ENDBRANCH  59  60
ENDBRANCH  27  52
BRANCH  39  64
ATOM     64  C   UNL A   1      49.297  26.782  25.952  1.00  0.00     0.058 A 
ATOM     65  C   UNL A   1      49.573  26.970  24.590  1.00  0.00     0.135 A 
ATOM     66  C   UNL A   1      50.318  26.299  26.782  1.00  0.00     0.135 A 
ATOM     67  F   UNL A   1      48.616  27.419  23.762  1.00  0.00    -0.206 F 
ATOM     68  C   UNL A   1      50.823  26.677  24.064  1.00  0.00     0.059 A 
ATOM     69  C   UNL A   1      51.583  26.025  26.283  1.00  0.00     0.059 A 
ATOM     70  F   UNL A   1      50.095  26.115  28.093  1.00  0.00    -0.206 F 
ATOM     71  C   UNL A   1      51.822  26.210  24.921  1.00  0.00     0.060 A 
BRANCH  71  72
ATOM     72  S   UNL A   1      53.459  25.889  24.239  1.00  0.00     0.124 S 
ATOM     73  O   UNL A   1      54.250  26.942  24.868  1.00  0.00    -0.237 OA
ATOM     74  O   UNL A   1      53.730  24.531  24.698  1.00  0.00    -0.237 OA
ATOM     75  O   UNL A   1      53.258  26.029  22.799  1.00  0.00    -0.744 OA
ENDBRANCH  71  72
ENDBRANCH  39  64
ENDBRANCH  13  14
ENDBRANCH   6   8
ENDBRANCH   5   6
ENDBRANCH   4   5
ENDBRANCH   3   4
ENDBRANCH   2   3
ENDBRANCH   1   2
BRANCH   1  76
ATOM     76  C   UNL A   1      34.029  27.787  25.604  1.00  0.00     0.261 C 
BRANCH  76  77
ATOM     77  O   UNL A   1      34.116  26.359  25.753  1.00  0.00    -0.463 OA
BRANCH  77  78
ATOM     78  C   UNL A   1      34.079  25.677  24.579  1.00  0.00     0.310 C 
ATOM     79  O   UNL A   1      33.988  26.203  23.486  1.00  0.00    -0.252 OA
BRANCH  78  80
ATOM     80  C   UNL A   1      34.081  24.162  24.766  1.00  0.00     0.115 C 
ATOM     81  C   UNL A   1      35.168  23.268  24.113  1.00  0.00     0.004 C 
ATOM     82  C   UNL A   1      33.964  23.872  26.262  1.00  0.00     0.096 C 
ATOM     83  C   UNL A   1      36.562  23.606  24.637  1.00  0.00     0.005 C 
ATOM     84  C   UNL A   1      34.883  21.797  24.495  1.00  0.00     0.005 C 
ATOM     85  C   UNL A   1      35.188  22.988  26.675  1.00  0.00     0.002 C 
ATOM     86  C   UNL A   1      36.508  23.635  26.168  1.00  0.00     0.005 C 
ATOM     87  C   UNL A   1      35.064  21.610  26.003  1.00  0.00     0.005 C 
BRANCH  82  88
ATOM     88  C   UNL A   1      32.617  23.327  26.821  1.00  0.00     0.228 C 
ATOM     89  O   UNL A   1      32.625  22.290  27.497  1.00  0.00    -0.274 OA
ATOM     90  N   UNL A   1      31.479  24.097  26.867  1.00  0.00    -0.326 N 
ATOM     91  H   UNL A   1      30.994  24.062  27.723  1.00  0.00     0.169 HD
BRANCH  90  92
ATOM     92  C   UNL A   1      30.897  24.924  25.894  1.00  0.00     0.041 A 
ATOM     93  C   UNL A   1      30.699  26.269  26.195  1.00  0.00     0.026 A 
ATOM     94  C   UNL A   1      30.549  24.446  24.626  1.00  0.00     0.026 A 
ATOM     95  C   UNL A   1      30.388  27.169  25.169  1.00  0.00     0.006 A 
ATOM     96  C   UNL A   1      30.220  25.345  23.603  1.00  0.00     0.006 A 
ATOM     97  C   UNL A   1      30.213  26.723  23.850  1.00  0.00    -0.043 A 
BRANCH  97  98
ATOM     98  C   UNL A   1      30.091  27.720  22.717  1.00  0.00     0.071 C 
BRANCH  98  99
ATOM     99  C   UNL A   1      29.163  28.875  22.982  1.00  0.00    -0.041 A 
ATOM    100  C   UNL A   1      29.662  30.175  23.113  1.00  0.00     0.024 A 
ATOM    101  C   UNL A   1      27.780  28.686  23.058  1.00  0.00     0.024 A 
ATOM    102  C   UNL A   1      28.770  31.211  23.339  1.00  0.00     0.111 A 
ATOM    103  C   UNL A   1      26.969  29.788  23.282  1.00  0.00     0.111 A 
ATOM    104  N   UNL A   1      27.434  31.044  23.442  1.00  0.00    -0.265 NA
ENDBRANCH  98  99
ENDBRANCH  97  98
ENDBRANCH  90  92
ENDBRANCH  82  88
ENDBRANCH  78  80
ENDBRANCH  77  78
ENDBRANCH  76  77
ENDBRANCH   1  76
TORSDOF 21
ENDMDL
MODEL 3
REMARK VINA RESULT:     -12.2      6.573     12.260
REMARK SMILES O=C(OCCOCCOC(=O)[C@H]1[C@H]2CC[C@H](CC2)[C@@H]1C(=O)Nc1ccc(Cc2ccncc2)cc1)c1ccc(-c2c3nc(c(-c4c(F)cc(S(=O)(=O)[O-])cc4F)c4ccc([nH]4)c(-c4c(F)cc(S(=O)(=O)[O-])cc4F)c4nc(c(-c5c(F)cc(S(=O)(=O)[O-])cc5F)c5ccc2[nH]5)C=C4)C=C3)cc1
REMARK SMILES IDX 7 1 6 2 5 3 4 4 3 5 2 6 1 7 36 8 37 9 101 10 38 11 100 12
REMARK SMILES IDX 39 13 40 14 41 15 94 16 42 17 99 18 93 19 95 20 43 21 98 22
REMARK SMILES IDX 92 23 91 24 44 26 78 27 57 28 77 29 58 30 61 31 76 32 96 33
REMARK SMILES IDX 59 34 60 35 75 37 97 38 62 39 45 40 46 41 55 42 47 43 48 44
REMARK SMILES IDX 54 45 56 46 49 47 50 48 51 49 52 50 53 51 79 52 80 53 89 54
REMARK SMILES IDX 81 55 82 56 88 57 90 58 83 59 84 60 85 61 86 62 87 63 63 64
REMARK SMILES IDX 64 65 73 66 65 67 66 68 72 69 74 70 67 71 68 72 69 73 70 74
REMARK SMILES IDX 71 75 8 76 9 77 10 78 11 79 12 80 13 81 19 82 18 83 14 84
REMARK SMILES IDX 16 85 17 86 15 87 20 88 21 89 22 90 23 92 24 93 35 94 25 95
REMARK SMILES IDX 34 96 26 97 27 98 28 99 29 100 33 101 30 102 32 103 31 104
REMARK H PARENT 95 25 61 36 22 91
REMARK Flexibility Score: inf
ROOT
ATOM      1  C   UNL A   1      37.216  23.253  24.633  1.00  0.00     0.202 C 
ENDROOT
BRANCH   1   2
ATOM      2  O   UNL A   1      37.712  23.021  25.954  1.00  0.00    -0.374 OA
BRANCH   2   3
ATOM      3  C   UNL A   1      38.993  22.395  26.032  1.00  0.00     0.202 C 
BRANCH   3   4
ATOM      4  C   UNL A   1      39.915  22.843  27.169  1.00  0.00     0.261 C 
BRANCH   4   5
ATOM      5  O   UNL A   1      40.965  23.673  26.648  1.00  0.00    -0.460 OA
BRANCH   5   6
ATOM      6  C   UNL A   1      40.915  25.013  26.455  1.00  0.00     0.338 C 
ATOM      7  O   UNL A   1      40.916  25.454  25.309  1.00  0.00    -0.246 OA
BRANCH   6   8
ATOM      8  C   UNL A   1      40.792  25.969  27.591  1.00  0.00     0.060 A 
ATOM      9  C   UNL A   1      41.639  27.057  27.787  1.00  0.00     0.016 A 
ATOM     10  C   UNL A   1      39.721  25.796  28.479  1.00  0.00     0.016 A 
ATOM     11  C   UNL A   1      41.492  27.920  28.840  1.00  0.00     0.010 A 
ATOM     12  C   UNL A   1      39.524  26.699  29.527  1.00  0.00     0.010 A 
ATOM     13  C   UNL A   1      40.414  27.764  29.692  1.00  0.00    -0.014 A 
BRANCH  13  14
ATOM     14  C   UNL A   1      40.339  28.742  30.774  1.00  0.00     0.031 A 
ATOM     15  C   UNL A   1      41.373  28.674  31.843  1.00  0.00     0.074 A 
ATOM     16  C   UNL A   1      39.491  29.776  30.631  1.00  0.00     0.049 A 
ATOM     17  N   UNL A   1      41.465  29.378  32.931  1.00  0.00    -0.248 NA
ATOM     18  C   UNL A   1      42.465  27.699  31.654  1.00  0.00     0.031 C 
ATOM     19  C   UNL A   1      38.599  29.985  29.480  1.00  0.00     0.029 A 
ATOM     20  N   UNL A   1      39.272  30.869  31.418  1.00  0.00    -0.354 N 
ATOM     21  C   UNL A   1      42.580  28.888  33.592  1.00  0.00     0.074 A 
ATOM     22  C   UNL A   1      43.167  27.862  32.765  1.00  0.00     0.031 C 
ATOM     23  C   UNL A   1      37.945  31.146  29.634  1.00  0.00     0.029 A 
ATOM     24  C   UNL A   1      38.287  31.699  30.935  1.00  0.00     0.049 A 
ATOM     25  H   UNL A   1      39.768  31.045  32.249  1.00  0.00     0.167 HD
ATOM     26  C   UNL A   1      43.028  29.259  34.811  1.00  0.00     0.037 A 
ATOM     27  C   UNL A   1      37.685  32.743  31.531  1.00  0.00     0.037 A 
ATOM     28  C   UNL A   1      42.398  30.302  35.573  1.00  0.00     0.049 A 
ATOM     29  C   UNL A   1      38.138  33.070  32.928  1.00  0.00     0.074 A 
ATOM     30  C   UNL A   1      42.684  30.738  36.850  1.00  0.00     0.029 A 
ATOM     31  N   UNL A   1      41.341  31.076  35.104  1.00  0.00    -0.354 N 
ATOM     32  N   UNL A   1      39.120  32.531  33.618  1.00  0.00    -0.248 NA
ATOM     33  C   UNL A   1      37.386  34.102  33.646  1.00  0.00     0.031 C 
ATOM     34  C   UNL A   1      41.769  31.748  37.169  1.00  0.00     0.029 A 
ATOM     35  C   UNL A   1      40.944  31.972  36.076  1.00  0.00     0.049 A 
ATOM     36  H   UNL A   1      40.936  30.998  34.210  1.00  0.00     0.167 HD
ATOM     37  C   UNL A   1      39.099  33.151  34.857  1.00  0.00     0.074 A 
ATOM     38  C   UNL A   1      38.029  34.133  34.806  1.00  0.00     0.031 C 
ATOM     39  C   UNL A   1      39.871  32.928  35.949  1.00  0.00     0.037 A 
BRANCH  26  40
ATOM     40  C   UNL A   1      44.148  28.466  35.408  1.00  0.00     0.058 A 
ATOM     41  C   UNL A   1      45.496  28.753  35.155  1.00  0.00     0.135 A 
ATOM     42  C   UNL A   1      43.855  27.378  36.248  1.00  0.00     0.135 A 
ATOM     43  F   UNL A   1      45.830  29.751  34.320  1.00  0.00    -0.206 F 
ATOM     44  C   UNL A   1      46.518  27.990  35.715  1.00  0.00     0.059 A 
ATOM     45  C   UNL A   1      44.858  26.614  36.832  1.00  0.00     0.059 A 
ATOM     46  F   UNL A   1      42.579  27.042  36.495  1.00  0.00    -0.206 F 
ATOM     47  C   UNL A   1      46.188  26.924  36.556  1.00  0.00     0.060 A 
BRANCH  47  48
ATOM     48  S   UNL A   1      47.522  25.956  37.293  1.00  0.00     0.124 S 
ATOM     49  O   UNL A   1      47.058  24.593  37.055  1.00  0.00    -0.237 OA
ATOM     50  O   UNL A   1      48.680  26.377  36.512  1.00  0.00    -0.237 OA
ATOM     51  O   UNL A   1      47.521  26.382  38.689  1.00  0.00    -0.744 OA
ENDBRANCH  47  48
ENDBRANCH  26  40
BRANCH  27  52
ATOM     52  C   UNL A   1      36.532  33.431  30.890  1.00  0.00     0.058 A 
ATOM     53  C   UNL A   1      36.698  34.260  29.772  1.00  0.00     0.135 A 
ATOM     54  C   UNL A   1      35.230  33.292  31.405  1.00  0.00     0.135 A 
ATOM     55  F   UNL A   1      37.917  34.432  29.240  1.00  0.00    -0.206 F 
ATOM     56  C   UNL A   1      35.626  34.948  29.207  1.00  0.00     0.059 A 
ATOM     57  C   UNL A   1      34.138  33.941  30.838  1.00  0.00     0.059 A 
ATOM     58  F   UNL A   1      35.004  32.503  32.467  1.00  0.00    -0.206 F 
ATOM     59  C   UNL A   1      34.351  34.787  29.753  1.00  0.00     0.060 A 
BRANCH  59  60
ATOM     60  S   UNL A   1      32.964  35.687  29.025  1.00  0.00     0.124 S 
ATOM     61  O   UNL A   1      32.365  34.663  28.180  1.00  0.00    -0.237 OA
ATOM     62  O   UNL A   1      32.194  36.075  30.204  1.00  0.00    -0.237 OA
ATOM     63  O   UNL A   1      33.614  36.790  28.321  1.00  0.00    -0.744 OA
ENDBRANCH  59  60
ENDBRANCH  27  52
BRANCH  39  64
ATOM     64  C   UNL A   1      39.580  33.770  37.149  1.00  0.00     0.058 A 
ATOM     65  C   UNL A   1      38.697  33.331  38.147  1.00  0.00     0.135 A 
ATOM     66  C   UNL A   1      40.243  34.992  37.333  1.00  0.00     0.135 A 
ATOM     67  F   UNL A   1      38.035  32.172  38.002  1.00  0.00    -0.206 F 
ATOM     68  C   UNL A   1      38.472  34.087  39.289  1.00  0.00     0.059 A 
ATOM     69  C   UNL A   1      40.053  35.750  38.478  1.00  0.00     0.059 A 
ATOM     70  F   UNL A   1      41.103  35.441  36.404  1.00  0.00    -0.206 F 
ATOM     71  C   UNL A   1      39.159  35.293  39.446  1.00  0.00     0.060 A 
BRANCH  71  72
ATOM     72  S   UNL A   1      38.903  36.237  40.959  1.00  0.00     0.124 S 
ATOM     73  O   UNL A   1      37.803  35.504  41.579  1.00  0.00    -0.237 OA
ATOM     74  O   UNL A   1      40.196  36.122  41.625  1.00  0.00    -0.237 OA
ATOM     75  O   UNL A   1      38.572  37.573  40.472  1.00  0.00    -0.744 OA
ENDBRANCH  71  72
ENDBRANCH  39  64
ENDBRANCH  13  14
ENDBRANCH   6   8
ENDBRANCH   5   6
ENDBRANCH   4   5
ENDBRANCH   3   4
ENDBRANCH   2   3
ENDBRANCH   1   2
BRANCH   1  76
ATOM     76  C   UNL A   1      35.695  23.129  24.594  1.00  0.00     0.261 C 
BRANCH  76  77
ATOM     77  O   UNL A   1      35.122  24.388  24.986  1.00  0.00    -0.463 OA
BRANCH  77  78
ATOM     78  C   UNL A   1      34.121  24.818  24.173  1.00  0.00     0.310 C 
ATOM     79  O   UNL A   1      34.136  24.717  22.962  1.00  0.00    -0.252 OA
BRANCH  78  80
ATOM     80  C   UNL A   1      32.996  25.521  24.928  1.00  0.00     0.115 C 
ATOM     81  C   UNL A   1      33.295  26.555  26.046  1.00  0.00     0.004 C 
ATOM     82  C   UNL A   1      32.027  26.099  23.897  1.00  0.00     0.096 C 
ATOM     83  C   UNL A   1      34.054  27.765  25.503  1.00  0.00     0.005 C 
ATOM     84  C   UNL A   1      31.950  27.074  26.602  1.00  0.00     0.005 C 
ATOM     85  C   UNL A   1      31.906  27.636  24.163  1.00  0.00     0.002 C 
ATOM     86  C   UNL A   1      33.321  28.274  24.257  1.00  0.00     0.005 C 
ATOM     87  C   UNL A   1      31.211  27.860  25.517  1.00  0.00     0.005 C 
BRANCH  82  88
ATOM     88  C   UNL A   1      30.642  25.416  23.699  1.00  0.00     0.228 C 
ATOM     89  O   UNL A   1      29.629  26.124  23.631  1.00  0.00    -0.274 OA
ATOM     90  N   UNL A   1      30.523  24.110  23.287  1.00  0.00    -0.326 N 
ATOM     91  H   UNL A   1      29.867  23.964  22.568  1.00  0.00     0.169 HD
BRANCH  90  92
ATOM     92  C   UNL A   1      31.185  22.951  23.723  1.00  0.00     0.041 A 
ATOM     93  C   UNL A   1      31.821  22.152  22.778  1.00  0.00     0.026 A 
ATOM     94  C   UNL A   1      31.255  22.602  25.076  1.00  0.00     0.026 A 
ATOM     95  C   UNL A   1      32.715  21.160  23.199  1.00  0.00     0.006 A 
ATOM     96  C   UNL A   1      32.135  21.597  25.497  1.00  0.00     0.006 A 
ATOM     97  C   UNL A   1      32.931  20.920  24.564  1.00  0.00    -0.043 A 
BRANCH  97  98
ATOM     98  C   UNL A   1      34.049  20.002  25.012  1.00  0.00     0.071 C 
BRANCH  98  99
ATOM     99  C   UNL A   1      33.767  18.532  24.854  1.00  0.00    -0.041 A 
ATOM    100  C   UNL A   1      34.626  17.716  24.111  1.00  0.00     0.024 A 
ATOM    101  C   UNL A   1      32.668  17.937  25.481  1.00  0.00     0.024 A 
ATOM    102  C   UNL A   1      34.338  16.365  24.007  1.00  0.00     0.111 A 
ATOM    103  C   UNL A   1      32.467  16.575  25.321  1.00  0.00     0.111 A 
ATOM    104  N   UNL A   1      33.267  15.778  24.583  1.00  0.00    -0.265 NA
ENDBRANCH  98  99
ENDBRANCH  97  98
ENDBRANCH  90  92
ENDBRANCH  82  88
ENDBRANCH  78  80
ENDBRANCH  77  78
ENDBRANCH  76  77
ENDBRANCH   1  76
TORSDOF 21
ENDMDL
