MODEL 1
REMARK VINA RESULT:     -11.1      0.000      0.000
REMARK SMILES C/C(=N\Nc1ccccc1C(=O)OCCOCCOC(=O)c1ccc(-c2c3nc(c(-c4c(F)cc(S(=O)(=O)[O-])cc4F)c4ccc([nH]4)c(-c4c(F)cc(S(=O)(=O)[O-])cc4F)c4nc(c(-c5c(F)cc(S(=O)(=O)[O-])cc5F)c5ccc2[nH]5)C=C4)C=C3)cc1)c1ccc(S(C)(=O)=O)cc1
REMARK SMILES IDX 15 1 14 2 13 3 11 4 12 5 10 6 5 7 6 8 7 9 9 10 8 11 4 12
REMARK SMILES IDX 3 14 1 15 2 16 88 17 89 18 97 19 90 20 96 21 91 22 92 23
REMARK SMILES IDX 93 24 94 25 95 26 16 27 17 28 18 29 19 30 20 31 21 32 22 33
REMARK SMILES IDX 23 34 87 35 24 36 86 37 25 38 26 39 27 40 80 41 28 42 85 43
REMARK SMILES IDX 79 44 81 45 29 46 84 47 78 48 77 49 30 51 64 52 43 53 63 54
REMARK SMILES IDX 44 55 47 56 62 57 82 58 45 59 46 60 61 62 83 63 48 64 31 65
REMARK SMILES IDX 32 66 41 67 33 68 34 69 40 70 42 71 35 72 36 73 37 74 38 75
REMARK SMILES IDX 39 76 65 77 66 78 75 79 67 80 68 81 74 82 76 83 69 84 70 85
REMARK SMILES IDX 71 86 72 87 73 88 49 89 50 90 59 91 51 92 52 93 58 94 60 95
REMARK SMILES IDX 53 96 54 97 55 98 56 99 57 100
REMARK H PARENT 4 13 81 50 47 61
REMARK Flexibility Score: inf
ROOT
ATOM      1  C   UNL A   1      32.769  32.210  27.253  1.00  0.00     0.202 C 
ENDROOT
BRANCH   1   2
ATOM      2  C   UNL A   1      32.904  30.689  27.149  1.00  0.00     0.261 C 
BRANCH   2   3
ATOM      3  O   UNL A   1      31.661  30.014  26.909  1.00  0.00    -0.460 OA
BRANCH   3   4
ATOM      4  C   UNL A   1      31.759  28.674  26.724  1.00  0.00     0.340 C 
ATOM      5  O   UNL A   1      31.673  27.810  27.588  1.00  0.00    -0.246 OA
BRANCH   4   6
ATOM      6  C   UNL A   1      31.820  28.316  25.293  1.00  0.00     0.085 A 
ATOM      7  C   UNL A   1      32.577  27.259  24.758  1.00  0.00     0.071 A 
ATOM      8  C   UNL A   1      32.438  27.004  23.373  1.00  0.00     0.028 A 
ATOM      9  C   UNL A   1      31.586  27.753  22.556  1.00  0.00     0.002 A 
ATOM     10  C   UNL A   1      30.964  29.072  24.462  1.00  0.00     0.018 A 
ATOM     11  C   UNL A   1      30.846  28.790  23.102  1.00  0.00     0.001 A 
BRANCH   7  12
ATOM     12  N   UNL A   1      33.329  26.300  25.474  1.00  0.00    -0.277 N 
ATOM     13  H   UNL A   1      33.800  26.602  26.283  1.00  0.00     0.190 HD
BRANCH  12  14
ATOM     14  N   UNL A   1      33.450  25.006  25.130  1.00  0.00    -0.180 NA
ATOM     15  C   UNL A   1      31.621  24.441  26.738  1.00  0.00     0.069 C 
ATOM     16  C   UNL A   1      32.655  24.125  25.672  1.00  0.00     0.065 C 
BRANCH  16  17
ATOM     17  C   UNL A   1      32.811  22.691  25.249  1.00  0.00    -0.002 A 
ATOM     18  C   UNL A   1      33.342  21.761  26.160  1.00  0.00     0.011 A 
ATOM     19  C   UNL A   1      32.379  22.245  23.993  1.00  0.00     0.011 A 
ATOM     20  C   UNL A   1      33.399  20.401  25.843  1.00  0.00     0.021 A 
ATOM     21  C   UNL A   1      32.450  20.889  23.663  1.00  0.00     0.021 A 
ATOM     22  C   UNL A   1      32.946  19.974  24.594  1.00  0.00     0.067 A 
BRANCH  22  23
ATOM     23  S   UNL A   1      32.917  18.236  24.218  1.00  0.00     0.175 S 
ATOM     24  C   UNL A   1      32.440  18.144  22.514  1.00  0.00     0.163 C 
ATOM     25  O   UNL A   1      34.284  17.768  24.345  1.00  0.00    -0.224 OA
ATOM     26  O   UNL A   1      31.855  17.638  25.007  1.00  0.00    -0.224 OA
ENDBRANCH  22  23
ENDBRANCH  16  17
ENDBRANCH  12  14
ENDBRANCH   7  12
ENDBRANCH   4   6
ENDBRANCH   3   4
ENDBRANCH   2   3
ENDBRANCH   1   2
BRANCH   1  27
ATOM     27  O   UNL A   1      33.440  32.863  28.325  1.00  0.00    -0.374 OA
BRANCH  27  28
ATOM     28  C   UNL A   1      34.535  33.715  28.002  1.00  0.00     0.202 C 
BRANCH  28  29
ATOM     29  C   UNL A   1      35.954  33.124  28.005  1.00  0.00     0.261 C 
BRANCH  29  30
ATOM     30  O   UNL A   1      36.027  31.686  28.023  1.00  0.00    -0.460 OA
BRANCH  30  31
ATOM     31  C   UNL A   1      36.417  31.154  29.209  1.00  0.00     0.338 C 
ATOM     32  O   UNL A   1      35.864  31.280  30.288  1.00  0.00    -0.246 OA
BRANCH  31  33
ATOM     33  C   UNL A   1      37.601  30.290  29.043  1.00  0.00     0.060 A 
ATOM     34  C   UNL A   1      38.407  30.036  30.161  1.00  0.00     0.016 A 
ATOM     35  C   UNL A   1      38.017  29.907  27.768  1.00  0.00     0.016 A 
ATOM     36  C   UNL A   1      39.661  29.439  29.996  1.00  0.00     0.010 A 
ATOM     37  C   UNL A   1      39.275  29.316  27.606  1.00  0.00     0.010 A 
ATOM     38  C   UNL A   1      40.120  29.115  28.712  1.00  0.00    -0.014 A 
BRANCH  38  39
ATOM     39  C   UNL A   1      41.525  28.688  28.494  1.00  0.00     0.031 A 
ATOM     40  C   UNL A   1      42.622  29.720  28.521  1.00  0.00     0.074 A 
ATOM     41  C   UNL A   1      41.822  27.399  28.251  1.00  0.00     0.049 A 
ATOM     42  N   UNL A   1      43.894  29.585  28.247  1.00  0.00    -0.248 NA
ATOM     43  C   UNL A   1      42.229  31.086  28.902  1.00  0.00     0.031 C 
ATOM     44  C   UNL A   1      40.859  26.301  28.228  1.00  0.00     0.029 A 
ATOM     45  N   UNL A   1      43.022  26.802  27.951  1.00  0.00    -0.354 N 
ATOM     46  C   UNL A   1      44.454  30.848  28.410  1.00  0.00     0.074 A 
ATOM     47  C   UNL A   1      43.378  31.740  28.791  1.00  0.00     0.031 C 
ATOM     48  C   UNL A   1      41.501  25.165  27.905  1.00  0.00     0.029 A 
ATOM     49  C   UNL A   1      42.913  25.462  27.664  1.00  0.00     0.049 A 
ATOM     50  H   UNL A   1      43.878  27.287  27.943  1.00  0.00     0.167 HD
ATOM     51  C   UNL A   1      45.745  31.230  28.259  1.00  0.00     0.037 A 
ATOM     52  C   UNL A   1      43.836  24.585  27.225  1.00  0.00     0.037 A 
ATOM     53  C   UNL A   1      46.814  30.342  27.881  1.00  0.00     0.049 A 
ATOM     54  C   UNL A   1      45.255  25.042  27.003  1.00  0.00     0.074 A 
ATOM     55  C   UNL A   1      48.157  30.634  27.717  1.00  0.00     0.029 A 
ATOM     56  N   UNL A   1      46.661  28.993  27.598  1.00  0.00    -0.354 N 
ATOM     57  N   UNL A   1      45.773  26.235  27.179  1.00  0.00    -0.248 NA
ATOM     58  C   UNL A   1      46.215  24.037  26.524  1.00  0.00     0.031 C 
ATOM     59  C   UNL A   1      48.811  29.470  27.297  1.00  0.00     0.029 A 
ATOM     60  C   UNL A   1      47.881  28.443  27.244  1.00  0.00     0.049 A 
ATOM     61  H   UNL A   1      45.811  28.500  27.643  1.00  0.00     0.167 HD
ATOM     62  C   UNL A   1      47.123  26.114  26.862  1.00  0.00     0.074 A 
ATOM     63  C   UNL A   1      47.343  24.734  26.484  1.00  0.00     0.031 C 
ATOM     64  C   UNL A   1      48.093  27.061  26.889  1.00  0.00     0.037 A 
BRANCH  51  65
ATOM     65  C   UNL A   1      46.075  32.680  28.481  1.00  0.00     0.058 A 
ATOM     66  C   UNL A   1      46.538  33.150  29.719  1.00  0.00     0.135 A 
ATOM     67  C   UNL A   1      45.963  33.604  27.429  1.00  0.00     0.135 A 
ATOM     68  F   UNL A   1      46.650  32.311  30.761  1.00  0.00    -0.206 F 
ATOM     69  C   UNL A   1      46.858  34.490  29.914  1.00  0.00     0.059 A 
ATOM     70  C   UNL A   1      46.300  34.944  27.595  1.00  0.00     0.059 A 
ATOM     71  F   UNL A   1      45.527  33.207  26.223  1.00  0.00    -0.206 F 
ATOM     72  C   UNL A   1      46.733  35.380  28.846  1.00  0.00     0.060 A 
BRANCH  72  73
ATOM     73  S   UNL A   1      47.151  37.116  29.112  1.00  0.00     0.124 S 
ATOM     74  O   UNL A   1      46.080  37.788  28.383  1.00  0.00    -0.237 OA
ATOM     75  O   UNL A   1      47.097  37.232  30.566  1.00  0.00    -0.237 OA
ATOM     76  O   UNL A   1      48.482  37.239  28.526  1.00  0.00    -0.744 OA
ENDBRANCH  72  73
ENDBRANCH  51  65
BRANCH  52  77
ATOM     77  C   UNL A   1      43.446  23.178  26.950  1.00  0.00     0.058 A 
ATOM     78  C   UNL A   1      43.332  22.703  25.635  1.00  0.00     0.135 A 
ATOM     79  C   UNL A   1      43.188  22.278  27.997  1.00  0.00     0.135 A 
ATOM     80  F   UNL A   1      43.560  23.530  24.603  1.00  0.00    -0.206 F 
ATOM     81  C   UNL A   1      42.971  21.389  25.365  1.00  0.00     0.059 A 
ATOM     82  C   UNL A   1      42.848  20.952  27.752  1.00  0.00     0.059 A 
ATOM     83  F   UNL A   1      43.295  22.683  29.272  1.00  0.00    -0.206 F 
ATOM     84  C   UNL A   1      42.734  20.519  26.432  1.00  0.00     0.060 A 
BRANCH  84  85
ATOM     85  S   UNL A   1      42.333  18.795  26.072  1.00  0.00     0.124 S 
ATOM     86  O   UNL A   1      43.249  18.505  24.974  1.00  0.00    -0.237 OA
ATOM     87  O   UNL A   1      42.629  18.141  27.343  1.00  0.00    -0.237 OA
ATOM     88  O   UNL A   1      40.918  18.850  25.719  1.00  0.00    -0.744 OA
ENDBRANCH  84  85
ENDBRANCH  52  77
BRANCH  64  89
ATOM     89  C   UNL A   1      49.497  26.640  26.553  1.00  0.00     0.058 A 
ATOM     90  C   UNL A   1      50.368  26.128  27.525  1.00  0.00     0.135 A 
ATOM     91  C   UNL A   1      49.945  26.674  25.222  1.00  0.00     0.135 A 
ATOM     92  F   UNL A   1      49.991  26.079  28.811  1.00  0.00    -0.206 F 
ATOM     93  C   UNL A   1      51.640  25.670  27.190  1.00  0.00     0.059 A 
ATOM     94  C   UNL A   1      51.203  26.203  24.861  1.00  0.00     0.059 A 
ATOM     95  F   UNL A   1      49.146  27.149  24.252  1.00  0.00    -0.206 F 
ATOM     96  C   UNL A   1      52.047  25.707  25.854  1.00  0.00     0.060 A 
BRANCH  96  97
ATOM     97  S   UNL A   1      53.675  25.056  25.424  1.00  0.00     0.124 S 
ATOM     98  O   UNL A   1      53.403  23.626  25.326  1.00  0.00    -0.237 OA
ATOM     99  O   UNL A   1      53.962  25.735  24.164  1.00  0.00    -0.237 OA
ATOM    100  O   UNL A   1      54.511  25.461  26.551  1.00  0.00    -0.744 OA
ENDBRANCH  96  97
ENDBRANCH  64  89
ENDBRANCH  38  39
ENDBRANCH  31  33
ENDBRANCH  30  31
ENDBRANCH  29  30
ENDBRANCH  28  29
ENDBRANCH  27  28
ENDBRANCH   1  27
TORSDOF 21
ENDMDL
MODEL 2
REMARK VINA RESULT:     -10.8      2.704      4.915
REMARK SMILES C/C(=N\Nc1ccccc1C(=O)OCCOCCOC(=O)c1ccc(-c2c3nc(c(-c4c(F)cc(S(=O)(=O)[O-])cc4F)c4ccc([nH]4)c(-c4c(F)cc(S(=O)(=O)[O-])cc4F)c4nc(c(-c5c(F)cc(S(=O)(=O)[O-])cc5F)c5ccc2[nH]5)C=C4)C=C3)cc1)c1ccc(S(C)(=O)=O)cc1
REMARK SMILES IDX 15 1 14 2 13 3 11 4 12 5 10 6 5 7 6 8 7 9 9 10 8 11 4 12
REMARK SMILES IDX 3 14 1 15 2 16 88 17 89 18 97 19 90 20 96 21 91 22 92 23
REMARK SMILES IDX 93 24 94 25 95 26 16 27 17 28 18 29 19 30 20 31 21 32 22 33
REMARK SMILES IDX 23 34 87 35 24 36 86 37 25 38 26 39 27 40 80 41 28 42 85 43
REMARK SMILES IDX 79 44 81 45 29 46 84 47 78 48 77 49 30 51 64 52 43 53 63 54
REMARK SMILES IDX 44 55 47 56 62 57 82 58 45 59 46 60 61 62 83 63 48 64 31 65
REMARK SMILES IDX 32 66 41 67 33 68 34 69 40 70 42 71 35 72 36 73 37 74 38 75
REMARK SMILES IDX 39 76 65 77 66 78 75 79 67 80 68 81 74 82 76 83 69 84 70 85
REMARK SMILES IDX 71 86 72 87 73 88 49 89 50 90 59 91 51 92 52 93 58 94 60 95
REMARK SMILES IDX 53 96 54 97 55 98 56 99 57 100
REMARK H PARENT 4 13 81 50 47 61
REMARK Flexibility Score: inf
ROOT
ATOM      1  C   UNL A   1      32.608  28.740  25.956  1.00  0.00     0.202 C 
ENDROOT
BRANCH   1   2
ATOM      2  C   UNL A   1      33.511  27.988  24.975  1.00  0.00     0.261 C 
BRANCH   2   3
ATOM      3  O   UNL A   1      33.341  26.564  25.009  1.00  0.00    -0.460 OA
BRANCH   3   4
ATOM      4  C   UNL A   1      33.472  25.940  23.812  1.00  0.00     0.340 C 
ATOM      5  O   UNL A   1      33.635  26.476  22.723  1.00  0.00    -0.246 OA
BRANCH   4   6
ATOM      6  C   UNL A   1      33.569  24.473  23.960  1.00  0.00     0.085 A 
ATOM      7  C   UNL A   1      32.483  23.583  23.893  1.00  0.00     0.071 A 
ATOM      8  C   UNL A   1      32.780  22.201  23.962  1.00  0.00     0.028 A 
ATOM      9  C   UNL A   1      34.086  21.721  24.085  1.00  0.00     0.002 A 
ATOM     10  C   UNL A   1      34.888  23.983  24.088  1.00  0.00     0.018 A 
ATOM     11  C   UNL A   1      35.145  22.615  24.147  1.00  0.00     0.001 A 
BRANCH   7  12
ATOM     12  N   UNL A   1      31.141  23.896  23.583  1.00  0.00    -0.277 N 
ATOM     13  H   UNL A   1      30.470  23.185  23.696  1.00  0.00     0.190 HD
BRANCH  12  14
ATOM     14  N   UNL A   1      30.712  25.091  23.143  1.00  0.00    -0.180 NA
ATOM     15  C   UNL A   1      29.837  25.584  25.432  1.00  0.00     0.069 C 
ATOM     16  C   UNL A   1      30.133  25.908  23.979  1.00  0.00     0.065 C 
BRANCH  16  17
ATOM     17  C   UNL A   1      29.683  27.243  23.453  1.00  0.00    -0.002 A 
ATOM     18  C   UNL A   1      28.318  27.574  23.502  1.00  0.00     0.011 A 
ATOM     19  C   UNL A   1      30.598  28.190  22.975  1.00  0.00     0.011 A 
ATOM     20  C   UNL A   1      27.876  28.845  23.125  1.00  0.00     0.021 A 
ATOM     21  C   UNL A   1      30.161  29.456  22.579  1.00  0.00     0.021 A 
ATOM     22  C   UNL A   1      28.805  29.782  22.670  1.00  0.00     0.067 A 
BRANCH  22  23
ATOM     23  S   UNL A   1      28.271  31.433  22.286  1.00  0.00     0.175 S 
ATOM     24  C   UNL A   1      27.922  31.410  20.549  1.00  0.00     0.163 C 
ATOM     25  O   UNL A   1      27.029  31.638  23.007  1.00  0.00    -0.224 OA
ATOM     26  O   UNL A   1      29.403  32.317  22.498  1.00  0.00    -0.224 OA
ENDBRANCH  22  23
ENDBRANCH  16  17
ENDBRANCH  12  14
ENDBRANCH   7  12
ENDBRANCH   4   6
ENDBRANCH   3   4
ENDBRANCH   2   3
ENDBRANCH   1   2
BRANCH   1  27
ATOM     27  O   UNL A   1      32.285  30.093  25.655  1.00  0.00    -0.374 OA
BRANCH  27  28
ATOM     28  C   UNL A   1      31.926  30.947  26.738  1.00  0.00     0.202 C 
BRANCH  28  29
ATOM     29  C   UNL A   1      33.036  31.725  27.462  1.00  0.00     0.261 C 
BRANCH  29  30
ATOM     30  O   UNL A   1      34.307  31.051  27.554  1.00  0.00    -0.460 OA
BRANCH  30  31
ATOM     31  C   UNL A   1      34.976  31.261  28.716  1.00  0.00     0.338 C 
ATOM     32  O   UNL A   1      34.620  31.955  29.653  1.00  0.00    -0.246 OA
BRANCH  31  33
ATOM     33  C   UNL A   1      36.212  30.458  28.773  1.00  0.00     0.060 A 
ATOM     34  C   UNL A   1      36.733  30.118  30.028  1.00  0.00     0.016 A 
ATOM     35  C   UNL A   1      36.949  30.221  27.612  1.00  0.00     0.016 A 
ATOM     36  C   UNL A   1      38.021  29.582  30.129  1.00  0.00     0.010 A 
ATOM     37  C   UNL A   1      38.240  29.691  27.717  1.00  0.00     0.010 A 
ATOM     38  C   UNL A   1      38.798  29.406  28.976  1.00  0.00    -0.014 A 
BRANCH  38  39
ATOM     39  C   UNL A   1      40.236  29.050  29.078  1.00  0.00     0.031 A 
ATOM     40  C   UNL A   1      41.232  30.109  29.471  1.00  0.00     0.074 A 
ATOM     41  C   UNL A   1      40.656  27.802  28.799  1.00  0.00     0.049 A 
ATOM     42  N   UNL A   1      42.538  30.044  29.512  1.00  0.00    -0.248 NA
ATOM     43  C   UNL A   1      40.680  31.415  29.866  1.00  0.00     0.031 C 
ATOM     44  C   UNL A   1      39.792  26.682  28.436  1.00  0.00     0.029 A 
ATOM     45  N   UNL A   1      41.925  27.279  28.755  1.00  0.00    -0.354 N 
ATOM     46  C   UNL A   1      42.967  31.301  29.925  1.00  0.00     0.074 A 
ATOM     47  C   UNL A   1      41.782  32.114  30.104  1.00  0.00     0.031 C 
ATOM     48  C   UNL A   1      40.558  25.606  28.182  1.00  0.00     0.029 A 
ATOM     49  C   UNL A   1      41.966  25.973  28.329  1.00  0.00     0.049 A 
ATOM     50  H   UNL A   1      42.728  27.790  29.005  1.00  0.00     0.167 HD
ATOM     51  C   UNL A   1      44.232  31.738  30.136  1.00  0.00     0.037 A 
ATOM     52  C   UNL A   1      43.018  25.176  28.056  1.00  0.00     0.037 A 
ATOM     53  C   UNL A   1      45.410  30.930  29.957  1.00  0.00     0.049 A 
ATOM     54  C   UNL A   1      44.419  25.700  28.238  1.00  0.00     0.074 A 
ATOM     55  C   UNL A   1      46.734  31.280  30.162  1.00  0.00     0.029 A 
ATOM     56  N   UNL A   1      45.409  29.613  29.524  1.00  0.00    -0.354 N 
ATOM     57  N   UNL A   1      44.809  26.884  28.646  1.00  0.00    -0.248 NA
ATOM     58  C   UNL A   1      45.523  24.780  27.924  1.00  0.00     0.031 C 
ATOM     59  C   UNL A   1      47.535  30.188  29.813  1.00  0.00     0.029 A 
ATOM     60  C   UNL A   1      46.707  29.141  29.437  1.00  0.00     0.049 A 
ATOM     61  H   UNL A   1      44.602  29.090  29.310  1.00  0.00     0.167 HD
ATOM     62  C   UNL A   1      46.200  26.841  28.667  1.00  0.00     0.074 A 
ATOM     63  C   UNL A   1      46.584  25.514  28.231  1.00  0.00     0.031 C 
ATOM     64  C   UNL A   1      47.078  27.811  29.021  1.00  0.00     0.037 A 
BRANCH  51  65
ATOM     65  C   UNL A   1      44.414  33.168  30.565  1.00  0.00     0.058 A 
ATOM     66  C   UNL A   1      44.511  34.211  29.631  1.00  0.00     0.135 A 
ATOM     67  C   UNL A   1      44.451  33.503  31.928  1.00  0.00     0.135 A 
ATOM     68  F   UNL A   1      44.495  33.944  28.315  1.00  0.00    -0.206 F 
ATOM     69  C   UNL A   1      44.663  35.534  30.033  1.00  0.00     0.059 A 
ATOM     70  C   UNL A   1      44.578  34.823  32.353  1.00  0.00     0.059 A 
ATOM     71  F   UNL A   1      44.360  32.544  32.863  1.00  0.00    -0.206 F 
ATOM     72  C   UNL A   1      44.698  35.830  31.397  1.00  0.00     0.060 A 
BRANCH  72  73
ATOM     73  S   UNL A   1      44.894  37.551  31.905  1.00  0.00     0.124 S 
ATOM     74  O   UNL A   1      44.708  37.451  33.349  1.00  0.00    -0.237 OA
ATOM     75  O   UNL A   1      46.251  37.856  31.462  1.00  0.00    -0.237 OA
ATOM     76  O   UNL A   1      43.832  38.243  31.181  1.00  0.00    -0.744 OA
ENDBRANCH  72  73
ENDBRANCH  51  65
BRANCH  52  77
ATOM     77  C   UNL A   1      42.787  23.793  27.565  1.00  0.00     0.058 A 
ATOM     78  C   UNL A   1      42.665  22.719  28.458  1.00  0.00     0.135 A 
ATOM     79  C   UNL A   1      42.675  23.520  26.192  1.00  0.00     0.135 A 
ATOM     80  F   UNL A   1      42.775  22.931  29.779  1.00  0.00    -0.206 F 
ATOM     81  C   UNL A   1      42.446  21.422  28.010  1.00  0.00     0.059 A 
ATOM     82  C   UNL A   1      42.432  22.234  25.721  1.00  0.00     0.059 A 
ATOM     83  F   UNL A   1      42.773  24.517  25.298  1.00  0.00    -0.206 F 
ATOM     84  C   UNL A   1      42.326  21.190  26.637  1.00  0.00     0.060 A 
BRANCH  84  85
ATOM     85  S   UNL A   1      41.972  19.513  26.070  1.00  0.00     0.124 S 
ATOM     86  O   UNL A   1      42.318  18.726  27.248  1.00  0.00    -0.237 OA
ATOM     87  O   UNL A   1      40.551  19.593  25.747  1.00  0.00    -0.237 OA
ATOM     88  O   UNL A   1      42.859  19.357  24.921  1.00  0.00    -0.744 OA
ENDBRANCH  84  85
ENDBRANCH  52  77
BRANCH  64  89
ATOM     89  C   UNL A   1      48.543  27.473  29.009  1.00  0.00     0.058 A 
ATOM     90  C   UNL A   1      49.358  27.755  27.902  1.00  0.00     0.135 A 
ATOM     91  C   UNL A   1      49.154  26.933  30.153  1.00  0.00     0.135 A 
ATOM     92  F   UNL A   1      48.823  28.265  26.783  1.00  0.00    -0.206 F 
ATOM     93  C   UNL A   1      50.728  27.508  27.928  1.00  0.00     0.059 A 
ATOM     94  C   UNL A   1      50.524  26.698  30.209  1.00  0.00     0.059 A 
ATOM     95  F   UNL A   1      48.419  26.651  31.241  1.00  0.00    -0.206 F 
ATOM     96  C   UNL A   1      51.303  26.983  29.088  1.00  0.00     0.060 A 
BRANCH  96  97
ATOM     97  S   UNL A   1      53.089  26.722  29.130  1.00  0.00     0.124 S 
ATOM     98  O   UNL A   1      53.260  26.079  30.429  1.00  0.00    -0.237 OA
ATOM     99  O   UNL A   1      53.309  25.868  27.967  1.00  0.00    -0.237 OA
ATOM    100  O   UNL A   1      53.632  28.072  29.021  1.00  0.00    -0.744 OA
ENDBRANCH  96  97
ENDBRANCH  64  89
ENDBRANCH  38  39
ENDBRANCH  31  33
ENDBRANCH  30  31
ENDBRANCH  29  30
ENDBRANCH  28  29
ENDBRANCH  27  28
ENDBRANCH   1  27
TORSDOF 21
ENDMDL
MODEL 3
REMARK VINA RESULT:     -10.8      4.880      6.948
REMARK SMILES C/C(=N\Nc1ccccc1C(=O)OCCOCCOC(=O)c1ccc(-c2c3nc(c(-c4c(F)cc(S(=O)(=O)[O-])cc4F)c4ccc([nH]4)c(-c4c(F)cc(S(=O)(=O)[O-])cc4F)c4nc(c(-c5c(F)cc(S(=O)(=O)[O-])cc5F)c5ccc2[nH]5)C=C4)C=C3)cc1)c1ccc(S(C)(=O)=O)cc1
REMARK SMILES IDX 15 1 14 2 13 3 11 4 12 5 10 6 5 7 6 8 7 9 9 10 8 11 4 12
REMARK SMILES IDX 3 14 1 15 2 16 88 17 89 18 97 19 90 20 96 21 91 22 92 23
REMARK SMILES IDX 93 24 94 25 95 26 16 27 17 28 18 29 19 30 20 31 21 32 22 33
REMARK SMILES IDX 23 34 87 35 24 36 86 37 25 38 26 39 27 40 80 41 28 42 85 43
REMARK SMILES IDX 79 44 81 45 29 46 84 47 78 48 77 49 30 51 64 52 43 53 63 54
REMARK SMILES IDX 44 55 47 56 62 57 82 58 45 59 46 60 61 62 83 63 48 64 31 65
REMARK SMILES IDX 32 66 41 67 33 68 34 69 40 70 42 71 35 72 36 73 37 74 38 75
REMARK SMILES IDX 39 76 65 77 66 78 75 79 67 80 68 81 74 82 76 83 69 84 70 85
REMARK SMILES IDX 71 86 72 87 73 88 49 89 50 90 59 91 51 92 52 93 58 94 60 95
REMARK SMILES IDX 53 96 54 97 55 98 56 99 57 100
REMARK H PARENT 4 13 81 50 47 61
REMARK Flexibility Score: inf
ROOT
ATOM      1  C   UNL A   1      33.758  27.615  24.749  1.00  0.00     0.202 C 
ENDROOT
BRANCH   1   2
ATOM      2  C   UNL A   1      33.682  26.260  24.042  1.00  0.00     0.261 C 
BRANCH   2   3
ATOM      3  O   UNL A   1      33.707  26.353  22.610  1.00  0.00    -0.460 OA
BRANCH   3   4
ATOM      4  C   UNL A   1      33.325  25.230  21.953  1.00  0.00     0.340 C 
ATOM      5  O   UNL A   1      33.160  25.111  20.746  1.00  0.00    -0.246 OA
BRANCH   4   6
ATOM      6  C   UNL A   1      33.277  24.055  22.847  1.00  0.00     0.085 A 
ATOM      7  C   UNL A   1      32.106  23.520  23.413  1.00  0.00     0.071 A 
ATOM      8  C   UNL A   1      32.242  22.331  24.168  1.00  0.00     0.028 A 
ATOM      9  C   UNL A   1      33.475  21.698  24.351  1.00  0.00     0.002 A 
ATOM     10  C   UNL A   1      34.520  23.413  23.038  1.00  0.00     0.018 A 
ATOM     11  C   UNL A   1      34.618  22.239  23.783  1.00  0.00     0.001 A 
BRANCH   7  12
ATOM     12  N   UNL A   1      30.776  23.928  23.168  1.00  0.00    -0.277 N 
ATOM     13  H   UNL A   1      30.078  23.234  23.173  1.00  0.00     0.190 HD
BRANCH  12  14
ATOM     14  N   UNL A   1      30.392  25.193  22.927  1.00  0.00    -0.180 NA
ATOM     15  C   UNL A   1      29.938  25.488  25.367  1.00  0.00     0.069 C 
ATOM     16  C   UNL A   1      30.029  25.951  23.924  1.00  0.00     0.065 C 
BRANCH  16  17
ATOM     17  C   UNL A   1      29.623  27.366  23.615  1.00  0.00    -0.002 A 
ATOM     18  C   UNL A   1      28.277  27.643  23.318  1.00  0.00     0.011 A 
ATOM     19  C   UNL A   1      30.540  28.423  23.680  1.00  0.00     0.011 A 
ATOM     20  C   UNL A   1      27.842  28.958  23.134  1.00  0.00     0.021 A 
ATOM     21  C   UNL A   1      30.114  29.738  23.479  1.00  0.00     0.021 A 
ATOM     22  C   UNL A   1      28.766  30.000  23.222  1.00  0.00     0.067 A 
BRANCH  22  23
ATOM     23  S   UNL A   1      28.207  31.683  23.093  1.00  0.00     0.175 S 
ATOM     24  C   UNL A   1      28.083  31.992  21.352  1.00  0.00     0.163 C 
ATOM     25  O   UNL A   1      26.875  31.715  23.667  1.00  0.00    -0.224 OA
ATOM     26  O   UNL A   1      29.260  32.532  23.619  1.00  0.00    -0.224 OA
ENDBRANCH  22  23
ENDBRANCH  16  17
ENDBRANCH  12  14
ENDBRANCH   7  12
ENDBRANCH   4   6
ENDBRANCH   3   4
ENDBRANCH   2   3
ENDBRANCH   1   2
BRANCH   1  27
ATOM     27  O   UNL A   1      33.664  27.629  26.169  1.00  0.00    -0.374 OA
BRANCH  27  28
ATOM     28  C   UNL A   1      32.513  28.232  26.753  1.00  0.00     0.202 C 
BRANCH  28  29
ATOM     29  C   UNL A   1      32.567  29.725  27.115  1.00  0.00     0.261 C 
BRANCH  29  30
ATOM     30  O   UNL A   1      33.762  30.418  26.707  1.00  0.00    -0.460 OA
BRANCH  30  31
ATOM     31  C   UNL A   1      34.417  31.055  27.710  1.00  0.00     0.338 C 
ATOM     32  O   UNL A   1      34.083  32.087  28.267  1.00  0.00    -0.246 OA
BRANCH  31  33
ATOM     33  C   UNL A   1      35.602  30.292  28.144  1.00  0.00     0.060 A 
ATOM     34  C   UNL A   1      35.588  29.692  29.410  1.00  0.00     0.016 A 
ATOM     35  C   UNL A   1      36.780  30.341  27.396  1.00  0.00     0.016 A 
ATOM     36  C   UNL A   1      36.770  29.181  29.955  1.00  0.00     0.010 A 
ATOM     37  C   UNL A   1      37.962  29.834  27.947  1.00  0.00     0.010 A 
ATOM     38  C   UNL A   1      37.972  29.288  29.243  1.00  0.00    -0.014 A 
BRANCH  38  39
ATOM     39  C   UNL A   1      39.267  28.955  29.889  1.00  0.00     0.031 A 
ATOM     40  C   UNL A   1      39.733  29.767  31.069  1.00  0.00     0.074 A 
ATOM     41  C   UNL A   1      40.034  27.956  29.416  1.00  0.00     0.049 A 
ATOM     42  N   UNL A   1      40.873  29.721  31.709  1.00  0.00    -0.248 NA
ATOM     43  C   UNL A   1      38.789  30.767  31.593  1.00  0.00     0.031 C 
ATOM     44  C   UNL A   1      39.685  27.078  28.302  1.00  0.00     0.029 A 
ATOM     45  N   UNL A   1      41.281  27.530  29.803  1.00  0.00    -0.354 N 
ATOM     46  C   UNL A   1      40.791  30.690  32.702  1.00  0.00     0.074 A 
ATOM     47  C   UNL A   1      39.494  31.321  32.569  1.00  0.00     0.031 C 
ATOM     48  C   UNL A   1      40.705  26.232  28.078  1.00  0.00     0.029 A 
ATOM     49  C   UNL A   1      41.792  26.533  29.008  1.00  0.00     0.049 A 
ATOM     50  H   UNL A   1      41.763  27.904  30.576  1.00  0.00     0.167 HD
ATOM     51  C   UNL A   1      41.709  31.024  33.641  1.00  0.00     0.037 A 
ATOM     52  C   UNL A   1      43.009  25.952  29.009  1.00  0.00     0.037 A 
ATOM     53  C   UNL A   1      42.999  30.396  33.773  1.00  0.00     0.049 A 
ATOM     54  C   UNL A   1      44.040  26.380  30.021  1.00  0.00     0.074 A 
ATOM     55  C   UNL A   1      43.991  30.656  34.702  1.00  0.00     0.029 A 
ATOM     56  N   UNL A   1      43.478  29.391  32.947  1.00  0.00    -0.354 N 
ATOM     57  N   UNL A   1      43.941  27.286  30.965  1.00  0.00    -0.248 NA
ATOM     58  C   UNL A   1      45.347  25.708  29.969  1.00  0.00     0.031 C 
ATOM     59  C   UNL A   1      45.087  29.835  34.414  1.00  0.00     0.029 A 
ATOM     60  C   UNL A   1      44.758  29.031  33.333  1.00  0.00     0.049 A 
ATOM     61  H   UNL A   1      42.981  28.991  32.197  1.00  0.00     0.167 HD
ATOM     62  C   UNL A   1      45.160  27.269  31.638  1.00  0.00     0.074 A 
ATOM     63  C   UNL A   1      45.980  26.265  30.994  1.00  0.00     0.031 C 
ATOM     64  C   UNL A   1      45.559  28.014  32.697  1.00  0.00     0.037 A 
BRANCH  51  65
ATOM     65  C   UNL A   1      41.365  32.138  34.590  1.00  0.00     0.058 A 
ATOM     66  C   UNL A   1      40.816  31.884  35.856  1.00  0.00     0.135 A 
ATOM     67  C   UNL A   1      41.625  33.474  34.244  1.00  0.00     0.135 A 
ATOM     68  F   UNL A   1      40.534  30.626  36.231  1.00  0.00    -0.206 F 
ATOM     69  C   UNL A   1      40.513  32.917  36.738  1.00  0.00     0.059 A 
ATOM     70  C   UNL A   1      41.353  34.521  35.120  1.00  0.00     0.059 A 
ATOM     71  F   UNL A   1      42.152  33.772  33.046  1.00  0.00    -0.206 F 
ATOM     72  C   UNL A   1      40.784  34.233  36.359  1.00  0.00     0.060 A 
BRANCH  72  73
ATOM     73  S   UNL A   1      40.388  35.565  37.513  1.00  0.00     0.124 S 
ATOM     74  O   UNL A   1      40.415  36.729  36.633  1.00  0.00    -0.237 OA
ATOM     75  O   UNL A   1      39.071  35.173  38.004  1.00  0.00    -0.237 OA
ATOM     76  O   UNL A   1      41.466  35.496  38.495  1.00  0.00    -0.744 OA
ENDBRANCH  72  73
ENDBRANCH  51  65
BRANCH  52  77
ATOM     77  C   UNL A   1      43.328  24.907  28.002  1.00  0.00     0.058 A 
ATOM     78  C   UNL A   1      43.945  25.237  26.788  1.00  0.00     0.135 A 
ATOM     79  C   UNL A   1      43.030  23.555  28.241  1.00  0.00     0.135 A 
ATOM     80  F   UNL A   1      44.239  26.517  26.512  1.00  0.00    -0.206 F 
ATOM     81  C   UNL A   1      44.251  24.268  25.840  1.00  0.00     0.059 A 
ATOM     82  C   UNL A   1      43.349  22.564  27.319  1.00  0.00     0.059 A 
ATOM     83  F   UNL A   1      42.450  23.188  29.395  1.00  0.00    -0.206 F 
ATOM     84  C   UNL A   1      43.952  22.931  26.118  1.00  0.00     0.060 A 
BRANCH  84  85
ATOM     85  S   UNL A   1      44.417  21.671  24.910  1.00  0.00     0.124 S 
ATOM     86  O   UNL A   1      44.240  22.390  23.654  1.00  0.00    -0.237 OA
ATOM     87  O   UNL A   1      45.795  21.377  25.291  1.00  0.00    -0.237 OA
ATOM     88  O   UNL A   1      43.462  20.597  25.167  1.00  0.00    -0.744 OA
ENDBRANCH  84  85
ENDBRANCH  52  77
BRANCH  64  89
ATOM     89  C   UNL A   1      46.923  27.747  33.272  1.00  0.00     0.058 A 
ATOM     90  C   UNL A   1      47.123  26.809  34.294  1.00  0.00     0.135 A 
ATOM     91  C   UNL A   1      48.054  28.382  32.731  1.00  0.00     0.135 A 
ATOM     92  F   UNL A   1      46.076  26.180  34.849  1.00  0.00    -0.206 F 
ATOM     93  C   UNL A   1      48.399  26.513  34.768  1.00  0.00     0.059 A 
ATOM     94  C   UNL A   1      49.339  28.086  33.174  1.00  0.00     0.059 A 
ATOM     95  F   UNL A   1      47.916  29.283  31.746  1.00  0.00    -0.206 F 
ATOM     96  C   UNL A   1      49.502  27.153  34.198  1.00  0.00     0.060 A 
BRANCH  96  97
ATOM     97  S   UNL A   1      51.155  26.719  34.779  1.00  0.00     0.124 S 
ATOM     98  O   UNL A   1      51.823  28.016  34.761  1.00  0.00    -0.237 OA
ATOM     99  O   UNL A   1      50.887  26.162  36.101  1.00  0.00    -0.237 OA
ATOM    100  O   UNL A   1      51.623  25.759  33.784  1.00  0.00    -0.744 OA
ENDBRANCH  96  97
ENDBRANCH  64  89
ENDBRANCH  38  39
ENDBRANCH  31  33
ENDBRANCH  30  31
ENDBRANCH  29  30
ENDBRANCH  28  29
ENDBRANCH  27  28
ENDBRANCH   1  27
TORSDOF 21
ENDMDL
