MODEL 1
REMARK VINA RESULT:     -11.1      0.000      0.000
REMARK SMILES Cc1nsc(NC(=O)N2CCC[C@@H](C)C2)c1C(=O)OCCOCCOC(=O)c1ccc(-c2c3nc(c(-c4c(F)cc(S(=O)(=O)[O-])cc4F)c4ccc([nH]4)c(-c4c(F)cc(S(=O)(=O)[O-])cc4F)c4nc(c(-c5c(F)cc(S(=O)(=O)[O-])cc5F)c5ccc2[nH]5)C=C4)C=C3)cc1
REMARK SMILES IDX 23 1 22 2 21 3 20 4 19 5 17 6 18 7 16 8 1 9 2 10 3 11 4 12
REMARK SMILES IDX 5 13 6 14 7 15 8 17 9 18 10 19 15 20 11 21 13 22 12 23 14 24
REMARK SMILES IDX 24 25 25 26 26 27 27 28 28 29 29 30 93 31 30 32 92 33 31 34
REMARK SMILES IDX 32 35 33 36 86 37 34 38 91 39 85 40 87 41 35 42 90 43 84 44
REMARK SMILES IDX 83 45 36 47 70 48 49 49 69 50 50 51 53 52 68 53 88 54 51 55
REMARK SMILES IDX 52 56 67 58 89 59 54 60 37 61 38 62 47 63 39 64 40 65 46 66
REMARK SMILES IDX 48 67 41 68 42 69 43 70 44 71 45 72 71 73 72 74 81 75 73 76
REMARK SMILES IDX 74 77 80 78 82 79 75 80 76 81 77 82 78 83 79 84 55 85 56 86
REMARK SMILES IDX 65 87 57 88 58 89 64 90 66 91 59 92 60 93 61 94 62 95 63 96
REMARK H PARENT 6 16 87 46 53 57
REMARK Flexibility Score: inf
ROOT
ATOM      1  C   UNL A   1      40.668  20.825  26.974  1.00  0.00     0.202 C 
ENDROOT
BRANCH   1   2
ATOM      2  O   UNL A   1      39.933  21.857  26.319  1.00  0.00    -0.374 OA
BRANCH   2   3
ATOM      3  C   UNL A   1      38.646  21.594  25.758  1.00  0.00     0.202 C 
BRANCH   3   4
ATOM      4  C   UNL A   1      37.667  22.762  25.611  1.00  0.00     0.261 C 
BRANCH   4   5
ATOM      5  O   UNL A   1      36.378  22.309  25.165  1.00  0.00    -0.460 OA
BRANCH   5   6
ATOM      6  C   UNL A   1      35.355  23.202  25.256  1.00  0.00     0.343 C 
ATOM      7  O   UNL A   1      35.481  24.374  25.602  1.00  0.00    -0.246 OA
BRANCH   6   8
ATOM      8  C   UNL A   1      34.145  22.689  24.638  1.00  0.00     0.117 A 
ATOM      9  C   UNL A   1      33.529  20.688  26.243  1.00  0.00     0.069 C 
ATOM     10  C   UNL A   1      33.378  21.529  25.022  1.00  0.00     0.068 A 
ATOM     11  N   UNL A   1      32.421  21.165  24.168  1.00  0.00    -0.195 NA
ATOM     12  S   UNL A   1      32.516  22.117  22.829  1.00  0.00    -0.017 S 
ATOM     13  C   UNL A   1      33.640  23.222  23.456  1.00  0.00     0.132 A 
BRANCH  13  14
ATOM     14  N   UNL A   1      34.098  24.325  22.749  1.00  0.00    -0.297 N 
ATOM     15  C   UNL A   1      33.582  25.581  22.666  1.00  0.00     0.322 C 
ATOM     16  H   UNL A   1      34.922  24.176  22.231  1.00  0.00     0.172 HD
ATOM     17  O   UNL A   1      33.629  26.147  21.571  1.00  0.00    -0.248 OA
BRANCH  15  18
ATOM     18  N   UNL A   1      33.071  26.202  23.778  1.00  0.00    -0.324 N 
ATOM     19  C   UNL A   1      33.746  27.290  24.485  1.00  0.00     0.121 C 
ATOM     20  C   UNL A   1      31.637  26.111  24.029  1.00  0.00     0.124 C 
ATOM     21  C   UNL A   1      33.482  27.260  25.991  1.00  0.00     0.022 C 
ATOM     22  C   UNL A   1      31.397  25.877  25.521  1.00  0.00     0.005 C 
ATOM     23  C   UNL A   1      32.012  27.022  26.340  1.00  0.00     0.007 C 
ATOM     24  C   UNL A   1      29.910  25.726  25.825  1.00  0.00     0.009 C 
ENDBRANCH  15  18
ENDBRANCH  13  14
ENDBRANCH   6   8
ENDBRANCH   5   6
ENDBRANCH   4   5
ENDBRANCH   3   4
ENDBRANCH   2   3
ENDBRANCH   1   2
BRANCH   1  25
ATOM     25  C   UNL A   1      42.184  20.773  26.827  1.00  0.00     0.261 C 
BRANCH  25  26
ATOM     26  O   UNL A   1      42.556  20.717  25.463  1.00  0.00    -0.460 OA
BRANCH  26  27
ATOM     27  C   UNL A   1      43.894  20.666  25.272  1.00  0.00     0.338 C 
ATOM     28  O   UNL A   1      44.613  19.684  25.342  1.00  0.00    -0.246 OA
BRANCH  27  29
ATOM     29  C   UNL A   1      44.383  22.031  25.035  1.00  0.00     0.060 A 
ATOM     30  C   UNL A   1      45.493  22.378  25.806  1.00  0.00     0.016 A 
ATOM     31  C   UNL A   1      43.486  22.978  24.526  1.00  0.00     0.016 A 
ATOM     32  C   UNL A   1      45.464  23.602  26.420  1.00  0.00     0.010 A 
ATOM     33  C   UNL A   1      43.450  24.193  25.150  1.00  0.00     0.010 A 
ATOM     34  C   UNL A   1      44.358  24.419  26.182  1.00  0.00    -0.014 A 
BRANCH  34  35
ATOM     35  C   UNL A   1      44.151  25.552  27.048  1.00  0.00     0.031 A 
ATOM     36  C   UNL A   1      45.169  26.594  26.829  1.00  0.00     0.074 A 
ATOM     37  C   UNL A   1      43.068  25.638  27.842  1.00  0.00     0.049 A 
ATOM     38  N   UNL A   1      46.199  26.855  27.563  1.00  0.00    -0.248 NA
ATOM     39  C   UNL A   1      45.210  27.215  25.494  1.00  0.00     0.031 C 
ATOM     40  C   UNL A   1      41.885  24.771  27.889  1.00  0.00     0.029 A 
ATOM     41  N   UNL A   1      42.749  26.635  28.705  1.00  0.00    -0.354 N 
ATOM     42  C   UNL A   1      46.872  27.860  26.881  1.00  0.00     0.074 A 
ATOM     43  C   UNL A   1      46.407  27.796  25.525  1.00  0.00     0.031 C 
ATOM     44  C   UNL A   1      40.888  25.418  28.537  1.00  0.00     0.029 A 
ATOM     45  C   UNL A   1      41.397  26.677  29.047  1.00  0.00     0.049 A 
ATOM     46  H   UNL A   1      43.411  27.272  29.059  1.00  0.00     0.167 HD
ATOM     47  C   UNL A   1      47.507  28.865  27.543  1.00  0.00     0.037 A 
ATOM     48  C   UNL A   1      40.788  27.774  29.571  1.00  0.00     0.037 A 
ATOM     49  C   UNL A   1      47.665  28.534  28.938  1.00  0.00     0.049 A 
ATOM     50  C   UNL A   1      41.885  28.625  30.138  1.00  0.00     0.074 A 
ATOM     51  C   UNL A   1      48.311  27.521  29.621  1.00  0.00     0.029 A 
ATOM     52  N   UNL A   1      46.758  29.072  29.823  1.00  0.00    -0.354 N 
ATOM     53  N   UNL A   1      42.642  28.248  31.141  1.00  0.00    -0.248 NA
ATOM     54  C   UNL A   1      42.481  29.621  29.254  1.00  0.00     0.031 C 
ATOM     55  C   UNL A   1      47.435  27.185  30.693  1.00  0.00     0.029 A 
ATOM     56  C   UNL A   1      46.349  28.062  30.657  1.00  0.00     0.049 A 
ATOM     57  H   UNL A   1      46.458  30.009  29.852  1.00  0.00     0.167 HD
ATOM     58  C   UNL A   1      43.930  28.643  30.792  1.00  0.00     0.074 A 
ATOM     59  C   UNL A   1      43.759  29.518  29.633  1.00  0.00     0.031 C 
ATOM     60  C   UNL A   1      45.037  28.002  31.270  1.00  0.00     0.037 A 
BRANCH  47  61
ATOM     61  C   UNL A   1      47.618  30.285  27.035  1.00  0.00     0.058 A 
ATOM     62  C   UNL A   1      48.881  30.908  27.061  1.00  0.00     0.135 A 
ATOM     63  C   UNL A   1      46.525  31.147  26.783  1.00  0.00     0.135 A 
ATOM     64  F   UNL A   1      49.996  30.188  27.268  1.00  0.00    -0.206 F 
ATOM     65  C   UNL A   1      49.035  32.290  26.955  1.00  0.00     0.059 A 
ATOM     66  C   UNL A   1      46.662  32.517  26.617  1.00  0.00     0.059 A 
ATOM     67  F   UNL A   1      45.252  30.738  26.776  1.00  0.00    -0.206 F 
ATOM     68  C   UNL A   1      47.912  33.086  26.757  1.00  0.00     0.060 A 
BRANCH  68  69
ATOM     69  S   UNL A   1      48.083  34.876  26.753  1.00  0.00     0.124 S 
ATOM     70  O   UNL A   1      46.880  35.282  27.470  1.00  0.00    -0.237 OA
ATOM     71  O   UNL A   1      49.346  35.057  27.460  1.00  0.00    -0.237 OA
ATOM     72  O   UNL A   1      48.113  35.207  25.331  1.00  0.00    -0.744 OA
ENDBRANCH  68  69
ENDBRANCH  47  61
BRANCH  48  73
ATOM     73  C   UNL A   1      39.446  28.309  29.192  1.00  0.00     0.058 A 
ATOM     74  C   UNL A   1      38.419  28.478  30.139  1.00  0.00     0.135 A 
ATOM     75  C   UNL A   1      39.222  28.909  27.934  1.00  0.00     0.135 A 
ATOM     76  F   UNL A   1      38.552  27.968  31.374  1.00  0.00    -0.206 F 
ATOM     77  C   UNL A   1      37.259  29.219  29.865  1.00  0.00     0.059 A 
ATOM     78  C   UNL A   1      38.073  29.640  27.634  1.00  0.00     0.059 A 
ATOM     79  F   UNL A   1      40.157  28.879  26.974  1.00  0.00    -0.206 F 
ATOM     80  C   UNL A   1      37.103  29.812  28.612  1.00  0.00     0.060 A 
BRANCH  80  81
ATOM     81  S   UNL A   1      35.692  30.901  28.294  1.00  0.00     0.124 S 
ATOM     82  O   UNL A   1      35.156  31.104  29.635  1.00  0.00    -0.237 OA
ATOM     83  O   UNL A   1      36.329  32.061  27.678  1.00  0.00    -0.237 OA
ATOM     84  O   UNL A   1      34.848  30.112  27.400  1.00  0.00    -0.744 OA
ENDBRANCH  80  81
ENDBRANCH  48  73
BRANCH  60  85
ATOM     85  C   UNL A   1      44.886  26.981  32.369  1.00  0.00     0.058 A 
ATOM     86  C   UNL A   1      44.737  27.304  33.729  1.00  0.00     0.135 A 
ATOM     87  C   UNL A   1      44.623  25.656  31.991  1.00  0.00     0.135 A 
ATOM     88  F   UNL A   1      44.878  28.568  34.154  1.00  0.00    -0.206 F 
ATOM     89  C   UNL A   1      44.347  26.349  34.672  1.00  0.00     0.059 A 
ATOM     90  C   UNL A   1      44.205  24.696  32.907  1.00  0.00     0.059 A 
ATOM     91  F   UNL A   1      44.687  25.302  30.697  1.00  0.00    -0.206 F 
ATOM     92  C   UNL A   1      44.070  25.049  34.248  1.00  0.00     0.060 A 
BRANCH  92  93
ATOM     93  S   UNL A   1      43.443  23.842  35.439  1.00  0.00     0.124 S 
ATOM     94  O   UNL A   1      42.006  23.883  35.187  1.00  0.00    -0.237 OA
ATOM     95  O   UNL A   1      44.124  22.615  35.036  1.00  0.00    -0.237 OA
ATOM     96  O   UNL A   1      43.865  24.383  36.729  1.00  0.00    -0.744 OA
ENDBRANCH  92  93
ENDBRANCH  60  85
ENDBRANCH  34  35
ENDBRANCH  27  29
ENDBRANCH  26  27
ENDBRANCH  25  26
ENDBRANCH   1  25
TORSDOF 19
ENDMDL
MODEL 2
REMARK VINA RESULT:     -11.1      2.755      3.862
REMARK SMILES Cc1nsc(NC(=O)N2CCC[C@@H](C)C2)c1C(=O)OCCOCCOC(=O)c1ccc(-c2c3nc(c(-c4c(F)cc(S(=O)(=O)[O-])cc4F)c4ccc([nH]4)c(-c4c(F)cc(S(=O)(=O)[O-])cc4F)c4nc(c(-c5c(F)cc(S(=O)(=O)[O-])cc5F)c5ccc2[nH]5)C=C4)C=C3)cc1
REMARK SMILES IDX 23 1 22 2 21 3 20 4 19 5 17 6 18 7 16 8 1 9 2 10 3 11 4 12
REMARK SMILES IDX 5 13 6 14 7 15 8 17 9 18 10 19 15 20 11 21 13 22 12 23 14 24
REMARK SMILES IDX 24 25 25 26 26 27 27 28 28 29 29 30 93 31 30 32 92 33 31 34
REMARK SMILES IDX 32 35 33 36 86 37 34 38 91 39 85 40 87 41 35 42 90 43 84 44
REMARK SMILES IDX 83 45 36 47 70 48 49 49 69 50 50 51 53 52 68 53 88 54 51 55
REMARK SMILES IDX 52 56 67 58 89 59 54 60 37 61 38 62 47 63 39 64 40 65 46 66
REMARK SMILES IDX 48 67 41 68 42 69 43 70 44 71 45 72 71 73 72 74 81 75 73 76
REMARK SMILES IDX 74 77 80 78 82 79 75 80 76 81 77 82 78 83 79 84 55 85 56 86
REMARK SMILES IDX 65 87 57 88 58 89 64 90 66 91 59 92 60 93 61 94 62 95 63 96
REMARK H PARENT 6 16 87 46 53 57
REMARK Flexibility Score: inf
ROOT
ATOM      1  C   UNL A   1      38.128  22.298  25.753  1.00  0.00     0.202 C 
ENDROOT
BRANCH   1   2
ATOM      2  O   UNL A   1      37.506  23.564  25.548  1.00  0.00    -0.374 OA
BRANCH   2   3
ATOM      3  C   UNL A   1      36.093  23.663  25.358  1.00  0.00     0.202 C 
BRANCH   3   4
ATOM      4  C   UNL A   1      35.175  23.228  26.503  1.00  0.00     0.261 C 
BRANCH   4   5
ATOM      5  O   UNL A   1      33.938  23.961  26.486  1.00  0.00    -0.460 OA
BRANCH   5   6
ATOM      6  C   UNL A   1      32.799  23.234  26.643  1.00  0.00     0.343 C 
ATOM      7  O   UNL A   1      32.314  22.924  27.729  1.00  0.00    -0.246 OA
BRANCH   6   8
ATOM      8  C   UNL A   1      32.077  23.099  25.391  1.00  0.00     0.117 A 
ATOM      9  C   UNL A   1      33.233  20.978  24.330  1.00  0.00     0.069 C 
ATOM     10  C   UNL A   1      32.318  22.154  24.327  1.00  0.00     0.068 A 
ATOM     11  N   UNL A   1      31.637  22.372  23.201  1.00  0.00    -0.195 NA
ATOM     12  S   UNL A   1      30.809  23.786  23.347  1.00  0.00    -0.017 S 
ATOM     13  C   UNL A   1      31.099  24.010  25.004  1.00  0.00     0.132 A 
BRANCH  13  14
ATOM     14  N   UNL A   1      30.590  25.080  25.727  1.00  0.00    -0.297 N 
ATOM     15  C   UNL A   1      31.090  26.335  25.892  1.00  0.00     0.322 C 
ATOM     16  H   UNL A   1      29.739  24.904  26.190  1.00  0.00     0.172 HD
ATOM     17  O   UNL A   1      30.974  26.854  27.005  1.00  0.00    -0.248 OA
BRANCH  15  18
ATOM     18  N   UNL A   1      31.659  27.004  24.838  1.00  0.00    -0.324 N 
ATOM     19  C   UNL A   1      33.072  26.899  24.475  1.00  0.00     0.121 C 
ATOM     20  C   UNL A   1      30.791  27.489  23.771  1.00  0.00     0.124 C 
ATOM     21  C   UNL A   1      33.627  28.205  23.905  1.00  0.00     0.022 C 
ATOM     22  C   UNL A   1      31.239  28.889  23.350  1.00  0.00     0.005 C 
ATOM     23  C   UNL A   1      32.701  28.855  22.877  1.00  0.00     0.007 C 
ATOM     24  C   UNL A   1      30.329  29.458  22.266  1.00  0.00     0.009 C 
ENDBRANCH  15  18
ENDBRANCH  13  14
ENDBRANCH   6   8
ENDBRANCH   5   6
ENDBRANCH   4   5
ENDBRANCH   3   4
ENDBRANCH   2   3
ENDBRANCH   1   2
BRANCH   1  25
ATOM     25  C   UNL A   1      39.408  22.214  26.576  1.00  0.00     0.261 C 
BRANCH  25  26
ATOM     26  O   UNL A   1      40.058  23.470  26.625  1.00  0.00    -0.460 OA
BRANCH  26  27
ATOM     27  C   UNL A   1      41.399  23.387  26.466  1.00  0.00     0.338 C 
ATOM     28  O   UNL A   1      42.087  22.382  26.512  1.00  0.00    -0.246 OA
BRANCH  27  29
ATOM     29  C   UNL A   1      41.934  24.745  26.302  1.00  0.00     0.060 A 
ATOM     30  C   UNL A   1      43.014  25.035  27.138  1.00  0.00     0.016 A 
ATOM     31  C   UNL A   1      41.087  25.734  25.786  1.00  0.00     0.016 A 
ATOM     32  C   UNL A   1      42.986  26.238  27.793  1.00  0.00     0.010 A 
ATOM     33  C   UNL A   1      41.052  26.928  26.451  1.00  0.00     0.010 A 
ATOM     34  C   UNL A   1      41.914  27.092  27.532  1.00  0.00    -0.014 A 
BRANCH  34  35
ATOM     35  C   UNL A   1      41.694  28.200  28.427  1.00  0.00     0.031 A 
ATOM     36  C   UNL A   1      42.808  29.163  28.382  1.00  0.00     0.074 A 
ATOM     37  C   UNL A   1      40.534  28.340  29.095  1.00  0.00     0.049 A 
ATOM     38  N   UNL A   1      43.761  29.304  29.242  1.00  0.00    -0.248 NA
ATOM     39  C   UNL A   1      43.055  29.836  27.096  1.00  0.00     0.031 C 
ATOM     40  C   UNL A   1      39.291  27.573  28.961  1.00  0.00     0.029 A 
ATOM     41  N   UNL A   1      40.193  29.322  29.969  1.00  0.00    -0.354 N 
ATOM     42  C   UNL A   1      44.586  30.279  28.696  1.00  0.00     0.074 A 
ATOM     43  C   UNL A   1      44.281  30.313  27.294  1.00  0.00     0.031 C 
ATOM     44  C   UNL A   1      38.277  28.272  29.524  1.00  0.00     0.029 A 
ATOM     45  C   UNL A   1      38.818  29.460  30.155  1.00  0.00     0.049 A 
ATOM     46  H   UNL A   1      40.856  29.885  30.429  1.00  0.00     0.167 HD
ATOM     47  C   UNL A   1      45.214  31.198  29.479  1.00  0.00     0.037 A 
ATOM     48  C   UNL A   1      38.237  30.581  30.663  1.00  0.00     0.037 A 
ATOM     49  C   UNL A   1      45.179  30.794  30.864  1.00  0.00     0.049 A 
ATOM     50  C   UNL A   1      39.322  31.312  31.397  1.00  0.00     0.074 A 
ATOM     51  C   UNL A   1      45.659  29.703  31.561  1.00  0.00     0.029 A 
ATOM     52  N   UNL A   1      44.218  31.367  31.666  1.00  0.00    -0.354 N 
ATOM     53  N   UNL A   1      39.923  30.830  32.458  1.00  0.00    -0.248 NA
ATOM     54  C   UNL A   1      40.094  32.292  30.641  1.00  0.00     0.031 C 
ATOM     55  C   UNL A   1      44.639  29.394  32.507  1.00  0.00     0.029 A 
ATOM     56  C   UNL A   1      43.636  30.359  32.393  1.00  0.00     0.049 A 
ATOM     57  H   UNL A   1      43.990  32.323  31.710  1.00  0.00     0.167 HD
ATOM     58  C   UNL A   1      41.270  31.132  32.280  1.00  0.00     0.074 A 
ATOM     59  C   UNL A   1      41.306  32.068  31.157  1.00  0.00     0.031 C 
ATOM     60  C   UNL A   1      42.260  30.381  32.848  1.00  0.00     0.037 A 
BRANCH  47  61
ATOM     61  C   UNL A   1      45.493  32.625  29.063  1.00  0.00     0.058 A 
ATOM     62  C   UNL A   1      46.812  33.107  29.173  1.00  0.00     0.135 A 
ATOM     63  C   UNL A   1      44.507  33.611  28.825  1.00  0.00     0.135 A 
ATOM     64  F   UNL A   1      47.836  32.262  29.375  1.00  0.00    -0.206 F 
ATOM     65  C   UNL A   1      47.113  34.468  29.157  1.00  0.00     0.059 A 
ATOM     66  C   UNL A   1      44.793  34.966  28.748  1.00  0.00     0.059 A 
ATOM     67  F   UNL A   1      43.201  33.341  28.747  1.00  0.00    -0.206 F 
ATOM     68  C   UNL A   1      46.089  35.390  28.968  1.00  0.00     0.060 A 
BRANCH  68  69
ATOM     69  S   UNL A   1      46.446  37.149  29.079  1.00  0.00     0.124 S 
ATOM     70  O   UNL A   1      47.582  37.270  28.175  1.00  0.00    -0.237 OA
ATOM     71  O   UNL A   1      45.192  37.737  28.622  1.00  0.00    -0.237 OA
ATOM     72  O   UNL A   1      46.743  37.341  30.496  1.00  0.00    -0.744 OA
ENDBRANCH  68  69
ENDBRANCH  47  61
BRANCH  48  73
ATOM     73  C   UNL A   1      36.996  31.241  30.162  1.00  0.00     0.058 A 
ATOM     74  C   UNL A   1      36.046  31.801  31.037  1.00  0.00     0.135 A 
ATOM     75  C   UNL A   1      36.833  31.565  28.797  1.00  0.00     0.135 A 
ATOM     76  F   UNL A   1      36.133  31.574  32.358  1.00  0.00    -0.206 F 
ATOM     77  C   UNL A   1      35.022  32.651  30.591  1.00  0.00     0.059 A 
ATOM     78  C   UNL A   1      35.818  32.397  28.328  1.00  0.00     0.059 A 
ATOM     79  F   UNL A   1      37.716  31.151  27.876  1.00  0.00    -0.206 F 
ATOM     80  C   UNL A   1      34.927  32.957  29.233  1.00  0.00     0.060 A 
BRANCH  80  81
ATOM     81  S   UNL A   1      33.715  34.174  28.662  1.00  0.00     0.124 S 
ATOM     82  O   UNL A   1      32.886  33.379  27.762  1.00  0.00    -0.237 OA
ATOM     83  O   UNL A   1      33.084  34.591  29.910  1.00  0.00    -0.237 OA
ATOM     84  O   UNL A   1      34.536  35.194  28.013  1.00  0.00    -0.744 OA
ENDBRANCH  80  81
ENDBRANCH  48  73
BRANCH  60  85
ATOM     85  C   UNL A   1      41.902  29.329  33.866  1.00  0.00     0.058 A 
ATOM     86  C   UNL A   1      41.616  27.989  33.547  1.00  0.00     0.135 A 
ATOM     87  C   UNL A   1      42.115  29.635  35.218  1.00  0.00     0.135 A 
ATOM     88  F   UNL A   1      41.494  27.599  32.270  1.00  0.00    -0.206 F 
ATOM     89  C   UNL A   1      41.541  27.000  34.531  1.00  0.00     0.059 A 
ATOM     90  C   UNL A   1      42.075  28.663  36.211  1.00  0.00     0.059 A 
ATOM     91  F   UNL A   1      42.454  30.884  35.577  1.00  0.00    -0.206 F 
ATOM     92  C   UNL A   1      41.786  27.344  35.861  1.00  0.00     0.060 A 
BRANCH  92  93
ATOM     93  S   UNL A   1      41.817  26.050  37.122  1.00  0.00     0.124 S 
ATOM     94  O   UNL A   1      42.185  24.873  36.342  1.00  0.00    -0.237 OA
ATOM     95  O   UNL A   1      42.830  26.538  38.053  1.00  0.00    -0.237 OA
ATOM     96  O   UNL A   1      40.453  26.049  37.645  1.00  0.00    -0.744 OA
ENDBRANCH  92  93
ENDBRANCH  60  85
ENDBRANCH  34  35
ENDBRANCH  27  29
ENDBRANCH  26  27
ENDBRANCH  25  26
ENDBRANCH   1  25
TORSDOF 19
ENDMDL
MODEL 3
REMARK VINA RESULT:     -10.9      2.576      3.795
REMARK SMILES Cc1nsc(NC(=O)N2CCC[C@@H](C)C2)c1C(=O)OCCOCCOC(=O)c1ccc(-c2c3nc(c(-c4c(F)cc(S(=O)(=O)[O-])cc4F)c4ccc([nH]4)c(-c4c(F)cc(S(=O)(=O)[O-])cc4F)c4nc(c(-c5c(F)cc(S(=O)(=O)[O-])cc5F)c5ccc2[nH]5)C=C4)C=C3)cc1
REMARK SMILES IDX 23 1 22 2 21 3 20 4 19 5 17 6 18 7 16 8 1 9 2 10 3 11 4 12
REMARK SMILES IDX 5 13 6 14 7 15 8 17 9 18 10 19 15 20 11 21 13 22 12 23 14 24
REMARK SMILES IDX 24 25 25 26 26 27 27 28 28 29 29 30 93 31 30 32 92 33 31 34
REMARK SMILES IDX 32 35 33 36 86 37 34 38 91 39 85 40 87 41 35 42 90 43 84 44
REMARK SMILES IDX 83 45 36 47 70 48 49 49 69 50 50 51 53 52 68 53 88 54 51 55
REMARK SMILES IDX 52 56 67 58 89 59 54 60 37 61 38 62 47 63 39 64 40 65 46 66
REMARK SMILES IDX 48 67 41 68 42 69 43 70 44 71 45 72 71 73 72 74 81 75 73 76
REMARK SMILES IDX 74 77 80 78 82 79 75 80 76 81 77 82 78 83 79 84 55 85 56 86
REMARK SMILES IDX 65 87 57 88 58 89 64 90 66 91 59 92 60 93 61 94 62 95 63 96
REMARK H PARENT 6 16 87 46 53 57
REMARK Flexibility Score: inf
ROOT
ATOM      1  C   UNL A   1      38.300  22.133  25.685  1.00  0.00     0.202 C 
ENDROOT
BRANCH   1   2
ATOM      2  O   UNL A   1      37.058  21.466  25.471  1.00  0.00    -0.374 OA
BRANCH   2   3
ATOM      3  C   UNL A   1      36.292  21.707  24.289  1.00  0.00     0.202 C 
BRANCH   3   4
ATOM      4  C   UNL A   1      34.771  21.825  24.422  1.00  0.00     0.261 C 
BRANCH   4   5
ATOM      5  O   UNL A   1      34.343  23.193  24.313  1.00  0.00    -0.460 OA
BRANCH   5   6
ATOM      6  C   UNL A   1      34.426  23.947  25.442  1.00  0.00     0.343 C 
ATOM      7  O   UNL A   1      35.451  24.496  25.841  1.00  0.00    -0.246 OA
BRANCH   6   8
ATOM      8  C   UNL A   1      33.111  24.254  25.975  1.00  0.00     0.117 A 
ATOM      9  C   UNL A   1      32.861  22.436  27.871  1.00  0.00     0.069 C 
ATOM     10  C   UNL A   1      32.378  23.540  26.993  1.00  0.00     0.068 A 
ATOM     11  N   UNL A   1      31.110  23.915  27.158  1.00  0.00    -0.195 NA
ATOM     12  S   UNL A   1      30.732  25.027  26.005  1.00  0.00    -0.017 S 
ATOM     13  C   UNL A   1      32.313  25.256  25.432  1.00  0.00     0.132 A 
BRANCH  13  14
ATOM     14  N   UNL A   1      32.633  26.154  24.424  1.00  0.00    -0.297 N 
ATOM     15  C   UNL A   1      32.444  27.501  24.366  1.00  0.00     0.322 C 
ATOM     16  H   UNL A   1      33.064  25.758  23.632  1.00  0.00     0.172 HD
ATOM     17  O   UNL A   1      32.109  27.984  23.281  1.00  0.00    -0.248 OA
BRANCH  15  18
ATOM     18  N   UNL A   1      32.665  28.286  25.469  1.00  0.00    -0.324 N 
ATOM     19  C   UNL A   1      31.607  28.997  26.186  1.00  0.00     0.121 C 
ATOM     20  C   UNL A   1      33.889  28.080  26.236  1.00  0.00     0.124 C 
ATOM     21  C   UNL A   1      32.088  30.329  26.765  1.00  0.00     0.022 C 
ATOM     22  C   UNL A   1      34.469  29.437  26.636  1.00  0.00     0.005 C 
ATOM     23  C   UNL A   1      33.444  30.226  27.466  1.00  0.00     0.007 C 
ATOM     24  C   UNL A   1      35.779  29.274  27.401  1.00  0.00     0.009 C 
ENDBRANCH  15  18
ENDBRANCH  13  14
ENDBRANCH   6   8
ENDBRANCH   5   6
ENDBRANCH   4   5
ENDBRANCH   3   4
ENDBRANCH   2   3
ENDBRANCH   1   2
BRANCH   1  25
ATOM     25  C   UNL A   1      39.511  21.334  26.149  1.00  0.00     0.261 C 
BRANCH  25  26
ATOM     26  O   UNL A   1      40.692  22.108  26.050  1.00  0.00    -0.460 OA
BRANCH  26  27
ATOM     27  C   UNL A   1      40.987  22.786  27.183  1.00  0.00     0.338 C 
ATOM     28  O   UNL A   1      40.854  22.398  28.331  1.00  0.00    -0.246 OA
BRANCH  27  29
ATOM     29  C   UNL A   1      41.435  24.136  26.816  1.00  0.00     0.060 A 
ATOM     30  C   UNL A   1      42.644  24.512  27.402  1.00  0.00     0.016 A 
ATOM     31  C   UNL A   1      40.471  25.064  26.400  1.00  0.00     0.016 A 
ATOM     32  C   UNL A   1      42.701  25.764  27.957  1.00  0.00     0.010 A 
ATOM     33  C   UNL A   1      40.524  26.306  26.967  1.00  0.00     0.010 A 
ATOM     34  C   UNL A   1      41.571  26.574  27.845  1.00  0.00    -0.014 A 
BRANCH  34  35
ATOM     35  C   UNL A   1      41.490  27.746  28.679  1.00  0.00     0.031 A 
ATOM     36  C   UNL A   1      42.675  28.607  28.521  1.00  0.00     0.074 A 
ATOM     37  C   UNL A   1      40.382  28.023  29.391  1.00  0.00     0.049 A 
ATOM     38  N   UNL A   1      43.680  28.717  29.325  1.00  0.00    -0.248 NA
ATOM     39  C   UNL A   1      42.909  29.181  27.185  1.00  0.00     0.031 C 
ATOM     40  C   UNL A   1      39.075  27.358  29.363  1.00  0.00     0.029 A 
ATOM     41  N   UNL A   1      40.168  29.079  30.216  1.00  0.00    -0.354 N 
ATOM     42  C   UNL A   1      44.552  29.585  28.681  1.00  0.00     0.074 A 
ATOM     43  C   UNL A   1      44.179  29.563  27.295  1.00  0.00     0.031 C 
ATOM     44  C   UNL A   1      38.152  28.172  29.929  1.00  0.00     0.029 A 
ATOM     45  C   UNL A   1      38.821  29.344  30.459  1.00  0.00     0.049 A 
ATOM     46  H   UNL A   1      40.898  29.610  30.609  1.00  0.00     0.167 HD
ATOM     47  C   UNL A   1      45.293  30.491  29.374  1.00  0.00     0.037 A 
ATOM     48  C   UNL A   1      38.361  30.538  30.923  1.00  0.00     0.037 A 
ATOM     49  C   UNL A   1      45.298  30.173  30.782  1.00  0.00     0.049 A 
ATOM     50  C   UNL A   1      39.538  31.215  31.557  1.00  0.00     0.074 A 
ATOM     51  C   UNL A   1      45.723  29.087  31.522  1.00  0.00     0.029 A 
ATOM     52  N   UNL A   1      44.430  30.870  31.592  1.00  0.00    -0.354 N 
ATOM     53  N   UNL A   1      40.153  30.747  32.617  1.00  0.00    -0.248 NA
ATOM     54  C   UNL A   1      40.347  32.081  30.706  1.00  0.00     0.031 C 
ATOM     55  C   UNL A   1      44.732  28.921  32.532  1.00  0.00     0.029 A 
ATOM     56  C   UNL A   1      43.806  29.959  32.406  1.00  0.00     0.049 A 
ATOM     57  H   UNL A   1      44.283  31.844  31.587  1.00  0.00     0.167 HD
ATOM     58  C   UNL A   1      41.509  30.922  32.357  1.00  0.00     0.074 A 
ATOM     59  C   UNL A   1      41.563  31.785  31.178  1.00  0.00     0.031 C 
ATOM     60  C   UNL A   1      42.463  30.124  32.923  1.00  0.00     0.037 A 
BRANCH  47  61
ATOM     61  C   UNL A   1      45.666  31.863  28.858  1.00  0.00     0.058 A 
ATOM     62  C   UNL A   1      44.631  32.726  28.444  1.00  0.00     0.135 A 
ATOM     63  C   UNL A   1      46.971  32.269  28.496  1.00  0.00     0.135 A 
ATOM     64  F   UNL A   1      43.351  32.457  28.750  1.00  0.00    -0.206 F 
ATOM     65  C   UNL A   1      44.866  33.842  27.643  1.00  0.00     0.059 A 
ATOM     66  C   UNL A   1      47.232  33.408  27.748  1.00  0.00     0.059 A 
ATOM     67  F   UNL A   1      48.065  31.547  28.758  1.00  0.00    -0.206 F 
ATOM     68  C   UNL A   1      46.171  34.159  27.281  1.00  0.00     0.060 A 
BRANCH  68  69
ATOM     69  S   UNL A   1      46.472  35.516  26.141  1.00  0.00     0.124 S 
ATOM     70  O   UNL A   1      45.111  35.909  25.796  1.00  0.00    -0.237 OA
ATOM     71  O   UNL A   1      47.219  36.448  26.977  1.00  0.00    -0.237 OA
ATOM     72  O   UNL A   1      47.239  34.888  25.069  1.00  0.00    -0.744 OA
ENDBRANCH  68  69
ENDBRANCH  47  61
BRANCH  48  73
ATOM     73  C   UNL A   1      37.153  31.270  30.441  1.00  0.00     0.058 A 
ATOM     74  C   UNL A   1      36.103  31.626  31.309  1.00  0.00     0.135 A 
ATOM     75  C   UNL A   1      37.115  31.866  29.161  1.00  0.00     0.135 A 
ATOM     76  F   UNL A   1      36.068  31.133  32.557  1.00  0.00    -0.206 F 
ATOM     77  C   UNL A   1      35.100  32.536  30.941  1.00  0.00     0.059 A 
ATOM     78  C   UNL A   1      36.123  32.764  28.769  1.00  0.00     0.059 A 
ATOM     79  F   UNL A   1      38.097  31.661  28.271  1.00  0.00    -0.206 F 
ATOM     80  C   UNL A   1      35.129  33.114  29.672  1.00  0.00     0.060 A 
BRANCH  80  81
ATOM     81  S   UNL A   1      33.938  34.406  29.237  1.00  0.00     0.124 S 
ATOM     82  O   UNL A   1      34.806  35.461  28.726  1.00  0.00    -0.237 OA
ATOM     83  O   UNL A   1      33.099  33.735  28.251  1.00  0.00    -0.237 OA
ATOM     84  O   UNL A   1      33.281  34.704  30.508  1.00  0.00    -0.744 OA
ENDBRANCH  80  81
ENDBRANCH  48  73
BRANCH  60  85
ATOM     85  C   UNL A   1      42.073  29.167  34.021  1.00  0.00     0.058 A 
ATOM     86  C   UNL A   1      41.470  27.916  33.798  1.00  0.00     0.135 A 
ATOM     87  C   UNL A   1      42.568  29.421  35.308  1.00  0.00     0.135 A 
ATOM     88  F   UNL A   1      41.058  27.562  32.572  1.00  0.00    -0.206 F 
ATOM     89  C   UNL A   1      41.362  26.962  34.813  1.00  0.00     0.059 A 
ATOM     90  C   UNL A   1      42.498  28.475  36.325  1.00  0.00     0.059 A 
ATOM     91  F   UNL A   1      43.211  30.572  35.565  1.00  0.00    -0.206 F 
ATOM     92  C   UNL A   1      41.891  27.246  36.072  1.00  0.00     0.060 A 
BRANCH  92  93
ATOM     93  S   UNL A   1      41.869  25.971  37.353  1.00  0.00     0.124 S 
ATOM     94  O   UNL A   1      42.285  24.786  36.611  1.00  0.00    -0.237 OA
ATOM     95  O   UNL A   1      42.829  26.482  38.326  1.00  0.00    -0.237 OA
ATOM     96  O   UNL A   1      40.479  25.966  37.806  1.00  0.00    -0.744 OA
ENDBRANCH  92  93
ENDBRANCH  60  85
ENDBRANCH  34  35
ENDBRANCH  27  29
ENDBRANCH  26  27
ENDBRANCH  25  26
ENDBRANCH   1  25
TORSDOF 19
ENDMDL
