MODEL 1
REMARK VINA RESULT:     -11.7      0.000      0.000
REMARK SMILES O=C(CCn1cc(/C=C\C(=O)c2ccc(F)cc2)c(-c2cccc(Cl)c2)n1)OCCOCCOC(=O)c1ccc(-c2c3nc(c(-c4c(F)cc(S(=O)(=O)[O-])cc4F)c4ccc([nH]4)c(-c4c(F)cc(S(=O)(=O)[O-])cc4F)c4nc(c(-c5c(F)cc(S(=O)(=O)[O-])cc5F)c5ccc2[nH]5)C=C4)C=C3)cc1
REMARK SMILES IDX 30 1 29 2 28 3 2 4 1 5 3 6 4 7 5 8 6 9 27 10 7 11 19 12 8 13
REMARK SMILES IDX 9 14 10 15 11 16 12 17 13 18 18 19 14 20 17 21 15 22 16 23
REMARK SMILES IDX 20 24 21 25 26 26 22 27 24 28 23 29 25 30 31 31 32 32 33 33
REMARK SMILES IDX 34 34 35 35 36 36 37 37 38 38 102 39 39 40 101 41 40 42
REMARK SMILES IDX 41 43 42 44 95 45 43 46 100 47 94 48 96 49 44 50 99 51 93 52
REMARK SMILES IDX 92 53 45 55 79 56 58 57 78 58 59 59 62 60 77 61 97 62 60 63
REMARK SMILES IDX 61 64 76 66 98 67 63 68 46 69 47 70 56 71 48 72 49 73 55 74
REMARK SMILES IDX 57 75 50 76 51 77 52 78 53 79 54 80 80 81 81 82 90 83 82 84
REMARK SMILES IDX 83 85 89 86 91 87 84 88 85 89 86 90 87 91 88 92 64 93 65 94
REMARK SMILES IDX 74 95 66 96 67 97 73 98 75 99 68 100 69 101 70 102 71 103
REMARK SMILES IDX 72 104
REMARK H PARENT 96 54 62 65
REMARK Flexibility Score: inf
ROOT
ATOM      1  C   UNL A   1      42.766  19.615  26.172  1.00  0.00     0.202 C 
ENDROOT
BRANCH   1   2
ATOM      2  C   UNL A   1      41.277  19.376  26.255  1.00  0.00     0.261 C 
BRANCH   2   3
ATOM      3  O   UNL A   1      40.531  20.518  26.660  1.00  0.00    -0.463 OA
BRANCH   3   4
ATOM      4  C   UNL A   1      39.464  20.962  25.958  1.00  0.00     0.307 C 
ATOM      5  O   UNL A   1      38.798  20.146  25.322  1.00  0.00    -0.252 OA
BRANCH   4   6
ATOM      6  C   UNL A   1      39.197  22.452  25.802  1.00  0.00     0.146 C 
BRANCH   6   7
ATOM      7  C   UNL A   1      37.953  23.064  26.420  1.00  0.00     0.156 C 
BRANCH   7   8
ATOM      8  N   UNL A   1      36.667  22.907  25.765  1.00  0.00    -0.271 N 
ATOM      9  C   UNL A   1      36.309  22.491  24.502  1.00  0.00     0.117 A 
ATOM     10  N   UNL A   1      35.612  23.369  26.446  1.00  0.00    -0.172 NA
ATOM     11  C   UNL A   1      35.119  23.162  24.221  1.00  0.00     0.021 A 
ATOM     12  C   UNL A   1      34.783  23.760  25.481  1.00  0.00     0.100 A 
BRANCH  11  13
ATOM     13  C   UNL A   1      34.494  23.295  22.915  1.00  0.00     0.016 C 
ATOM     14  C   UNL A   1      33.274  22.953  22.421  1.00  0.00     0.053 C 
BRANCH  14  15
ATOM     15  C   UNL A   1      31.981  22.275  22.923  1.00  0.00     0.185 C 
ATOM     16  O   UNL A   1      31.022  22.963  23.252  1.00  0.00    -0.289 OA
BRANCH  15  17
ATOM     17  C   UNL A   1      31.988  20.738  23.135  1.00  0.00     0.022 A 
ATOM     18  C   UNL A   1      32.426  20.711  24.896  1.00  0.00     0.015 A 
ATOM     19  C   UNL A   1      32.308  19.039  22.080  1.00  0.00     0.015 A 
ATOM     20  C   UNL A   1      33.191  19.274  25.560  1.00  0.00     0.040 A 
ATOM     21  C   UNL A   1      33.117  17.655  22.906  1.00  0.00     0.040 A 
ATOM     22  C   UNL A   1      33.535  17.838  24.593  1.00  0.00     0.123 A 
ATOM     23  F   UNL A   1      34.160  16.819  25.206  1.00  0.00    -0.207 F 
ENDBRANCH  15  17
ENDBRANCH  14  15
ENDBRANCH  11  13
BRANCH  12  24
ATOM     24  C   UNL A   1      33.621  24.675  25.706  1.00  0.00     0.004 A 
ATOM     25  C   UNL A   1      32.874  26.386  24.930  1.00  0.00     0.010 A 
ATOM     26  C   UNL A   1      32.429  23.564  26.527  1.00  0.00     0.031 A 
ATOM     27  C   UNL A   1      31.110  26.677  25.004  1.00  0.00     0.002 A 
ATOM     28  C   UNL A   1      30.728  23.997  26.501  1.00  0.00     0.041 A 
ATOM     29  C   UNL A   1      30.111  25.474  25.765  1.00  0.00     0.020 A 
ATOM     30  Cl  UNL A   1      29.597  22.928  27.242  1.00  0.00    -0.084 Cl
ENDBRANCH  12  24
ENDBRANCH   7   8
ENDBRANCH   6   7
ENDBRANCH   4   6
ENDBRANCH   3   4
ENDBRANCH   2   3
ENDBRANCH   1   2
BRANCH   1  31
ATOM     31  O   UNL A   1      43.217  20.280  24.994  1.00  0.00    -0.374 OA
BRANCH  31  32
ATOM     32  C   UNL A   1      44.412  21.057  25.146  1.00  0.00     0.202 C 
BRANCH  32  33
ATOM     33  C   UNL A   1      44.254  22.537  24.841  1.00  0.00     0.261 C 
BRANCH  33  34
ATOM     34  O   UNL A   1      42.930  22.954  25.108  1.00  0.00    -0.460 OA
BRANCH  34  35
ATOM     35  C   UNL A   1      42.701  23.509  26.324  1.00  0.00     0.338 C 
ATOM     36  O   UNL A   1      42.353  22.953  27.350  1.00  0.00    -0.246 OA
BRANCH  35  37
ATOM     37  C   UNL A   1      42.907  24.958  26.157  1.00  0.00     0.060 A 
ATOM     38  C   UNL A   1      43.876  25.498  26.988  1.00  0.00     0.016 A 
ATOM     39  C   UNL A   1      41.828  25.713  25.678  1.00  0.00     0.016 A 
ATOM     40  C   UNL A   1      43.503  26.605  27.710  1.00  0.00     0.010 A 
ATOM     41  C   UNL A   1      41.440  26.791  26.421  1.00  0.00     0.010 A 
ATOM     42  C   UNL A   1      42.216  27.142  27.519  1.00  0.00    -0.014 A 
BRANCH  42  43
ATOM     43  C   UNL A   1      41.824  28.316  28.271  1.00  0.00     0.031 A 
ATOM     44  C   UNL A   1      42.912  29.308  28.120  1.00  0.00     0.074 A 
ATOM     45  C   UNL A   1      40.656  28.478  28.930  1.00  0.00     0.049 A 
ATOM     46  N   UNL A   1      43.934  29.399  28.906  1.00  0.00    -0.248 NA
ATOM     47  C   UNL A   1      43.125  29.953  26.809  1.00  0.00     0.031 C 
ATOM     48  C   UNL A   1      39.470  27.617  28.960  1.00  0.00     0.029 A 
ATOM     49  N   UNL A   1      40.271  29.523  29.727  1.00  0.00    -0.354 N 
ATOM     50  C   UNL A   1      44.712  30.400  28.350  1.00  0.00     0.074 A 
ATOM     51  C   UNL A   1      44.362  30.436  26.960  1.00  0.00     0.031 C 
ATOM     52  C   UNL A   1      38.429  28.285  29.524  1.00  0.00     0.029 A 
ATOM     53  C   UNL A   1      38.899  29.558  30.038  1.00  0.00     0.049 A 
ATOM     54  H   UNL A   1      40.907  30.200  30.055  1.00  0.00     0.167 HD
ATOM     55  C   UNL A   1      45.229  31.357  29.166  1.00  0.00     0.037 A 
ATOM     56  C   UNL A   1      38.247  30.575  30.685  1.00  0.00     0.037 A 
ATOM     57  C   UNL A   1      45.186  30.906  30.541  1.00  0.00     0.049 A 
ATOM     58  C   UNL A   1      39.294  31.324  31.436  1.00  0.00     0.074 A 
ATOM     59  C   UNL A   1      45.708  29.829  31.231  1.00  0.00     0.029 A 
ATOM     60  N   UNL A   1      44.132  31.372  31.287  1.00  0.00    -0.354 N 
ATOM     61  N   UNL A   1      39.958  30.809  32.435  1.00  0.00    -0.248 NA
ATOM     62  C   UNL A   1      39.960  32.399  30.716  1.00  0.00     0.031 C 
ATOM     63  C   UNL A   1      44.685  29.437  32.142  1.00  0.00     0.029 A 
ATOM     64  C   UNL A   1      43.641  30.359  32.066  1.00  0.00     0.049 A 
ATOM     65  H   UNL A   1      43.783  32.292  31.267  1.00  0.00     0.167 HD
ATOM     66  C   UNL A   1      41.278  31.148  32.178  1.00  0.00     0.074 A 
ATOM     67  C   UNL A   1      41.211  32.156  31.115  1.00  0.00     0.031 C 
ATOM     68  C   UNL A   1      42.301  30.353  32.612  1.00  0.00     0.037 A 
BRANCH  55  69
ATOM     69  C   UNL A   1      45.294  32.824  28.802  1.00  0.00     0.058 A 
ATOM     70  C   UNL A   1      44.178  33.675  28.627  1.00  0.00     0.135 A 
ATOM     71  C   UNL A   1      46.539  33.479  28.892  1.00  0.00     0.135 A 
ATOM     72  F   UNL A   1      42.915  33.239  28.621  1.00  0.00    -0.206 F 
ATOM     73  C   UNL A   1      44.285  35.054  28.531  1.00  0.00     0.059 A 
ATOM     74  C   UNL A   1      46.664  34.868  28.849  1.00  0.00     0.059 A 
ATOM     75  F   UNL A   1      47.666  32.776  29.090  1.00  0.00    -0.206 F 
ATOM     76  C   UNL A   1      45.530  35.644  28.658  1.00  0.00     0.060 A 
BRANCH  76  77
ATOM     77  S   UNL A   1      45.611  37.438  28.587  1.00  0.00     0.124 S 
ATOM     78  O   UNL A   1      44.830  37.713  27.385  1.00  0.00    -0.237 OA
ATOM     79  O   UNL A   1      44.991  37.818  29.850  1.00  0.00    -0.237 OA
ATOM     80  O   UNL A   1      47.041  37.703  28.480  1.00  0.00    -0.744 OA
ENDBRANCH  76  77
ENDBRANCH  55  69
BRANCH  56  81
ATOM     81  C   UNL A   1      36.927  31.225  30.384  1.00  0.00     0.058 A 
ATOM     82  C   UNL A   1      36.636  31.717  29.100  1.00  0.00     0.135 A 
ATOM     83  C   UNL A   1      36.072  31.679  31.418  1.00  0.00     0.135 A 
ATOM     84  F   UNL A   1      37.388  31.371  28.047  1.00  0.00    -0.206 F 
ATOM     85  C   UNL A   1      35.628  32.658  28.866  1.00  0.00     0.059 A 
ATOM     86  C   UNL A   1      35.051  32.622  31.206  1.00  0.00     0.059 A 
ATOM     87  F   UNL A   1      36.269  31.272  32.682  1.00  0.00    -0.206 F 
ATOM     88  C   UNL A   1      34.862  33.135  29.928  1.00  0.00     0.060 A 
BRANCH  88  89
ATOM     89  S   UNL A   1      33.702  34.487  29.597  1.00  0.00     0.124 S 
ATOM     90  O   UNL A   1      33.265  34.841  30.944  1.00  0.00    -0.237 OA
ATOM     91  O   UNL A   1      34.559  35.468  28.938  1.00  0.00    -0.237 OA
ATOM     92  O   UNL A   1      32.687  33.875  28.748  1.00  0.00    -0.744 OA
ENDBRANCH  88  89
ENDBRANCH  56  81
BRANCH  68  93
ATOM     93  C   UNL A   1      42.014  29.304  33.657  1.00  0.00     0.058 A 
ATOM     94  C   UNL A   1      42.513  29.556  34.944  1.00  0.00     0.135 A 
ATOM     95  C   UNL A   1      41.449  28.036  33.424  1.00  0.00     0.135 A 
ATOM     96  F   UNL A   1      43.110  30.729  35.214  1.00  0.00    -0.206 F 
ATOM     97  C   UNL A   1      42.473  28.605  35.952  1.00  0.00     0.059 A 
ATOM     98  C   UNL A   1      41.362  27.072  34.439  1.00  0.00     0.059 A 
ATOM     99  F   UNL A   1      41.029  27.683  32.199  1.00  0.00    -0.206 F 
ATOM    100  C   UNL A   1      41.887  27.368  35.698  1.00  0.00     0.060 A 
BRANCH 100 101
ATOM    101  S   UNL A   1      41.843  26.179  37.055  1.00  0.00     0.124 S 
ATOM    102  O   UNL A   1      42.242  24.942  36.388  1.00  0.00    -0.237 OA
ATOM    103  O   UNL A   1      42.823  26.737  37.983  1.00  0.00    -0.237 OA
ATOM    104  O   UNL A   1      40.457  26.222  37.512  1.00  0.00    -0.744 OA
ENDBRANCH 100 101
ENDBRANCH  68  93
ENDBRANCH  42  43
ENDBRANCH  35  37
ENDBRANCH  34  35
ENDBRANCH  33  34
ENDBRANCH  32  33
ENDBRANCH  31  32
ENDBRANCH   1  31
TORSDOF 23
ENDMDL
MODEL 2
REMARK VINA RESULT:     -11.3      3.540      8.301
REMARK SMILES O=C(CCn1cc(/C=C\C(=O)c2ccc(F)cc2)c(-c2cccc(Cl)c2)n1)OCCOCCOC(=O)c1ccc(-c2c3nc(c(-c4c(F)cc(S(=O)(=O)[O-])cc4F)c4ccc([nH]4)c(-c4c(F)cc(S(=O)(=O)[O-])cc4F)c4nc(c(-c5c(F)cc(S(=O)(=O)[O-])cc5F)c5ccc2[nH]5)C=C4)C=C3)cc1
REMARK SMILES IDX 30 1 29 2 28 3 2 4 1 5 3 6 4 7 5 8 6 9 27 10 7 11 19 12 8 13
REMARK SMILES IDX 9 14 10 15 11 16 12 17 13 18 18 19 14 20 17 21 15 22 16 23
REMARK SMILES IDX 20 24 21 25 26 26 22 27 24 28 23 29 25 30 31 31 32 32 33 33
REMARK SMILES IDX 34 34 35 35 36 36 37 37 38 38 102 39 39 40 101 41 40 42
REMARK SMILES IDX 41 43 42 44 95 45 43 46 100 47 94 48 96 49 44 50 99 51 93 52
REMARK SMILES IDX 92 53 45 55 79 56 58 57 78 58 59 59 62 60 77 61 97 62 60 63
REMARK SMILES IDX 61 64 76 66 98 67 63 68 46 69 47 70 56 71 48 72 49 73 55 74
REMARK SMILES IDX 57 75 50 76 51 77 52 78 53 79 54 80 80 81 81 82 90 83 82 84
REMARK SMILES IDX 83 85 89 86 91 87 84 88 85 89 86 90 87 91 88 92 64 93 65 94
REMARK SMILES IDX 74 95 66 96 67 97 73 98 75 99 68 100 69 101 70 102 71 103
REMARK SMILES IDX 72 104
REMARK H PARENT 96 54 62 65
REMARK Flexibility Score: inf
ROOT
ATOM      1  C   UNL A   1      35.355  21.480  25.992  1.00  0.00     0.202 C 
ENDROOT
BRANCH   1   2
ATOM      2  C   UNL A   1      34.858  20.977  24.657  1.00  0.00     0.261 C 
BRANCH   2   3
ATOM      3  O   UNL A   1      33.710  21.664  24.172  1.00  0.00    -0.463 OA
BRANCH   3   4
ATOM      4  C   UNL A   1      33.801  22.644  23.245  1.00  0.00     0.307 C 
ATOM      5  O   UNL A   1      34.919  22.994  22.867  1.00  0.00    -0.252 OA
BRANCH   4   6
ATOM      6  C   UNL A   1      32.570  23.427  22.812  1.00  0.00     0.146 C 
BRANCH   6   7
ATOM      7  C   UNL A   1      32.646  24.350  21.611  1.00  0.00     0.156 C 
BRANCH   7   8
ATOM      8  N   UNL A   1      32.815  25.779  21.805  1.00  0.00    -0.271 N 
ATOM      9  C   UNL A   1      33.782  26.524  22.441  1.00  0.00     0.117 A 
ATOM     10  N   UNL A   1      31.785  26.540  21.417  1.00  0.00    -0.172 NA
ATOM     11  C   UNL A   1      33.122  27.667  22.893  1.00  0.00     0.021 A 
ATOM     12  C   UNL A   1      31.837  27.564  22.265  1.00  0.00     0.100 A 
BRANCH  11  13
ATOM     13  C   UNL A   1      33.625  28.621  23.868  1.00  0.00     0.016 C 
ATOM     14  C   UNL A   1      33.609  28.669  25.227  1.00  0.00     0.053 C 
BRANCH  14  15
ATOM     15  C   UNL A   1      33.080  27.816  26.400  1.00  0.00     0.185 C 
ATOM     16  O   UNL A   1      33.096  28.269  27.538  1.00  0.00    -0.289 OA
BRANCH  15  17
ATOM     17  C   UNL A   1      32.678  26.343  26.118  1.00  0.00     0.022 A 
ATOM     18  C   UNL A   1      30.878  26.564  26.048  1.00  0.00     0.015 A 
ATOM     19  C   UNL A   1      33.364  24.468  26.456  1.00  0.00     0.015 A 
ATOM     20  C   UNL A   1      29.839  25.185  26.379  1.00  0.00     0.040 A 
ATOM     21  C   UNL A   1      32.165  23.163  26.791  1.00  0.00     0.040 A 
ATOM     22  C   UNL A   1      30.469  23.579  26.755  1.00  0.00     0.123 A 
ATOM     23  F   UNL A   1      29.573  22.616  27.029  1.00  0.00    -0.207 F 
ENDBRANCH  15  17
ENDBRANCH  14  15
ENDBRANCH  11  13
BRANCH  12  24
ATOM     24  C   UNL A   1      30.700  28.510  22.494  1.00  0.00     0.004 A 
ATOM     25  C   UNL A   1      29.963  30.210  21.686  1.00  0.00     0.010 A 
ATOM     26  C   UNL A   1      29.510  27.449  23.384  1.00  0.00     0.031 A 
ATOM     27  C   UNL A   1      28.209  30.539  21.800  1.00  0.00     0.002 A 
ATOM     28  C   UNL A   1      27.818  27.916  23.393  1.00  0.00     0.041 A 
ATOM     29  C   UNL A   1      27.209  29.381  22.628  1.00  0.00     0.020 A 
ATOM     30  Cl  UNL A   1      26.689  26.895  24.200  1.00  0.00    -0.084 Cl
ENDBRANCH  12  24
ENDBRANCH   7   8
ENDBRANCH   6   7
ENDBRANCH   4   6
ENDBRANCH   3   4
ENDBRANCH   2   3
ENDBRANCH   1   2
BRANCH   1  31
ATOM     31  O   UNL A   1      36.206  22.623  25.939  1.00  0.00    -0.374 OA
BRANCH  31  32
ATOM     32  C   UNL A   1      37.372  22.484  25.117  1.00  0.00     0.202 C 
BRANCH  32  33
ATOM     33  C   UNL A   1      38.167  21.210  25.349  1.00  0.00     0.261 C 
BRANCH  33  34
ATOM     34  O   UNL A   1      39.338  21.490  26.088  1.00  0.00    -0.460 OA
BRANCH  34  35
ATOM     35  C   UNL A   1      40.323  20.558  26.043  1.00  0.00     0.338 C 
ATOM     36  O   UNL A   1      40.240  19.395  25.695  1.00  0.00    -0.246 OA
BRANCH  35  37
ATOM     37  C   UNL A   1      41.535  21.220  26.556  1.00  0.00     0.060 A 
ATOM     38  C   UNL A   1      41.746  21.055  27.917  1.00  0.00     0.016 A 
ATOM     39  C   UNL A   1      42.004  22.340  25.858  1.00  0.00     0.016 A 
ATOM     40  C   UNL A   1      41.975  22.203  28.634  1.00  0.00     0.010 A 
ATOM     41  C   UNL A   1      42.195  23.488  26.572  1.00  0.00     0.010 A 
ATOM     42  C   UNL A   1      42.042  23.433  27.952  1.00  0.00    -0.014 A 
BRANCH  42  43
ATOM     43  C   UNL A   1      42.296  24.643  28.706  1.00  0.00     0.031 A 
ATOM     44  C   UNL A   1      41.161  25.557  28.450  1.00  0.00     0.074 A 
ATOM     45  C   UNL A   1      43.348  24.855  29.528  1.00  0.00     0.049 A 
ATOM     46  N   UNL A   1      41.114  26.414  27.484  1.00  0.00    -0.248 NA
ATOM     47  C   UNL A   1      39.832  25.232  29.006  1.00  0.00     0.031 C 
ATOM     48  C   UNL A   1      44.395  23.928  29.966  1.00  0.00     0.029 A 
ATOM     49  N   UNL A   1      43.684  26.005  30.191  1.00  0.00    -0.354 N 
ATOM     50  C   UNL A   1      39.858  26.987  27.588  1.00  0.00     0.074 A 
ATOM     51  C   UNL A   1      39.045  26.020  28.266  1.00  0.00     0.031 C 
ATOM     52  C   UNL A   1      45.092  24.476  30.997  1.00  0.00     0.029 A 
ATOM     53  C   UNL A   1      44.655  25.845  31.198  1.00  0.00     0.049 A 
ATOM     54  H   UNL A   1      43.277  26.876  29.981  1.00  0.00     0.167 HD
ATOM     55  C   UNL A   1      39.745  28.339  27.492  1.00  0.00     0.037 A 
ATOM     56  C   UNL A   1      45.046  26.803  32.097  1.00  0.00     0.037 A 
ATOM     57  C   UNL A   1      40.942  28.891  26.893  1.00  0.00     0.049 A 
ATOM     58  C   UNL A   1      44.681  28.113  31.488  1.00  0.00     0.074 A 
ATOM     59  C   UNL A   1      41.603  28.714  25.692  1.00  0.00     0.029 A 
ATOM     60  N   UNL A   1      41.863  29.407  27.771  1.00  0.00    -0.354 N 
ATOM     61  N   UNL A   1      45.243  28.576  30.404  1.00  0.00    -0.248 NA
ATOM     62  C   UNL A   1      43.339  28.602  31.765  1.00  0.00     0.031 C 
ATOM     63  C   UNL A   1      42.989  28.734  26.021  1.00  0.00     0.029 A 
ATOM     64  C   UNL A   1      43.122  29.050  27.374  1.00  0.00     0.049 A 
ATOM     65  H   UNL A   1      41.650  29.952  28.563  1.00  0.00     0.167 HD
ATOM     66  C   UNL A   1      44.181  29.021  29.631  1.00  0.00     0.074 A 
ATOM     67  C   UNL A   1      43.031  29.036  30.541  1.00  0.00     0.031 C 
ATOM     68  C   UNL A   1      44.260  29.021  28.267  1.00  0.00     0.037 A 
BRANCH  55  69
ATOM     69  C   UNL A   1      38.825  29.168  28.360  1.00  0.00     0.058 A 
ATOM     70  C   UNL A   1      38.966  29.359  29.755  1.00  0.00     0.135 A 
ATOM     71  C   UNL A   1      37.907  30.030  27.726  1.00  0.00     0.135 A 
ATOM     72  F   UNL A   1      39.859  28.701  30.500  1.00  0.00    -0.206 F 
ATOM     73  C   UNL A   1      38.248  30.310  30.465  1.00  0.00     0.059 A 
ATOM     74  C   UNL A   1      37.214  31.027  28.413  1.00  0.00     0.059 A 
ATOM     75  F   UNL A   1      37.713  29.963  26.400  1.00  0.00    -0.206 F 
ATOM     76  C   UNL A   1      37.385  31.150  29.785  1.00  0.00     0.060 A 
BRANCH  76  77
ATOM     77  S   UNL A   1      36.523  32.406  30.738  1.00  0.00     0.124 S 
ATOM     78  O   UNL A   1      37.574  32.847  31.648  1.00  0.00    -0.237 OA
ATOM     79  O   UNL A   1      36.137  33.357  29.702  1.00  0.00    -0.237 OA
ATOM     80  O   UNL A   1      35.428  31.664  31.354  1.00  0.00    -0.744 OA
ENDBRANCH  76  77
ENDBRANCH  55  69
BRANCH  56  81
ATOM     81  C   UNL A   1      45.289  26.702  33.575  1.00  0.00     0.058 A 
ATOM     82  C   UNL A   1      44.347  26.100  34.426  1.00  0.00     0.135 A 
ATOM     83  C   UNL A   1      46.276  27.489  34.219  1.00  0.00     0.135 A 
ATOM     84  F   UNL A   1      43.356  25.347  33.928  1.00  0.00    -0.206 F 
ATOM     85  C   UNL A   1      44.327  26.327  35.806  1.00  0.00     0.059 A 
ATOM     86  C   UNL A   1      46.277  27.729  35.604  1.00  0.00     0.059 A 
ATOM     87  F   UNL A   1      47.219  28.112  33.494  1.00  0.00    -0.206 F 
ATOM     88  C   UNL A   1      45.271  27.171  36.385  1.00  0.00     0.060 A 
BRANCH  88  89
ATOM     89  S   UNL A   1      45.083  27.577  38.142  1.00  0.00     0.124 S 
ATOM     90  O   UNL A   1      46.453  27.445  38.627  1.00  0.00    -0.237 OA
ATOM     91  O   UNL A   1      44.566  28.941  38.085  1.00  0.00    -0.237 OA
ATOM     92  O   UNL A   1      44.144  26.574  38.631  1.00  0.00    -0.744 OA
ENDBRANCH  88  89
ENDBRANCH  56  81
BRANCH  68  93
ATOM     93  C   UNL A   1      45.612  28.866  27.617  1.00  0.00     0.058 A 
ATOM     94  C   UNL A   1      46.012  27.555  27.319  1.00  0.00     0.135 A 
ATOM     95  C   UNL A   1      46.568  29.885  27.440  1.00  0.00     0.135 A 
ATOM     96  F   UNL A   1      45.161  26.533  27.514  1.00  0.00    -0.206 F 
ATOM     97  C   UNL A   1      47.292  27.253  26.881  1.00  0.00     0.059 A 
ATOM     98  C   UNL A   1      47.856  29.608  26.962  1.00  0.00     0.059 A 
ATOM     99  F   UNL A   1      46.296  31.153  27.786  1.00  0.00    -0.206 F 
ATOM    100  C   UNL A   1      48.208  28.285  26.694  1.00  0.00     0.060 A 
BRANCH 100 101
ATOM    101  S   UNL A   1      49.852  27.833  26.101  1.00  0.00     0.124 S 
ATOM    102  O   UNL A   1      49.684  26.416  25.791  1.00  0.00    -0.237 OA
ATOM    103  O   UNL A   1      50.013  28.714  24.946  1.00  0.00    -0.237 OA
ATOM    104  O   UNL A   1      50.724  28.124  27.234  1.00  0.00    -0.744 OA
ENDBRANCH 100 101
ENDBRANCH  68  93
ENDBRANCH  42  43
ENDBRANCH  35  37
ENDBRANCH  34  35
ENDBRANCH  33  34
ENDBRANCH  32  33
ENDBRANCH  31  32
ENDBRANCH   1  31
TORSDOF 23
ENDMDL
MODEL 3
REMARK VINA RESULT:     -11.0      4.000      8.934
REMARK SMILES O=C(CCn1cc(/C=C\C(=O)c2ccc(F)cc2)c(-c2cccc(Cl)c2)n1)OCCOCCOC(=O)c1ccc(-c2c3nc(c(-c4c(F)cc(S(=O)(=O)[O-])cc4F)c4ccc([nH]4)c(-c4c(F)cc(S(=O)(=O)[O-])cc4F)c4nc(c(-c5c(F)cc(S(=O)(=O)[O-])cc5F)c5ccc2[nH]5)C=C4)C=C3)cc1
REMARK SMILES IDX 30 1 29 2 28 3 2 4 1 5 3 6 4 7 5 8 6 9 27 10 7 11 19 12 8 13
REMARK SMILES IDX 9 14 10 15 11 16 12 17 13 18 18 19 14 20 17 21 15 22 16 23
REMARK SMILES IDX 20 24 21 25 26 26 22 27 24 28 23 29 25 30 31 31 32 32 33 33
REMARK SMILES IDX 34 34 35 35 36 36 37 37 38 38 102 39 39 40 101 41 40 42
REMARK SMILES IDX 41 43 42 44 95 45 43 46 100 47 94 48 96 49 44 50 99 51 93 52
REMARK SMILES IDX 92 53 45 55 79 56 58 57 78 58 59 59 62 60 77 61 97 62 60 63
REMARK SMILES IDX 61 64 76 66 98 67 63 68 46 69 47 70 56 71 48 72 49 73 55 74
REMARK SMILES IDX 57 75 50 76 51 77 52 78 53 79 54 80 80 81 81 82 90 83 82 84
REMARK SMILES IDX 83 85 89 86 91 87 84 88 85 89 86 90 87 91 88 92 64 93 65 94
REMARK SMILES IDX 74 95 66 96 67 97 73 98 75 99 68 100 69 101 70 102 71 103
REMARK SMILES IDX 72 104
REMARK H PARENT 96 54 62 65
REMARK Flexibility Score: inf
ROOT
ATOM      1  C   UNL A   1      34.068  20.767  25.257  1.00  0.00     0.202 C 
ENDROOT
BRANCH   1   2
ATOM      2  C   UNL A   1      33.708  20.996  23.808  1.00  0.00     0.261 C 
BRANCH   2   3
ATOM      3  O   UNL A   1      32.634  21.911  23.617  1.00  0.00    -0.463 OA
BRANCH   3   4
ATOM      4  C   UNL A   1      32.832  23.155  23.128  1.00  0.00     0.307 C 
ATOM      5  O   UNL A   1      33.983  23.586  23.065  1.00  0.00    -0.252 OA
BRANCH   4   6
ATOM      6  C   UNL A   1      31.656  24.075  22.833  1.00  0.00     0.146 C 
BRANCH   6   7
ATOM      7  C   UNL A   1      31.726  25.040  21.665  1.00  0.00     0.156 C 
BRANCH   7   8
ATOM      8  N   UNL A   1      32.086  26.428  21.893  1.00  0.00    -0.271 N 
ATOM      9  C   UNL A   1      33.230  27.027  22.374  1.00  0.00     0.117 A 
ATOM     10  N   UNL A   1      31.096  27.315  21.742  1.00  0.00    -0.172 NA
ATOM     11  C   UNL A   1      32.795  28.197  22.996  1.00  0.00     0.021 A 
ATOM     12  C   UNL A   1      31.414  28.268  22.614  1.00  0.00     0.100 A 
BRANCH  11  13
ATOM     13  C   UNL A   1      33.568  29.027  23.905  1.00  0.00     0.016 C 
ATOM     14  C   UNL A   1      33.851  28.949  25.233  1.00  0.00     0.053 C 
BRANCH  14  15
ATOM     15  C   UNL A   1      33.524  28.024  26.425  1.00  0.00     0.185 C 
ATOM     16  O   UNL A   1      33.741  28.405  27.569  1.00  0.00    -0.289 OA
BRANCH  15  17
ATOM     17  C   UNL A   1      33.067  26.571  26.127  1.00  0.00     0.022 A 
ATOM     18  C   UNL A   1      31.288  26.880  25.944  1.00  0.00     0.015 A 
ATOM     19  C   UNL A   1      33.636  24.667  26.516  1.00  0.00     0.015 A 
ATOM     20  C   UNL A   1      30.163  25.557  26.217  1.00  0.00     0.040 A 
ATOM     21  C   UNL A   1      32.356  23.425  26.783  1.00  0.00     0.040 A 
ATOM     22  C   UNL A   1      30.687  23.925  26.640  1.00  0.00     0.123 A 
ATOM     23  F   UNL A   1      29.730  23.010  26.863  1.00  0.00    -0.207 F 
ENDBRANCH  15  17
ENDBRANCH  14  15
ENDBRANCH  11  13
BRANCH  12  24
ATOM     24  C   UNL A   1      30.450  29.306  23.096  1.00  0.00     0.004 A 
ATOM     25  C   UNL A   1      30.284  30.622  24.622  1.00  0.00     0.010 A 
ATOM     26  C   UNL A   1      29.560  29.726  21.558  1.00  0.00     0.031 A 
ATOM     27  C   UNL A   1      29.373  32.140  24.367  1.00  0.00     0.002 A 
ATOM     28  C   UNL A   1      28.719  31.265  21.473  1.00  0.00     0.041 A 
ATOM     29  C   UNL A   1      28.645  32.408  22.810  1.00  0.00     0.020 A 
ATOM     30  Cl  UNL A   1      27.912  31.679  20.008  1.00  0.00    -0.084 Cl
ENDBRANCH  12  24
ENDBRANCH   7   8
ENDBRANCH   6   7
ENDBRANCH   4   6
ENDBRANCH   3   4
ENDBRANCH   2   3
ENDBRANCH   1   2
BRANCH   1  31
ATOM     31  O   UNL A   1      35.457  20.584  25.523  1.00  0.00    -0.374 OA
BRANCH  31  32
ATOM     32  C   UNL A   1      36.271  21.755  25.379  1.00  0.00     0.202 C 
BRANCH  32  33
ATOM     33  C   UNL A   1      37.612  21.522  24.707  1.00  0.00     0.261 C 
BRANCH  33  34
ATOM     34  O   UNL A   1      38.647  21.500  25.670  1.00  0.00    -0.460 OA
BRANCH  34  35
ATOM     35  C   UNL A   1      39.467  20.419  25.657  1.00  0.00     0.338 C 
ATOM     36  O   UNL A   1      39.210  19.286  25.296  1.00  0.00    -0.246 OA
BRANCH  35  37
ATOM     37  C   UNL A   1      40.749  20.873  26.225  1.00  0.00     0.060 A 
ATOM     38  C   UNL A   1      40.888  20.639  27.584  1.00  0.00     0.016 A 
ATOM     39  C   UNL A   1      41.404  21.928  25.577  1.00  0.00     0.016 A 
ATOM     40  C   UNL A   1      41.266  21.717  28.346  1.00  0.00     0.010 A 
ATOM     41  C   UNL A   1      41.745  23.012  26.335  1.00  0.00     0.010 A 
ATOM     42  C   UNL A   1      41.541  22.941  27.707  1.00  0.00    -0.014 A 
BRANCH  42  43
ATOM     43  C   UNL A   1      41.952  24.075  28.508  1.00  0.00     0.031 A 
ATOM     44  C   UNL A   1      40.927  25.127  28.325  1.00  0.00     0.074 A 
ATOM     45  C   UNL A   1      43.039  24.124  29.309  1.00  0.00     0.049 A 
ATOM     46  N   UNL A   1      40.960  26.029  27.400  1.00  0.00    -0.248 NA
ATOM     47  C   UNL A   1      39.581  24.933  28.901  1.00  0.00     0.031 C 
ATOM     48  C   UNL A   1      43.979  23.062  29.677  1.00  0.00     0.029 A 
ATOM     49  N   UNL A   1      43.522  25.193  30.015  1.00  0.00    -0.354 N 
ATOM     50  C   UNL A   1      39.783  26.739  27.564  1.00  0.00     0.074 A 
ATOM     51  C   UNL A   1      38.877  25.841  28.220  1.00  0.00     0.031 C 
ATOM     52  C   UNL A   1      44.758  23.474  30.712  1.00  0.00     0.029 A 
ATOM     53  C   UNL A   1      44.489  24.874  30.986  1.00  0.00     0.049 A 
ATOM     54  H   UNL A   1      43.216  26.115  29.855  1.00  0.00     0.167 HD
ATOM     55  C   UNL A   1      39.827  28.098  27.532  1.00  0.00     0.037 A 
ATOM     56  C   UNL A   1      45.010  25.735  31.916  1.00  0.00     0.037 A 
ATOM     57  C   UNL A   1      41.067  28.534  26.927  1.00  0.00     0.049 A 
ATOM     58  C   UNL A   1      44.788  27.107  31.378  1.00  0.00     0.074 A 
ATOM     59  C   UNL A   1      41.677  28.340  25.701  1.00  0.00     0.029 A 
ATOM     60  N   UNL A   1      42.061  28.898  27.801  1.00  0.00    -0.354 N 
ATOM     61  N   UNL A   1      45.377  27.553  30.301  1.00  0.00    -0.248 NA
ATOM     62  C   UNL A   1      43.519  27.735  31.714  1.00  0.00     0.031 C 
ATOM     63  C   UNL A   1      43.062  28.183  25.993  1.00  0.00     0.029 A 
ATOM     64  C   UNL A   1      43.261  28.415  27.355  1.00  0.00     0.049 A 
ATOM     65  H   UNL A   1      41.932  29.424  28.623  1.00  0.00     0.167 HD
ATOM     66  C   UNL A   1      44.358  28.155  29.579  1.00  0.00     0.074 A 
ATOM     67  C   UNL A   1      43.238  28.260  30.519  1.00  0.00     0.031 C 
ATOM     68  C   UNL A   1      44.407  28.212  28.215  1.00  0.00     0.037 A 
BRANCH  55  69
ATOM     69  C   UNL A   1      39.029  28.985  28.462  1.00  0.00     0.058 A 
ATOM     70  C   UNL A   1      39.212  29.079  29.862  1.00  0.00     0.135 A 
ATOM     71  C   UNL A   1      38.220  29.989  27.894  1.00  0.00     0.135 A 
ATOM     72  F   UNL A   1      40.025  28.275  30.552  1.00  0.00    -0.206 F 
ATOM     73  C   UNL A   1      38.629  30.071  30.636  1.00  0.00     0.059 A 
ATOM     74  C   UNL A   1      37.666  31.025  28.647  1.00  0.00     0.059 A 
ATOM     75  F   UNL A   1      38.001  30.020  26.570  1.00  0.00    -0.206 F 
ATOM     76  C   UNL A   1      37.870  31.049  30.019  1.00  0.00     0.060 A 
BRANCH  76  77
ATOM     77  S   UNL A   1      37.184  32.347  31.056  1.00  0.00     0.124 S 
ATOM     78  O   UNL A   1      37.208  33.485  30.142  1.00  0.00    -0.237 OA
ATOM     79  O   UNL A   1      35.864  31.813  31.373  1.00  0.00    -0.237 OA
ATOM     80  O   UNL A   1      38.123  32.415  32.170  1.00  0.00    -0.744 OA
ENDBRANCH  76  77
ENDBRANCH  55  69
BRANCH  56  81
ATOM     81  C   UNL A   1      45.271  25.535  33.381  1.00  0.00     0.058 A 
ATOM     82  C   UNL A   1      46.571  25.301  33.862  1.00  0.00     0.135 A 
ATOM     83  C   UNL A   1      44.224  25.231  34.286  1.00  0.00     0.135 A 
ATOM     84  F   UNL A   1      47.640  25.534  33.088  1.00  0.00    -0.206 F 
ATOM     85  C   UNL A   1      46.818  24.727  35.113  1.00  0.00     0.059 A 
ATOM     86  C   UNL A   1      44.448  24.657  35.549  1.00  0.00     0.059 A 
ATOM     87  F   UNL A   1      42.945  25.414  33.921  1.00  0.00    -0.206 F 
ATOM     88  C   UNL A   1      45.753  24.372  35.938  1.00  0.00     0.060 A 
BRANCH  88  89
ATOM     89  S   UNL A   1      46.124  23.463  37.461  1.00  0.00     0.124 S 
ATOM     90  O   UNL A   1      45.634  22.127  37.137  1.00  0.00    -0.237 OA
ATOM     91  O   UNL A   1      47.575  23.594  37.547  1.00  0.00    -0.237 OA
ATOM     92  O   UNL A   1      45.371  24.177  38.485  1.00  0.00    -0.744 OA
ENDBRANCH  88  89
ENDBRANCH  56  81
BRANCH  68  93
ATOM     93  C   UNL A   1      45.717  27.932  27.521  1.00  0.00     0.058 A 
ATOM     94  C   UNL A   1      46.478  29.052  27.155  1.00  0.00     0.135 A 
ATOM     95  C   UNL A   1      46.159  26.676  27.062  1.00  0.00     0.135 A 
ATOM     96  F   UNL A   1      46.080  30.282  27.520  1.00  0.00    -0.206 F 
ATOM     97  C   UNL A   1      47.611  28.950  26.364  1.00  0.00     0.059 A 
ATOM     98  C   UNL A   1      47.325  26.544  26.294  1.00  0.00     0.059 A 
ATOM     99  F   UNL A   1      45.442  25.566  27.293  1.00  0.00    -0.206 F 
ATOM    100  C   UNL A   1      48.038  27.692  25.944  1.00  0.00     0.060 A 
BRANCH 100 101
ATOM    101  S   UNL A   1      49.533  27.619  24.937  1.00  0.00     0.124 S 
ATOM    102  O   UNL A   1      50.318  28.727  25.477  1.00  0.00    -0.237 OA
ATOM    103  O   UNL A   1      50.041  26.283  25.239  1.00  0.00    -0.237 OA
ATOM    104  O   UNL A   1      49.046  27.808  23.574  1.00  0.00    -0.744 OA
ENDBRANCH 100 101
ENDBRANCH  68  93
ENDBRANCH  42  43
ENDBRANCH  35  37
ENDBRANCH  34  35
ENDBRANCH  33  34
ENDBRANCH  32  33
ENDBRANCH  31  32
ENDBRANCH   1  31
TORSDOF 23
ENDMDL
