MODEL 1
REMARK VINA RESULT:     -12.0      0.000      0.000
REMARK SMILES O=C1CC[C@@H](CC(=O)N2CCC(Oc3ccccc3)(C(=O)OCCOCCOC(=O)c3ccc(-c4c5nc(c(-c6c(F)cc(S(=O)(=O)[O-])cc6F)c6ccc([nH]6)c(-c6c(F)cc(S(=O)(=O)[O-])cc6F)c6nc(c(-c7c(F)cc(S(=O)(=O)[O-])cc7F)c7ccc4[nH]7)C=C6)C=C5)cc3)CC2)N1
REMARK SMILES IDX 26 1 25 2 24 3 23 4 22 5 20 6 21 7 12 8 7 9 8 10 9 11 10 12
REMARK SMILES IDX 98 13 11 14 97 15 6 16 5 17 1 18 2 19 3 20 99 21 4 22 13 24
REMARK SMILES IDX 14 25 15 26 19 27 16 28 18 29 17 30 27 31 28 32 29 33 30 34
REMARK SMILES IDX 31 35 32 36 96 37 33 38 95 39 34 40 35 41 36 42 89 43 37 44
REMARK SMILES IDX 94 45 88 46 90 47 38 48 93 49 87 50 86 51 39 53 73 54 52 55
REMARK SMILES IDX 72 56 53 57 56 58 71 59 91 60 54 61 55 62 70 64 92 65 57 66
REMARK SMILES IDX 40 67 41 68 50 69 42 70 43 71 49 72 51 73 44 74 45 75 46 76
REMARK SMILES IDX 47 77 48 78 74 79 75 80 84 81 76 82 77 83 83 84 85 85 78 86
REMARK SMILES IDX 79 87 80 88 81 89 82 90 58 91 59 92 68 93 60 94 61 95 67 96
REMARK SMILES IDX 69 97 62 98 63 99 64 100 65 101 66 102
REMARK H PARENT 99 23 90 52 56 63
REMARK Flexibility Score: inf
ROOT
ATOM      1  C   UNL A   1      40.095  21.865  26.533  1.00  0.00     0.202 C 
ENDROOT
BRANCH   1   2
ATOM      2  O   UNL A   1      38.945  22.661  26.292  1.00  0.00    -0.374 OA
BRANCH   2   3
ATOM      3  C   UNL A   1      37.851  22.067  25.588  1.00  0.00     0.202 C 
BRANCH   3   4
ATOM      4  C   UNL A   1      36.432  22.551  25.909  1.00  0.00     0.261 C 
BRANCH   4   5
ATOM      5  O   UNL A   1      35.411  21.800  25.217  1.00  0.00    -0.460 OA
BRANCH   5   6
ATOM      6  C   UNL A   1      34.160  21.848  25.758  1.00  0.00     0.350 C 
ATOM      7  O   UNL A   1      33.949  21.865  26.969  1.00  0.00    -0.247 OA
BRANCH   6   8
ATOM      8  C   UNL A   1      33.020  21.902  24.706  1.00  0.00     0.209 C 
ATOM      9  C   UNL A   1      32.966  25.524  22.277  1.00  0.00     0.224 C 
ATOM     10  O   UNL A   1      32.643  25.357  21.089  1.00  0.00    -0.275 OA
ATOM     11  N   UNL A   1      33.192  24.410  23.071  1.00  0.00    -0.342 N 
ATOM     12  C   UNL A   1      33.168  23.104  22.399  1.00  0.00     0.124 C 
ATOM     13  C   UNL A   1      33.035  24.396  24.506  1.00  0.00     0.124 C 
ATOM     14  C   UNL A   1      33.532  21.874  23.247  1.00  0.00     0.082 C 
ATOM     15  C   UNL A   1      32.237  23.201  24.977  1.00  0.00     0.082 C 
BRANCH   9  16
ATOM     16  C   UNL A   1      33.250  26.980  22.688  1.00  0.00     0.125 C 
BRANCH  16  17
ATOM     17  C   UNL A   1      32.298  28.107  23.077  1.00  0.00     0.091 C 
ATOM     18  O   UNL A   1      29.768  29.969  21.521  1.00  0.00    -0.275 OA
ATOM     19  C   UNL A   1      30.426  29.244  22.246  1.00  0.00     0.220 C 
ATOM     20  C   UNL A   1      29.946  28.563  23.500  1.00  0.00     0.102 C 
ATOM     21  N   UNL A   1      31.742  28.899  22.024  1.00  0.00    -0.353 N 
ATOM     22  C   UNL A   1      31.124  27.706  23.961  1.00  0.00     0.035 C 
ATOM     23  H   UNL A   1      32.247  29.169  21.224  1.00  0.00     0.163 HD
ENDBRANCH  16  17
ENDBRANCH   9  16
BRANCH   8  24
ATOM     24  O   UNL A   1      32.320  20.668  25.023  1.00  0.00    -0.475 OA
BRANCH  24  25
ATOM     25  C   UNL A   1      32.725  19.564  24.329  1.00  0.00     0.121 A 
ATOM     26  C   UNL A   1      32.081  19.217  23.140  1.00  0.00     0.046 A 
ATOM     27  C   UNL A   1      33.740  18.763  24.843  1.00  0.00     0.046 A 
ATOM     28  C   UNL A   1      32.516  18.108  22.417  1.00  0.00     0.004 A 
ATOM     29  C   UNL A   1      34.165  17.645  24.124  1.00  0.00     0.004 A 
ATOM     30  C   UNL A   1      33.564  17.326  22.906  1.00  0.00     0.000 A 
ENDBRANCH  24  25
ENDBRANCH   8  24
ENDBRANCH   6   8
ENDBRANCH   5   6
ENDBRANCH   4   5
ENDBRANCH   3   4
ENDBRANCH   2   3
ENDBRANCH   1   2
BRANCH   1  31
ATOM     31  C   UNL A   1      41.471  22.453  26.192  1.00  0.00     0.261 C 
BRANCH  31  32
ATOM     32  O   UNL A   1      41.921  23.449  27.117  1.00  0.00    -0.460 OA
BRANCH  32  33
ATOM     33  C   UNL A   1      42.036  24.691  26.579  1.00  0.00     0.338 C 
ATOM     34  O   UNL A   1      42.340  24.970  25.430  1.00  0.00    -0.246 OA
BRANCH  33  35
ATOM     35  C   UNL A   1      41.560  25.703  27.536  1.00  0.00     0.060 A 
ATOM     36  C   UNL A   1      42.384  26.813  27.752  1.00  0.00     0.016 A 
ATOM     37  C   UNL A   1      40.372  25.546  28.254  1.00  0.00     0.016 A 
ATOM     38  C   UNL A   1      42.039  27.758  28.713  1.00  0.00     0.010 A 
ATOM     39  C   UNL A   1      40.033  26.492  29.230  1.00  0.00     0.010 A 
ATOM     40  C   UNL A   1      40.879  27.586  29.483  1.00  0.00    -0.014 A 
BRANCH  40  41
ATOM     41  C   UNL A   1      40.639  28.508  30.619  1.00  0.00     0.031 A 
ATOM     42  C   UNL A   1      41.513  28.419  31.839  1.00  0.00     0.074 A 
ATOM     43  C   UNL A   1      39.703  29.470  30.524  1.00  0.00     0.049 A 
ATOM     44  N   UNL A   1      41.543  29.189  32.895  1.00  0.00    -0.248 NA
ATOM     45  C   UNL A   1      42.485  27.315  31.870  1.00  0.00     0.031 C 
ATOM     46  C   UNL A   1      38.815  29.669  29.379  1.00  0.00     0.029 A 
ATOM     47  N   UNL A   1      39.355  30.468  31.398  1.00  0.00    -0.354 N 
ATOM     48  C   UNL A   1      42.541  28.674  33.712  1.00  0.00     0.074 A 
ATOM     49  C   UNL A   1      43.065  27.499  33.047  1.00  0.00     0.031 C 
ATOM     50  C   UNL A   1      38.028  30.732  29.618  1.00  0.00     0.029 A 
ATOM     51  C   UNL A   1      38.346  31.278  30.937  1.00  0.00     0.049 A 
ATOM     52  H   UNL A   1      39.789  30.592  32.273  1.00  0.00     0.167 HD
ATOM     53  C   UNL A   1      42.989  29.144  34.902  1.00  0.00     0.037 A 
ATOM     54  C   UNL A   1      37.747  32.338  31.513  1.00  0.00     0.037 A 
ATOM     55  C   UNL A   1      42.453  30.306  35.564  1.00  0.00     0.049 A 
ATOM     56  C   UNL A   1      38.222  32.809  32.862  1.00  0.00     0.074 A 
ATOM     57  C   UNL A   1      42.850  30.876  36.761  1.00  0.00     0.029 A 
ATOM     58  N   UNL A   1      41.393  31.068  35.092  1.00  0.00    -0.354 N 
ATOM     59  N   UNL A   1      39.195  32.337  33.604  1.00  0.00    -0.248 NA
ATOM     60  C   UNL A   1      37.523  33.961  33.447  1.00  0.00     0.031 C 
ATOM     61  C   UNL A   1      41.997  31.952  37.037  1.00  0.00     0.029 A 
ATOM     62  C   UNL A   1      41.101  32.084  35.988  1.00  0.00     0.049 A 
ATOM     63  H   UNL A   1      40.918  30.909  34.245  1.00  0.00     0.167 HD
ATOM     64  C   UNL A   1      39.237  33.143  34.738  1.00  0.00     0.074 A 
ATOM     65  C   UNL A   1      38.201  34.144  34.572  1.00  0.00     0.031 C 
ATOM     66  C   UNL A   1      40.055  33.063  35.816  1.00  0.00     0.037 A 
BRANCH  53  67
ATOM     67  C   UNL A   1      44.095  28.377  35.574  1.00  0.00     0.058 A 
ATOM     68  C   UNL A   1      45.447  28.623  35.284  1.00  0.00     0.135 A 
ATOM     69  C   UNL A   1      43.800  27.387  36.525  1.00  0.00     0.135 A 
ATOM     70  F   UNL A   1      45.786  29.547  34.371  1.00  0.00    -0.206 F 
ATOM     71  C   UNL A   1      46.466  27.888  35.884  1.00  0.00     0.059 A 
ATOM     72  C   UNL A   1      44.803  26.658  37.157  1.00  0.00     0.059 A 
ATOM     73  F   UNL A   1      42.525  27.111  36.839  1.00  0.00    -0.206 F 
ATOM     74  C   UNL A   1      46.133  26.903  36.815  1.00  0.00     0.060 A 
BRANCH  74  75
ATOM     75  S   UNL A   1      47.462  25.942  37.569  1.00  0.00     0.124 S 
ATOM     76  O   UNL A   1      46.742  24.753  38.017  1.00  0.00    -0.237 OA
ATOM     77  O   UNL A   1      48.379  25.743  36.452  1.00  0.00    -0.237 OA
ATOM     78  O   UNL A   1      47.954  26.814  38.631  1.00  0.00    -0.744 OA
ENDBRANCH  74  75
ENDBRANCH  53  67
BRANCH  54  79
ATOM     79  C   UNL A   1      36.639  33.032  30.805  1.00  0.00     0.058 A 
ATOM     80  C   UNL A   1      35.303  32.843  31.185  1.00  0.00     0.135 A 
ATOM     81  C   UNL A   1      36.899  33.922  29.751  1.00  0.00     0.135 A 
ATOM     82  F   UNL A   1      35.002  31.994  32.180  1.00  0.00    -0.206 F 
ATOM     83  C   UNL A   1      34.263  33.511  30.547  1.00  0.00     0.059 A 
ATOM     84  C   UNL A   1      35.878  34.619  29.113  1.00  0.00     0.059 A 
ATOM     85  F   UNL A   1      38.162  34.144  29.355  1.00  0.00    -0.206 F 
ATOM     86  C   UNL A   1      34.562  34.403  29.516  1.00  0.00     0.060 A 
BRANCH  86  87
ATOM     87  S   UNL A   1      33.211  35.323  28.746  1.00  0.00     0.124 S 
ATOM     88  O   UNL A   1      33.940  36.320  27.969  1.00  0.00    -0.237 OA
ATOM     89  O   UNL A   1      32.535  34.284  27.976  1.00  0.00    -0.237 OA
ATOM     90  O   UNL A   1      32.461  35.836  29.888  1.00  0.00    -0.744 OA
ENDBRANCH  86  87
ENDBRANCH  54  79
BRANCH  66  91
ATOM     91  C   UNL A   1      39.869  34.093  36.898  1.00  0.00     0.058 A 
ATOM     92  C   UNL A   1      40.429  35.376  36.797  1.00  0.00     0.135 A 
ATOM     93  C   UNL A   1      39.099  33.803  38.036  1.00  0.00     0.135 A 
ATOM     94  F   UNL A   1      41.179  35.704  35.732  1.00  0.00    -0.206 F 
ATOM     95  C   UNL A   1      40.261  36.325  37.801  1.00  0.00     0.059 A 
ATOM     96  C   UNL A   1      38.894  34.746  39.039  1.00  0.00     0.059 A 
ATOM     97  F   UNL A   1      38.529  32.596  38.178  1.00  0.00    -0.206 F 
ATOM     98  C   UNL A   1      39.493  35.999  38.920  1.00  0.00     0.060 A 
BRANCH  98  99
ATOM     99  S   UNL A   1      39.273  37.241  40.213  1.00  0.00     0.124 S 
ATOM    100  O   UNL A   1      38.526  38.273  39.504  1.00  0.00    -0.237 OA
ATOM    101  O   UNL A   1      38.529  36.505  41.231  1.00  0.00    -0.237 OA
ATOM    102  O   UNL A   1      40.642  37.594  40.579  1.00  0.00    -0.744 OA
ENDBRANCH  98  99
ENDBRANCH  66  91
ENDBRANCH  40  41
ENDBRANCH  33  35
ENDBRANCH  32  33
ENDBRANCH  31  32
ENDBRANCH   1  31
TORSDOF 21
ENDMDL
MODEL 2
REMARK VINA RESULT:     -11.5      6.268     11.664
REMARK SMILES O=C1CC[C@@H](CC(=O)N2CCC(Oc3ccccc3)(C(=O)OCCOCCOC(=O)c3ccc(-c4c5nc(c(-c6c(F)cc(S(=O)(=O)[O-])cc6F)c6ccc([nH]6)c(-c6c(F)cc(S(=O)(=O)[O-])cc6F)c6nc(c(-c7c(F)cc(S(=O)(=O)[O-])cc7F)c7ccc4[nH]7)C=C6)C=C5)cc3)CC2)N1
REMARK SMILES IDX 26 1 25 2 24 3 23 4 22 5 20 6 21 7 12 8 7 9 8 10 9 11 10 12
REMARK SMILES IDX 98 13 11 14 97 15 6 16 5 17 1 18 2 19 3 20 99 21 4 22 13 24
REMARK SMILES IDX 14 25 15 26 19 27 16 28 18 29 17 30 27 31 28 32 29 33 30 34
REMARK SMILES IDX 31 35 32 36 96 37 33 38 95 39 34 40 35 41 36 42 89 43 37 44
REMARK SMILES IDX 94 45 88 46 90 47 38 48 93 49 87 50 86 51 39 53 73 54 52 55
REMARK SMILES IDX 72 56 53 57 56 58 71 59 91 60 54 61 55 62 70 64 92 65 57 66
REMARK SMILES IDX 40 67 41 68 50 69 42 70 43 71 49 72 51 73 44 74 45 75 46 76
REMARK SMILES IDX 47 77 48 78 74 79 75 80 84 81 76 82 77 83 83 84 85 85 78 86
REMARK SMILES IDX 79 87 80 88 81 89 82 90 58 91 59 92 68 93 60 94 61 95 67 96
REMARK SMILES IDX 69 97 62 98 63 99 64 100 65 101 66 102
REMARK H PARENT 99 23 90 52 56 63
REMARK Flexibility Score: inf
ROOT
ATOM      1  C   UNL A   1      34.943  33.094  29.131  1.00  0.00     0.202 C 
ENDROOT
BRANCH   1   2
ATOM      2  O   UNL A   1      33.838  32.861  28.272  1.00  0.00    -0.374 OA
BRANCH   2   3
ATOM      3  C   UNL A   1      33.947  31.812  27.306  1.00  0.00     0.202 C 
BRANCH   3   4
ATOM      4  C   UNL A   1      33.170  30.514  27.554  1.00  0.00     0.261 C 
BRANCH   4   5
ATOM      5  O   UNL A   1      33.798  29.358  26.956  1.00  0.00    -0.460 OA
BRANCH   5   6
ATOM      6  C   UNL A   1      33.061  28.211  26.948  1.00  0.00     0.350 C 
ATOM      7  O   UNL A   1      32.403  27.825  27.912  1.00  0.00    -0.247 OA
BRANCH   6   8
ATOM      8  C   UNL A   1      33.108  27.442  25.601  1.00  0.00     0.209 C 
ATOM      9  C   UNL A   1      30.140  28.729  22.676  1.00  0.00     0.224 C 
ATOM     10  O   UNL A   1      30.529  28.729  21.496  1.00  0.00    -0.275 OA
ATOM     11  N   UNL A   1      31.067  28.517  23.685  1.00  0.00    -0.342 N 
ATOM     12  C   UNL A   1      32.479  28.446  23.281  1.00  0.00     0.124 C 
ATOM     13  C   UNL A   1      30.741  27.964  24.978  1.00  0.00     0.124 C 
ATOM     14  C   UNL A   1      33.522  28.329  24.404  1.00  0.00     0.082 C 
ATOM     15  C   UNL A   1      31.698  26.863  25.380  1.00  0.00     0.082 C 
BRANCH   9  16
ATOM     16  C   UNL A   1      28.674  29.145  22.891  1.00  0.00     0.125 C 
BRANCH  16  17
ATOM     17  C   UNL A   1      27.956  30.455  22.578  1.00  0.00     0.091 C 
ATOM     18  O   UNL A   1      28.585  33.879  22.998  1.00  0.00    -0.275 OA
ATOM     19  C   UNL A   1      28.357  32.763  22.564  1.00  0.00     0.220 C 
ATOM     20  C   UNL A   1      28.081  32.404  21.128  1.00  0.00     0.102 C 
ATOM     21  N   UNL A   1      28.337  31.614  23.324  1.00  0.00    -0.353 N 
ATOM     22  C   UNL A   1      27.964  30.881  21.115  1.00  0.00     0.035 C 
ATOM     23  H   UNL A   1      28.560  31.592  24.283  1.00  0.00     0.163 HD
ENDBRANCH  16  17
ENDBRANCH   9  16
BRANCH   8  24
ATOM     24  O   UNL A   1      34.147  26.469  25.897  1.00  0.00    -0.475 OA
BRANCH  24  25
ATOM     25  C   UNL A   1      33.968  25.229  25.355  1.00  0.00     0.121 A 
ATOM     26  C   UNL A   1      34.270  25.009  24.010  1.00  0.00     0.046 A 
ATOM     27  C   UNL A   1      33.432  24.209  26.135  1.00  0.00     0.046 A 
ATOM     28  C   UNL A   1      34.116  23.734  23.467  1.00  0.00     0.004 A 
ATOM     29  C   UNL A   1      33.266  22.937  25.586  1.00  0.00     0.004 A 
ATOM     30  C   UNL A   1      33.620  22.696  24.257  1.00  0.00     0.000 A 
ENDBRANCH  24  25
ENDBRANCH   8  24
ENDBRANCH   6   8
ENDBRANCH   5   6
ENDBRANCH   4   5
ENDBRANCH   3   4
ENDBRANCH   2   3
ENDBRANCH   1   2
BRANCH   1  31
ATOM     31  C   UNL A   1      35.192  32.107  30.282  1.00  0.00     0.261 C 
BRANCH  31  32
ATOM     32  O   UNL A   1      35.897  30.924  29.888  1.00  0.00    -0.460 OA
BRANCH  32  33
ATOM     33  C   UNL A   1      36.645  30.373  30.878  1.00  0.00     0.338 C 
ATOM     34  O   UNL A   1      36.245  29.919  31.937  1.00  0.00    -0.246 OA
BRANCH  33  35
ATOM     35  C   UNL A   1      38.041  30.222  30.433  1.00  0.00     0.060 A 
ATOM     36  C   UNL A   1      38.276  30.250  29.053  1.00  0.00     0.016 A 
ATOM     37  C   UNL A   1      39.086  29.995  31.331  1.00  0.00     0.016 A 
ATOM     38  C   UNL A   1      39.557  30.018  28.563  1.00  0.00     0.010 A 
ATOM     39  C   UNL A   1      40.373  29.749  30.834  1.00  0.00     0.010 A 
ATOM     40  C   UNL A   1      40.607  29.731  29.448  1.00  0.00    -0.014 A 
BRANCH  40  41
ATOM     41  C   UNL A   1      41.912  29.309  28.885  1.00  0.00     0.031 A 
ATOM     42  C   UNL A   1      43.044  30.297  28.823  1.00  0.00     0.074 A 
ATOM     43  C   UNL A   1      42.107  28.031  28.512  1.00  0.00     0.049 A 
ATOM     44  N   UNL A   1      44.288  30.110  28.467  1.00  0.00    -0.248 NA
ATOM     45  C   UNL A   1      42.730  31.678  29.218  1.00  0.00     0.031 C 
ATOM     46  C   UNL A   1      41.091  26.979  28.552  1.00  0.00     0.029 A 
ATOM     47  N   UNL A   1      43.228  27.398  28.040  1.00  0.00    -0.354 N 
ATOM     48  C   UNL A   1      44.911  31.344  28.604  1.00  0.00     0.074 A 
ATOM     49  C   UNL A   1      43.896  32.282  29.038  1.00  0.00     0.031 C 
ATOM     50  C   UNL A   1      41.640  25.827  28.131  1.00  0.00     0.029 A 
ATOM     51  C   UNL A   1      43.039  26.063  27.776  1.00  0.00     0.049 A 
ATOM     52  H   UNL A   1      44.088  27.858  27.904  1.00  0.00     0.167 HD
ATOM     53  C   UNL A   1      46.213  31.664  28.401  1.00  0.00     0.037 A 
ATOM     54  C   UNL A   1      43.896  25.138  27.303  1.00  0.00     0.037 A 
ATOM     55  C   UNL A   1      47.213  30.728  27.957  1.00  0.00     0.049 A 
ATOM     56  C   UNL A   1      45.324  25.529  27.028  1.00  0.00     0.074 A 
ATOM     57  C   UNL A   1      48.563  30.947  27.740  1.00  0.00     0.029 A 
ATOM     58  N   UNL A   1      46.970  29.397  27.646  1.00  0.00    -0.354 N 
ATOM     59  N   UNL A   1      45.909  26.690  27.203  1.00  0.00    -0.248 NA
ATOM     60  C   UNL A   1      46.209  24.482  26.501  1.00  0.00     0.031 C 
ATOM     61  C   UNL A   1      49.125  29.762  27.250  1.00  0.00     0.029 A 
ATOM     62  C   UNL A   1      48.138  28.790  27.210  1.00  0.00     0.049 A 
ATOM     63  H   UNL A   1      46.097  28.950  27.725  1.00  0.00     0.167 HD
ATOM     64  C   UNL A   1      47.235  26.510  26.822  1.00  0.00     0.074 A 
ATOM     65  C   UNL A   1      47.367  25.123  26.425  1.00  0.00     0.031 C 
ATOM     66  C   UNL A   1      48.250  27.410  26.802  1.00  0.00     0.037 A 
BRANCH  53  67
ATOM     67  C   UNL A   1      46.614  33.096  28.631  1.00  0.00     0.058 A 
ATOM     68  C   UNL A   1      47.067  33.545  29.881  1.00  0.00     0.135 A 
ATOM     69  C   UNL A   1      46.551  34.030  27.584  1.00  0.00     0.135 A 
ATOM     70  F   UNL A   1      47.132  32.699  30.922  1.00  0.00    -0.206 F 
ATOM     71  C   UNL A   1      47.407  34.878  30.097  1.00  0.00     0.059 A 
ATOM     72  C   UNL A   1      46.911  35.361  27.770  1.00  0.00     0.059 A 
ATOM     73  F   UNL A   1      46.125  33.654  26.368  1.00  0.00    -0.206 F 
ATOM     74  C   UNL A   1      47.319  35.780  29.036  1.00  0.00     0.060 A 
BRANCH  74  75
ATOM     75  S   UNL A   1      47.741  37.510  29.334  1.00  0.00     0.124 S 
ATOM     76  O   UNL A   1      47.920  37.519  30.783  1.00  0.00    -0.237 OA
ATOM     77  O   UNL A   1      48.957  37.677  28.545  1.00  0.00    -0.237 OA
ATOM     78  O   UNL A   1      46.574  38.235  28.841  1.00  0.00    -0.744 OA
ENDBRANCH  74  75
ENDBRANCH  53  67
BRANCH  54  79
ATOM     79  C   UNL A   1      43.424  23.747  27.071  1.00  0.00     0.058 A 
ATOM     80  C   UNL A   1      43.199  22.868  28.139  1.00  0.00     0.135 A 
ATOM     81  C   UNL A   1      43.160  23.280  25.773  1.00  0.00     0.135 A 
ATOM     82  F   UNL A   1      43.447  23.263  29.397  1.00  0.00    -0.206 F 
ATOM     83  C   UNL A   1      42.730  21.575  27.931  1.00  0.00     0.059 A 
ATOM     84  C   UNL A   1      42.669  22.000  25.542  1.00  0.00     0.059 A 
ATOM     85  F   UNL A   1      43.351  24.087  24.717  1.00  0.00    -0.206 F 
ATOM     86  C   UNL A   1      42.460  21.153  26.629  1.00  0.00     0.060 A 
BRANCH  86  87
ATOM     87  S   UNL A   1      41.778  19.499  26.376  1.00  0.00     0.124 S 
ATOM     88  O   UNL A   1      42.394  19.116  25.110  1.00  0.00    -0.237 OA
ATOM     89  O   UNL A   1      42.255  18.789  27.558  1.00  0.00    -0.237 OA
ATOM     90  O   UNL A   1      40.338  19.734  26.333  1.00  0.00    -0.744 OA
ENDBRANCH  86  87
ENDBRANCH  54  79
BRANCH  66  91
ATOM     91  C   UNL A   1      49.596  26.918  26.344  1.00  0.00     0.058 A 
ATOM     92  C   UNL A   1      50.032  27.094  25.021  1.00  0.00     0.135 A 
ATOM     93  C   UNL A   1      50.472  26.288  27.243  1.00  0.00     0.135 A 
ATOM     94  F   UNL A   1      49.233  27.686  24.119  1.00  0.00    -0.206 F 
ATOM     95  C   UNL A   1      51.275  26.633  24.597  1.00  0.00     0.059 A 
ATOM     96  C   UNL A   1      51.730  25.844  26.848  1.00  0.00     0.059 A 
ATOM     97  F   UNL A   1      50.110  26.105  28.523  1.00  0.00    -0.206 F 
ATOM     98  C   UNL A   1      52.116  26.007  25.518  1.00  0.00     0.060 A 
BRANCH  98  99
ATOM     99  S   UNL A   1      53.730  25.421  24.960  1.00  0.00     0.124 S 
ATOM    100  O   UNL A   1      53.650  23.998  25.272  1.00  0.00    -0.237 OA
ATOM    101  O   UNL A   1      53.713  25.760  23.540  1.00  0.00    -0.237 OA
ATOM    102  O   UNL A   1      54.669  26.191  25.769  1.00  0.00    -0.744 OA
ENDBRANCH  98  99
ENDBRANCH  66  91
ENDBRANCH  40  41
ENDBRANCH  33  35
ENDBRANCH  32  33
ENDBRANCH  31  32
ENDBRANCH   1  31
TORSDOF 21
ENDMDL
MODEL 3
REMARK VINA RESULT:     -11.3      0.611      7.995
REMARK SMILES O=C1CC[C@@H](CC(=O)N2CCC(Oc3ccccc3)(C(=O)OCCOCCOC(=O)c3ccc(-c4c5nc(c(-c6c(F)cc(S(=O)(=O)[O-])cc6F)c6ccc([nH]6)c(-c6c(F)cc(S(=O)(=O)[O-])cc6F)c6nc(c(-c7c(F)cc(S(=O)(=O)[O-])cc7F)c7ccc4[nH]7)C=C6)C=C5)cc3)CC2)N1
REMARK SMILES IDX 26 1 25 2 24 3 23 4 22 5 20 6 21 7 12 8 7 9 8 10 9 11 10 12
REMARK SMILES IDX 98 13 11 14 97 15 6 16 5 17 1 18 2 19 3 20 99 21 4 22 13 24
REMARK SMILES IDX 14 25 15 26 19 27 16 28 18 29 17 30 27 31 28 32 29 33 30 34
REMARK SMILES IDX 31 35 32 36 96 37 33 38 95 39 34 40 35 41 36 42 89 43 37 44
REMARK SMILES IDX 94 45 88 46 90 47 38 48 93 49 87 50 86 51 39 53 73 54 52 55
REMARK SMILES IDX 72 56 53 57 56 58 71 59 91 60 54 61 55 62 70 64 92 65 57 66
REMARK SMILES IDX 40 67 41 68 50 69 42 70 43 71 49 72 51 73 44 74 45 75 46 76
REMARK SMILES IDX 47 77 48 78 74 79 75 80 84 81 76 82 77 83 83 84 85 85 78 86
REMARK SMILES IDX 79 87 80 88 81 89 82 90 58 91 59 92 68 93 60 94 61 95 67 96
REMARK SMILES IDX 69 97 62 98 63 99 64 100 65 101 66 102
REMARK H PARENT 99 23 90 52 56 63
REMARK Flexibility Score: inf
ROOT
ATOM      1  C   UNL A   1      40.537  21.423  26.128  1.00  0.00     0.202 C 
ENDROOT
BRANCH   1   2
ATOM      2  O   UNL A   1      39.227  21.849  26.468  1.00  0.00    -0.374 OA
BRANCH   2   3
ATOM      3  C   UNL A   1      38.167  21.564  25.551  1.00  0.00     0.202 C 
BRANCH   3   4
ATOM      4  C   UNL A   1      36.828  22.285  25.743  1.00  0.00     0.261 C 
BRANCH   4   5
ATOM      5  O   UNL A   1      35.709  21.550  25.200  1.00  0.00    -0.460 OA
BRANCH   5   6
ATOM      6  C   UNL A   1      34.543  21.624  25.903  1.00  0.00     0.350 C 
ATOM      7  O   UNL A   1      34.499  21.699  27.130  1.00  0.00    -0.247 OA
BRANCH   6   8
ATOM      8  C   UNL A   1      33.271  21.630  25.015  1.00  0.00     0.209 C 
ATOM      9  C   UNL A   1      32.622  25.331  22.800  1.00  0.00     0.224 C 
ATOM     10  O   UNL A   1      32.155  25.186  21.658  1.00  0.00    -0.275 OA
ATOM     11  N   UNL A   1      33.035  24.207  23.501  1.00  0.00    -0.342 N 
ATOM     12  C   UNL A   1      33.016  22.931  22.772  1.00  0.00     0.124 C 
ATOM     13  C   UNL A   1      33.075  24.123  24.941  1.00  0.00     0.124 C 
ATOM     14  C   UNL A   1      33.581  21.702  23.502  1.00  0.00     0.082 C 
ATOM     15  C   UNL A   1      32.438  22.850  25.452  1.00  0.00     0.082 C 
BRANCH   9  16
ATOM     16  C   UNL A   1      32.852  26.787  23.243  1.00  0.00     0.125 C 
BRANCH  16  17
ATOM     17  C   UNL A   1      31.863  27.928  23.461  1.00  0.00     0.091 C 
ATOM     18  O   UNL A   1      29.902  30.030  21.453  1.00  0.00    -0.275 OA
ATOM     19  C   UNL A   1      30.319  29.219  22.262  1.00  0.00     0.220 C 
ATOM     20  C   UNL A   1      29.498  28.468  23.277  1.00  0.00     0.102 C 
ATOM     21  N   UNL A   1      31.635  28.825  22.371  1.00  0.00    -0.353 N 
ATOM     22  C   UNL A   1      30.482  27.520  23.959  1.00  0.00     0.035 C 
ATOM     23  H   UNL A   1      32.346  29.130  21.762  1.00  0.00     0.163 HD
ENDBRANCH  16  17
ENDBRANCH   9  16
BRANCH   8  24
ATOM     24  O   UNL A   1      32.712  20.332  25.359  1.00  0.00    -0.475 OA
BRANCH  24  25
ATOM     25  C   UNL A   1      33.011  19.314  24.500  1.00  0.00     0.121 A 
ATOM     26  C   UNL A   1      34.128  18.511  24.738  1.00  0.00     0.046 A 
ATOM     27  C   UNL A   1      32.231  19.121  23.364  1.00  0.00     0.046 A 
ATOM     28  C   UNL A   1      34.414  17.452  23.878  1.00  0.00     0.004 A 
ATOM     29  C   UNL A   1      32.527  18.069  22.496  1.00  0.00     0.004 A 
ATOM     30  C   UNL A   1      33.609  17.227  22.760  1.00  0.00     0.000 A 
ENDBRANCH  24  25
ENDBRANCH   8  24
ENDBRANCH   6   8
ENDBRANCH   5   6
ENDBRANCH   4   5
ENDBRANCH   3   4
ENDBRANCH   2   3
ENDBRANCH   1   2
BRANCH   1  31
ATOM     31  C   UNL A   1      41.663  22.466  26.123  1.00  0.00     0.261 C 
BRANCH  31  32
ATOM     32  O   UNL A   1      41.466  23.535  27.056  1.00  0.00    -0.460 OA
BRANCH  32  33
ATOM     33  C   UNL A   1      41.720  24.767  26.545  1.00  0.00     0.338 C 
ATOM     34  O   UNL A   1      42.019  25.039  25.394  1.00  0.00    -0.246 OA
BRANCH  33  35
ATOM     35  C   UNL A   1      41.411  25.803  27.545  1.00  0.00     0.060 A 
ATOM     36  C   UNL A   1      42.323  26.857  27.674  1.00  0.00     0.016 A 
ATOM     37  C   UNL A   1      40.293  25.719  28.380  1.00  0.00     0.016 A 
ATOM     38  C   UNL A   1      42.138  27.816  28.664  1.00  0.00     0.010 A 
ATOM     39  C   UNL A   1      40.117  26.680  29.384  1.00  0.00     0.010 A 
ATOM     40  C   UNL A   1      41.054  27.716  29.548  1.00  0.00    -0.014 A 
BRANCH  40  41
ATOM     41  C   UNL A   1      40.991  28.646  30.701  1.00  0.00     0.031 A 
ATOM     42  C   UNL A   1      39.940  29.721  30.725  1.00  0.00     0.074 A 
ATOM     43  C   UNL A   1      41.812  28.477  31.753  1.00  0.00     0.049 A 
ATOM     44  N   UNL A   1      39.644  30.569  31.675  1.00  0.00    -0.248 NA
ATOM     45  C   UNL A   1      39.111  29.855  29.517  1.00  0.00     0.031 C 
ATOM     46  C   UNL A   1      42.852  27.453  31.852  1.00  0.00     0.029 A 
ATOM     47  N   UNL A   1      41.890  29.153  32.944  1.00  0.00    -0.354 N 
ATOM     48  C   UNL A   1      38.589  31.330  31.188  1.00  0.00     0.074 A 
ATOM     49  C   UNL A   1      38.323  30.870  29.842  1.00  0.00     0.031 C 
ATOM     50  C   UNL A   1      43.458  27.563  33.046  1.00  0.00     0.029 A 
ATOM     51  C   UNL A   1      42.862  28.673  33.787  1.00  0.00     0.049 A 
ATOM     52  H   UNL A   1      41.303  29.910  33.172  1.00  0.00     0.167 HD
ATOM     53  C   UNL A   1      37.895  32.314  31.812  1.00  0.00     0.037 A 
ATOM     54  C   UNL A   1      43.229  29.083  35.017  1.00  0.00     0.037 A 
ATOM     55  C   UNL A   1      38.174  32.775  33.148  1.00  0.00     0.049 A 
ATOM     56  C   UNL A   1      42.482  30.217  35.669  1.00  0.00     0.074 A 
ATOM     57  C   UNL A   1      37.518  33.752  33.877  1.00  0.00     0.029 A 
ATOM     58  N   UNL A   1      39.203  32.303  33.950  1.00  0.00    -0.354 N 
ATOM     59  N   UNL A   1      41.459  30.899  35.213  1.00  0.00    -0.248 NA
ATOM     60  C   UNL A   1      42.935  30.629  37.004  1.00  0.00     0.031 C 
ATOM     61  C   UNL A   1      38.182  33.904  35.101  1.00  0.00     0.029 A 
ATOM     62  C   UNL A   1      39.220  32.989  35.155  1.00  0.00     0.049 A 
ATOM     63  H   UNL A   1      39.829  31.586  33.701  1.00  0.00     0.167 HD
ATOM     64  C   UNL A   1      41.134  31.813  36.212  1.00  0.00     0.074 A 
ATOM     65  C   UNL A   1      42.060  31.581  37.302  1.00  0.00     0.031 C 
ATOM     66  C   UNL A   1      40.160  32.756  36.225  1.00  0.00     0.037 A 
BRANCH  53  67
ATOM     67  C   UNL A   1      36.787  32.974  31.037  1.00  0.00     0.058 A 
ATOM     68  C   UNL A   1      37.046  33.947  30.059  1.00  0.00     0.135 A 
ATOM     69  C   UNL A   1      35.447  32.623  31.271  1.00  0.00     0.135 A 
ATOM     70  F   UNL A   1      38.307  34.333  29.806  1.00  0.00    -0.206 F 
ATOM     71  C   UNL A   1      36.016  34.578  29.367  1.00  0.00     0.059 A 
ATOM     72  C   UNL A   1      34.402  33.221  30.573  1.00  0.00     0.059 A 
ATOM     73  F   UNL A   1      35.143  31.698  32.194  1.00  0.00    -0.206 F 
ATOM     74  C   UNL A   1      34.696  34.212  29.636  1.00  0.00     0.060 A 
BRANCH  74  75
ATOM     75  S   UNL A   1      33.367  35.053  28.749  1.00  0.00     0.124 S 
ATOM     76  O   UNL A   1      34.111  36.064  28.004  1.00  0.00    -0.237 OA
ATOM     77  O   UNL A   1      32.792  33.975  27.952  1.00  0.00    -0.237 OA
ATOM     78  O   UNL A   1      32.513  35.561  29.818  1.00  0.00    -0.744 OA
ENDBRANCH  74  75
ENDBRANCH  53  67
BRANCH  54  79
ATOM     79  C   UNL A   1      44.353  28.405  35.715  1.00  0.00     0.058 A 
ATOM     80  C   UNL A   1      45.680  28.816  35.526  1.00  0.00     0.135 A 
ATOM     81  C   UNL A   1      44.117  27.347  36.608  1.00  0.00     0.135 A 
ATOM     82  F   UNL A   1      45.957  29.814  34.674  1.00  0.00    -0.206 F 
ATOM     83  C   UNL A   1      46.734  28.205  36.197  1.00  0.00     0.059 A 
ATOM     84  C   UNL A   1      45.152  26.736  37.308  1.00  0.00     0.059 A 
ATOM     85  F   UNL A   1      42.864  26.922  36.830  1.00  0.00    -0.206 F 
ATOM     86  C   UNL A   1      46.459  27.170  37.093  1.00  0.00     0.060 A 
BRANCH  86  87
ATOM     87  S   UNL A   1      47.827  26.435  38.017  1.00  0.00     0.124 S 
ATOM     88  O   UNL A   1      48.246  25.364  37.120  1.00  0.00    -0.237 OA
ATOM     89  O   UNL A   1      48.748  27.560  38.143  1.00  0.00    -0.237 OA
ATOM     90  O   UNL A   1      47.197  26.008  39.262  1.00  0.00    -0.744 OA
ENDBRANCH  86  87
ENDBRANCH  54  79
BRANCH  66  91
ATOM     91  C   UNL A   1      40.041  33.603  37.463  1.00  0.00     0.058 A 
ATOM     92  C   UNL A   1      39.154  33.272  38.499  1.00  0.00     0.135 A 
ATOM     93  C   UNL A   1      40.843  34.744  37.630  1.00  0.00     0.135 A 
ATOM     94  F   UNL A   1      38.360  32.194  38.390  1.00  0.00    -0.206 F 
ATOM     95  C   UNL A   1      39.041  34.059  39.641  1.00  0.00     0.059 A 
ATOM     96  C   UNL A   1      40.767  35.531  38.775  1.00  0.00     0.059 A 
ATOM     97  F   UNL A   1      41.718  35.100  36.676  1.00  0.00    -0.206 F 
ATOM     98  C   UNL A   1      39.851  35.189  39.768  1.00  0.00     0.060 A 
BRANCH  98  99
ATOM     99  S   UNL A   1      39.702  36.199  41.258  1.00  0.00     0.124 S 
ATOM    100  O   UNL A   1      40.155  37.499  40.777  1.00  0.00    -0.237 OA
ATOM    101  O   UNL A   1      38.279  36.097  41.566  1.00  0.00    -0.237 OA
ATOM    102  O   UNL A   1      40.591  35.535  42.207  1.00  0.00    -0.744 OA
ENDBRANCH  98  99
ENDBRANCH  66  91
ENDBRANCH  40  41
ENDBRANCH  33  35
ENDBRANCH  32  33
ENDBRANCH  31  32
ENDBRANCH   1  31
TORSDOF 21
ENDMDL
