MODEL 1
REMARK VINA RESULT:     -10.0      0.000      0.000
REMARK SMILES CCCC[C@@H](C(=O)OCCOCCOC(=O)c1ccc(-c2c3nc(c(-c4c(F)cc(S(=O)(=O)[O-])cc4F)c4ccc([nH]4)c(-c4c(F)cc(S(=O)(=O)[O-])cc4F)c4nc(c(-c5c(F)cc(S(=O)(=O)[O-])cc5F)c5ccc2[nH]5)C=C4)C=C3)cc1)[C@@H](O)c1cccc(C(F)(F)F)c1
REMARK SMILES IDX 11 1 10 2 9 3 8 4 6 5 7 6 5 7 4 8 3 9 2 10 1 11 83 12 84 13
REMARK SMILES IDX 85 15 86 16 94 17 87 18 89 19 88 20 90 21 91 22 92 23 93 24
REMARK SMILES IDX 12 25 13 26 14 27 15 28 16 29 17 30 18 31 82 32 19 33 81 34
REMARK SMILES IDX 20 35 21 36 22 37 75 38 23 39 80 40 74 41 76 42 24 43 79 44
REMARK SMILES IDX 73 45 72 46 25 48 59 49 38 50 58 51 39 52 42 53 57 54 77 55
REMARK SMILES IDX 40 56 41 57 56 59 78 60 43 61 26 62 27 63 36 64 28 65 29 66
REMARK SMILES IDX 35 67 37 68 30 69 31 70 32 71 33 72 34 73 60 74 61 75 70 76
REMARK SMILES IDX 62 77 63 78 69 79 71 80 64 81 65 82 66 83 67 84 68 85 44 86
REMARK SMILES IDX 45 87 54 88 46 89 47 90 53 91 55 92 48 93 49 94 50 95 51 96
REMARK SMILES IDX 52 97
REMARK H PARENT 84 14 76 47 42 58
REMARK Flexibility Score: inf
ROOT
ATOM      1  O   UNL A   1      36.917  21.999  25.232  1.00  0.00    -0.374 OA
ENDROOT
BRANCH   1   2
ATOM      2  C   UNL A   1      35.972  20.931  25.150  1.00  0.00     0.202 C 
BRANCH   2   3
ATOM      3  C   UNL A   1      34.620  21.167  25.824  1.00  0.00     0.261 C 
BRANCH   3   4
ATOM      4  O   UNL A   1      34.697  22.290  26.714  1.00  0.00    -0.463 OA
BRANCH   4   5
ATOM      5  C   UNL A   1      33.516  22.829  27.096  1.00  0.00     0.312 C 
ATOM      6  O   UNL A   1      32.924  22.508  28.119  1.00  0.00    -0.252 OA
BRANCH   5   7
ATOM      7  C   UNL A   1      33.013  23.910  26.138  1.00  0.00     0.132 C 
BRANCH   7   8
ATOM      8  C   UNL A   1      32.325  23.405  24.839  1.00  0.00     0.018 C 
BRANCH   8   9
ATOM      9  C   UNL A   1      31.009  24.062  24.408  1.00  0.00     0.001 C 
BRANCH   9  10
ATOM     10  C   UNL A   1      30.386  25.012  25.424  1.00  0.00    -0.003 C 
ATOM     11  C   UNL A   1      29.898  26.310  24.801  1.00  0.00     0.004 C 
ENDBRANCH   9  10
ENDBRANCH   8   9
ENDBRANCH   7   8
BRANCH   7  12
ATOM     12  C   UNL A   1      34.162  24.881  25.742  1.00  0.00     0.158 C 
BRANCH  12  13
ATOM     13  O   UNL A   1      34.894  24.341  24.632  1.00  0.00    -0.388 OA
ATOM     14  H   UNL A   1      35.439  25.038  24.235  1.00  0.00     0.211 HD
ENDBRANCH  12  13
BRANCH  12  15
ATOM     15  C   UNL A   1      33.756  26.280  25.336  1.00  0.00    -0.018 A 
ATOM     16  C   UNL A   1      33.851  26.704  24.002  1.00  0.00     0.006 A 
ATOM     17  C   UNL A   1      33.214  27.162  26.287  1.00  0.00     0.019 A 
ATOM     18  C   UNL A   1      33.365  27.953  23.617  1.00  0.00     0.001 A 
ATOM     19  C   UNL A   1      32.725  28.424  25.911  1.00  0.00     0.056 A 
ATOM     20  C   UNL A   1      32.797  28.804  24.563  1.00  0.00     0.013 A 
BRANCH  19  21
ATOM     21  C   UNL A   1      32.107  29.354  26.923  1.00  0.00     0.416 C 
ATOM     22  F   UNL A   1      31.436  30.389  26.340  1.00  0.00    -0.166 F 
ATOM     23  F   UNL A   1      31.200  28.733  27.727  1.00  0.00    -0.166 F 
ATOM     24  F   UNL A   1      33.014  29.933  27.762  1.00  0.00    -0.166 F 
ENDBRANCH  19  21
ENDBRANCH  12  15
ENDBRANCH   7  12
ENDBRANCH   5   7
ENDBRANCH   4   5
ENDBRANCH   3   4
ENDBRANCH   2   3
ENDBRANCH   1   2
BRANCH   1  25
ATOM     25  C   UNL A   1      38.134  21.761  25.939  1.00  0.00     0.202 C 
BRANCH  25  26
ATOM     26  C   UNL A   1      39.251  22.807  25.824  1.00  0.00     0.261 C 
BRANCH  26  27
ATOM     27  O   UNL A   1      39.690  23.310  27.099  1.00  0.00    -0.460 OA
BRANCH  27  28
ATOM     28  C   UNL A   1      40.773  24.121  27.046  1.00  0.00     0.338 C 
ATOM     29  O   UNL A   1      41.772  23.971  26.348  1.00  0.00    -0.246 OA
BRANCH  28  30
ATOM     30  C   UNL A   1      40.529  25.357  27.807  1.00  0.00     0.060 A 
ATOM     31  C   UNL A   1      41.516  26.354  27.771  1.00  0.00     0.016 A 
ATOM     32  C   UNL A   1      39.401  25.505  28.615  1.00  0.00     0.016 A 
ATOM     33  C   UNL A   1      41.399  27.485  28.575  1.00  0.00     0.010 A 
ATOM     34  C   UNL A   1      39.293  26.633  29.432  1.00  0.00     0.010 A 
ATOM     35  C   UNL A   1      40.306  27.611  29.441  1.00  0.00    -0.014 A 
BRANCH  35  36
ATOM     36  C   UNL A   1      40.299  28.672  30.477  1.00  0.00     0.031 A 
ATOM     37  C   UNL A   1      41.246  28.551  31.640  1.00  0.00     0.074 A 
ATOM     38  C   UNL A   1      39.465  29.724  30.386  1.00  0.00     0.049 A 
ATOM     39  N   UNL A   1      41.333  29.284  32.718  1.00  0.00    -0.248 NA
ATOM     40  C   UNL A   1      42.223  27.451  31.576  1.00  0.00     0.031 C 
ATOM     41  C   UNL A   1      38.547  29.981  29.279  1.00  0.00     0.029 A 
ATOM     42  N   UNL A   1      39.245  30.764  31.255  1.00  0.00    -0.354 N 
ATOM     43  C   UNL A   1      42.359  28.725  33.471  1.00  0.00     0.074 A 
ATOM     44  C   UNL A   1      42.852  27.581  32.734  1.00  0.00     0.031 C 
ATOM     45  C   UNL A   1      37.842  31.093  29.547  1.00  0.00     0.029 A 
ATOM     46  C   UNL A   1      38.230  31.602  30.862  1.00  0.00     0.049 A 
ATOM     47  H   UNL A   1      39.766  30.896  32.081  1.00  0.00     0.167 HD
ATOM     48  C   UNL A   1      42.845  29.131  34.668  1.00  0.00     0.037 A 
ATOM     49  C   UNL A   1      37.656  32.638  31.507  1.00  0.00     0.037 A 
ATOM     50  C   UNL A   1      42.350  30.273  35.389  1.00  0.00     0.049 A 
ATOM     51  C   UNL A   1      38.160  33.027  32.874  1.00  0.00     0.074 A 
ATOM     52  C   UNL A   1      42.782  30.776  36.603  1.00  0.00     0.029 A 
ATOM     53  N   UNL A   1      41.310  31.087  34.966  1.00  0.00    -0.354 N 
ATOM     54  N   UNL A   1      39.131  32.494  33.575  1.00  0.00    -0.248 NA
ATOM     55  C   UNL A   1      37.489  34.154  33.539  1.00  0.00     0.031 C 
ATOM     56  C   UNL A   1      41.970  31.863  36.939  1.00  0.00     0.029 A 
ATOM     57  C   UNL A   1      41.070  32.075  35.906  1.00  0.00     0.049 A 
ATOM     58  H   UNL A   1      40.816  30.979  34.121  1.00  0.00     0.167 HD
ATOM     59  C   UNL A   1      39.212  33.242  34.746  1.00  0.00     0.074 A 
ATOM     60  C   UNL A   1      38.189  34.262  34.660  1.00  0.00     0.031 C 
ATOM     61  C   UNL A   1      40.061  33.099  35.794  1.00  0.00     0.037 A 
BRANCH  48  62
ATOM     62  C   UNL A   1      43.944  28.315  35.288  1.00  0.00     0.058 A 
ATOM     63  C   UNL A   1      43.676  27.251  36.163  1.00  0.00     0.135 A 
ATOM     64  C   UNL A   1      45.288  28.582  34.975  1.00  0.00     0.135 A 
ATOM     65  F   UNL A   1      42.411  26.964  36.512  1.00  0.00    -0.206 F 
ATOM     66  C   UNL A   1      44.701  26.497  36.726  1.00  0.00     0.059 A 
ATOM     67  C   UNL A   1      46.327  27.823  35.504  1.00  0.00     0.059 A 
ATOM     68  F   UNL A   1      45.601  29.590  34.145  1.00  0.00    -0.206 F 
ATOM     69  C   UNL A   1      46.024  26.791  36.390  1.00  0.00     0.060 A 
BRANCH  69  70
ATOM     70  S   UNL A   1      47.342  25.802  37.126  1.00  0.00     0.124 S 
ATOM     71  O   UNL A   1      47.138  26.058  38.548  1.00  0.00    -0.237 OA
ATOM     72  O   UNL A   1      47.013  24.454  36.671  1.00  0.00    -0.237 OA
ATOM     73  O   UNL A   1      48.557  26.374  36.555  1.00  0.00    -0.744 OA
ENDBRANCH  69  70
ENDBRANCH  48  62
BRANCH  49  74
ATOM     74  C   UNL A   1      36.519  33.364  30.879  1.00  0.00     0.058 A 
ATOM     75  C   UNL A   1      35.211  33.221  31.364  1.00  0.00     0.135 A 
ATOM     76  C   UNL A   1      36.719  34.222  29.785  1.00  0.00     0.135 A 
ATOM     77  F   UNL A   1      34.966  32.403  32.400  1.00  0.00    -0.206 F 
ATOM     78  C   UNL A   1      34.140  33.891  30.782  1.00  0.00     0.059 A 
ATOM     79  C   UNL A   1      35.669  34.923  29.202  1.00  0.00     0.059 A 
ATOM     80  F   UNL A   1      37.954  34.401  29.289  1.00  0.00    -0.206 F 
ATOM     81  C   UNL A   1      34.380  34.744  29.702  1.00  0.00     0.060 A 
BRANCH  81  82
ATOM     82  S   UNL A   1      32.991  35.649  28.986  1.00  0.00     0.124 S 
ATOM     83  O   UNL A   1      33.676  36.718  28.269  1.00  0.00    -0.237 OA
ATOM     84  O   UNL A   1      32.356  34.628  28.157  1.00  0.00    -0.237 OA
ATOM     85  O   UNL A   1      32.222  36.063  30.155  1.00  0.00    -0.744 OA
ENDBRANCH  81  82
ENDBRANCH  49  74
BRANCH  61  86
ATOM     86  C   UNL A   1      39.969  34.094  36.918  1.00  0.00     0.058 A 
ATOM     87  C   UNL A   1      40.539  35.372  36.826  1.00  0.00     0.135 A 
ATOM     88  C   UNL A   1      39.207  33.795  38.061  1.00  0.00     0.135 A 
ATOM     89  F   UNL A   1      41.283  35.704  35.758  1.00  0.00    -0.206 F 
ATOM     90  C   UNL A   1      40.360  36.320  37.827  1.00  0.00     0.059 A 
ATOM     91  C   UNL A   1      38.994  34.737  39.063  1.00  0.00     0.059 A 
ATOM     92  F   UNL A   1      38.632  32.590  38.194  1.00  0.00    -0.206 F 
ATOM     93  C   UNL A   1      39.575  35.997  38.938  1.00  0.00     0.060 A 
BRANCH  93  94
ATOM     94  S   UNL A   1      39.286  37.263  40.192  1.00  0.00     0.124 S 
ATOM     95  O   UNL A   1      38.520  38.253  39.441  1.00  0.00    -0.237 OA
ATOM     96  O   UNL A   1      38.545  36.529  41.212  1.00  0.00    -0.237 OA
ATOM     97  O   UNL A   1      40.633  37.674  40.577  1.00  0.00    -0.744 OA
ENDBRANCH  93  94
ENDBRANCH  61  86
ENDBRANCH  35  36
ENDBRANCH  28  30
ENDBRANCH  27  28
ENDBRANCH  26  27
ENDBRANCH  25  26
ENDBRANCH   1  25
TORSDOF 24
ENDMDL
MODEL 2
REMARK VINA RESULT:      -9.7      2.837      4.326
REMARK SMILES CCCC[C@@H](C(=O)OCCOCCOC(=O)c1ccc(-c2c3nc(c(-c4c(F)cc(S(=O)(=O)[O-])cc4F)c4ccc([nH]4)c(-c4c(F)cc(S(=O)(=O)[O-])cc4F)c4nc(c(-c5c(F)cc(S(=O)(=O)[O-])cc5F)c5ccc2[nH]5)C=C4)C=C3)cc1)[C@@H](O)c1cccc(C(F)(F)F)c1
REMARK SMILES IDX 11 1 10 2 9 3 8 4 6 5 7 6 5 7 4 8 3 9 2 10 1 11 83 12 84 13
REMARK SMILES IDX 85 15 86 16 94 17 87 18 89 19 88 20 90 21 91 22 92 23 93 24
REMARK SMILES IDX 12 25 13 26 14 27 15 28 16 29 17 30 18 31 82 32 19 33 81 34
REMARK SMILES IDX 20 35 21 36 22 37 75 38 23 39 80 40 74 41 76 42 24 43 79 44
REMARK SMILES IDX 73 45 72 46 25 48 59 49 38 50 58 51 39 52 42 53 57 54 77 55
REMARK SMILES IDX 40 56 41 57 56 59 78 60 43 61 26 62 27 63 36 64 28 65 29 66
REMARK SMILES IDX 35 67 37 68 30 69 31 70 32 71 33 72 34 73 60 74 61 75 70 76
REMARK SMILES IDX 62 77 63 78 69 79 71 80 64 81 65 82 66 83 67 84 68 85 44 86
REMARK SMILES IDX 45 87 54 88 46 89 47 90 53 91 55 92 48 93 49 94 50 95 51 96
REMARK SMILES IDX 52 97
REMARK H PARENT 84 14 76 47 42 58
REMARK Flexibility Score: inf
ROOT
ATOM      1  O   UNL A   1      37.994  22.208  26.228  1.00  0.00    -0.374 OA
ENDROOT
BRANCH   1   2
ATOM      2  C   UNL A   1      37.154  21.837  25.134  1.00  0.00     0.202 C 
BRANCH   2   3
ATOM      3  C   UNL A   1      35.979  22.769  24.831  1.00  0.00     0.261 C 
BRANCH   3   4
ATOM      4  O   UNL A   1      34.952  22.061  24.122  1.00  0.00    -0.463 OA
BRANCH   4   5
ATOM      5  C   UNL A   1      34.009  22.824  23.521  1.00  0.00     0.312 C 
ATOM      6  O   UNL A   1      34.271  23.772  22.791  1.00  0.00    -0.252 OA
BRANCH   5   7
ATOM      7  C   UNL A   1      32.583  22.358  23.817  1.00  0.00     0.132 C 
BRANCH   7   8
ATOM      8  C   UNL A   1      31.608  23.441  24.356  1.00  0.00     0.018 C 
BRANCH   8   9
ATOM      9  C   UNL A   1      30.646  24.113  23.371  1.00  0.00     0.001 C 
BRANCH   9  10
ATOM     10  C   UNL A   1      30.550  25.631  23.478  1.00  0.00    -0.003 C 
ATOM     11  C   UNL A   1      31.819  26.270  24.015  1.00  0.00     0.004 C 
ENDBRANCH   9  10
ENDBRANCH   8   9
ENDBRANCH   7   8
BRANCH   7  12
ATOM     12  C   UNL A   1      32.584  21.158  24.806  1.00  0.00     0.158 C 
BRANCH  12  13
ATOM     13  O   UNL A   1      31.433  21.231  25.660  1.00  0.00    -0.388 OA
ATOM     14  H   UNL A   1      31.441  20.483  26.277  1.00  0.00     0.211 HD
ENDBRANCH  12  13
BRANCH  12  15
ATOM     15  C   UNL A   1      32.564  19.775  24.193  1.00  0.00    -0.018 A 
ATOM     16  C   UNL A   1      32.319  19.594  22.824  1.00  0.00     0.006 A 
ATOM     17  C   UNL A   1      32.855  18.649  24.982  1.00  0.00     0.019 A 
ATOM     18  C   UNL A   1      32.419  18.329  22.246  1.00  0.00     0.001 A 
ATOM     19  C   UNL A   1      32.955  17.369  24.411  1.00  0.00     0.056 A 
ATOM     20  C   UNL A   1      32.744  17.224  23.032  1.00  0.00     0.013 A 
BRANCH  19  21
ATOM     21  C   UNL A   1      33.306  16.167  25.248  1.00  0.00     0.416 C 
ATOM     22  F   UNL A   1      32.802  15.008  24.736  1.00  0.00    -0.166 F 
ATOM     23  F   UNL A   1      34.650  15.969  25.351  1.00  0.00    -0.166 F 
ATOM     24  F   UNL A   1      32.841  16.234  26.529  1.00  0.00    -0.166 F 
ENDBRANCH  19  21
ENDBRANCH  12  15
ENDBRANCH   7  12
ENDBRANCH   5   7
ENDBRANCH   4   5
ENDBRANCH   3   4
ENDBRANCH   2   3
ENDBRANCH   1   2
BRANCH   1  25
ATOM     25  C   UNL A   1      39.385  21.900  26.135  1.00  0.00     0.202 C 
BRANCH  25  26
ATOM     26  C   UNL A   1      40.391  23.009  26.470  1.00  0.00     0.261 C 
BRANCH  26  27
ATOM     27  O   UNL A   1      39.794  24.317  26.535  1.00  0.00    -0.460 OA
BRANCH  27  28
ATOM     28  C   UNL A   1      40.657  25.343  26.344  1.00  0.00     0.338 C 
ATOM     29  O   UNL A   1      41.155  25.698  25.279  1.00  0.00    -0.246 OA
BRANCH  28  30
ATOM     30  C   UNL A   1      40.789  26.140  27.574  1.00  0.00     0.060 A 
ATOM     31  C   UNL A   1      39.780  26.023  28.542  1.00  0.00     0.016 A 
ATOM     32  C   UNL A   1      41.830  27.055  27.741  1.00  0.00     0.016 A 
ATOM     33  C   UNL A   1      39.785  26.850  29.663  1.00  0.00     0.010 A 
ATOM     34  C   UNL A   1      41.824  27.894  28.860  1.00  0.00     0.010 A 
ATOM     35  C   UNL A   1      40.785  27.818  29.807  1.00  0.00    -0.014 A 
BRANCH  35  36
ATOM     36  C   UNL A   1      40.661  28.864  30.851  1.00  0.00     0.031 A 
ATOM     37  C   UNL A   1      41.540  28.775  32.069  1.00  0.00     0.074 A 
ATOM     38  C   UNL A   1      39.783  29.874  30.720  1.00  0.00     0.049 A 
ATOM     39  N   UNL A   1      41.524  29.496  33.158  1.00  0.00    -0.248 NA
ATOM     40  C   UNL A   1      42.573  27.725  32.055  1.00  0.00     0.031 C 
ATOM     41  C   UNL A   1      38.922  30.099  29.561  1.00  0.00     0.029 A 
ATOM     42  N   UNL A   1      39.457  30.890  31.584  1.00  0.00    -0.354 N 
ATOM     43  C   UNL A   1      42.529  28.980  33.968  1.00  0.00     0.074 A 
ATOM     44  C   UNL A   1      43.123  27.871  33.251  1.00  0.00     0.031 C 
ATOM     45  C   UNL A   1      38.147  31.171  29.796  1.00  0.00     0.029 A 
ATOM     46  C   UNL A   1      38.426  31.682  31.138  1.00  0.00     0.049 A 
ATOM     47  H   UNL A   1      39.919  31.037  32.442  1.00  0.00     0.167 HD
ATOM     48  C   UNL A   1      42.919  29.393  35.196  1.00  0.00     0.037 A 
ATOM     49  C   UNL A   1      37.762  32.679  31.756  1.00  0.00     0.037 A 
ATOM     50  C   UNL A   1      42.324  30.500  35.897  1.00  0.00     0.049 A 
ATOM     51  C   UNL A   1      38.162  33.074  33.155  1.00  0.00     0.074 A 
ATOM     52  C   UNL A   1      42.655  31.007  37.141  1.00  0.00     0.029 A 
ATOM     53  N   UNL A   1      41.272  31.267  35.419  1.00  0.00    -0.354 N 
ATOM     54  N   UNL A   1      39.114  32.581  33.910  1.00  0.00    -0.248 NA
ATOM     55  C   UNL A   1      37.395  34.157  33.789  1.00  0.00     0.031 C 
ATOM     56  C   UNL A   1      41.769  32.048  37.437  1.00  0.00     0.029 A 
ATOM     57  C   UNL A   1      40.925  32.228  36.352  1.00  0.00     0.049 A 
ATOM     58  H   UNL A   1      40.836  31.145  34.544  1.00  0.00     0.167 HD
ATOM     59  C   UNL A   1      39.085  33.317  35.092  1.00  0.00     0.074 A 
ATOM     60  C   UNL A   1      38.018  34.286  34.953  1.00  0.00     0.031 C 
ATOM     61  C   UNL A   1      39.874  33.202  36.188  1.00  0.00     0.037 A 
BRANCH  48  62
ATOM     62  C   UNL A   1      44.018  28.626  35.876  1.00  0.00     0.058 A 
ATOM     63  C   UNL A   1      45.371  28.960  35.707  1.00  0.00     0.135 A 
ATOM     64  C   UNL A   1      43.710  27.560  36.737  1.00  0.00     0.135 A 
ATOM     65  F   UNL A   1      45.723  29.959  34.881  1.00  0.00    -0.206 F 
ATOM     66  C   UNL A   1      46.380  28.250  36.348  1.00  0.00     0.059 A 
ATOM     67  C   UNL A   1      44.702  26.852  37.410  1.00  0.00     0.059 A 
ATOM     68  F   UNL A   1      42.433  27.195  36.932  1.00  0.00    -0.206 F 
ATOM     69  C   UNL A   1      46.036  27.196  37.197  1.00  0.00     0.060 A 
BRANCH  69  70
ATOM     70  S   UNL A   1      47.357  26.285  38.023  1.00  0.00     0.124 S 
ATOM     71  O   UNL A   1      47.156  24.939  37.495  1.00  0.00    -0.237 OA
ATOM     72  O   UNL A   1      48.554  26.977  37.555  1.00  0.00    -0.237 OA
ATOM     73  O   UNL A   1      47.053  26.454  39.441  1.00  0.00    -0.744 OA
ENDBRANCH  69  70
ENDBRANCH  48  62
BRANCH  49  74
ATOM     74  C   UNL A   1      36.631  33.355  31.067  1.00  0.00     0.058 A 
ATOM     75  C   UNL A   1      36.857  34.278  30.036  1.00  0.00     0.135 A 
ATOM     76  C   UNL A   1      35.299  33.087  31.423  1.00  0.00     0.135 A 
ATOM     77  F   UNL A   1      38.113  34.577  29.668  1.00  0.00    -0.206 F 
ATOM     78  C   UNL A   1      35.806  34.920  29.389  1.00  0.00     0.059 A 
ATOM     79  C   UNL A   1      34.230  33.696  30.773  1.00  0.00     0.059 A 
ATOM     80  F   UNL A   1      35.028  32.205  32.397  1.00  0.00    -0.206 F 
ATOM     81  C   UNL A   1      34.495  34.619  29.762  1.00  0.00     0.060 A 
BRANCH  81  82
ATOM     82  S   UNL A   1      33.136  35.420  28.881  1.00  0.00     0.124 S 
ATOM     83  O   UNL A   1      32.531  34.289  28.186  1.00  0.00    -0.237 OA
ATOM     84  O   UNL A   1      32.356  35.989  29.975  1.00  0.00    -0.237 OA
ATOM     85  O   UNL A   1      33.815  36.394  28.032  1.00  0.00    -0.744 OA
ENDBRANCH  81  82
ENDBRANCH  49  74
BRANCH  61  86
ATOM     86  C   UNL A   1      39.663  34.177  37.314  1.00  0.00     0.058 A 
ATOM     87  C   UNL A   1      38.965  33.825  38.478  1.00  0.00     0.135 A 
ATOM     88  C   UNL A   1      40.261  35.448  37.266  1.00  0.00     0.135 A 
ATOM     89  F   UNL A   1      38.368  32.626  38.571  1.00  0.00    -0.206 F 
ATOM     90  C   UNL A   1      38.864  34.698  39.556  1.00  0.00     0.059 A 
ATOM     91  C   UNL A   1      40.195  36.327  38.342  1.00  0.00     0.059 A 
ATOM     92  F   UNL A   1      40.949  35.830  36.179  1.00  0.00    -0.206 F 
ATOM     93  C   UNL A   1      39.493  35.944  39.482  1.00  0.00     0.060 A 
BRANCH  93  94
ATOM     94  S   UNL A   1      39.421  37.036  40.919  1.00  0.00     0.124 S 
ATOM     95  O   UNL A   1      40.837  37.223  41.219  1.00  0.00    -0.237 OA
ATOM     96  O   UNL A   1      38.726  38.204  40.388  1.00  0.00    -0.237 OA
ATOM     97  O   UNL A   1      38.670  36.259  41.900  1.00  0.00    -0.744 OA
ENDBRANCH  93  94
ENDBRANCH  61  86
ENDBRANCH  35  36
ENDBRANCH  28  30
ENDBRANCH  27  28
ENDBRANCH  26  27
ENDBRANCH  25  26
ENDBRANCH   1  25
TORSDOF 24
ENDMDL
MODEL 3
REMARK VINA RESULT:      -9.6      6.472     11.822
REMARK SMILES CCCC[C@@H](C(=O)OCCOCCOC(=O)c1ccc(-c2c3nc(c(-c4c(F)cc(S(=O)(=O)[O-])cc4F)c4ccc([nH]4)c(-c4c(F)cc(S(=O)(=O)[O-])cc4F)c4nc(c(-c5c(F)cc(S(=O)(=O)[O-])cc5F)c5ccc2[nH]5)C=C4)C=C3)cc1)[C@@H](O)c1cccc(C(F)(F)F)c1
REMARK SMILES IDX 11 1 10 2 9 3 8 4 6 5 7 6 5 7 4 8 3 9 2 10 1 11 83 12 84 13
REMARK SMILES IDX 85 15 86 16 94 17 87 18 89 19 88 20 90 21 91 22 92 23 93 24
REMARK SMILES IDX 12 25 13 26 14 27 15 28 16 29 17 30 18 31 82 32 19 33 81 34
REMARK SMILES IDX 20 35 21 36 22 37 75 38 23 39 80 40 74 41 76 42 24 43 79 44
REMARK SMILES IDX 73 45 72 46 25 48 59 49 38 50 58 51 39 52 42 53 57 54 77 55
REMARK SMILES IDX 40 56 41 57 56 59 78 60 43 61 26 62 27 63 36 64 28 65 29 66
REMARK SMILES IDX 35 67 37 68 30 69 31 70 32 71 33 72 34 73 60 74 61 75 70 76
REMARK SMILES IDX 62 77 63 78 69 79 71 80 64 81 65 82 66 83 67 84 68 85 44 86
REMARK SMILES IDX 45 87 54 88 46 89 47 90 53 91 55 92 48 93 49 94 50 95 51 96
REMARK SMILES IDX 52 97
REMARK H PARENT 84 14 76 47 42 58
REMARK Flexibility Score: inf
ROOT
ATOM      1  O   UNL A   1      33.437  30.991  27.143  1.00  0.00    -0.374 OA
ENDROOT
BRANCH   1   2
ATOM      2  C   UNL A   1      32.155  30.649  26.614  1.00  0.00     0.202 C 
BRANCH   2   3
ATOM      3  C   UNL A   1      32.140  29.636  25.468  1.00  0.00     0.261 C 
BRANCH   3   4
ATOM      4  O   UNL A   1      31.145  28.631  25.706  1.00  0.00    -0.463 OA
BRANCH   4   5
ATOM      5  C   UNL A   1      31.497  27.632  26.550  1.00  0.00     0.312 C 
ATOM      6  O   UNL A   1      31.473  27.738  27.771  1.00  0.00    -0.252 OA
BRANCH   5   7
ATOM      7  C   UNL A   1      31.892  26.345  25.825  1.00  0.00     0.132 C 
BRANCH   7   8
ATOM      8  C   UNL A   1      31.893  25.050  26.684  1.00  0.00     0.018 C 
BRANCH   8   9
ATOM      9  C   UNL A   1      31.274  23.780  26.090  1.00  0.00     0.001 C 
BRANCH   9  10
ATOM     10  C   UNL A   1      32.110  22.514  26.231  1.00  0.00    -0.003 C 
ATOM     11  C   UNL A   1      31.837  21.496  25.135  1.00  0.00     0.004 C 
ENDBRANCH   9  10
ENDBRANCH   8   9
ENDBRANCH   7   8
BRANCH   7  12
ATOM     12  C   UNL A   1      33.286  26.491  25.151  1.00  0.00     0.158 C 
BRANCH  12  13
ATOM     13  O   UNL A   1      34.246  26.947  26.115  1.00  0.00    -0.388 OA
ATOM     14  H   UNL A   1      33.834  26.978  26.993  1.00  0.00     0.211 HD
ENDBRANCH  12  13
BRANCH  12  15
ATOM     15  C   UNL A   1      33.872  25.242  24.532  1.00  0.00    -0.018 A 
ATOM     16  C   UNL A   1      33.319  24.680  23.372  1.00  0.00     0.006 A 
ATOM     17  C   UNL A   1      35.027  24.658  25.080  1.00  0.00     0.019 A 
ATOM     18  C   UNL A   1      33.936  23.600  22.742  1.00  0.00     0.001 A 
ATOM     19  C   UNL A   1      35.654  23.566  24.457  1.00  0.00     0.056 A 
ATOM     20  C   UNL A   1      35.101  23.051  23.276  1.00  0.00     0.013 A 
BRANCH  19  21
ATOM     21  C   UNL A   1      36.915  22.964  25.022  1.00  0.00     0.416 C 
ATOM     22  F   UNL A   1      37.504  22.084  24.162  1.00  0.00    -0.166 F 
ATOM     23  F   UNL A   1      37.866  23.897  25.302  1.00  0.00    -0.166 F 
ATOM     24  F   UNL A   1      36.721  22.270  26.180  1.00  0.00    -0.166 F 
ENDBRANCH  19  21
ENDBRANCH  12  15
ENDBRANCH   7  12
ENDBRANCH   5   7
ENDBRANCH   4   5
ENDBRANCH   3   4
ENDBRANCH   2   3
ENDBRANCH   1   2
BRANCH   1  25
ATOM     25  C   UNL A   1      33.562  32.232  27.838  1.00  0.00     0.202 C 
BRANCH  25  26
ATOM     26  C   UNL A   1      34.726  32.390  28.826  1.00  0.00     0.261 C 
BRANCH  26  27
ATOM     27  O   UNL A   1      35.359  31.141  29.161  1.00  0.00    -0.460 OA
BRANCH  27  28
ATOM     28  C   UNL A   1      36.285  31.222  30.146  1.00  0.00     0.338 C 
ATOM     29  O   UNL A   1      36.131  31.707  31.263  1.00  0.00    -0.246 OA
BRANCH  28  30
ATOM     30  C   UNL A   1      37.491  30.460  29.783  1.00  0.00     0.060 A 
ATOM     31  C   UNL A   1      38.291  29.965  30.823  1.00  0.00     0.016 A 
ATOM     32  C   UNL A   1      37.884  30.309  28.452  1.00  0.00     0.016 A 
ATOM     33  C   UNL A   1      39.510  29.353  30.540  1.00  0.00     0.010 A 
ATOM     34  C   UNL A   1      39.115  29.709  28.171  1.00  0.00     0.010 A 
ATOM     35  C   UNL A   1      39.947  29.258  29.214  1.00  0.00    -0.014 A 
BRANCH  35  36
ATOM     36  C   UNL A   1      41.341  28.846  28.920  1.00  0.00     0.031 A 
ATOM     37  C   UNL A   1      42.426  29.887  28.966  1.00  0.00     0.074 A 
ATOM     38  C   UNL A   1      41.637  27.569  28.616  1.00  0.00     0.049 A 
ATOM     39  N   UNL A   1      43.685  29.789  28.631  1.00  0.00    -0.248 NA
ATOM     40  C   UNL A   1      42.033  31.220  29.455  1.00  0.00     0.031 C 
ATOM     41  C   UNL A   1      40.683  26.462  28.598  1.00  0.00     0.029 A 
ATOM     42  N   UNL A   1      42.827  26.995  28.246  1.00  0.00    -0.354 N 
ATOM     43  C   UNL A   1      44.232  31.048  28.848  1.00  0.00     0.074 A 
ATOM     44  C   UNL A   1      43.164  31.899  29.327  1.00  0.00     0.031 C 
ATOM     45  C   UNL A   1      41.320  25.345  28.210  1.00  0.00     0.029 A 
ATOM     46  C   UNL A   1      42.716  25.666  27.911  1.00  0.00     0.049 A 
ATOM     47  H   UNL A   1      43.680  27.488  28.221  1.00  0.00     0.167 HD
ATOM     48  C   UNL A   1      45.509  31.456  28.663  1.00  0.00     0.037 A 
ATOM     49  C   UNL A   1      43.626  24.819  27.390  1.00  0.00     0.037 A 
ATOM     50  C   UNL A   1      46.565  30.600  28.190  1.00  0.00     0.049 A 
ATOM     51  C   UNL A   1      45.024  25.314  27.120  1.00  0.00     0.074 A 
ATOM     52  C   UNL A   1      47.897  30.913  27.982  1.00  0.00     0.029 A 
ATOM     53  N   UNL A   1      46.409  29.265  27.848  1.00  0.00    -0.354 N 
ATOM     54  N   UNL A   1      45.532  26.505  27.331  1.00  0.00    -0.248 NA
ATOM     55  C   UNL A   1      45.973  24.353  26.538  1.00  0.00     0.031 C 
ATOM     56  C   UNL A   1      48.534  29.781  27.464  1.00  0.00     0.029 A 
ATOM     57  C   UNL A   1      47.614  28.746  27.406  1.00  0.00     0.049 A 
ATOM     58  H   UNL A   1      45.565  28.761  27.910  1.00  0.00     0.167 HD
ATOM     59  C   UNL A   1      46.866  26.426  26.942  1.00  0.00     0.074 A 
ATOM     60  C   UNL A   1      47.086  25.072  26.479  1.00  0.00     0.031 C 
ATOM     61  C   UNL A   1      47.822  27.387  26.971  1.00  0.00     0.037 A 
BRANCH  48  62
ATOM     62  C   UNL A   1      45.830  32.898  28.940  1.00  0.00     0.058 A 
ATOM     63  C   UNL A   1      46.285  33.330  30.196  1.00  0.00     0.135 A 
ATOM     64  C   UNL A   1      45.712  33.859  27.922  1.00  0.00     0.135 A 
ATOM     65  F   UNL A   1      46.399  32.457  31.211  1.00  0.00    -0.206 F 
ATOM     66  C   UNL A   1      46.588  34.665  30.440  1.00  0.00     0.059 A 
ATOM     67  C   UNL A   1      46.035  35.195  28.135  1.00  0.00     0.059 A 
ATOM     68  F   UNL A   1      45.278  33.501  26.702  1.00  0.00    -0.206 F 
ATOM     69  C   UNL A   1      46.459  35.591  29.403  1.00  0.00     0.060 A 
BRANCH  69  70
ATOM     70  S   UNL A   1      46.858  37.320  29.734  1.00  0.00     0.124 S 
ATOM     71  O   UNL A   1      46.677  37.388  31.180  1.00  0.00    -0.237 OA
ATOM     72  O   UNL A   1      48.235  37.419  29.262  1.00  0.00    -0.237 OA
ATOM     73  O   UNL A   1      45.873  38.054  28.944  1.00  0.00    -0.744 OA
ENDBRANCH  69  70
ENDBRANCH  48  62
BRANCH  49  74
ATOM     74  C   UNL A   1      43.235  23.421  27.063  1.00  0.00     0.058 A 
ATOM     75  C   UNL A   1      42.990  23.028  25.740  1.00  0.00     0.135 A 
ATOM     76  C   UNL A   1      43.107  22.448  28.068  1.00  0.00     0.135 A 
ATOM     77  F   UNL A   1      43.088  23.924  24.745  1.00  0.00    -0.206 F 
ATOM     78  C   UNL A   1      42.619  21.725  25.423  1.00  0.00     0.059 A 
ATOM     79  C   UNL A   1      42.763  21.133  27.774  1.00  0.00     0.059 A 
ATOM     80  F   UNL A   1      43.340  22.771  29.350  1.00  0.00    -0.206 F 
ATOM     81  C   UNL A   1      42.512  20.782  26.448  1.00  0.00     0.060 A 
BRANCH  81  82
ATOM     82  S   UNL A   1      42.081  19.082  26.021  1.00  0.00     0.124 S 
ATOM     83  O   UNL A   1      40.632  19.174  25.876  1.00  0.00    -0.237 OA
ATOM     84  O   UNL A   1      42.835  18.875  24.788  1.00  0.00    -0.237 OA
ATOM     85  O   UNL A   1      42.553  18.317  27.171  1.00  0.00    -0.744 OA
ENDBRANCH  81  82
ENDBRANCH  49  74
BRANCH  61  86
ATOM     86  C   UNL A   1      49.214  27.011  26.543  1.00  0.00     0.058 A 
ATOM     87  C   UNL A   1      50.140  26.458  27.438  1.00  0.00     0.135 A 
ATOM     88  C   UNL A   1      49.585  27.113  25.191  1.00  0.00     0.135 A 
ATOM     89  F   UNL A   1      49.838  26.347  28.741  1.00  0.00    -0.206 F 
ATOM     90  C   UNL A   1      51.389  26.018  27.010  1.00  0.00     0.059 A 
ATOM     91  C   UNL A   1      50.818  26.656  24.736  1.00  0.00     0.059 A 
ATOM     92  F   UNL A   1      48.732  27.627  24.292  1.00  0.00    -0.206 F 
ATOM     93  C   UNL A   1      51.714  26.111  25.654  1.00  0.00     0.060 A 
BRANCH  93  94
ATOM     94  S   UNL A   1      53.306  25.465  25.100  1.00  0.00     0.124 S 
ATOM     95  O   UNL A   1      54.241  26.342  25.799  1.00  0.00    -0.237 OA
ATOM     96  O   UNL A   1      53.263  24.084  25.568  1.00  0.00    -0.237 OA
ATOM     97  O   UNL A   1      53.255  25.631  23.650  1.00  0.00    -0.744 OA
ENDBRANCH  93  94
ENDBRANCH  61  86
ENDBRANCH  35  36
ENDBRANCH  28  30
ENDBRANCH  27  28
ENDBRANCH  26  27
ENDBRANCH  25  26
ENDBRANCH   1  25
TORSDOF 24
ENDMDL
