MODEL 1
REMARK VINA RESULT:     -12.1      0.000      0.000
REMARK SMILES Cc1c(NC(=O)[C@@H]2CC=CC[C@@H]2C(=O)OCCOCCOC(=O)c2ccc(-c3c4nc(c(-c5c(F)cc(S(=O)(=O)[O-])cc5F)c5ccc([nH]5)c(-c5c(F)cc(S(=O)(=O)[O-])cc5F)c5nc(c(-c6c(F)cc(S(=O)(=O)[O-])cc6F)c6ccc3[nH]6)C=C5)C=C4)cc2)cccc1C(=O)N1CCOCC1
REMARK SMILES IDX 18 1 17 2 16 3 15 4 13 5 14 6 12 7 7 8 8 9 9 10 11 11 10 12
REMARK SMILES IDX 5 13 4 14 6 16 3 17 1 18 2 19 93 20 90 21 92 22 91 23 94 24
REMARK SMILES IDX 95 25 96 26 97 27 101 28 98 29 100 30 99 31 19 32 20 33
REMARK SMILES IDX 21 34 22 35 23 36 24 37 25 38 89 39 26 40 88 41 27 42 28 43
REMARK SMILES IDX 29 44 82 45 30 46 87 47 81 48 83 49 31 50 86 51 80 52 79 53
REMARK SMILES IDX 32 55 66 56 45 57 65 58 46 59 49 60 64 61 84 62 47 63 48 64
REMARK SMILES IDX 63 66 85 67 50 68 33 69 34 70 43 71 35 72 36 73 42 74 44 75
REMARK SMILES IDX 37 76 38 77 39 78 40 79 41 80 67 81 68 82 77 83 69 84 70 85
REMARK SMILES IDX 76 86 78 87 71 88 72 89 73 90 74 91 75 92 51 93 52 94 61 95
REMARK SMILES IDX 53 96 54 97 60 98 62 99 55 100 56 101 57 102 58 103 59 104
REMARK H PARENT 4 15 83 54 49 65
REMARK Flexibility Score: inf
ROOT
ATOM      1  O   UNL A   1      35.737  21.429  25.668  1.00  0.00    -0.374 OA
ENDROOT
BRANCH   1   2
ATOM      2  C   UNL A   1      35.118  22.494  26.343  1.00  0.00     0.202 C 
BRANCH   2   3
ATOM      3  C   UNL A   1      33.644  22.742  26.072  1.00  0.00     0.261 C 
BRANCH   3   4
ATOM      4  O   UNL A   1      33.117  23.986  26.530  1.00  0.00    -0.463 OA
BRANCH   4   5
ATOM      5  C   UNL A   1      32.486  24.751  25.610  1.00  0.00     0.310 C 
ATOM      6  O   UNL A   1      31.347  24.545  25.206  1.00  0.00    -0.252 OA
BRANCH   5   7
ATOM      7  C   UNL A   1      33.258  26.021  25.287  1.00  0.00     0.116 C 
ATOM      8  C   UNL A   1      32.498  27.363  25.125  1.00  0.00     0.097 C 
ATOM      9  C   UNL A   1      31.539  27.345  23.933  1.00  0.00     0.041 C 
ATOM     10  C   UNL A   1      32.287  26.909  22.703  1.00  0.00    -0.030 C 
ATOM     11  C   UNL A   1      34.087  25.742  24.024  1.00  0.00     0.043 C 
ATOM     12  C   UNL A   1      33.439  26.219  22.749  1.00  0.00    -0.030 C 
BRANCH   8  13
ATOM     13  C   UNL A   1      31.889  27.856  26.409  1.00  0.00     0.228 C 
ATOM     14  N   UNL A   1      32.244  29.002  27.049  1.00  0.00    -0.326 N 
ATOM     15  H   UNL A   1      31.480  29.478  27.445  1.00  0.00     0.169 HD
ATOM     16  O   UNL A   1      31.077  27.146  27.006  1.00  0.00    -0.274 OA
BRANCH  14  17
ATOM     17  C   UNL A   1      33.484  29.657  27.265  1.00  0.00     0.044 A 
ATOM     18  C   UNL A   1      32.243  31.873  27.278  1.00  0.00     0.047 C 
ATOM     19  C   UNL A   1      33.490  31.071  27.484  1.00  0.00    -0.015 A 
ATOM     20  C   UNL A   1      34.676  31.716  27.942  1.00  0.00     0.045 A 
ATOM     21  C   UNL A   1      34.681  28.954  27.404  1.00  0.00     0.026 A 
ATOM     22  C   UNL A   1      35.836  30.937  28.110  1.00  0.00     0.014 A 
ATOM     23  C   UNL A   1      35.846  29.581  27.822  1.00  0.00     0.003 A 
BRANCH  20  24
ATOM     24  C   UNL A   1      34.899  33.197  28.184  1.00  0.00     0.254 C 
ATOM     25  O   UNL A   1      35.296  33.897  27.248  1.00  0.00    -0.269 OA
ATOM     26  N   UNL A   1      34.521  33.803  29.373  1.00  0.00    -0.334 N 
ATOM     27  C   UNL A   1      35.241  33.638  30.641  1.00  0.00     0.148 C 
ATOM     28  C   UNL A   1      33.845  35.091  29.277  1.00  0.00     0.148 C 
ATOM     29  C   UNL A   1      34.301  33.914  31.835  1.00  0.00     0.181 C 
ATOM     30  C   UNL A   1      32.902  35.257  30.468  1.00  0.00     0.181 C 
ATOM     31  O   UNL A   1      33.639  35.187  31.702  1.00  0.00    -0.378 OA
ENDBRANCH  20  24
ENDBRANCH  14  17
ENDBRANCH   8  13
ENDBRANCH   5   7
ENDBRANCH   4   5
ENDBRANCH   3   4
ENDBRANCH   2   3
ENDBRANCH   1   2
BRANCH   1  32
ATOM     32  C   UNL A   1      36.985  21.679  25.027  1.00  0.00     0.202 C 
BRANCH  32  33
ATOM     33  C   UNL A   1      38.298  21.947  25.819  1.00  0.00     0.261 C 
BRANCH  33  34
ATOM     34  O   UNL A   1      38.344  23.257  26.439  1.00  0.00    -0.460 OA
BRANCH  34  35
ATOM     35  C   UNL A   1      39.551  23.699  26.921  1.00  0.00     0.338 C 
ATOM     36  O   UNL A   1      40.585  23.033  26.966  1.00  0.00    -0.246 OA
BRANCH  35  37
ATOM     37  C   UNL A   1      39.568  25.180  26.999  1.00  0.00     0.060 A 
ATOM     38  C   UNL A   1      40.441  25.992  26.283  1.00  0.00     0.016 A 
ATOM     39  C   UNL A   1      38.736  25.788  27.921  1.00  0.00     0.016 A 
ATOM     40  C   UNL A   1      40.817  27.224  26.825  1.00  0.00     0.010 A 
ATOM     41  C   UNL A   1      39.109  27.010  28.451  1.00  0.00     0.010 A 
ATOM     42  C   UNL A   1      40.319  27.584  28.064  1.00  0.00    -0.014 A 
BRANCH  42  43
ATOM     43  C   UNL A   1      41.158  28.300  29.056  1.00  0.00     0.031 A 
ATOM     44  C   UNL A   1      40.478  29.110  30.063  1.00  0.00     0.074 A 
ATOM     45  C   UNL A   1      42.486  28.075  29.183  1.00  0.00     0.049 A 
ATOM     46  N   UNL A   1      40.227  30.380  29.981  1.00  0.00    -0.248 NA
ATOM     47  C   UNL A   1      39.771  28.395  31.143  1.00  0.00     0.031 C 
ATOM     48  C   UNL A   1      43.411  28.646  30.152  1.00  0.00     0.029 A 
ATOM     49  N   UNL A   1      43.310  27.328  28.328  1.00  0.00    -0.354 N 
ATOM     50  C   UNL A   1      39.558  30.629  31.165  1.00  0.00     0.074 A 
ATOM     51  C   UNL A   1      38.911  29.369  31.424  1.00  0.00     0.031 C 
ATOM     52  C   UNL A   1      44.647  28.585  29.619  1.00  0.00     0.029 A 
ATOM     53  C   UNL A   1      44.563  27.957  28.302  1.00  0.00     0.049 A 
ATOM     54  H   UNL A   1      43.055  26.514  27.837  1.00  0.00     0.167 HD
ATOM     55  C   UNL A   1      40.119  31.373  32.179  1.00  0.00     0.037 A 
ATOM     56  C   UNL A   1      44.930  28.516  27.114  1.00  0.00     0.037 A 
ATOM     57  C   UNL A   1      41.536  31.705  31.887  1.00  0.00     0.049 A 
ATOM     58  C   UNL A   1      44.694  30.019  27.186  1.00  0.00     0.074 A 
ATOM     59  C   UNL A   1      42.750  31.462  32.513  1.00  0.00     0.029 A 
ATOM     60  N   UNL A   1      41.883  32.162  30.621  1.00  0.00    -0.354 N 
ATOM     61  N   UNL A   1      44.065  30.591  28.188  1.00  0.00    -0.248 NA
ATOM     62  C   UNL A   1      45.180  31.012  26.239  1.00  0.00     0.031 C 
ATOM     63  C   UNL A   1      43.809  31.770  31.587  1.00  0.00     0.029 A 
ATOM     64  C   UNL A   1      43.245  32.209  30.400  1.00  0.00     0.049 A 
ATOM     65  H   UNL A   1      41.219  32.426  29.944  1.00  0.00     0.167 HD
ATOM     66  C   UNL A   1      44.149  31.947  28.122  1.00  0.00     0.074 A 
ATOM     67  C   UNL A   1      44.782  32.162  26.823  1.00  0.00     0.031 C 
ATOM     68  C   UNL A   1      43.732  32.776  29.136  1.00  0.00     0.037 A 
BRANCH  55  69
ATOM     69  C   UNL A   1      39.435  31.528  33.560  1.00  0.00     0.058 A 
ATOM     70  C   UNL A   1      39.758  30.668  34.630  1.00  0.00     0.135 A 
ATOM     71  C   UNL A   1      38.513  32.546  33.930  1.00  0.00     0.135 A 
ATOM     72  F   UNL A   1      40.674  29.701  34.480  1.00  0.00    -0.206 F 
ATOM     73  C   UNL A   1      39.196  30.792  35.919  1.00  0.00     0.059 A 
ATOM     74  C   UNL A   1      37.906  32.659  35.180  1.00  0.00     0.059 A 
ATOM     75  F   UNL A   1      38.179  33.563  33.137  1.00  0.00    -0.206 F 
ATOM     76  C   UNL A   1      38.261  31.788  36.182  1.00  0.00     0.060 A 
BRANCH  76  77
ATOM     77  S   UNL A   1      37.580  32.015  37.835  1.00  0.00     0.124 S 
ATOM     78  O   UNL A   1      38.757  32.416  38.598  1.00  0.00    -0.237 OA
ATOM     79  O   UNL A   1      36.574  33.047  37.616  1.00  0.00    -0.237 OA
ATOM     80  O   UNL A   1      37.045  30.697  38.172  1.00  0.00    -0.744 OA
ENDBRANCH  76  77
ENDBRANCH  55  69
BRANCH  56  81
ATOM     81  C   UNL A   1      44.911  27.467  26.015  1.00  0.00     0.058 A 
ATOM     82  C   UNL A   1      45.929  26.494  26.108  1.00  0.00     0.135 A 
ATOM     83  C   UNL A   1      43.788  27.027  25.314  1.00  0.00     0.135 A 
ATOM     84  F   UNL A   1      47.104  26.861  26.597  1.00  0.00    -0.206 F 
ATOM     85  C   UNL A   1      45.775  25.140  25.819  1.00  0.00     0.059 A 
ATOM     86  C   UNL A   1      43.601  25.662  24.984  1.00  0.00     0.059 A 
ATOM     87  F   UNL A   1      42.831  27.901  24.980  1.00  0.00    -0.206 F 
ATOM     88  C   UNL A   1      44.561  24.714  25.332  1.00  0.00     0.060 A 
BRANCH  88  89
ATOM     89  S   UNL A   1      44.248  22.934  25.279  1.00  0.00     0.124 S 
ATOM     90  O   UNL A   1      44.059  22.617  26.687  1.00  0.00    -0.237 OA
ATOM     91  O   UNL A   1      43.055  22.855  24.439  1.00  0.00    -0.237 OA
ATOM     92  O   UNL A   1      45.458  22.410  24.658  1.00  0.00    -0.744 OA
ENDBRANCH  88  89
ENDBRANCH  56  81
BRANCH  68  93
ATOM     93  C   UNL A   1      43.693  34.275  28.984  1.00  0.00     0.058 A 
ATOM     94  C   UNL A   1      44.838  35.080  28.989  1.00  0.00     0.135 A 
ATOM     95  C   UNL A   1      42.461  34.957  28.830  1.00  0.00     0.135 A 
ATOM     96  F   UNL A   1      46.039  34.570  29.304  1.00  0.00    -0.206 F 
ATOM     97  C   UNL A   1      44.782  36.435  28.663  1.00  0.00     0.059 A 
ATOM     98  C   UNL A   1      42.377  36.315  28.574  1.00  0.00     0.059 A 
ATOM     99  F   UNL A   1      41.279  34.332  28.873  1.00  0.00    -0.206 F 
ATOM    100  C   UNL A   1      43.548  37.032  28.420  1.00  0.00     0.060 A 
BRANCH 100 101
ATOM    101  S   UNL A   1      43.470  38.741  27.875  1.00  0.00     0.124 S 
ATOM    102  O   UNL A   1      42.957  38.613  26.515  1.00  0.00    -0.237 OA
ATOM    103  O   UNL A   1      42.545  39.309  28.851  1.00  0.00    -0.237 OA
ATOM    104  O   UNL A   1      44.853  39.196  27.979  1.00  0.00    -0.744 OA
ENDBRANCH 100 101
ENDBRANCH  68  93
ENDBRANCH  42  43
ENDBRANCH  35  37
ENDBRANCH  34  35
ENDBRANCH  33  34
ENDBRANCH  32  33
ENDBRANCH   1  32
TORSDOF 20
ENDMDL
MODEL 2
REMARK VINA RESULT:     -12.1      2.277      3.513
REMARK SMILES Cc1c(NC(=O)[C@@H]2CC=CC[C@@H]2C(=O)OCCOCCOC(=O)c2ccc(-c3c4nc(c(-c5c(F)cc(S(=O)(=O)[O-])cc5F)c5ccc([nH]5)c(-c5c(F)cc(S(=O)(=O)[O-])cc5F)c5nc(c(-c6c(F)cc(S(=O)(=O)[O-])cc6F)c6ccc3[nH]6)C=C5)C=C4)cc2)cccc1C(=O)N1CCOCC1
REMARK SMILES IDX 18 1 17 2 16 3 15 4 13 5 14 6 12 7 7 8 8 9 9 10 11 11 10 12
REMARK SMILES IDX 5 13 4 14 6 16 3 17 1 18 2 19 93 20 90 21 92 22 91 23 94 24
REMARK SMILES IDX 95 25 96 26 97 27 101 28 98 29 100 30 99 31 19 32 20 33
REMARK SMILES IDX 21 34 22 35 23 36 24 37 25 38 89 39 26 40 88 41 27 42 28 43
REMARK SMILES IDX 29 44 82 45 30 46 87 47 81 48 83 49 31 50 86 51 80 52 79 53
REMARK SMILES IDX 32 55 66 56 45 57 65 58 46 59 49 60 64 61 84 62 47 63 48 64
REMARK SMILES IDX 63 66 85 67 50 68 33 69 34 70 43 71 35 72 36 73 42 74 44 75
REMARK SMILES IDX 37 76 38 77 39 78 40 79 41 80 67 81 68 82 77 83 69 84 70 85
REMARK SMILES IDX 76 86 78 87 71 88 72 89 73 90 74 91 75 92 51 93 52 94 61 95
REMARK SMILES IDX 53 96 54 97 60 98 62 99 55 100 56 101 57 102 58 103 59 104
REMARK H PARENT 4 15 83 54 49 65
REMARK Flexibility Score: inf
ROOT
ATOM      1  O   UNL A   1      37.004  20.381  24.374  1.00  0.00    -0.374 OA
ENDROOT
BRANCH   1   2
ATOM      2  C   UNL A   1      35.910  19.767  25.007  1.00  0.00     0.202 C 
BRANCH   2   3
ATOM      3  C   UNL A   1      34.524  20.311  24.711  1.00  0.00     0.261 C 
BRANCH   3   4
ATOM      4  O   UNL A   1      33.577  20.243  25.774  1.00  0.00    -0.463 OA
BRANCH   4   5
ATOM      5  C   UNL A   1      32.653  21.230  25.828  1.00  0.00     0.310 C 
ATOM      6  O   UNL A   1      31.672  21.296  25.095  1.00  0.00    -0.252 OA
BRANCH   5   7
ATOM      7  C   UNL A   1      32.843  22.134  27.035  1.00  0.00     0.116 C 
ATOM      8  C   UNL A   1      32.560  23.654  26.909  1.00  0.00     0.097 C 
ATOM      9  C   UNL A   1      33.515  24.341  25.931  1.00  0.00     0.041 C 
ATOM     10  C   UNL A   1      34.933  24.008  26.306  1.00  0.00    -0.030 C 
ATOM     11  C   UNL A   1      34.275  21.917  27.547  1.00  0.00     0.043 C 
ATOM     12  C   UNL A   1      35.264  22.942  27.051  1.00  0.00    -0.030 C 
BRANCH   8  13
ATOM     13  C   UNL A   1      31.106  23.968  26.688  1.00  0.00     0.228 C 
ATOM     14  N   UNL A   1      30.637  25.039  25.993  1.00  0.00    -0.326 N 
ATOM     15  H   UNL A   1      29.844  24.832  25.449  1.00  0.00     0.169 HD
ATOM     16  O   UNL A   1      30.246  23.282  27.246  1.00  0.00    -0.274 OA
BRANCH  14  17
ATOM     17  C   UNL A   1      31.052  26.392  25.886  1.00  0.00     0.044 A 
ATOM     18  C   UNL A   1      30.480  26.308  23.413  1.00  0.00     0.047 C 
ATOM     19  C   UNL A   1      30.885  27.069  24.636  1.00  0.00    -0.015 A 
ATOM     20  C   UNL A   1      31.061  28.481  24.563  1.00  0.00     0.045 A 
ATOM     21  C   UNL A   1      31.493  27.122  26.989  1.00  0.00     0.026 A 
ATOM     22  C   UNL A   1      31.457  29.165  25.728  1.00  0.00     0.014 A 
ATOM     23  C   UNL A   1      31.694  28.494  26.918  1.00  0.00     0.003 A 
BRANCH  20  24
ATOM     24  C   UNL A   1      30.978  29.370  23.336  1.00  0.00     0.254 C 
ATOM     25  O   UNL A   1      31.920  29.368  22.538  1.00  0.00    -0.269 OA
ATOM     26  N   UNL A   1      29.816  30.056  23.014  1.00  0.00    -0.334 N 
ATOM     27  C   UNL A   1      29.345  31.249  23.727  1.00  0.00     0.148 C 
ATOM     28  C   UNL A   1      29.400  30.039  21.617  1.00  0.00     0.148 C 
ATOM     29  C   UNL A   1      27.820  31.415  23.552  1.00  0.00     0.181 C 
ATOM     30  C   UNL A   1      27.879  30.157  21.541  1.00  0.00     0.181 C 
ATOM     31  O   UNL A   1      27.441  31.379  22.163  1.00  0.00    -0.378 OA
ENDBRANCH  20  24
ENDBRANCH  14  17
ENDBRANCH   8  13
ENDBRANCH   5   7
ENDBRANCH   4   5
ENDBRANCH   3   4
ENDBRANCH   2   3
ENDBRANCH   1   2
BRANCH   1  32
ATOM     32  C   UNL A   1      37.439  21.645  24.867  1.00  0.00     0.202 C 
BRANCH  32  33
ATOM     33  C   UNL A   1      38.718  21.812  25.740  1.00  0.00     0.261 C 
BRANCH  33  34
ATOM     34  O   UNL A   1      38.682  22.973  26.606  1.00  0.00    -0.460 OA
BRANCH  34  35
ATOM     35  C   UNL A   1      39.878  23.490  27.039  1.00  0.00     0.338 C 
ATOM     36  O   UNL A   1      40.953  22.891  27.040  1.00  0.00    -0.246 OA
BRANCH  35  37
ATOM     37  C   UNL A   1      39.804  24.970  27.120  1.00  0.00     0.060 A 
ATOM     38  C   UNL A   1      40.611  25.834  26.386  1.00  0.00     0.016 A 
ATOM     39  C   UNL A   1      38.957  25.525  28.060  1.00  0.00     0.016 A 
ATOM     40  C   UNL A   1      40.921  27.087  26.922  1.00  0.00     0.010 A 
ATOM     41  C   UNL A   1      39.265  26.767  28.584  1.00  0.00     0.010 A 
ATOM     42  C   UNL A   1      40.429  27.415  28.172  1.00  0.00    -0.014 A 
BRANCH  42  43
ATOM     43  C   UNL A   1      41.243  28.182  29.147  1.00  0.00     0.031 A 
ATOM     44  C   UNL A   1      40.535  28.977  30.148  1.00  0.00     0.074 A 
ATOM     45  C   UNL A   1      42.580  28.016  29.267  1.00  0.00     0.049 A 
ATOM     46  N   UNL A   1      40.229  30.233  30.049  1.00  0.00    -0.248 NA
ATOM     47  C   UNL A   1      39.868  28.247  31.243  1.00  0.00     0.031 C 
ATOM     48  C   UNL A   1      43.487  28.640  30.220  1.00  0.00     0.029 A 
ATOM     49  N   UNL A   1      43.429  27.292  28.417  1.00  0.00    -0.354 N 
ATOM     50  C   UNL A   1      39.559  30.471  31.234  1.00  0.00     0.074 A 
ATOM     51  C   UNL A   1      38.968  29.188  31.516  1.00  0.00     0.031 C 
ATOM     52  C   UNL A   1      44.720  28.625  29.679  1.00  0.00     0.029 A 
ATOM     53  C   UNL A   1      44.654  27.974  28.372  1.00  0.00     0.049 A 
ATOM     54  H   UNL A   1      43.206  26.461  27.940  1.00  0.00     0.167 HD
ATOM     55  C   UNL A   1      40.094  31.253  32.233  1.00  0.00     0.037 A 
ATOM     56  C   UNL A   1      44.989  28.530  27.173  1.00  0.00     0.037 A 
ATOM     57  C   UNL A   1      41.493  31.641  31.925  1.00  0.00     0.049 A 
ATOM     58  C   UNL A   1      44.688  30.023  27.224  1.00  0.00     0.074 A 
ATOM     59  C   UNL A   1      42.721  31.460  32.545  1.00  0.00     0.029 A 
ATOM     60  N   UNL A   1      41.812  32.094  30.650  1.00  0.00    -0.354 N 
ATOM     61  N   UNL A   1      44.042  30.583  28.223  1.00  0.00    -0.248 NA
ATOM     62  C   UNL A   1      45.124  31.022  26.260  1.00  0.00     0.031 C 
ATOM     63  C   UNL A   1      43.760  31.799  31.606  1.00  0.00     0.029 A 
ATOM     64  C   UNL A   1      43.169  32.197  30.417  1.00  0.00     0.049 A 
ATOM     65  H   UNL A   1      41.132  32.319  29.974  1.00  0.00     0.167 HD
ATOM     66  C   UNL A   1      44.067  31.939  28.137  1.00  0.00     0.074 A 
ATOM     67  C   UNL A   1      44.681  32.162  26.830  1.00  0.00     0.031 C 
ATOM     68  C   UNL A   1      43.622  32.765  29.142  1.00  0.00     0.037 A 
BRANCH  55  69
ATOM     69  C   UNL A   1      39.414  31.399  33.616  1.00  0.00     0.058 A 
ATOM     70  C   UNL A   1      39.778  30.568  34.696  1.00  0.00     0.135 A 
ATOM     71  C   UNL A   1      38.455  32.384  33.979  1.00  0.00     0.135 A 
ATOM     72  F   UNL A   1      40.732  29.636  34.551  1.00  0.00    -0.206 F 
ATOM     73  C   UNL A   1      39.221  30.686  35.987  1.00  0.00     0.059 A 
ATOM     74  C   UNL A   1      37.852  32.489  35.233  1.00  0.00     0.059 A 
ATOM     75  F   UNL A   1      38.073  33.376  33.175  1.00  0.00    -0.206 F 
ATOM     76  C   UNL A   1      38.248  31.647  36.244  1.00  0.00     0.060 A 
BRANCH  76  77
ATOM     77  S   UNL A   1      37.570  31.869  37.898  1.00  0.00     0.124 S 
ATOM     78  O   UNL A   1      36.585  32.925  37.685  1.00  0.00    -0.237 OA
ATOM     79  O   UNL A   1      37.036  30.544  38.193  1.00  0.00    -0.237 OA
ATOM     80  O   UNL A   1      38.729  32.257  38.698  1.00  0.00    -0.744 OA
ENDBRANCH  76  77
ENDBRANCH  55  69
BRANCH  56  81
ATOM     81  C   UNL A   1      45.007  27.465  26.089  1.00  0.00     0.058 A 
ATOM     82  C   UNL A   1      46.011  26.486  26.240  1.00  0.00     0.135 A 
ATOM     83  C   UNL A   1      43.911  27.025  25.347  1.00  0.00     0.135 A 
ATOM     84  F   UNL A   1      47.166  26.850  26.774  1.00  0.00    -0.206 F 
ATOM     85  C   UNL A   1      45.857  25.128  25.965  1.00  0.00     0.059 A 
ATOM     86  C   UNL A   1      43.726  25.656  25.029  1.00  0.00     0.059 A 
ATOM     87  F   UNL A   1      42.978  27.902  24.959  1.00  0.00    -0.206 F 
ATOM     88  C   UNL A   1      44.661  24.705  25.432  1.00  0.00     0.060 A 
BRANCH  88  89
ATOM     89  S   UNL A   1      44.334  22.928  25.392  1.00  0.00     0.124 S 
ATOM     90  O   UNL A   1      44.214  22.609  26.807  1.00  0.00    -0.237 OA
ATOM     91  O   UNL A   1      43.099  22.859  24.614  1.00  0.00    -0.237 OA
ATOM     92  O   UNL A   1      45.507  22.397  24.709  1.00  0.00    -0.744 OA
ENDBRANCH  88  89
ENDBRANCH  56  81
BRANCH  68  93
ATOM     93  C   UNL A   1      43.517  34.259  28.968  1.00  0.00     0.058 A 
ATOM     94  C   UNL A   1      44.626  35.111  28.947  1.00  0.00     0.135 A 
ATOM     95  C   UNL A   1      42.255  34.885  28.820  1.00  0.00     0.135 A 
ATOM     96  F   UNL A   1      45.852  34.658  29.254  1.00  0.00    -0.206 F 
ATOM     97  C   UNL A   1      44.509  36.458  28.601  1.00  0.00     0.059 A 
ATOM     98  C   UNL A   1      42.110  36.235  28.545  1.00  0.00     0.059 A 
ATOM     99  F   UNL A   1      41.102  34.211  28.887  1.00  0.00    -0.206 F 
ATOM    100  C   UNL A   1      43.247  36.998  28.366  1.00  0.00     0.060 A 
BRANCH 100 101
ATOM    101  S   UNL A   1      43.090  38.694  27.797  1.00  0.00     0.124 S 
ATOM    102  O   UNL A   1      44.305  38.873  27.009  1.00  0.00    -0.237 OA
ATOM    103  O   UNL A   1      41.845  38.625  27.038  1.00  0.00    -0.237 OA
ATOM    104  O   UNL A   1      43.031  39.465  29.035  1.00  0.00    -0.744 OA
ENDBRANCH 100 101
ENDBRANCH  68  93
ENDBRANCH  42  43
ENDBRANCH  35  37
ENDBRANCH  34  35
ENDBRANCH  33  34
ENDBRANCH  32  33
ENDBRANCH   1  32
TORSDOF 20
ENDMDL
MODEL 3
REMARK VINA RESULT:     -12.0      5.117      8.506
REMARK SMILES Cc1c(NC(=O)[C@@H]2CC=CC[C@@H]2C(=O)OCCOCCOC(=O)c2ccc(-c3c4nc(c(-c5c(F)cc(S(=O)(=O)[O-])cc5F)c5ccc([nH]5)c(-c5c(F)cc(S(=O)(=O)[O-])cc5F)c5nc(c(-c6c(F)cc(S(=O)(=O)[O-])cc6F)c6ccc3[nH]6)C=C5)C=C4)cc2)cccc1C(=O)N1CCOCC1
REMARK SMILES IDX 18 1 17 2 16 3 15 4 13 5 14 6 12 7 7 8 8 9 9 10 11 11 10 12
REMARK SMILES IDX 5 13 4 14 6 16 3 17 1 18 2 19 93 20 90 21 92 22 91 23 94 24
REMARK SMILES IDX 95 25 96 26 97 27 101 28 98 29 100 30 99 31 19 32 20 33
REMARK SMILES IDX 21 34 22 35 23 36 24 37 25 38 89 39 26 40 88 41 27 42 28 43
REMARK SMILES IDX 29 44 82 45 30 46 87 47 81 48 83 49 31 50 86 51 80 52 79 53
REMARK SMILES IDX 32 55 66 56 45 57 65 58 46 59 49 60 64 61 84 62 47 63 48 64
REMARK SMILES IDX 63 66 85 67 50 68 33 69 34 70 43 71 35 72 36 73 42 74 44 75
REMARK SMILES IDX 37 76 38 77 39 78 40 79 41 80 67 81 68 82 77 83 69 84 70 85
REMARK SMILES IDX 76 86 78 87 71 88 72 89 73 90 74 91 75 92 51 93 52 94 61 95
REMARK SMILES IDX 53 96 54 97 60 98 62 99 55 100 56 101 57 102 58 103 59 104
REMARK H PARENT 4 15 83 54 49 65
REMARK Flexibility Score: inf
ROOT
ATOM      1  O   UNL A   1      37.634  23.650  25.356  1.00  0.00    -0.374 OA
ENDROOT
BRANCH   1   2
ATOM      2  C   UNL A   1      37.328  22.675  24.392  1.00  0.00     0.202 C 
BRANCH   2   3
ATOM      3  C   UNL A   1      36.196  22.967  23.424  1.00  0.00     0.261 C 
BRANCH   3   4
ATOM      4  O   UNL A   1      34.892  23.082  23.991  1.00  0.00    -0.463 OA
BRANCH   4   5
ATOM      5  C   UNL A   1      34.023  23.898  23.352  1.00  0.00     0.310 C 
ATOM      6  O   UNL A   1      34.333  24.658  22.441  1.00  0.00    -0.252 OA
BRANCH   5   7
ATOM      7  C   UNL A   1      32.579  23.620  23.738  1.00  0.00     0.116 C 
ATOM      8  C   UNL A   1      32.225  23.299  25.213  1.00  0.00     0.097 C 
ATOM      9  C   UNL A   1      32.866  21.995  25.692  1.00  0.00     0.041 C 
ATOM     10  C   UNL A   1      32.528  20.893  24.725  1.00  0.00    -0.030 C 
ATOM     11  C   UNL A   1      32.074  22.490  22.829  1.00  0.00     0.043 C 
ATOM     12  C   UNL A   1      32.147  21.120  23.457  1.00  0.00    -0.030 C 
BRANCH   8  13
ATOM     13  C   UNL A   1      32.426  24.469  26.137  1.00  0.00     0.228 C 
ATOM     14  N   UNL A   1      31.519  25.461  26.346  1.00  0.00    -0.326 N 
ATOM     15  H   UNL A   1      31.481  25.762  27.281  1.00  0.00     0.169 HD
ATOM     16  O   UNL A   1      33.519  24.628  26.686  1.00  0.00    -0.274 OA
BRANCH  14  17
ATOM     17  C   UNL A   1      30.615  26.152  25.498  1.00  0.00     0.044 A 
ATOM     18  C   UNL A   1      32.399  27.923  25.139  1.00  0.00     0.047 C 
ATOM     19  C   UNL A   1      31.069  27.322  24.810  1.00  0.00    -0.015 A 
ATOM     20  C   UNL A   1      30.273  27.892  23.775  1.00  0.00     0.045 A 
ATOM     21  C   UNL A   1      29.342  25.659  25.210  1.00  0.00     0.026 A 
ATOM     22  C   UNL A   1      29.021  27.313  23.500  1.00  0.00     0.014 A 
ATOM     23  C   UNL A   1      28.550  26.227  24.223  1.00  0.00     0.003 A 
BRANCH  20  24
ATOM     24  C   UNL A   1      30.552  29.147  22.967  1.00  0.00     0.254 C 
ATOM     25  O   UNL A   1      31.620  29.232  22.355  1.00  0.00    -0.269 OA
ATOM     26  N   UNL A   1      29.580  30.117  22.775  1.00  0.00    -0.334 N 
ATOM     27  C   UNL A   1      29.149  31.061  23.814  1.00  0.00     0.148 C 
ATOM     28  C   UNL A   1      29.442  30.664  21.431  1.00  0.00     0.148 C 
ATOM     29  C   UNL A   1      27.723  31.575  23.516  1.00  0.00     0.181 C 
ATOM     30  C   UNL A   1      27.995  31.100  21.207  1.00  0.00     0.181 C 
ATOM     31  O   UNL A   1      27.618  32.095  22.177  1.00  0.00    -0.378 OA
ENDBRANCH  20  24
ENDBRANCH  14  17
ENDBRANCH   8  13
ENDBRANCH   5   7
ENDBRANCH   4   5
ENDBRANCH   3   4
ENDBRANCH   2   3
ENDBRANCH   1   2
BRANCH   1  32
ATOM     32  C   UNL A   1      38.366  23.244  26.510  1.00  0.00     0.202 C 
BRANCH  32  33
ATOM     33  C   UNL A   1      39.288  24.215  27.304  1.00  0.00     0.261 C 
BRANCH  33  34
ATOM     34  O   UNL A   1      39.379  25.539  26.718  1.00  0.00    -0.460 OA
BRANCH  34  35
ATOM     35  C   UNL A   1      39.408  26.617  27.567  1.00  0.00     0.338 C 
ATOM     36  O   UNL A   1      38.947  26.637  28.708  1.00  0.00    -0.246 OA
BRANCH  35  37
ATOM     37  C   UNL A   1      40.408  27.612  27.108  1.00  0.00     0.060 A 
ATOM     38  C   UNL A   1      41.229  27.441  25.997  1.00  0.00     0.016 A 
ATOM     39  C   UNL A   1      40.615  28.731  27.892  1.00  0.00     0.016 A 
ATOM     40  C   UNL A   1      42.483  28.056  25.982  1.00  0.00     0.010 A 
ATOM     41  C   UNL A   1      41.857  29.339  27.871  1.00  0.00     0.010 A 
ATOM     42  C   UNL A   1      42.872  28.799  27.082  1.00  0.00    -0.014 A 
BRANCH  42  43
ATOM     43  C   UNL A   1      44.270  28.778  27.575  1.00  0.00     0.031 A 
ATOM     44  C   UNL A   1      45.089  29.967  27.349  1.00  0.00     0.074 A 
ATOM     45  C   UNL A   1      44.742  27.801  28.384  1.00  0.00     0.049 A 
ATOM     46  N   UNL A   1      45.886  30.166  26.346  1.00  0.00    -0.248 NA
ATOM     47  C   UNL A   1      44.793  31.158  28.168  1.00  0.00     0.031 C 
ATOM     48  C   UNL A   1      46.058  27.692  28.997  1.00  0.00     0.029 A 
ATOM     49  N   UNL A   1      44.110  26.596  28.723  1.00  0.00    -0.354 N 
ATOM     50  C   UNL A   1      46.380  31.431  26.604  1.00  0.00     0.074 A 
ATOM     51  C   UNL A   1      45.290  32.048  27.314  1.00  0.00     0.031 C 
ATOM     52  C   UNL A   1      46.280  26.389  29.256  1.00  0.00     0.029 A 
ATOM     53  C   UNL A   1      45.110  25.619  28.839  1.00  0.00     0.049 A 
ATOM     54  H   UNL A   1      43.144  26.461  28.854  1.00  0.00     0.167 HD
ATOM     55  C   UNL A   1      47.690  31.644  26.970  1.00  0.00     0.037 A 
ATOM     56  C   UNL A   1      45.086  24.622  27.910  1.00  0.00     0.037 A 
ATOM     57  C   UNL A   1      48.405  30.362  27.194  1.00  0.00     0.049 A 
ATOM     58  C   UNL A   1      46.142  24.914  26.851  1.00  0.00     0.074 A 
ATOM     59  C   UNL A   1      49.066  29.781  28.267  1.00  0.00     0.029 A 
ATOM     60  N   UNL A   1      48.258  29.329  26.276  1.00  0.00    -0.354 N 
ATOM     61  N   UNL A   1      46.802  26.049  26.802  1.00  0.00    -0.248 NA
ATOM     62  C   UNL A   1      46.616  23.990  25.831  1.00  0.00     0.031 C 
ATOM     63  C   UNL A   1      49.287  28.390  27.966  1.00  0.00     0.029 A 
ATOM     64  C   UNL A   1      48.772  28.122  26.708  1.00  0.00     0.049 A 
ATOM     65  H   UNL A   1      47.825  29.446  25.399  1.00  0.00     0.167 HD
ATOM     66  C   UNL A   1      47.818  25.999  25.899  1.00  0.00     0.074 A 
ATOM     67  C   UNL A   1      47.596  24.710  25.247  1.00  0.00     0.031 C 
ATOM     68  C   UNL A   1      48.768  26.985  25.780  1.00  0.00     0.037 A 
BRANCH  55  69
ATOM     69  C   UNL A   1      48.207  33.038  27.404  1.00  0.00     0.058 A 
ATOM     70  C   UNL A   1      48.157  33.443  28.754  1.00  0.00     0.135 A 
ATOM     71  C   UNL A   1      48.837  33.997  26.564  1.00  0.00     0.135 A 
ATOM     72  F   UNL A   1      47.670  32.624  29.697  1.00  0.00    -0.206 F 
ATOM     73  C   UNL A   1      48.651  34.684  29.209  1.00  0.00     0.059 A 
ATOM     74  C   UNL A   1      49.287  35.250  26.979  1.00  0.00     0.059 A 
ATOM     75  F   UNL A   1      49.138  33.775  25.285  1.00  0.00    -0.206 F 
ATOM     76  C   UNL A   1      49.208  35.587  28.309  1.00  0.00     0.060 A 
BRANCH  76  77
ATOM     77  S   UNL A   1      49.912  37.149  28.870  1.00  0.00     0.124 S 
ATOM     78  O   UNL A   1      48.762  37.794  29.498  1.00  0.00    -0.237 OA
ATOM     79  O   UNL A   1      50.969  36.706  29.770  1.00  0.00    -0.237 OA
ATOM     80  O   UNL A   1      50.377  37.781  27.637  1.00  0.00    -0.744 OA
ENDBRANCH  76  77
ENDBRANCH  55  69
BRANCH  56  81
ATOM     81  C   UNL A   1      43.740  23.918  27.932  1.00  0.00     0.058 A 
ATOM     82  C   UNL A   1      43.119  23.790  26.672  1.00  0.00     0.135 A 
ATOM     83  C   UNL A   1      43.330  22.952  28.852  1.00  0.00     0.135 A 
ATOM     84  F   UNL A   1      43.301  24.754  25.783  1.00  0.00    -0.206 F 
ATOM     85  C   UNL A   1      42.401  22.678  26.239  1.00  0.00     0.059 A 
ATOM     86  C   UNL A   1      42.582  21.814  28.456  1.00  0.00     0.059 A 
ATOM     87  F   UNL A   1      43.685  23.067  30.137  1.00  0.00    -0.206 F 
ATOM     88  C   UNL A   1      42.210  21.643  27.125  1.00  0.00     0.060 A 
BRANCH  88  89
ATOM     89  S   UNL A   1      41.585  20.075  26.474  1.00  0.00     0.124 S 
ATOM     90  O   UNL A   1      41.718  19.194  27.624  1.00  0.00    -0.237 OA
ATOM     91  O   UNL A   1      40.219  20.423  26.088  1.00  0.00    -0.237 OA
ATOM     92  O   UNL A   1      42.479  19.811  25.353  1.00  0.00    -0.744 OA
ENDBRANCH  88  89
ENDBRANCH  56  81
BRANCH  68  93
ATOM     93  C   UNL A   1      49.793  26.984  24.674  1.00  0.00     0.058 A 
ATOM     94  C   UNL A   1      49.496  27.322  23.349  1.00  0.00     0.135 A 
ATOM     95  C   UNL A   1      51.140  26.629  24.933  1.00  0.00     0.135 A 
ATOM     96  F   UNL A   1      48.227  27.502  22.950  1.00  0.00    -0.206 F 
ATOM     97  C   UNL A   1      50.498  27.490  22.394  1.00  0.00     0.059 A 
ATOM     98  C   UNL A   1      52.141  26.722  23.981  1.00  0.00     0.059 A 
ATOM     99  F   UNL A   1      51.561  26.220  26.135  1.00  0.00    -0.206 F 
ATOM    100  C   UNL A   1      51.822  27.224  22.734  1.00  0.00     0.060 A 
BRANCH 100 101
ATOM    101  S   UNL A   1      53.136  27.558  21.556  1.00  0.00     0.124 S 
ATOM    102  O   UNL A   1      54.121  26.533  21.887  1.00  0.00    -0.237 OA
ATOM    103  O   UNL A   1      52.435  27.378  20.289  1.00  0.00    -0.237 OA
ATOM    104  O   UNL A   1      53.534  28.928  21.868  1.00  0.00    -0.744 OA
ENDBRANCH 100 101
ENDBRANCH  68  93
ENDBRANCH  42  43
ENDBRANCH  35  37
ENDBRANCH  34  35
ENDBRANCH  33  34
ENDBRANCH  32  33
ENDBRANCH   1  32
TORSDOF 20
ENDMDL
