MODEL 1
REMARK VINA RESULT:     -10.4      0.000      0.000
REMARK SMILES CC1(C)CCC[C@@]1(CC(=O)OCCOCCOC(=O)c1ccc(-c2c3nc(c(-c4c(F)cc(S(=O)(=O)[O-])cc4F)c4ccc([nH]4)c(-c4c(F)cc(S(=O)(=O)[O-])cc4F)c4nc(c(-c5c(F)cc(S(=O)(=O)[O-])cc5F)c5ccc2[nH]5)C=C4)C=C3)cc1)[NH+]1CCCCC1
REMARK SMILES IDX 15 1 14 2 13 3 12 4 11 5 9 6 10 7 8 8 7 9 1 10 2 11 3 12
REMARK SMILES IDX 4 13 5 14 6 15 86 16 87 17 91 18 88 20 90 21 89 22 16 23
REMARK SMILES IDX 17 24 18 25 19 26 20 27 21 28 85 29 22 30 84 31 23 32 24 33
REMARK SMILES IDX 25 34 78 35 26 36 83 37 77 38 79 39 27 40 82 41 76 42 75 43
REMARK SMILES IDX 28 45 62 46 41 47 61 48 42 49 45 50 60 51 80 52 43 53 44 54
REMARK SMILES IDX 59 56 81 57 46 58 29 59 30 60 39 61 31 62 32 63 38 64 40 65
REMARK SMILES IDX 33 66 34 67 35 68 36 69 37 70 63 71 64 72 73 73 65 74 66 75
REMARK SMILES IDX 72 76 74 77 67 78 68 79 69 80 70 81 71 82 47 83 48 84 57 85
REMARK SMILES IDX 49 86 50 87 56 88 58 89 51 90 52 91 53 92 54 93 55 94
REMARK H PARENT 86 19 79 44 45 55
REMARK Flexibility Score: inf
ROOT
ATOM      1  C   UNL A   1      35.174  32.114  28.163  1.00  0.00     0.202 C 
ENDROOT
BRANCH   1   2
ATOM      2  O   UNL A   1      34.944  31.025  27.275  1.00  0.00    -0.374 OA
BRANCH   2   3
ATOM      3  C   UNL A   1      33.601  30.540  27.161  1.00  0.00     0.202 C 
BRANCH   3   4
ATOM      4  C   UNL A   1      33.390  29.255  26.346  1.00  0.00     0.261 C 
BRANCH   4   5
ATOM      5  O   UNL A   1      31.996  28.912  26.237  1.00  0.00    -0.463 OA
BRANCH   5   6
ATOM      6  C   UNL A   1      31.641  27.757  26.867  1.00  0.00     0.312 C 
ATOM      7  O   UNL A   1      31.504  27.648  28.079  1.00  0.00    -0.252 OA
BRANCH   6   8
ATOM      8  C   UNL A   1      31.242  26.680  25.867  1.00  0.00     0.191 C 
BRANCH   8   9
ATOM      9  C   UNL A   1      32.332  25.810  25.132  1.00  0.00     0.113 C 
ATOM     10  C   UNL A   1      30.863  23.687  24.493  1.00  0.00     0.018 C 
ATOM     11  C   UNL A   1      31.992  24.249  25.378  1.00  0.00     0.020 C 
ATOM     12  C   UNL A   1      31.567  23.918  26.838  1.00  0.00     0.018 C 
ATOM     13  C   UNL A   1      33.339  23.526  25.172  1.00  0.00     0.013 C 
ATOM     14  C   UNL A   1      34.394  24.499  25.682  1.00  0.00     0.007 C 
ATOM     15  C   UNL A   1      33.742  25.884  25.778  1.00  0.00     0.070 C 
BRANCH   9  16
ATOM     16  N   UNL A   1      32.355  26.230  23.670  1.00  0.00    -0.329 N 
ATOM     17  C   UNL A   1      33.571  26.698  22.994  1.00  0.00     0.262 C 
ATOM     18  C   UNL A   1      31.204  26.958  23.100  1.00  0.00     0.262 C 
ATOM     19  H   UNL A   1      32.295  25.233  23.461  1.00  0.00     0.348 HD
ATOM     20  C   UNL A   1      33.794  28.211  23.006  1.00  0.00     0.062 C 
ATOM     21  C   UNL A   1      31.322  28.486  23.056  1.00  0.00     0.062 C 
ATOM     22  C   UNL A   1      32.610  28.944  22.400  1.00  0.00     0.012 C 
ENDBRANCH   9  16
ENDBRANCH   8   9
ENDBRANCH   6   8
ENDBRANCH   5   6
ENDBRANCH   4   5
ENDBRANCH   3   4
ENDBRANCH   2   3
ENDBRANCH   1   2
BRANCH   1  23
ATOM     23  C   UNL A   1      35.064  31.829  29.666  1.00  0.00     0.261 C 
BRANCH  23  24
ATOM     24  O   UNL A   1      36.322  31.819  30.347  1.00  0.00    -0.460 OA
BRANCH  24  25
ATOM     25  C   UNL A   1      36.757  30.594  30.723  1.00  0.00     0.338 C 
ATOM     26  O   UNL A   1      36.141  29.752  31.349  1.00  0.00    -0.246 OA
BRANCH  25  27
ATOM     27  C   UNL A   1      38.131  30.402  30.231  1.00  0.00     0.060 A 
ATOM     28  C   UNL A   1      38.368  30.307  28.855  1.00  0.00     0.016 A 
ATOM     29  C   UNL A   1      39.168  30.216  31.146  1.00  0.00     0.016 A 
ATOM     30  C   UNL A   1      39.649  29.990  28.395  1.00  0.00     0.010 A 
ATOM     31  C   UNL A   1      40.453  29.917  30.681  1.00  0.00     0.010 A 
ATOM     32  C   UNL A   1      40.696  29.772  29.304  1.00  0.00    -0.014 A 
BRANCH  32  33
ATOM     33  C   UNL A   1      42.019  29.303  28.816  1.00  0.00     0.031 A 
ATOM     34  C   UNL A   1      43.161  30.281  28.702  1.00  0.00     0.074 A 
ATOM     35  C   UNL A   1      42.206  28.009  28.489  1.00  0.00     0.049 A 
ATOM     36  N   UNL A   1      44.393  30.071  28.316  1.00  0.00    -0.248 NA
ATOM     37  C   UNL A   1      42.876  31.677  29.071  1.00  0.00     0.031 C 
ATOM     38  C   UNL A   1      41.180  26.968  28.550  1.00  0.00     0.029 A 
ATOM     39  N   UNL A   1      43.323  27.352  28.035  1.00  0.00    -0.354 N 
ATOM     40  C   UNL A   1      45.031  31.304  28.394  1.00  0.00     0.074 A 
ATOM     41  C   UNL A   1      44.042  32.264  28.835  1.00  0.00     0.031 C 
ATOM     42  C   UNL A   1      41.714  25.802  28.144  1.00  0.00     0.029 A 
ATOM     43  C   UNL A   1      43.113  26.018  27.777  1.00  0.00     0.049 A 
ATOM     44  H   UNL A   1      44.192  27.794  27.907  1.00  0.00     0.167 HD
ATOM     45  C   UNL A   1      46.326  31.606  28.133  1.00  0.00     0.037 A 
ATOM     46  C   UNL A   1      43.949  25.079  27.289  1.00  0.00     0.037 A 
ATOM     47  C   UNL A   1      47.312  30.648  27.706  1.00  0.00     0.049 A 
ATOM     48  C   UNL A   1      45.378  25.448  26.984  1.00  0.00     0.074 A 
ATOM     49  C   UNL A   1      48.660  30.853  27.463  1.00  0.00     0.029 A 
ATOM     50  N   UNL A   1      47.060  29.308  27.455  1.00  0.00    -0.354 N 
ATOM     51  N   UNL A   1      45.978  26.606  27.123  1.00  0.00    -0.248 NA
ATOM     52  C   UNL A   1      46.246  24.382  26.462  1.00  0.00     0.031 C 
ATOM     53  C   UNL A   1      49.214  29.646  27.023  1.00  0.00     0.029 A 
ATOM     54  C   UNL A   1      48.220  28.680  27.034  1.00  0.00     0.049 A 
ATOM     55  H   UNL A   1      46.185  28.868  27.557  1.00  0.00     0.167 HD
ATOM     56  C   UNL A   1      47.297  26.401  26.731  1.00  0.00     0.074 A 
ATOM     57  C   UNL A   1      47.411  25.005  26.361  1.00  0.00     0.031 C 
ATOM     58  C   UNL A   1      48.322  27.287  26.680  1.00  0.00     0.037 A 
BRANCH  45  59
ATOM     59  C   UNL A   1      46.763  33.035  28.296  1.00  0.00     0.058 A 
ATOM     60  C   UNL A   1      47.297  33.505  29.505  1.00  0.00     0.135 A 
ATOM     61  C   UNL A   1      46.720  33.921  27.209  1.00  0.00     0.135 A 
ATOM     62  F   UNL A   1      47.346  32.702  30.581  1.00  0.00    -0.206 F 
ATOM     63  C   UNL A   1      47.770  34.807  29.633  1.00  0.00     0.059 A 
ATOM     64  C   UNL A   1      47.206  35.222  27.308  1.00  0.00     0.059 A 
ATOM     65  F   UNL A   1      46.216  33.521  26.031  1.00  0.00    -0.206 F 
ATOM     66  C   UNL A   1      47.725  35.657  28.526  1.00  0.00     0.060 A 
BRANCH  66  67
ATOM     67  S   UNL A   1      48.378  37.332  28.696  1.00  0.00     0.124 S 
ATOM     68  O   UNL A   1      49.726  37.176  28.157  1.00  0.00    -0.237 OA
ATOM     69  O   UNL A   1      47.455  38.112  27.877  1.00  0.00    -0.237 OA
ATOM     70  O   UNL A   1      48.301  37.583  30.132  1.00  0.00    -0.744 OA
ENDBRANCH  66  67
ENDBRANCH  45  59
BRANCH  46  71
ATOM     71  C   UNL A   1      43.461  23.695  27.046  1.00  0.00     0.058 A 
ATOM     72  C   UNL A   1      43.129  23.256  25.757  1.00  0.00     0.135 A 
ATOM     73  C   UNL A   1      43.291  22.793  28.108  1.00  0.00     0.135 A 
ATOM     74  F   UNL A   1      43.265  24.084  24.709  1.00  0.00    -0.206 F 
ATOM     75  C   UNL A   1      42.619  21.981  25.530  1.00  0.00     0.059 A 
ATOM     76  C   UNL A   1      42.806  21.505  27.903  1.00  0.00     0.059 A 
ATOM     77  F   UNL A   1      43.606  23.160  29.359  1.00  0.00    -0.206 F 
ATOM     78  C   UNL A   1      42.457  21.114  26.611  1.00  0.00     0.060 A 
BRANCH  78  79
ATOM     79  S   UNL A   1      41.814  19.453  26.310  1.00  0.00     0.124 S 
ATOM     80  O   UNL A   1      40.383  19.711  26.193  1.00  0.00    -0.237 OA
ATOM     81  O   UNL A   1      42.497  19.076  25.076  1.00  0.00    -0.237 OA
ATOM     82  O   UNL A   1      42.229  18.714  27.498  1.00  0.00    -0.744 OA
ENDBRANCH  78  79
ENDBRANCH  46  71
BRANCH  58  83
ATOM     83  C   UNL A   1      49.665  26.773  26.239  1.00  0.00     0.058 A 
ATOM     84  C   UNL A   1      50.091  26.880  24.907  1.00  0.00     0.135 A 
ATOM     85  C   UNL A   1      50.554  26.216  27.172  1.00  0.00     0.135 A 
ATOM     86  F   UNL A   1      49.276  27.400  23.976  1.00  0.00    -0.206 F 
ATOM     87  C   UNL A   1      51.347  26.432  24.510  1.00  0.00     0.059 A 
ATOM     88  C   UNL A   1      51.823  25.783  26.802  1.00  0.00     0.059 A 
ATOM     89  F   UNL A   1      50.197  26.101  28.461  1.00  0.00    -0.206 F 
ATOM     90  C   UNL A   1      52.206  25.885  25.465  1.00  0.00     0.060 A 
BRANCH  90  91
ATOM     91  S   UNL A   1      53.847  25.337  24.945  1.00  0.00     0.124 S 
ATOM     92  O   UNL A   1      54.682  25.840  26.032  1.00  0.00    -0.237 OA
ATOM     93  O   UNL A   1      53.690  23.888  24.886  1.00  0.00    -0.237 OA
ATOM     94  O   UNL A   1      54.031  25.995  23.656  1.00  0.00    -0.744 OA
ENDBRANCH  90  91
ENDBRANCH  58  83
ENDBRANCH  32  33
ENDBRANCH  25  27
ENDBRANCH  24  25
ENDBRANCH  23  24
ENDBRANCH   1  23
TORSDOF 19
ENDMDL
MODEL 2
REMARK VINA RESULT:     -10.2      2.791      8.963
REMARK SMILES CC1(C)CCC[C@@]1(CC(=O)OCCOCCOC(=O)c1ccc(-c2c3nc(c(-c4c(F)cc(S(=O)(=O)[O-])cc4F)c4ccc([nH]4)c(-c4c(F)cc(S(=O)(=O)[O-])cc4F)c4nc(c(-c5c(F)cc(S(=O)(=O)[O-])cc5F)c5ccc2[nH]5)C=C4)C=C3)cc1)[NH+]1CCCCC1
REMARK SMILES IDX 15 1 14 2 13 3 12 4 11 5 9 6 10 7 8 8 7 9 1 10 2 11 3 12
REMARK SMILES IDX 4 13 5 14 6 15 86 16 87 17 91 18 88 20 90 21 89 22 16 23
REMARK SMILES IDX 17 24 18 25 19 26 20 27 21 28 85 29 22 30 84 31 23 32 24 33
REMARK SMILES IDX 25 34 78 35 26 36 83 37 77 38 79 39 27 40 82 41 76 42 75 43
REMARK SMILES IDX 28 45 62 46 41 47 61 48 42 49 45 50 60 51 80 52 43 53 44 54
REMARK SMILES IDX 59 56 81 57 46 58 29 59 30 60 39 61 31 62 32 63 38 64 40 65
REMARK SMILES IDX 33 66 34 67 35 68 36 69 37 70 63 71 64 72 73 73 65 74 66 75
REMARK SMILES IDX 72 76 74 77 67 78 68 79 69 80 70 81 71 82 47 83 48 84 57 85
REMARK SMILES IDX 49 86 50 87 56 88 58 89 51 90 52 91 53 92 54 93 55 94
REMARK H PARENT 86 19 79 44 45 55
REMARK Flexibility Score: inf
ROOT
ATOM      1  C   UNL A   1      31.912  29.148  26.338  1.00  0.00     0.202 C 
ENDROOT
BRANCH   1   2
ATOM      2  O   UNL A   1      31.394  29.341  25.026  1.00  0.00    -0.374 OA
BRANCH   2   3
ATOM      3  C   UNL A   1      31.140  28.172  24.239  1.00  0.00     0.202 C 
BRANCH   3   4
ATOM      4  C   UNL A   1      31.215  26.817  24.959  1.00  0.00     0.261 C 
BRANCH   4   5
ATOM      5  O   UNL A   1      31.726  25.780  24.100  1.00  0.00    -0.463 OA
BRANCH   5   6
ATOM      6  C   UNL A   1      33.051  25.508  24.260  1.00  0.00     0.312 C 
ATOM      7  O   UNL A   1      33.927  25.870  23.485  1.00  0.00    -0.252 OA
BRANCH   6   8
ATOM      8  C   UNL A   1      33.327  24.876  25.617  1.00  0.00     0.191 C 
BRANCH   8   9
ATOM      9  C   UNL A   1      33.876  23.402  25.732  1.00  0.00     0.113 C 
ATOM     10  C   UNL A   1      32.436  22.231  23.828  1.00  0.00     0.018 C 
ATOM     11  C   UNL A   1      32.687  22.380  25.341  1.00  0.00     0.020 C 
ATOM     12  C   UNL A   1      31.304  22.759  25.945  1.00  0.00     0.018 C 
ATOM     13  C   UNL A   1      33.080  21.054  26.024  1.00  0.00     0.013 C 
ATOM     14  C   UNL A   1      33.777  21.464  27.315  1.00  0.00     0.007 C 
ATOM     15  C   UNL A   1      34.157  22.944  27.189  1.00  0.00     0.070 C 
BRANCH   9  16
ATOM     16  N   UNL A   1      35.115  23.298  24.856  1.00  0.00    -0.329 N 
ATOM     17  C   UNL A   1      35.563  22.036  24.255  1.00  0.00     0.262 C 
ATOM     18  C   UNL A   1      36.311  24.101  25.181  1.00  0.00     0.262 C 
ATOM     19  H   UNL A   1      34.554  23.756  24.138  1.00  0.00     0.348 HD
ATOM     20  C   UNL A   1      36.578  21.236  25.074  1.00  0.00     0.062 C 
ATOM     21  C   UNL A   1      37.400  23.395  25.997  1.00  0.00     0.062 C 
ATOM     22  C   UNL A   1      37.809  22.069  25.384  1.00  0.00     0.012 C 
ENDBRANCH   9  16
ENDBRANCH   8   9
ENDBRANCH   6   8
ENDBRANCH   5   6
ENDBRANCH   4   5
ENDBRANCH   3   4
ENDBRANCH   2   3
ENDBRANCH   1   2
BRANCH   1  23
ATOM     23  C   UNL A   1      32.939  30.170  26.844  1.00  0.00     0.261 C 
BRANCH  23  24
ATOM     24  O   UNL A   1      34.064  29.581  27.504  1.00  0.00    -0.460 OA
BRANCH  24  25
ATOM     25  C   UNL A   1      34.791  30.435  28.261  1.00  0.00     0.338 C 
ATOM     26  O   UNL A   1      34.413  31.471  28.776  1.00  0.00    -0.246 OA
BRANCH  25  27
ATOM     27  C   UNL A   1      36.157  29.905  28.403  1.00  0.00     0.060 A 
ATOM     28  C   UNL A   1      36.583  29.407  29.640  1.00  0.00     0.016 A 
ATOM     29  C   UNL A   1      37.044  29.998  27.330  1.00  0.00     0.016 A 
ATOM     30  C   UNL A   1      37.918  29.030  29.810  1.00  0.00     0.010 A 
ATOM     31  C   UNL A   1      38.375  29.603  27.500  1.00  0.00     0.010 A 
ATOM     32  C   UNL A   1      38.829  29.145  28.748  1.00  0.00    -0.014 A 
BRANCH  32  33
ATOM     33  C   UNL A   1      40.272  28.873  28.974  1.00  0.00     0.031 A 
ATOM     34  C   UNL A   1      40.843  27.527  28.606  1.00  0.00     0.074 A 
ATOM     35  C   UNL A   1      41.073  29.824  29.492  1.00  0.00     0.049 A 
ATOM     36  N   UNL A   1      42.074  27.096  28.706  1.00  0.00    -0.248 NA
ATOM     37  C   UNL A   1      39.904  26.537  28.052  1.00  0.00     0.031 C 
ATOM     38  C   UNL A   1      40.640  31.163  29.895  1.00  0.00     0.029 A 
ATOM     39  N   UNL A   1      42.416  29.809  29.774  1.00  0.00    -0.354 N 
ATOM     40  C   UNL A   1      42.059  25.789  28.232  1.00  0.00     0.074 A 
ATOM     41  C   UNL A   1      40.691  25.486  27.870  1.00  0.00     0.031 C 
ATOM     42  C   UNL A   1      41.698  31.839  30.377  1.00  0.00     0.029 A 
ATOM     43  C   UNL A   1      42.878  30.977  30.334  1.00  0.00     0.049 A 
ATOM     44  H   UNL A   1      42.995  29.034  29.593  1.00  0.00     0.167 HD
ATOM     45  C   UNL A   1      43.094  24.924  28.098  1.00  0.00     0.037 A 
ATOM     46  C   UNL A   1      44.108  31.310  30.773  1.00  0.00     0.037 A 
ATOM     47  C   UNL A   1      44.458  25.231  28.445  1.00  0.00     0.049 A 
ATOM     48  C   UNL A   1      45.236  30.320  30.635  1.00  0.00     0.074 A 
ATOM     49  C   UNL A   1      45.581  24.435  28.300  1.00  0.00     0.029 A 
ATOM     50  N   UNL A   1      44.884  26.423  29.010  1.00  0.00    -0.354 N 
ATOM     51  N   UNL A   1      45.215  29.111  30.126  1.00  0.00    -0.248 NA
ATOM     52  C   UNL A   1      46.558  30.742  31.124  1.00  0.00     0.031 C 
ATOM     53  C   UNL A   1      46.680  25.129  28.818  1.00  0.00     0.029 A 
ATOM     54  C   UNL A   1      46.247  26.374  29.244  1.00  0.00     0.049 A 
ATOM     55  H   UNL A   1      44.302  27.191  29.217  1.00  0.00     0.167 HD
ATOM     56  C   UNL A   1      46.521  28.640  30.210  1.00  0.00     0.074 A 
ATOM     57  C   UNL A   1      47.310  29.697  30.807  1.00  0.00     0.031 C 
ATOM     58  C   UNL A   1      47.022  27.439  29.828  1.00  0.00     0.037 A 
BRANCH  45  59
ATOM     59  C   UNL A   1      42.802  23.555  27.553  1.00  0.00     0.058 A 
ATOM     60  C   UNL A   1      42.957  23.259  26.190  1.00  0.00     0.135 A 
ATOM     61  C   UNL A   1      42.441  22.508  28.415  1.00  0.00     0.135 A 
ATOM     62  F   UNL A   1      43.287  24.228  25.321  1.00  0.00    -0.206 F 
ATOM     63  C   UNL A   1      42.759  21.973  25.699  1.00  0.00     0.059 A 
ATOM     64  C   UNL A   1      42.256  21.209  27.949  1.00  0.00     0.059 A 
ATOM     65  F   UNL A   1      42.277  22.740  29.727  1.00  0.00    -0.206 F 
ATOM     66  C   UNL A   1      42.412  20.953  26.589  1.00  0.00     0.060 A 
BRANCH  66  67
ATOM     67  S   UNL A   1      42.195  19.280  25.942  1.00  0.00     0.124 S 
ATOM     68  O   UNL A   1      42.664  18.471  27.063  1.00  0.00    -0.237 OA
ATOM     69  O   UNL A   1      40.760  19.230  25.682  1.00  0.00    -0.237 OA
ATOM     70  O   UNL A   1      43.046  19.261  24.756  1.00  0.00    -0.744 OA
ENDBRANCH  66  67
ENDBRANCH  45  59
BRANCH  46  71
ATOM     71  C   UNL A   1      44.346  32.639  31.398  1.00  0.00     0.058 A 
ATOM     72  C   UNL A   1      44.145  32.846  32.770  1.00  0.00     0.135 A 
ATOM     73  C   UNL A   1      44.753  33.738  30.624  1.00  0.00     0.135 A 
ATOM     74  F   UNL A   1      43.748  31.830  33.551  1.00  0.00    -0.206 F 
ATOM     75  C   UNL A   1      44.312  34.100  33.350  1.00  0.00     0.059 A 
ATOM     76  C   UNL A   1      44.950  34.995  31.185  1.00  0.00     0.059 A 
ATOM     77  F   UNL A   1      44.971  33.590  29.308  1.00  0.00    -0.206 F 
ATOM     78  C   UNL A   1      44.711  35.170  32.548  1.00  0.00     0.060 A 
BRANCH  78  79
ATOM     79  S   UNL A   1      44.945  36.791  33.309  1.00  0.00     0.124 S 
ATOM     80  O   UNL A   1      44.672  36.498  34.711  1.00  0.00    -0.237 OA
ATOM     81  O   UNL A   1      46.335  37.090  32.978  1.00  0.00    -0.237 OA
ATOM     82  O   UNL A   1      43.956  37.623  32.631  1.00  0.00    -0.744 OA
ENDBRANCH  78  79
ENDBRANCH  46  71
BRANCH  58  83
ATOM     83  C   UNL A   1      48.497  27.212  30.014  1.00  0.00     0.058 A 
ATOM     84  C   UNL A   1      49.435  27.668  29.076  1.00  0.00     0.135 A 
ATOM     85  C   UNL A   1      48.979  26.576  31.170  1.00  0.00     0.135 A 
ATOM     86  F   UNL A   1      49.026  28.278  27.952  1.00  0.00    -0.206 F 
ATOM     87  C   UNL A   1      50.801  27.484  29.267  1.00  0.00     0.059 A 
ATOM     88  C   UNL A   1      50.341  26.402  31.393  1.00  0.00     0.059 A 
ATOM     89  F   UNL A   1      48.122  26.130  32.103  1.00  0.00    -0.206 F 
ATOM     90  C   UNL A   1      51.244  26.850  30.430  1.00  0.00     0.060 A 
BRANCH  90  91
ATOM     91  S   UNL A   1      53.021  26.644  30.684  1.00  0.00     0.124 S 
ATOM     92  O   UNL A   1      53.400  27.963  31.183  1.00  0.00    -0.237 OA
ATOM     93  O   UNL A   1      53.075  25.559  31.657  1.00  0.00    -0.237 OA
ATOM     94  O   UNL A   1      53.516  26.310  29.353  1.00  0.00    -0.744 OA
ENDBRANCH  90  91
ENDBRANCH  58  83
ENDBRANCH  32  33
ENDBRANCH  25  27
ENDBRANCH  24  25
ENDBRANCH  23  24
ENDBRANCH   1  23
TORSDOF 19
ENDMDL
MODEL 3
REMARK VINA RESULT:     -10.1      0.839      2.048
REMARK SMILES CC1(C)CCC[C@@]1(CC(=O)OCCOCCOC(=O)c1ccc(-c2c3nc(c(-c4c(F)cc(S(=O)(=O)[O-])cc4F)c4ccc([nH]4)c(-c4c(F)cc(S(=O)(=O)[O-])cc4F)c4nc(c(-c5c(F)cc(S(=O)(=O)[O-])cc5F)c5ccc2[nH]5)C=C4)C=C3)cc1)[NH+]1CCCCC1
REMARK SMILES IDX 15 1 14 2 13 3 12 4 11 5 9 6 10 7 8 8 7 9 1 10 2 11 3 12
REMARK SMILES IDX 4 13 5 14 6 15 86 16 87 17 91 18 88 20 90 21 89 22 16 23
REMARK SMILES IDX 17 24 18 25 19 26 20 27 21 28 85 29 22 30 84 31 23 32 24 33
REMARK SMILES IDX 25 34 78 35 26 36 83 37 77 38 79 39 27 40 82 41 76 42 75 43
REMARK SMILES IDX 28 45 62 46 41 47 61 48 42 49 45 50 60 51 80 52 43 53 44 54
REMARK SMILES IDX 59 56 81 57 46 58 29 59 30 60 39 61 31 62 32 63 38 64 40 65
REMARK SMILES IDX 33 66 34 67 35 68 36 69 37 70 63 71 64 72 73 73 65 74 66 75
REMARK SMILES IDX 72 76 74 77 67 78 68 79 69 80 70 81 71 82 47 83 48 84 57 85
REMARK SMILES IDX 49 86 50 87 56 88 58 89 51 90 52 91 53 92 54 93 55 94
REMARK H PARENT 86 19 79 44 45 55
REMARK Flexibility Score: inf
ROOT
ATOM      1  C   UNL A   1      34.984  32.224  28.019  1.00  0.00     0.202 C 
ENDROOT
BRANCH   1   2
ATOM      2  O   UNL A   1      34.103  31.113  27.886  1.00  0.00    -0.374 OA
BRANCH   2   3
ATOM      3  C   UNL A   1      34.693  29.831  27.637  1.00  0.00     0.202 C 
BRANCH   3   4
ATOM      4  C   UNL A   1      33.975  28.915  26.635  1.00  0.00     0.261 C 
BRANCH   4   5
ATOM      5  O   UNL A   1      33.307  29.667  25.604  1.00  0.00    -0.463 OA
BRANCH   5   6
ATOM      6  C   UNL A   1      32.808  28.916  24.582  1.00  0.00     0.312 C 
ATOM      7  O   UNL A   1      33.215  28.967  23.428  1.00  0.00    -0.252 OA
BRANCH   6   8
ATOM      8  C   UNL A   1      31.828  27.870  25.091  1.00  0.00     0.191 C 
BRANCH   8   9
ATOM      9  C   UNL A   1      31.910  26.372  24.603  1.00  0.00     0.113 C 
ATOM     10  C   UNL A   1      31.184  26.680  22.064  1.00  0.00     0.018 C 
ATOM     11  C   UNL A   1      30.796  26.145  23.456  1.00  0.00     0.020 C 
ATOM     12  C   UNL A   1      29.420  26.799  23.773  1.00  0.00     0.018 C 
ATOM     13  C   UNL A   1      30.536  24.624  23.469  1.00  0.00     0.013 C 
ATOM     14  C   UNL A   1      30.693  24.207  24.926  1.00  0.00     0.007 C 
ATOM     15  C   UNL A   1      31.430  25.337  25.656  1.00  0.00     0.070 C 
BRANCH   9  16
ATOM     16  N   UNL A   1      33.341  26.106  24.159  1.00  0.00    -0.329 N 
ATOM     17  C   UNL A   1      33.676  25.526  22.853  1.00  0.00     0.262 C 
ATOM     18  C   UNL A   1      34.335  25.630  25.141  1.00  0.00     0.262 C 
ATOM     19  H   UNL A   1      33.410  27.116  24.033  1.00  0.00     0.348 HD
ATOM     20  C   UNL A   1      33.818  24.003  22.823  1.00  0.00     0.062 C 
ATOM     21  C   UNL A   1      34.565  24.115  25.194  1.00  0.00     0.062 C 
ATOM     22  C   UNL A   1      34.857  23.530  23.825  1.00  0.00     0.012 C 
ENDBRANCH   9  16
ENDBRANCH   8   9
ENDBRANCH   6   8
ENDBRANCH   5   6
ENDBRANCH   4   5
ENDBRANCH   3   4
ENDBRANCH   2   3
ENDBRANCH   1   2
BRANCH   1  23
ATOM     23  C   UNL A   1      35.297  32.705  29.442  1.00  0.00     0.261 C 
BRANCH  23  24
ATOM     24  O   UNL A   1      36.630  32.413  29.872  1.00  0.00    -0.460 OA
BRANCH  24  25
ATOM     25  C   UNL A   1      36.765  31.259  30.564  1.00  0.00     0.338 C 
ATOM     26  O   UNL A   1      36.013  30.812  31.410  1.00  0.00    -0.246 OA
BRANCH  25  27
ATOM     27  C   UNL A   1      37.990  30.574  30.119  1.00  0.00     0.060 A 
ATOM     28  C   UNL A   1      38.977  30.242  31.054  1.00  0.00     0.016 A 
ATOM     29  C   UNL A   1      38.198  30.357  28.756  1.00  0.00     0.016 A 
ATOM     30  C   UNL A   1      40.195  29.716  30.615  1.00  0.00     0.010 A 
ATOM     31  C   UNL A   1      39.413  29.814  28.323  1.00  0.00     0.010 A 
ATOM     32  C   UNL A   1      40.430  29.518  29.245  1.00  0.00    -0.014 A 
BRANCH  32  33
ATOM     33  C   UNL A   1      41.774  29.089  28.776  1.00  0.00     0.031 A 
ATOM     34  C   UNL A   1      42.891  30.098  28.690  1.00  0.00     0.074 A 
ATOM     35  C   UNL A   1      42.001  27.804  28.443  1.00  0.00     0.049 A 
ATOM     36  N   UNL A   1      44.134  29.925  28.323  1.00  0.00    -0.248 NA
ATOM     37  C   UNL A   1      42.562  31.484  29.064  1.00  0.00     0.031 C 
ATOM     38  C   UNL A   1      41.003  26.734  28.478  1.00  0.00     0.029 A 
ATOM     39  N   UNL A   1      43.143  27.181  28.003  1.00  0.00    -0.354 N 
ATOM     40  C   UNL A   1      44.737  31.174  28.421  1.00  0.00     0.074 A 
ATOM     41  C   UNL A   1      43.715  32.103  28.853  1.00  0.00     0.031 C 
ATOM     42  C   UNL A   1      41.575  25.587  28.072  1.00  0.00     0.029 A 
ATOM     43  C   UNL A   1      42.974  25.844  27.731  1.00  0.00     0.049 A 
ATOM     44  H   UNL A   1      44.002  27.647  27.893  1.00  0.00     0.167 HD
ATOM     45  C   UNL A   1      46.027  31.513  28.185  1.00  0.00     0.037 A 
ATOM     46  C   UNL A   1      43.843  24.932  27.250  1.00  0.00     0.037 A 
ATOM     47  C   UNL A   1      47.047  30.586  27.768  1.00  0.00     0.049 A 
ATOM     48  C   UNL A   1      45.266  25.342  26.972  1.00  0.00     0.074 A 
ATOM     49  C   UNL A   1      48.392  30.828  27.550  1.00  0.00     0.029 A 
ATOM     50  N   UNL A   1      46.835  29.241  27.501  1.00  0.00    -0.354 N 
ATOM     51  N   UNL A   1      45.833  26.514  27.131  1.00  0.00    -0.248 NA
ATOM     52  C   UNL A   1      46.172  24.303  26.457  1.00  0.00     0.031 C 
ATOM     53  C   UNL A   1      48.986  29.640  27.109  1.00  0.00     0.029 A 
ATOM     54  C   UNL A   1      48.019  28.649  27.096  1.00  0.00     0.049 A 
ATOM     55  H   UNL A   1      45.970  28.778  27.586  1.00  0.00     0.167 HD
ATOM     56  C   UNL A   1      47.163  26.348  26.759  1.00  0.00     0.074 A 
ATOM     57  C   UNL A   1      47.321  24.959  26.381  1.00  0.00     0.031 C 
ATOM     58  C   UNL A   1      48.164  27.262  26.733  1.00  0.00     0.037 A 
BRANCH  45  59
ATOM     59  C   UNL A   1      46.423  32.951  28.367  1.00  0.00     0.058 A 
ATOM     60  C   UNL A   1      46.293  33.886  27.328  1.00  0.00     0.135 A 
ATOM     61  C   UNL A   1      46.862  33.416  29.616  1.00  0.00     0.135 A 
ATOM     62  F   UNL A   1      45.891  33.490  26.109  1.00  0.00    -0.206 F 
ATOM     63  C   UNL A   1      46.589  35.231  27.520  1.00  0.00     0.059 A 
ATOM     64  C   UNL A   1      47.145  34.761  29.837  1.00  0.00     0.059 A 
ATOM     65  F   UNL A   1      47.006  32.561  30.642  1.00  0.00    -0.206 F 
ATOM     66  C   UNL A   1      47.011  35.660  28.781  1.00  0.00     0.060 A 
BRANCH  66  67
ATOM     67  S   UNL A   1      47.355  37.416  29.026  1.00  0.00     0.124 S 
ATOM     68  O   UNL A   1      48.009  37.407  30.331  1.00  0.00    -0.237 OA
ATOM     69  O   UNL A   1      48.215  37.727  27.888  1.00  0.00    -0.237 OA
ATOM     70  O   UNL A   1      46.031  38.030  28.993  1.00  0.00    -0.744 OA
ENDBRANCH  66  67
ENDBRANCH  45  59
BRANCH  46  71
ATOM     71  C   UNL A   1      43.397  23.537  26.988  1.00  0.00     0.058 A 
ATOM     72  C   UNL A   1      43.083  23.104  25.692  1.00  0.00     0.135 A 
ATOM     73  C   UNL A   1      43.249  22.617  28.038  1.00  0.00     0.135 A 
ATOM     74  F   UNL A   1      43.200  23.948  24.655  1.00  0.00    -0.206 F 
ATOM     75  C   UNL A   1      42.612  21.817  25.447  1.00  0.00     0.059 A 
ATOM     76  C   UNL A   1      42.803  21.318  27.815  1.00  0.00     0.059 A 
ATOM     77  F   UNL A   1      43.548  22.978  29.295  1.00  0.00    -0.206 F 
ATOM     78  C   UNL A   1      42.471  20.933  26.517  1.00  0.00     0.060 A 
BRANCH  78  79
ATOM     79  S   UNL A   1      41.878  19.258  26.192  1.00  0.00     0.124 S 
ATOM     80  O   UNL A   1      42.707  18.870  25.057  1.00  0.00    -0.237 OA
ATOM     81  O   UNL A   1      42.163  18.579  27.453  1.00  0.00    -0.237 OA
ATOM     82  O   UNL A   1      40.461  19.457  25.904  1.00  0.00    -0.744 OA
ENDBRANCH  78  79
ENDBRANCH  46  71
BRANCH  58  83
ATOM     83  C   UNL A   1      49.528  26.787  26.311  1.00  0.00     0.058 A 
ATOM     84  C   UNL A   1      49.969  26.904  24.985  1.00  0.00     0.135 A 
ATOM     85  C   UNL A   1      50.421  26.260  27.258  1.00  0.00     0.135 A 
ATOM     86  F   UNL A   1      49.151  27.397  24.041  1.00  0.00    -0.206 F 
ATOM     87  C   UNL A   1      51.242  26.494  24.605  1.00  0.00     0.059 A 
ATOM     88  C   UNL A   1      51.708  25.865  26.906  1.00  0.00     0.059 A 
ATOM     89  F   UNL A   1      50.051  26.138  28.542  1.00  0.00    -0.206 F 
ATOM     90  C   UNL A   1      52.105  25.976  25.573  1.00  0.00     0.060 A 
BRANCH  90  91
ATOM     91  S   UNL A   1      53.769  25.476  25.076  1.00  0.00     0.124 S 
ATOM     92  O   UNL A   1      53.674  24.022  25.156  1.00  0.00    -0.237 OA
ATOM     93  O   UNL A   1      53.875  26.031  23.731  1.00  0.00    -0.237 OA
ATOM     94  O   UNL A   1      54.624  26.106  26.077  1.00  0.00    -0.744 OA
ENDBRANCH  90  91
ENDBRANCH  58  83
ENDBRANCH  32  33
ENDBRANCH  25  27
ENDBRANCH  24  25
ENDBRANCH  23  24
ENDBRANCH   1  23
TORSDOF 19
ENDMDL
