MODEL 1
REMARK VINA RESULT:      -9.5      0.000      0.000
REMARK SMILES CC(C)[C@](C)(CC(=O)NC#N)C(=O)OCCOCCOC(=O)c1ccc(-c2c3nc(c(-c4c(F)cc(S(=O)(=O)[O-])cc4F)c4ccc([nH]4)c(-c4c(F)cc(S(=O)(=O)[O-])cc4F)c4nc(c(-c5c(F)cc(S(=O)(=O)[O-])cc5F)c5ccc2[nH]5)C=C4)C=C3)cc1
REMARK SMILES IDX 17 1 16 2 15 3 14 4 12 5 13 6 4 7 5 8 2 9 1 10 3 11 6 12
REMARK SMILES IDX 7 13 8 14 9 15 10 17 11 18 18 19 19 20 20 21 21 22 22 23
REMARK SMILES IDX 23 24 24 25 88 26 25 27 87 28 26 29 27 30 28 31 81 32 29 33
REMARK SMILES IDX 86 34 80 35 82 36 30 37 85 38 79 39 78 40 31 42 65 43 44 44
REMARK SMILES IDX 64 45 45 46 48 47 63 48 83 49 46 50 47 51 62 53 84 54 49 55
REMARK SMILES IDX 32 56 33 57 42 58 34 59 35 60 41 61 43 62 36 63 37 64 38 65
REMARK SMILES IDX 39 66 40 67 66 68 67 69 76 70 68 71 69 72 75 73 77 74 70 75
REMARK SMILES IDX 71 76 72 77 73 78 74 79 50 80 51 81 60 82 52 83 53 84 59 85
REMARK SMILES IDX 61 86 54 87 55 88 56 89 57 90 58 91
REMARK H PARENT 9 16 82 41 48 52
REMARK Flexibility Score: inf
ROOT
ATOM      1  O   UNL A   1      33.139  30.475  26.736  1.00  0.00    -0.374 OA
ENDROOT
BRANCH   1   2
ATOM      2  C   UNL A   1      32.274  29.384  27.032  1.00  0.00     0.202 C 
BRANCH   2   3
ATOM      3  C   UNL A   1      31.808  28.479  25.883  1.00  0.00     0.261 C 
BRANCH   3   4
ATOM      4  O   UNL A   1      31.927  27.066  26.138  1.00  0.00    -0.463 OA
BRANCH   4   5
ATOM      5  C   UNL A   1      33.158  26.568  25.859  1.00  0.00     0.312 C 
ATOM      6  O   UNL A   1      34.198  27.199  26.028  1.00  0.00    -0.252 OA
BRANCH   5   7
ATOM      7  C   UNL A   1      33.156  25.151  25.248  1.00  0.00     0.076 C 
ATOM      8  C   UNL A   1      34.161  24.363  26.104  1.00  0.00     0.024 C 
BRANCH   7   9
ATOM      9  C   UNL A   1      33.685  25.402  23.761  1.00  0.00     0.000 C 
ATOM     10  C   UNL A   1      33.876  24.114  22.945  1.00  0.00     0.008 C 
ATOM     11  C   UNL A   1      32.866  26.383  22.911  1.00  0.00     0.008 C 
ENDBRANCH   7   9
BRANCH   7  12
ATOM     12  C   UNL A   1      31.779  24.421  25.206  1.00  0.00     0.119 C 
BRANCH  12  13
ATOM     13  C   UNL A   1      31.215  23.507  26.289  1.00  0.00     0.234 C 
ATOM     14  O   UNL A   1      30.522  23.979  27.195  1.00  0.00    -0.274 OA
ATOM     15  N   UNL A   1      31.284  22.153  26.235  1.00  0.00    -0.263 N 
ATOM     16  H   UNL A   1      30.875  21.743  27.032  1.00  0.00     0.182 HD
BRANCH  15  17
ATOM     17  C   UNL A   1      31.752  21.226  25.397  1.00  0.00     0.183 C 
ATOM     18  N   UNL A   1      32.144  20.372  24.717  1.00  0.00    -0.172 NA
ENDBRANCH  15  17
ENDBRANCH  12  13
ENDBRANCH   7  12
ENDBRANCH   5   7
ENDBRANCH   4   5
ENDBRANCH   3   4
ENDBRANCH   2   3
ENDBRANCH   1   2
BRANCH   1  19
ATOM     19  C   UNL A   1      33.724  31.188  27.822  1.00  0.00     0.202 C 
BRANCH  19  20
ATOM     20  C   UNL A   1      35.239  31.085  28.032  1.00  0.00     0.261 C 
BRANCH  20  21
ATOM     21  O   UNL A   1      35.639  29.785  28.503  1.00  0.00    -0.460 OA
BRANCH  21  22
ATOM     22  C   UNL A   1      36.359  29.808  29.648  1.00  0.00     0.338 C 
ATOM     23  O   UNL A   1      35.941  29.635  30.781  1.00  0.00    -0.246 OA
BRANCH  22  24
ATOM     24  C   UNL A   1      37.802  29.859  29.358  1.00  0.00     0.060 A 
ATOM     25  C   UNL A   1      38.185  29.739  28.016  1.00  0.00     0.016 A 
ATOM     26  C   UNL A   1      38.756  29.851  30.375  1.00  0.00     0.016 A 
ATOM     27  C   UNL A   1      39.520  29.539  27.688  1.00  0.00     0.010 A 
ATOM     28  C   UNL A   1      40.101  29.643  30.042  1.00  0.00     0.010 A 
ATOM     29  C   UNL A   1      40.482  29.438  28.702  1.00  0.00    -0.014 A 
BRANCH  29  30
ATOM     30  C   UNL A   1      41.850  28.978  28.354  1.00  0.00     0.031 A 
ATOM     31  C   UNL A   1      42.985  29.968  28.362  1.00  0.00     0.074 A 
ATOM     32  C   UNL A   1      42.085  27.679  28.096  1.00  0.00     0.049 A 
ATOM     33  N   UNL A   1      44.249  29.781  28.081  1.00  0.00    -0.248 NA
ATOM     34  C   UNL A   1      42.653  31.352  28.737  1.00  0.00     0.031 C 
ATOM     35  C   UNL A   1      41.075  26.622  28.114  1.00  0.00     0.029 A 
ATOM     36  N   UNL A   1      43.248  27.028  27.769  1.00  0.00    -0.354 N 
ATOM     37  C   UNL A   1      44.859  31.023  28.228  1.00  0.00     0.074 A 
ATOM     38  C   UNL A   1      43.822  31.960  28.598  1.00  0.00     0.031 C 
ATOM     39  C   UNL A   1      41.662  25.453  27.809  1.00  0.00     0.029 A 
ATOM     40  C   UNL A   1      43.078  25.685  27.533  1.00  0.00     0.049 A 
ATOM     41  H   UNL A   1      44.120  27.480  27.710  1.00  0.00     0.167 HD
ATOM     42  C   UNL A   1      46.166  31.347  28.073  1.00  0.00     0.037 A 
ATOM     43  C   UNL A   1      43.959  24.754  27.115  1.00  0.00     0.037 A 
ATOM     44  C   UNL A   1      47.190  30.401  27.710  1.00  0.00     0.049 A 
ATOM     45  C   UNL A   1      45.392  25.155  26.878  1.00  0.00     0.074 A 
ATOM     46  C   UNL A   1      48.548  30.622  27.554  1.00  0.00     0.029 A 
ATOM     47  N   UNL A   1      46.973  29.058  27.435  1.00  0.00    -0.354 N 
ATOM     48  N   UNL A   1      45.960  26.326  27.042  1.00  0.00    -0.248 NA
ATOM     49  C   UNL A   1      46.306  24.108  26.401  1.00  0.00     0.031 C 
ATOM     50  C   UNL A   1      49.138  29.433  27.116  1.00  0.00     0.029 A 
ATOM     51  C   UNL A   1      48.164  28.448  27.074  1.00  0.00     0.049 A 
ATOM     52  H   UNL A   1      46.100  28.605  27.489  1.00  0.00     0.167 HD
ATOM     53  C   UNL A   1      47.303  26.148  26.722  1.00  0.00     0.074 A 
ATOM     54  C   UNL A   1      47.463  24.754  26.366  1.00  0.00     0.031 C 
ATOM     55  C   UNL A   1      48.312  27.056  26.727  1.00  0.00     0.037 A 
BRANCH  42  56
ATOM     56  C   UNL A   1      46.561  32.790  28.255  1.00  0.00     0.058 A 
ATOM     57  C   UNL A   1      46.489  33.724  27.210  1.00  0.00     0.135 A 
ATOM     58  C   UNL A   1      46.976  33.254  29.516  1.00  0.00     0.135 A 
ATOM     59  F   UNL A   1      46.113  33.336  25.981  1.00  0.00    -0.206 F 
ATOM     60  C   UNL A   1      46.840  35.058  27.400  1.00  0.00     0.059 A 
ATOM     61  C   UNL A   1      47.300  34.590  29.736  1.00  0.00     0.059 A 
ATOM     62  F   UNL A   1      47.065  32.407  30.553  1.00  0.00    -0.206 F 
ATOM     63  C   UNL A   1      47.242  35.482  28.668  1.00  0.00     0.060 A 
BRANCH  63  64
ATOM     64  S   UNL A   1      47.685  37.217  28.898  1.00  0.00     0.124 S 
ATOM     65  O   UNL A   1      48.589  37.439  27.774  1.00  0.00    -0.237 OA
ATOM     66  O   UNL A   1      46.389  37.882  28.810  1.00  0.00    -0.237 OA
ATOM     67  O   UNL A   1      48.309  37.238  30.217  1.00  0.00    -0.744 OA
ENDBRANCH  63  64
ENDBRANCH  42  56
BRANCH  43  68
ATOM     68  C   UNL A   1      43.509  23.355  26.884  1.00  0.00     0.058 A 
ATOM     69  C   UNL A   1      43.312  22.860  25.588  1.00  0.00     0.135 A 
ATOM     70  C   UNL A   1      43.267  22.484  27.960  1.00  0.00     0.135 A 
ATOM     71  F   UNL A   1      43.518  23.655  24.527  1.00  0.00    -0.206 F 
ATOM     72  C   UNL A   1      42.876  21.557  25.363  1.00  0.00     0.059 A 
ATOM     73  C   UNL A   1      42.862  21.168  27.759  1.00  0.00     0.059 A 
ATOM     74  F   UNL A   1      43.450  22.904  29.221  1.00  0.00    -0.206 F 
ATOM     75  C   UNL A   1      42.660  20.717  26.457  1.00  0.00     0.060 A 
BRANCH  75  76
ATOM     76  S   UNL A   1      42.145  19.014  26.151  1.00  0.00     0.124 S 
ATOM     77  O   UNL A   1      43.014  18.638  25.042  1.00  0.00    -0.237 OA
ATOM     78  O   UNL A   1      42.429  18.375  27.433  1.00  0.00    -0.237 OA
ATOM     79  O   UNL A   1      40.728  19.146  25.825  1.00  0.00    -0.744 OA
ENDBRANCH  75  76
ENDBRANCH  43  68
BRANCH  55  80
ATOM     80  C   UNL A   1      49.693  26.564  26.380  1.00  0.00     0.058 A 
ATOM     81  C   UNL A   1      50.253  26.752  25.106  1.00  0.00     0.135 A 
ATOM     82  C   UNL A   1      50.489  25.942  27.357  1.00  0.00     0.135 A 
ATOM     83  F   UNL A   1      49.537  27.335  24.132  1.00  0.00    -0.206 F 
ATOM     84  C   UNL A   1      51.540  26.316  24.806  1.00  0.00     0.059 A 
ATOM     85  C   UNL A   1      51.791  25.530  27.089  1.00  0.00     0.059 A 
ATOM     86  F   UNL A   1      50.009  25.746  28.596  1.00  0.00    -0.206 F 
ATOM     87  C   UNL A   1      52.303  25.709  25.806  1.00  0.00     0.060 A 
BRANCH  87  88
ATOM     88  S   UNL A   1      53.983  25.180  25.410  1.00  0.00     0.124 S 
ATOM     89  O   UNL A   1      54.119  25.636  24.031  1.00  0.00    -0.237 OA
ATOM     90  O   UNL A   1      54.778  25.903  26.398  1.00  0.00    -0.237 OA
ATOM     91  O   UNL A   1      53.936  23.732  25.591  1.00  0.00    -0.744 OA
ENDBRANCH  87  88
ENDBRANCH  55  80
ENDBRANCH  29  30
ENDBRANCH  22  24
ENDBRANCH  21  22
ENDBRANCH  20  21
ENDBRANCH  19  20
ENDBRANCH   1  19
TORSDOF 21
ENDMDL
MODEL 2
REMARK VINA RESULT:      -9.3      3.010      3.939
REMARK SMILES CC(C)[C@](C)(CC(=O)NC#N)C(=O)OCCOCCOC(=O)c1ccc(-c2c3nc(c(-c4c(F)cc(S(=O)(=O)[O-])cc4F)c4ccc([nH]4)c(-c4c(F)cc(S(=O)(=O)[O-])cc4F)c4nc(c(-c5c(F)cc(S(=O)(=O)[O-])cc5F)c5ccc2[nH]5)C=C4)C=C3)cc1
REMARK SMILES IDX 17 1 16 2 15 3 14 4 12 5 13 6 4 7 5 8 2 9 1 10 3 11 6 12
REMARK SMILES IDX 7 13 8 14 9 15 10 17 11 18 18 19 19 20 20 21 21 22 22 23
REMARK SMILES IDX 23 24 24 25 88 26 25 27 87 28 26 29 27 30 28 31 81 32 29 33
REMARK SMILES IDX 86 34 80 35 82 36 30 37 85 38 79 39 78 40 31 42 65 43 44 44
REMARK SMILES IDX 64 45 45 46 48 47 63 48 83 49 46 50 47 51 62 53 84 54 49 55
REMARK SMILES IDX 32 56 33 57 42 58 34 59 35 60 41 61 43 62 36 63 37 64 38 65
REMARK SMILES IDX 39 66 40 67 66 68 67 69 76 70 68 71 69 72 75 73 77 74 70 75
REMARK SMILES IDX 71 76 72 77 73 78 74 79 50 80 51 81 60 82 52 83 53 84 59 85
REMARK SMILES IDX 61 86 54 87 55 88 56 89 57 90 58 91
REMARK H PARENT 9 16 82 41 48 52
REMARK Flexibility Score: inf
ROOT
ATOM      1  O   UNL A   1      31.388  29.437  25.709  1.00  0.00    -0.374 OA
ENDROOT
BRANCH   1   2
ATOM      2  C   UNL A   1      31.474  28.959  24.370  1.00  0.00     0.202 C 
BRANCH   2   3
ATOM      3  C   UNL A   1      32.615  27.999  24.002  1.00  0.00     0.261 C 
BRANCH   3   4
ATOM      4  O   UNL A   1      32.238  26.921  23.124  1.00  0.00    -0.463 OA
BRANCH   4   5
ATOM      5  C   UNL A   1      33.186  25.956  23.018  1.00  0.00     0.312 C 
ATOM      6  O   UNL A   1      33.964  25.871  22.071  1.00  0.00    -0.252 OA
BRANCH   5   7
ATOM      7  C   UNL A   1      33.179  24.917  24.160  1.00  0.00     0.076 C 
ATOM      8  C   UNL A   1      33.747  25.675  25.371  1.00  0.00     0.024 C 
BRANCH   7   9
ATOM      9  C   UNL A   1      34.176  23.788  23.623  1.00  0.00     0.000 C 
ATOM     10  C   UNL A   1      35.526  23.754  24.355  1.00  0.00     0.008 C 
ATOM     11  C   UNL A   1      33.618  22.358  23.591  1.00  0.00     0.008 C 
ENDBRANCH   7   9
BRANCH   7  12
ATOM     12  C   UNL A   1      31.797  24.284  24.507  1.00  0.00     0.119 C 
BRANCH  12  13
ATOM     13  C   UNL A   1      30.891  24.689  25.664  1.00  0.00     0.234 C 
ATOM     14  O   UNL A   1      31.218  24.426  26.825  1.00  0.00    -0.274 OA
ATOM     15  N   UNL A   1      29.803  25.487  25.519  1.00  0.00    -0.263 N 
ATOM     16  H   UNL A   1      29.342  25.623  26.378  1.00  0.00     0.182 HD
BRANCH  15  17
ATOM     17  C   UNL A   1      29.188  26.139  24.529  1.00  0.00     0.183 C 
ATOM     18  N   UNL A   1      28.673  26.764  23.700  1.00  0.00    -0.172 NA
ENDBRANCH  15  17
ENDBRANCH  12  13
ENDBRANCH   7  12
ENDBRANCH   5   7
ENDBRANCH   4   5
ENDBRANCH   3   4
ENDBRANCH   2   3
ENDBRANCH   1   2
BRANCH   1  19
ATOM     19  C   UNL A   1      31.797  30.776  25.975  1.00  0.00     0.202 C 
BRANCH  19  20
ATOM     20  C   UNL A   1      32.707  31.035  27.181  1.00  0.00     0.261 C 
BRANCH  20  21
ATOM     21  O   UNL A   1      34.065  30.627  26.940  1.00  0.00    -0.460 OA
BRANCH  21  22
ATOM     22  C   UNL A   1      34.433  29.505  27.601  1.00  0.00     0.338 C 
ATOM     23  O   UNL A   1      33.822  28.450  27.650  1.00  0.00    -0.246 OA
BRANCH  22  24
ATOM     24  C   UNL A   1      35.810  29.623  28.106  1.00  0.00     0.060 A 
ATOM     25  C   UNL A   1      36.804  29.945  27.174  1.00  0.00     0.016 A 
ATOM     26  C   UNL A   1      36.146  29.265  29.411  1.00  0.00     0.016 A 
ATOM     27  C   UNL A   1      38.146  29.841  27.522  1.00  0.00     0.010 A 
ATOM     28  C   UNL A   1      37.499  29.155  29.758  1.00  0.00     0.010 A 
ATOM     29  C   UNL A   1      38.504  29.396  28.801  1.00  0.00    -0.014 A 
BRANCH  29  30
ATOM     30  C   UNL A   1      39.922  29.053  29.073  1.00  0.00     0.031 A 
ATOM     31  C   UNL A   1      40.810  30.065  29.749  1.00  0.00     0.074 A 
ATOM     32  C   UNL A   1      40.394  27.828  28.777  1.00  0.00     0.049 A 
ATOM     33  N   UNL A   1      42.075  29.975  30.068  1.00  0.00    -0.248 NA
ATOM     34  C   UNL A   1      40.189  31.349  30.113  1.00  0.00     0.031 C 
ATOM     35  C   UNL A   1      39.613  26.749  28.173  1.00  0.00     0.029 A 
ATOM     36  N   UNL A   1      41.644  27.286  28.945  1.00  0.00    -0.354 N 
ATOM     37  C   UNL A   1      42.406  31.193  30.654  1.00  0.00     0.074 A 
ATOM     38  C   UNL A   1      41.216  32.013  30.623  1.00  0.00     0.031 C 
ATOM     39  C   UNL A   1      40.403  25.673  28.019  1.00  0.00     0.029 A 
ATOM     40  C   UNL A   1      41.753  26.000  28.472  1.00  0.00     0.049 A 
ATOM     41  H   UNL A   1      42.390  27.772  29.364  1.00  0.00     0.167 HD
ATOM     42  C   UNL A   1      43.595  31.584  31.176  1.00  0.00     0.037 A 
ATOM     43  C   UNL A   1      42.826  25.189  28.391  1.00  0.00     0.037 A 
ATOM     44  C   UNL A   1      44.772  30.754  31.207  1.00  0.00     0.049 A 
ATOM     45  C   UNL A   1      44.155  25.676  28.910  1.00  0.00     0.074 A 
ATOM     46  C   UNL A   1      46.016  31.047  31.736  1.00  0.00     0.029 A 
ATOM     47  N   UNL A   1      44.856  29.473  30.678  1.00  0.00    -0.354 N 
ATOM     48  N   UNL A   1      44.450  26.819  29.481  1.00  0.00    -0.248 NA
ATOM     49  C   UNL A   1      45.297  24.761  28.775  1.00  0.00     0.031 C 
ATOM     50  C   UNL A   1      46.872  29.974  31.464  1.00  0.00     0.029 A 
ATOM     51  C   UNL A   1      46.142  28.979  30.835  1.00  0.00     0.049 A 
ATOM     52  H   UNL A   1      44.112  28.987  30.253  1.00  0.00     0.167 HD
ATOM     53  C   UNL A   1      45.802  26.748  29.805  1.00  0.00     0.074 A 
ATOM     54  C   UNL A   1      46.262  25.444  29.376  1.00  0.00     0.031 C 
ATOM     55  C   UNL A   1      46.588  27.675  30.408  1.00  0.00     0.037 A 
BRANCH  42  56
ATOM     56  C   UNL A   1      43.698  32.986  31.720  1.00  0.00     0.058 A 
ATOM     57  C   UNL A   1      43.440  33.288  33.067  1.00  0.00     0.135 A 
ATOM     58  C   UNL A   1      44.108  34.039  30.885  1.00  0.00     0.135 A 
ATOM     59  F   UNL A   1      43.031  32.325  33.909  1.00  0.00    -0.206 F 
ATOM     60  C   UNL A   1      43.558  34.585  33.558  1.00  0.00     0.059 A 
ATOM     61  C   UNL A   1      44.264  35.337  31.362  1.00  0.00     0.059 A 
ATOM     62  F   UNL A   1      44.368  33.812  29.588  1.00  0.00    -0.206 F 
ATOM     63  C   UNL A   1      43.973  35.603  32.699  1.00  0.00     0.060 A 
BRANCH  63  64
ATOM     64  S   UNL A   1      44.129  37.278  33.354  1.00  0.00     0.124 S 
ATOM     65  O   UNL A   1      44.439  38.036  32.147  1.00  0.00    -0.237 OA
ATOM     66  O   UNL A   1      42.807  37.511  33.926  1.00  0.00    -0.237 OA
ATOM     67  O   UNL A   1      45.216  37.166  34.322  1.00  0.00    -0.744 OA
ENDBRANCH  63  64
ENDBRANCH  42  56
BRANCH  43  68
ATOM     68  C   UNL A   1      42.692  23.837  27.784  1.00  0.00     0.058 A 
ATOM     69  C   UNL A   1      42.768  23.652  26.396  1.00  0.00     0.135 A 
ATOM     70  C   UNL A   1      42.484  22.700  28.583  1.00  0.00     0.135 A 
ATOM     71  F   UNL A   1      42.954  24.707  25.588  1.00  0.00    -0.206 F 
ATOM     72  C   UNL A   1      42.629  22.393  25.819  1.00  0.00     0.059 A 
ATOM     73  C   UNL A   1      42.373  21.428  28.032  1.00  0.00     0.059 A 
ATOM     74  F   UNL A   1      42.412  22.819  29.918  1.00  0.00    -0.206 F 
ATOM     75  C   UNL A   1      42.437  21.287  26.648  1.00  0.00     0.060 A 
BRANCH  75  76
ATOM     76  S   UNL A   1      42.308  19.653  25.891  1.00  0.00     0.124 S 
ATOM     77  O   UNL A   1      40.915  19.637  25.458  1.00  0.00    -0.237 OA
ATOM     78  O   UNL A   1      43.307  19.730  24.829  1.00  0.00    -0.237 OA
ATOM     79  O   UNL A   1      42.638  18.747  26.987  1.00  0.00    -0.744 OA
ENDBRANCH  75  76
ENDBRANCH  43  68
BRANCH  55  80
ATOM     80  C   UNL A   1      48.021  27.301  30.682  1.00  0.00     0.058 A 
ATOM     81  C   UNL A   1      48.408  26.648  31.863  1.00  0.00     0.135 A 
ATOM     82  C   UNL A   1      49.015  27.554  29.722  1.00  0.00     0.135 A 
ATOM     83  F   UNL A   1      47.502  26.385  32.819  1.00  0.00    -0.206 F 
ATOM     84  C   UNL A   1      49.731  26.284  32.094  1.00  0.00     0.059 A 
ATOM     85  C   UNL A   1      50.337  27.168  29.916  1.00  0.00     0.059 A 
ATOM     86  F   UNL A   1      48.701  28.167  28.569  1.00  0.00    -0.206 F 
ATOM     87  C   UNL A   1      50.689  26.546  31.112  1.00  0.00     0.060 A 
BRANCH  87  88
ATOM     88  S   UNL A   1      52.395  26.038  31.411  1.00  0.00     0.124 S 
ATOM     89  O   UNL A   1      52.213  24.693  31.946  1.00  0.00    -0.237 OA
ATOM     90  O   UNL A   1      52.982  26.116  30.077  1.00  0.00    -0.237 OA
ATOM     91  O   UNL A   1      52.884  27.030  32.363  1.00  0.00    -0.744 OA
ENDBRANCH  87  88
ENDBRANCH  55  80
ENDBRANCH  29  30
ENDBRANCH  22  24
ENDBRANCH  21  22
ENDBRANCH  20  21
ENDBRANCH  19  20
ENDBRANCH   1  19
TORSDOF 21
ENDMDL
MODEL 3
REMARK VINA RESULT:      -9.3      1.550      2.317
REMARK SMILES CC(C)[C@](C)(CC(=O)NC#N)C(=O)OCCOCCOC(=O)c1ccc(-c2c3nc(c(-c4c(F)cc(S(=O)(=O)[O-])cc4F)c4ccc([nH]4)c(-c4c(F)cc(S(=O)(=O)[O-])cc4F)c4nc(c(-c5c(F)cc(S(=O)(=O)[O-])cc5F)c5ccc2[nH]5)C=C4)C=C3)cc1
REMARK SMILES IDX 17 1 16 2 15 3 14 4 12 5 13 6 4 7 5 8 2 9 1 10 3 11 6 12
REMARK SMILES IDX 7 13 8 14 9 15 10 17 11 18 18 19 19 20 20 21 21 22 22 23
REMARK SMILES IDX 23 24 24 25 88 26 25 27 87 28 26 29 27 30 28 31 81 32 29 33
REMARK SMILES IDX 86 34 80 35 82 36 30 37 85 38 79 39 78 40 31 42 65 43 44 44
REMARK SMILES IDX 64 45 45 46 48 47 63 48 83 49 46 50 47 51 62 53 84 54 49 55
REMARK SMILES IDX 32 56 33 57 42 58 34 59 35 60 41 61 43 62 36 63 37 64 38 65
REMARK SMILES IDX 39 66 40 67 66 68 67 69 76 70 68 71 69 72 75 73 77 74 70 75
REMARK SMILES IDX 71 76 72 77 73 78 74 79 50 80 51 81 60 82 52 83 53 84 59 85
REMARK SMILES IDX 61 86 54 87 55 88 56 89 57 90 58 91
REMARK H PARENT 9 16 82 41 48 52
REMARK Flexibility Score: inf
ROOT
ATOM      1  O   UNL A   1      34.733  30.770  27.484  1.00  0.00    -0.374 OA
ENDROOT
BRANCH   1   2
ATOM      2  C   UNL A   1      33.453  30.165  27.333  1.00  0.00     0.202 C 
BRANCH   2   3
ATOM      3  C   UNL A   1      33.368  28.635  27.234  1.00  0.00     0.261 C 
BRANCH   3   4
ATOM      4  O   UNL A   1      32.827  28.138  25.995  1.00  0.00    -0.463 OA
BRANCH   4   5
ATOM      5  C   UNL A   1      31.914  27.148  26.162  1.00  0.00     0.312 C 
ATOM      6  O   UNL A   1      31.146  27.089  27.118  1.00  0.00    -0.252 OA
BRANCH   5   7
ATOM      7  C   UNL A   1      31.949  26.050  25.079  1.00  0.00     0.076 C 
ATOM      8  C   UNL A   1      31.578  24.759  25.828  1.00  0.00     0.024 C 
BRANCH   7   9
ATOM      9  C   UNL A   1      33.475  26.063  24.604  1.00  0.00     0.000 C 
ATOM     10  C   UNL A   1      34.401  25.190  25.464  1.00  0.00     0.008 C 
ATOM     11  C   UNL A   1      33.726  25.709  23.130  1.00  0.00     0.008 C 
ENDBRANCH   7   9
BRANCH   7  12
ATOM     12  C   UNL A   1      31.009  26.262  23.852  1.00  0.00     0.119 C 
BRANCH  12  13
ATOM     13  C   UNL A   1      29.559  26.729  23.905  1.00  0.00     0.234 C 
ATOM     14  O   UNL A   1      28.769  26.200  24.692  1.00  0.00    -0.274 OA
ATOM     15  N   UNL A   1      29.102  27.826  23.250  1.00  0.00    -0.263 N 
ATOM     16  H   UNL A   1      28.137  27.955  23.399  1.00  0.00     0.182 HD
BRANCH  15  17
ATOM     17  C   UNL A   1      29.603  28.779  22.462  1.00  0.00     0.183 C 
ATOM     18  N   UNL A   1      30.062  29.639  21.834  1.00  0.00    -0.172 NA
ENDBRANCH  15  17
ENDBRANCH  12  13
ENDBRANCH   7  12
ENDBRANCH   5   7
ENDBRANCH   4   5
ENDBRANCH   3   4
ENDBRANCH   2   3
ENDBRANCH   1   2
BRANCH   1  19
ATOM     19  C   UNL A   1      34.819  32.000  28.198  1.00  0.00     0.202 C 
BRANCH  19  20
ATOM     20  C   UNL A   1      36.085  32.284  29.014  1.00  0.00     0.261 C 
BRANCH  20  21
ATOM     21  O   UNL A   1      36.053  31.658  30.310  1.00  0.00    -0.460 OA
BRANCH  21  22
ATOM     22  C   UNL A   1      36.576  30.411  30.336  1.00  0.00     0.338 C 
ATOM     23  O   UNL A   1      35.976  29.368  30.534  1.00  0.00    -0.246 OA
BRANCH  22  24
ATOM     24  C   UNL A   1      37.974  30.421  29.873  1.00  0.00     0.060 A 
ATOM     25  C   UNL A   1      38.211  30.005  28.557  1.00  0.00     0.016 A 
ATOM     26  C   UNL A   1      39.034  30.664  30.745  1.00  0.00     0.016 A 
ATOM     27  C   UNL A   1      39.509  29.759  28.127  1.00  0.00     0.010 A 
ATOM     28  C   UNL A   1      40.342  30.411  30.311  1.00  0.00     0.010 A 
ATOM     29  C   UNL A   1      40.581  29.912  29.016  1.00  0.00    -0.014 A 
BRANCH  29  30
ATOM     30  C   UNL A   1      41.921  29.410  28.621  1.00  0.00     0.031 A 
ATOM     31  C   UNL A   1      43.089  30.361  28.603  1.00  0.00     0.074 A 
ATOM     32  C   UNL A   1      42.104  28.107  28.343  1.00  0.00     0.049 A 
ATOM     33  N   UNL A   1      44.336  30.136  28.280  1.00  0.00    -0.248 NA
ATOM     34  C   UNL A   1      42.815  31.752  29.001  1.00  0.00     0.031 C 
ATOM     35  C   UNL A   1      41.060  27.084  28.383  1.00  0.00     0.029 A 
ATOM     36  N   UNL A   1      43.234  27.421  27.973  1.00  0.00    -0.354 N 
ATOM     37  C   UNL A   1      44.991  31.355  28.419  1.00  0.00     0.074 A 
ATOM     38  C   UNL A   1      43.999  32.322  28.831  1.00  0.00     0.031 C 
ATOM     39  C   UNL A   1      41.597  25.899  28.048  1.00  0.00     0.029 A 
ATOM     40  C   UNL A   1      43.012  26.087  27.730  1.00  0.00     0.049 A 
ATOM     41  H   UNL A   1      44.118  27.844  27.891  1.00  0.00     0.167 HD
ATOM     42  C   UNL A   1      46.303  31.636  28.227  1.00  0.00     0.037 A 
ATOM     43  C   UNL A   1      43.847  25.132  27.276  1.00  0.00     0.037 A 
ATOM     44  C   UNL A   1      47.284  30.661  27.823  1.00  0.00     0.049 A 
ATOM     45  C   UNL A   1      45.285  25.487  26.998  1.00  0.00     0.074 A 
ATOM     46  C   UNL A   1      48.642  30.838  27.626  1.00  0.00     0.029 A 
ATOM     47  N   UNL A   1      47.013  29.329  27.542  1.00  0.00    -0.354 N 
ATOM     48  N   UNL A   1      45.897  26.637  27.155  1.00  0.00    -0.248 NA
ATOM     49  C   UNL A   1      46.148  24.415  26.483  1.00  0.00     0.031 C 
ATOM     50  C   UNL A   1      49.179  29.635  27.158  1.00  0.00     0.029 A 
ATOM     51  C   UNL A   1      48.171  28.684  27.138  1.00  0.00     0.049 A 
ATOM     52  H   UNL A   1      46.127  28.905  27.619  1.00  0.00     0.167 HD
ATOM     53  C   UNL A   1      47.223  26.418  26.791  1.00  0.00     0.074 A 
ATOM     54  C   UNL A   1      47.324  25.022  26.418  1.00  0.00     0.031 C 
ATOM     55  C   UNL A   1      48.262  27.291  26.773  1.00  0.00     0.037 A 
BRANCH  42  56
ATOM     56  C   UNL A   1      46.752  33.063  28.410  1.00  0.00     0.058 A 
ATOM     57  C   UNL A   1      47.257  33.539  29.630  1.00  0.00     0.135 A 
ATOM     58  C   UNL A   1      46.718  33.959  27.327  1.00  0.00     0.135 A 
ATOM     59  F   UNL A   1      47.301  32.734  30.704  1.00  0.00    -0.206 F 
ATOM     60  C   UNL A   1      47.685  34.856  29.778  1.00  0.00     0.059 A 
ATOM     61  C   UNL A   1      47.171  35.270  27.443  1.00  0.00     0.059 A 
ATOM     62  F   UNL A   1      46.245  33.561  26.135  1.00  0.00    -0.206 F 
ATOM     63  C   UNL A   1      47.641  35.713  28.678  1.00  0.00     0.060 A 
BRANCH  63  64
ATOM     64  S   UNL A   1      48.207  37.415  28.884  1.00  0.00     0.124 S 
ATOM     65  O   UNL A   1      49.445  37.221  29.634  1.00  0.00    -0.237 OA
ATOM     66  O   UNL A   1      48.366  37.859  27.503  1.00  0.00    -0.237 OA
ATOM     67  O   UNL A   1      47.120  38.050  29.622  1.00  0.00    -0.744 OA
ENDBRANCH  63  64
ENDBRANCH  42  56
BRANCH  43  68
ATOM     68  C   UNL A   1      43.344  23.751  27.046  1.00  0.00     0.058 A 
ATOM     69  C   UNL A   1      43.146  22.862  28.113  1.00  0.00     0.135 A 
ATOM     70  C   UNL A   1      43.049  23.291  25.752  1.00  0.00     0.135 A 
ATOM     71  F   UNL A   1      43.424  23.248  29.368  1.00  0.00    -0.206 F 
ATOM     72  C   UNL A   1      42.689  21.564  27.906  1.00  0.00     0.059 A 
ATOM     73  C   UNL A   1      42.561  22.010  25.523  1.00  0.00     0.059 A 
ATOM     74  F   UNL A   1      43.210  24.104  24.696  1.00  0.00    -0.206 F 
ATOM     75  C   UNL A   1      42.394  21.150  26.606  1.00  0.00     0.060 A 
BRANCH  75  76
ATOM     76  S   UNL A   1      41.754  19.480  26.356  1.00  0.00     0.124 S 
ATOM     77  O   UNL A   1      42.450  19.077  25.140  1.00  0.00    -0.237 OA
ATOM     78  O   UNL A   1      42.169  18.808  27.584  1.00  0.00    -0.237 OA
ATOM     79  O   UNL A   1      40.316  19.688  26.220  1.00  0.00    -0.744 OA
ENDBRANCH  75  76
ENDBRANCH  43  68
BRANCH  55  80
ATOM     80  C   UNL A   1      49.614  26.757  26.378  1.00  0.00     0.058 A 
ATOM     81  C   UNL A   1      50.136  26.933  25.087  1.00  0.00     0.135 A 
ATOM     82  C   UNL A   1      50.421  26.105  27.326  1.00  0.00     0.135 A 
ATOM     83  F   UNL A   1      49.408  27.543  24.140  1.00  0.00    -0.206 F 
ATOM     84  C   UNL A   1      51.398  26.458  24.742  1.00  0.00     0.059 A 
ATOM     85  C   UNL A   1      51.699  25.653  27.013  1.00  0.00     0.059 A 
ATOM     86  F   UNL A   1      49.977  25.918  28.579  1.00  0.00    -0.206 F 
ATOM     87  C   UNL A   1      52.174  25.822  25.714  1.00  0.00     0.060 A 
BRANCH  87  88
ATOM     88  S   UNL A   1      53.822  25.241  25.260  1.00  0.00     0.124 S 
ATOM     89  O   UNL A   1      53.793  25.375  23.808  1.00  0.00    -0.237 OA
ATOM     90  O   UNL A   1      54.688  26.181  25.966  1.00  0.00    -0.237 OA
ATOM     91  O   UNL A   1      53.852  23.871  25.763  1.00  0.00    -0.744 OA
ENDBRANCH  87  88
ENDBRANCH  55  80
ENDBRANCH  29  30
ENDBRANCH  22  24
ENDBRANCH  21  22
ENDBRANCH  20  21
ENDBRANCH  19  20
ENDBRANCH   1  19
TORSDOF 21
ENDMDL
