MODEL 1
REMARK VINA RESULT:     -11.0      0.000      0.000
REMARK SMILES O=C(OCCOCCOC(=O)c1cc(OC[C@@H]2Cc3cc(F)ccc3O2)cs1)c1ccc(-c2c3nc(c(-c4c(F)cc(S(=O)(=O)[O-])cc4F)c4ccc([nH]4)c(-c4c(F)cc(S(=O)(=O)[O-])cc4F)c4nc(c(-c5c(F)cc(S(=O)(=O)[O-])cc5F)c5ccc2[nH]5)C=C4)C=C3)cc1
REMARK SMILES IDX 6 1 5 2 4 3 3 4 2 5 1 6 29 7 30 8 94 9 31 10 93 11 32 12
REMARK SMILES IDX 33 13 34 14 87 15 35 16 92 17 86 18 88 19 36 20 91 21 85 22
REMARK SMILES IDX 84 23 37 25 71 26 50 27 70 28 51 29 54 30 69 31 89 32 52 33
REMARK SMILES IDX 53 34 68 36 90 37 55 38 38 39 39 40 48 41 40 42 41 43 47 44
REMARK SMILES IDX 49 45 42 46 43 47 44 48 45 49 46 50 72 51 73 52 82 53 74 54
REMARK SMILES IDX 75 55 81 56 83 57 76 58 77 59 78 60 79 61 80 62 56 63 57 64
REMARK SMILES IDX 66 65 58 66 59 67 65 68 67 69 60 70 61 71 62 72 63 73 64 74
REMARK SMILES IDX 7 75 8 76 9 77 10 78 11 79 12 80 13 81 28 82 14 83 27 84
REMARK SMILES IDX 15 85 16 86 17 87 18 88 26 89 19 90 25 91 20 92 24 93 21 94
REMARK SMILES IDX 23 95 22 96
REMARK H PARENT 88 24 54 35
REMARK Flexibility Score: inf
ROOT
ATOM      1  O   UNL A   1      40.063  21.503  27.256  1.00  0.00    -0.374 OA
ENDROOT
BRANCH   1   2
ATOM      2  C   UNL A   1      41.354  22.087  27.435  1.00  0.00     0.202 C 
BRANCH   2   3
ATOM      3  C   UNL A   1      41.968  22.620  26.140  1.00  0.00     0.261 C 
BRANCH   3   4
ATOM      4  O   UNL A   1      42.431  23.967  26.318  1.00  0.00    -0.460 OA
BRANCH   4   5
ATOM      5  C   UNL A   1      41.747  25.130  26.229  1.00  0.00     0.338 C 
ATOM      6  O   UNL A   1      41.409  25.494  25.102  1.00  0.00    -0.246 OA
BRANCH   5   7
ATOM      7  C   UNL A   1      41.467  26.060  27.380  1.00  0.00     0.060 A 
ATOM      8  C   UNL A   1      42.369  27.131  27.543  1.00  0.00     0.016 A 
ATOM      9  C   UNL A   1      40.458  25.927  28.336  1.00  0.00     0.016 A 
ATOM     10  C   UNL A   1      42.282  28.006  28.633  1.00  0.00     0.010 A 
ATOM     11  C   UNL A   1      40.365  26.790  29.428  1.00  0.00     0.010 A 
ATOM     12  C   UNL A   1      41.279  27.828  29.587  1.00  0.00    -0.014 A 
BRANCH  12  13
ATOM     13  C   UNL A   1      41.088  28.773  30.702  1.00  0.00     0.031 A 
ATOM     14  C   UNL A   1      41.860  28.621  31.977  1.00  0.00     0.074 A 
ATOM     15  C   UNL A   1      40.112  29.688  30.576  1.00  0.00     0.049 A 
ATOM     16  N   UNL A   1      41.814  29.358  33.055  1.00  0.00    -0.248 NA
ATOM     17  C   UNL A   1      42.791  27.484  32.064  1.00  0.00     0.031 C 
ATOM     18  C   UNL A   1      39.249  29.833  29.400  1.00  0.00     0.029 A 
ATOM     19  N   UNL A   1      39.657  30.640  31.446  1.00  0.00    -0.354 N 
ATOM     20  C   UNL A   1      42.720  28.792  33.943  1.00  0.00     0.074 A 
ATOM     21  C   UNL A   1      43.271  27.621  33.296  1.00  0.00     0.031 C 
ATOM     22  C   UNL A   1      38.356  30.807  29.630  1.00  0.00     0.029 A 
ATOM     23  C   UNL A   1      38.588  31.354  30.962  1.00  0.00     0.049 A 
ATOM     24  H   UNL A   1      40.056  30.798  32.332  1.00  0.00     0.167 HD
ATOM     25  C   UNL A   1      43.065  29.232  35.177  1.00  0.00     0.037 A 
ATOM     26  C   UNL A   1      37.881  32.347  31.532  1.00  0.00     0.037 A 
ATOM     27  C   UNL A   1      42.480  30.396  35.797  1.00  0.00     0.049 A 
ATOM     28  C   UNL A   1      38.303  32.838  32.884  1.00  0.00     0.074 A 
ATOM     29  C   UNL A   1      42.807  30.987  37.004  1.00  0.00     0.029 A 
ATOM     30  N   UNL A   1      41.435  31.135  35.259  1.00  0.00    -0.354 N 
ATOM     31  N   UNL A   1      39.251  32.374  33.664  1.00  0.00    -0.248 NA
ATOM     32  C   UNL A   1      37.587  33.999  33.424  1.00  0.00     0.031 C 
ATOM     33  C   UNL A   1      41.933  32.060  37.214  1.00  0.00     0.029 A 
ATOM     34  C   UNL A   1      41.088  32.164  36.119  1.00  0.00     0.049 A 
ATOM     35  H   UNL A   1      41.002  30.955  34.393  1.00  0.00     0.167 HD
ATOM     36  C   UNL A   1      39.258  33.195  34.783  1.00  0.00     0.074 A 
ATOM     37  C   UNL A   1      38.227  34.194  34.569  1.00  0.00     0.031 C 
ATOM     38  C   UNL A   1      40.046  33.132  35.885  1.00  0.00     0.037 A 
BRANCH  25  39
ATOM     39  C   UNL A   1      44.135  28.486  35.928  1.00  0.00     0.058 A 
ATOM     40  C   UNL A   1      43.816  27.405  36.766  1.00  0.00     0.135 A 
ATOM     41  C   UNL A   1      45.495  28.786  35.741  1.00  0.00     0.135 A 
ATOM     42  F   UNL A   1      42.533  27.080  36.990  1.00  0.00    -0.206 F 
ATOM     43  C   UNL A   1      44.803  26.652  37.395  1.00  0.00     0.059 A 
ATOM     44  C   UNL A   1      46.500  28.032  36.345  1.00  0.00     0.059 A 
ATOM     45  F   UNL A   1      45.859  29.808  34.953  1.00  0.00    -0.206 F 
ATOM     46  C   UNL A   1      46.144  26.969  37.173  1.00  0.00     0.060 A 
BRANCH  46  47
ATOM     47  S   UNL A   1      47.409  25.950  37.963  1.00  0.00     0.124 S 
ATOM     48  O   UNL A   1      48.572  26.831  37.908  1.00  0.00    -0.237 OA
ATOM     49  O   UNL A   1      46.846  25.728  39.290  1.00  0.00    -0.237 OA
ATOM     50  O   UNL A   1      47.479  24.768  37.109  1.00  0.00    -0.744 OA
ENDBRANCH  46  47
ENDBRANCH  25  39
BRANCH  26  51
ATOM     51  C   UNL A   1      36.765  32.966  30.776  1.00  0.00     0.058 A 
ATOM     52  C   UNL A   1      35.436  32.751  31.161  1.00  0.00     0.135 A 
ATOM     53  C   UNL A   1      37.008  33.861  29.722  1.00  0.00     0.135 A 
ATOM     54  F   UNL A   1      35.157  31.909  32.168  1.00  0.00    -0.206 F 
ATOM     55  C   UNL A   1      34.382  33.403  30.530  1.00  0.00     0.059 A 
ATOM     56  C   UNL A   1      35.971  34.538  29.086  1.00  0.00     0.059 A 
ATOM     57  F   UNL A   1      38.267  34.120  29.335  1.00  0.00    -0.206 F 
ATOM     58  C   UNL A   1      34.660  34.301  29.499  1.00  0.00     0.060 A 
BRANCH  58  59
ATOM     59  S   UNL A   1      33.289  35.208  28.751  1.00  0.00     0.124 S 
ATOM     60  O   UNL A   1      32.527  35.611  29.928  1.00  0.00    -0.237 OA
ATOM     61  O   UNL A   1      33.980  36.278  28.040  1.00  0.00    -0.237 OA
ATOM     62  O   UNL A   1      32.650  34.209  27.897  1.00  0.00    -0.744 OA
ENDBRANCH  58  59
ENDBRANCH  26  51
BRANCH  38  63
ATOM     63  C   UNL A   1      39.816  34.171  36.941  1.00  0.00     0.058 A 
ATOM     64  C   UNL A   1      38.886  33.966  37.972  1.00  0.00     0.135 A 
ATOM     65  C   UNL A   1      40.569  35.355  36.955  1.00  0.00     0.135 A 
ATOM     66  F   UNL A   1      38.138  32.852  37.995  1.00  0.00    -0.206 F 
ATOM     67  C   UNL A   1      38.698  34.910  38.974  1.00  0.00     0.059 A 
ATOM     68  C   UNL A   1      40.413  36.303  37.960  1.00  0.00     0.059 A 
ATOM     69  F   UNL A   1      41.477  35.590  35.994  1.00  0.00    -0.206 F 
ATOM     70  C   UNL A   1      39.467  36.075  38.960  1.00  0.00     0.060 A 
BRANCH  70  71
ATOM     71  S   UNL A   1      39.237  37.277  40.287  1.00  0.00     0.124 S 
ATOM     72  O   UNL A   1      38.414  38.286  39.628  1.00  0.00    -0.237 OA
ATOM     73  O   UNL A   1      38.568  36.484  41.314  1.00  0.00    -0.237 OA
ATOM     74  O   UNL A   1      40.598  37.690  40.611  1.00  0.00    -0.744 OA
ENDBRANCH  70  71
ENDBRANCH  38  63
ENDBRANCH  12  13
ENDBRANCH   5   7
ENDBRANCH   4   5
ENDBRANCH   3   4
ENDBRANCH   2   3
ENDBRANCH   1   2
BRANCH   1  75
ATOM     75  C   UNL A   1      39.137  22.274  26.485  1.00  0.00     0.202 C 
BRANCH  75  76
ATOM     76  C   UNL A   1      38.418  21.365  25.482  1.00  0.00     0.261 C 
BRANCH  76  77
ATOM     77  O   UNL A   1      37.114  21.907  25.218  1.00  0.00    -0.459 OA
BRANCH  77  78
ATOM     78  C   UNL A   1      36.109  20.989  25.090  1.00  0.00     0.348 C 
ATOM     79  O   UNL A   1      36.268  19.778  25.001  1.00  0.00    -0.245 OA
BRANCH  78  80
ATOM     80  C   UNL A   1      34.851  21.692  25.220  1.00  0.00     0.116 A 
ATOM     81  C   UNL A   1      34.252  22.533  24.301  1.00  0.00     0.074 A 
ATOM     82  S   UNL A   1      33.967  21.651  26.682  1.00  0.00    -0.133 S 
ATOM     83  C   UNL A   1      33.168  23.267  24.849  1.00  0.00     0.131 A 
ATOM     84  C   UNL A   1      32.919  22.898  26.150  1.00  0.00     0.112 A 
BRANCH  83  85
ATOM     85  O   UNL A   1      32.438  24.260  24.280  1.00  0.00    -0.489 OA
BRANCH  85  86
ATOM     86  C   UNL A   1      31.037  24.221  24.556  1.00  0.00     0.275 C 
BRANCH  86  87
ATOM     87  C   UNL A   1      30.465  25.472  25.263  1.00  0.00     0.215 C 
ATOM     88  C   UNL A   1      30.390  26.706  24.336  1.00  0.00     0.088 C 
ATOM     89  O   UNL A   1      31.183  25.811  26.477  1.00  0.00    -0.486 OA
ATOM     90  C   UNL A   1      30.963  27.739  25.225  1.00  0.00     0.001 A 
ATOM     91  C   UNL A   1      31.366  27.165  26.419  1.00  0.00     0.123 A 
ATOM     92  C   UNL A   1      31.144  29.092  24.993  1.00  0.00     0.047 A 
ATOM     93  C   UNL A   1      31.925  27.912  27.439  1.00  0.00     0.050 A 
ATOM     94  C   UNL A   1      31.709  29.857  26.014  1.00  0.00     0.123 A 
ATOM     95  C   UNL A   1      32.086  29.285  27.234  1.00  0.00     0.043 A 
ATOM     96  F   UNL A   1      31.909  31.166  25.814  1.00  0.00    -0.207 F 
ENDBRANCH  86  87
ENDBRANCH  85  86
ENDBRANCH  83  85
ENDBRANCH  78  80
ENDBRANCH  77  78
ENDBRANCH  76  77
ENDBRANCH  75  76
ENDBRANCH   1  75
TORSDOF 20
ENDMDL
MODEL 2
REMARK VINA RESULT:     -11.0      1.388      2.157
REMARK SMILES O=C(OCCOCCOC(=O)c1cc(OC[C@@H]2Cc3cc(F)ccc3O2)cs1)c1ccc(-c2c3nc(c(-c4c(F)cc(S(=O)(=O)[O-])cc4F)c4ccc([nH]4)c(-c4c(F)cc(S(=O)(=O)[O-])cc4F)c4nc(c(-c5c(F)cc(S(=O)(=O)[O-])cc5F)c5ccc2[nH]5)C=C4)C=C3)cc1
REMARK SMILES IDX 6 1 5 2 4 3 3 4 2 5 1 6 29 7 30 8 94 9 31 10 93 11 32 12
REMARK SMILES IDX 33 13 34 14 87 15 35 16 92 17 86 18 88 19 36 20 91 21 85 22
REMARK SMILES IDX 84 23 37 25 71 26 50 27 70 28 51 29 54 30 69 31 89 32 52 33
REMARK SMILES IDX 53 34 68 36 90 37 55 38 38 39 39 40 48 41 40 42 41 43 47 44
REMARK SMILES IDX 49 45 42 46 43 47 44 48 45 49 46 50 72 51 73 52 82 53 74 54
REMARK SMILES IDX 75 55 81 56 83 57 76 58 77 59 78 60 79 61 80 62 56 63 57 64
REMARK SMILES IDX 66 65 58 66 59 67 65 68 67 69 60 70 61 71 62 72 63 73 64 74
REMARK SMILES IDX 7 75 8 76 9 77 10 78 11 79 12 80 13 81 28 82 14 83 27 84
REMARK SMILES IDX 15 85 16 86 17 87 18 88 26 89 19 90 25 91 20 92 24 93 21 94
REMARK SMILES IDX 23 95 22 96
REMARK H PARENT 88 24 54 35
REMARK Flexibility Score: inf
ROOT
ATOM      1  O   UNL A   1      40.038  21.585  27.104  1.00  0.00    -0.374 OA
ENDROOT
BRANCH   1   2
ATOM      2  C   UNL A   1      41.406  21.967  27.251  1.00  0.00     0.202 C 
BRANCH   2   3
ATOM      3  C   UNL A   1      41.995  22.621  26.000  1.00  0.00     0.261 C 
BRANCH   3   4
ATOM      4  O   UNL A   1      42.526  23.918  26.311  1.00  0.00    -0.460 OA
BRANCH   4   5
ATOM      5  C   UNL A   1      41.939  25.132  26.214  1.00  0.00     0.338 C 
ATOM      6  O   UNL A   1      41.692  25.546  25.081  1.00  0.00    -0.246 OA
BRANCH   5   7
ATOM      7  C   UNL A   1      41.668  26.057  27.372  1.00  0.00     0.060 A 
ATOM      8  C   UNL A   1      42.536  27.162  27.497  1.00  0.00     0.016 A 
ATOM      9  C   UNL A   1      40.702  25.892  28.366  1.00  0.00     0.016 A 
ATOM     10  C   UNL A   1      42.457  28.039  28.585  1.00  0.00     0.010 A 
ATOM     11  C   UNL A   1      40.617  26.757  29.457  1.00  0.00     0.010 A 
ATOM     12  C   UNL A   1      41.498  27.829  29.578  1.00  0.00    -0.014 A 
BRANCH  12  13
ATOM     13  C   UNL A   1      41.314  28.771  30.696  1.00  0.00     0.031 A 
ATOM     14  C   UNL A   1      42.117  28.637  31.954  1.00  0.00     0.074 A 
ATOM     15  C   UNL A   1      40.319  29.668  30.590  1.00  0.00     0.049 A 
ATOM     16  N   UNL A   1      42.081  29.374  33.031  1.00  0.00    -0.248 NA
ATOM     17  C   UNL A   1      43.070  27.517  32.021  1.00  0.00     0.031 C 
ATOM     18  C   UNL A   1      39.427  29.795  29.434  1.00  0.00     0.029 A 
ATOM     19  N   UNL A   1      39.865  30.613  31.469  1.00  0.00    -0.354 N 
ATOM     20  C   UNL A   1      43.017  28.827  33.899  1.00  0.00     0.074 A 
ATOM     21  C   UNL A   1      43.575  27.664  33.242  1.00  0.00     0.031 C 
ATOM     22  C   UNL A   1      38.521  30.753  29.682  1.00  0.00     0.029 A 
ATOM     23  C   UNL A   1      38.773  31.306  31.008  1.00  0.00     0.049 A 
ATOM     24  H   UNL A   1      40.281  30.780  32.346  1.00  0.00     0.167 HD
ATOM     25  C   UNL A   1      43.381  29.275  35.125  1.00  0.00     0.037 A 
ATOM     26  C   UNL A   1      38.061  32.287  31.593  1.00  0.00     0.037 A 
ATOM     27  C   UNL A   1      42.789  30.428  35.756  1.00  0.00     0.049 A 
ATOM     28  C   UNL A   1      38.503  32.788  32.934  1.00  0.00     0.074 A 
ATOM     29  C   UNL A   1      43.131  31.027  36.955  1.00  0.00     0.029 A 
ATOM     30  N   UNL A   1      41.718  31.147  35.241  1.00  0.00    -0.354 N 
ATOM     31  N   UNL A   1      39.477  32.343  33.693  1.00  0.00    -0.248 NA
ATOM     32  C   UNL A   1      37.778  33.936  33.489  1.00  0.00     0.031 C 
ATOM     33  C   UNL A   1      42.242  32.084  37.184  1.00  0.00     0.029 A 
ATOM     34  C   UNL A   1      41.372  32.170  36.107  1.00  0.00     0.049 A 
ATOM     35  H   UNL A   1      41.269  30.958  34.386  1.00  0.00     0.167 HD
ATOM     36  C   UNL A   1      39.493  33.166  34.811  1.00  0.00     0.074 A 
ATOM     37  C   UNL A   1      38.439  34.145  34.619  1.00  0.00     0.031 C 
ATOM     38  C   UNL A   1      40.306  33.119  35.895  1.00  0.00     0.037 A 
BRANCH  25  39
ATOM     39  C   UNL A   1      44.481  28.550  35.853  1.00  0.00     0.058 A 
ATOM     40  C   UNL A   1      45.827  28.913  35.687  1.00  0.00     0.135 A 
ATOM     41  C   UNL A   1      44.188  27.549  36.796  1.00  0.00     0.135 A 
ATOM     42  F   UNL A   1      46.166  29.856  34.793  1.00  0.00    -0.206 F 
ATOM     43  C   UNL A   1      46.843  28.311  36.423  1.00  0.00     0.059 A 
ATOM     44  C   UNL A   1      45.188  26.946  37.557  1.00  0.00     0.059 A 
ATOM     45  F   UNL A   1      42.920  27.160  36.996  1.00  0.00    -0.206 F 
ATOM     46  C   UNL A   1      46.513  27.332  37.361  1.00  0.00     0.060 A 
BRANCH  46  47
ATOM     47  S   UNL A   1      47.843  26.595  38.337  1.00  0.00     0.124 S 
ATOM     48  O   UNL A   1      48.566  25.836  37.321  1.00  0.00    -0.237 OA
ATOM     49  O   UNL A   1      48.533  27.769  38.860  1.00  0.00    -0.237 OA
ATOM     50  O   UNL A   1      47.135  25.794  39.331  1.00  0.00    -0.744 OA
ENDBRANCH  46  47
ENDBRANCH  25  39
BRANCH  26  51
ATOM     51  C   UNL A   1      36.917  32.884  30.861  1.00  0.00     0.058 A 
ATOM     52  C   UNL A   1      35.606  32.465  31.120  1.00  0.00     0.135 A 
ATOM     53  C   UNL A   1      37.101  33.950  29.966  1.00  0.00     0.135 A 
ATOM     54  F   UNL A   1      35.382  31.454  31.974  1.00  0.00    -0.206 F 
ATOM     55  C   UNL A   1      34.513  33.082  30.521  1.00  0.00     0.059 A 
ATOM     56  C   UNL A   1      36.023  34.594  29.367  1.00  0.00     0.059 A 
ATOM     57  F   UNL A   1      38.338  34.404  29.706  1.00  0.00    -0.206 F 
ATOM     58  C   UNL A   1      34.732  34.152  29.652  1.00  0.00     0.060 A 
BRANCH  58  59
ATOM     59  S   UNL A   1      33.299  35.001  28.953  1.00  0.00     0.124 S 
ATOM     60  O   UNL A   1      32.526  35.308  30.151  1.00  0.00    -0.237 OA
ATOM     61  O   UNL A   1      33.916  36.141  28.281  1.00  0.00    -0.237 OA
ATOM     62  O   UNL A   1      32.715  34.001  28.063  1.00  0.00    -0.744 OA
ENDBRANCH  58  59
ENDBRANCH  26  51
BRANCH  38  63
ATOM     63  C   UNL A   1      40.081  34.155  36.956  1.00  0.00     0.058 A 
ATOM     64  C   UNL A   1      40.691  35.416  36.881  1.00  0.00     0.135 A 
ATOM     65  C   UNL A   1      39.206  33.905  38.024  1.00  0.00     0.135 A 
ATOM     66  F   UNL A   1      41.542  35.697  35.881  1.00  0.00    -0.206 F 
ATOM     67  C   UNL A   1      40.455  36.391  37.842  1.00  0.00     0.059 A 
ATOM     68  C   UNL A   1      38.937  34.874  38.985  1.00  0.00     0.059 A 
ATOM     69  F   UNL A   1      38.592  32.715  38.132  1.00  0.00    -0.206 F 
ATOM     70  C   UNL A   1      39.575  36.111  38.890  1.00  0.00     0.060 A 
BRANCH  70  71
ATOM     71  S   UNL A   1      39.251  37.399  40.112  1.00  0.00     0.124 S 
ATOM     72  O   UNL A   1      40.581  37.971  40.293  1.00  0.00    -0.237 OA
ATOM     73  O   UNL A   1      38.284  38.247  39.422  1.00  0.00    -0.237 OA
ATOM     74  O   UNL A   1      38.724  36.659  41.254  1.00  0.00    -0.744 OA
ENDBRANCH  70  71
ENDBRANCH  38  63
ENDBRANCH  12  13
ENDBRANCH   5   7
ENDBRANCH   4   5
ENDBRANCH   3   4
ENDBRANCH   2   3
ENDBRANCH   1   2
BRANCH   1  75
ATOM     75  C   UNL A   1      39.183  22.564  26.505  1.00  0.00     0.202 C 
BRANCH  75  76
ATOM     76  C   UNL A   1      38.093  21.864  25.686  1.00  0.00     0.261 C 
BRANCH  76  77
ATOM     77  O   UNL A   1      37.168  22.853  25.206  1.00  0.00    -0.459 OA
BRANCH  77  78
ATOM     78  C   UNL A   1      35.852  22.615  25.488  1.00  0.00     0.348 C 
ATOM     79  O   UNL A   1      35.444  21.824  26.330  1.00  0.00    -0.245 OA
BRANCH  78  80
ATOM     80  C   UNL A   1      35.061  23.553  24.722  1.00  0.00     0.116 A 
ATOM     81  C   UNL A   1      34.519  24.751  25.150  1.00  0.00     0.074 A 
ATOM     82  S   UNL A   1      34.574  23.195  23.124  1.00  0.00    -0.133 S 
ATOM     83  C   UNL A   1      33.577  25.288  24.236  1.00  0.00     0.131 A 
ATOM     84  C   UNL A   1      33.494  24.525  23.094  1.00  0.00     0.112 A 
BRANCH  83  85
ATOM     85  O   UNL A   1      32.770  26.370  24.381  1.00  0.00    -0.489 OA
BRANCH  85  86
ATOM     86  C   UNL A   1      31.371  26.085  24.439  1.00  0.00     0.275 C 
BRANCH  86  87
ATOM     87  C   UNL A   1      30.534  26.630  23.259  1.00  0.00     0.215 C 
ATOM     88  C   UNL A   1      31.199  27.832  22.553  1.00  0.00     0.088 C 
ATOM     89  O   UNL A   1      29.177  26.973  23.642  1.00  0.00    -0.486 OA
ATOM     90  C   UNL A   1      30.043  28.749  22.447  1.00  0.00     0.001 A 
ATOM     91  C   UNL A   1      28.936  28.188  23.061  1.00  0.00     0.123 A 
ATOM     92  C   UNL A   1      29.972  30.006  21.869  1.00  0.00     0.047 A 
ATOM     93  C   UNL A   1      27.714  28.831  23.095  1.00  0.00     0.050 A 
ATOM     94  C   UNL A   1      28.744  30.665  21.899  1.00  0.00     0.123 A 
ATOM     95  C   UNL A   1      27.615  30.086  22.490  1.00  0.00     0.043 A 
ATOM     96  F   UNL A   1      28.647  31.888  21.361  1.00  0.00    -0.207 F 
ENDBRANCH  86  87
ENDBRANCH  85  86
ENDBRANCH  83  85
ENDBRANCH  78  80
ENDBRANCH  77  78
ENDBRANCH  76  77
ENDBRANCH  75  76
ENDBRANCH   1  75
TORSDOF 20
ENDMDL
MODEL 3
REMARK VINA RESULT:     -10.5      1.481      8.364
REMARK SMILES O=C(OCCOCCOC(=O)c1cc(OC[C@@H]2Cc3cc(F)ccc3O2)cs1)c1ccc(-c2c3nc(c(-c4c(F)cc(S(=O)(=O)[O-])cc4F)c4ccc([nH]4)c(-c4c(F)cc(S(=O)(=O)[O-])cc4F)c4nc(c(-c5c(F)cc(S(=O)(=O)[O-])cc5F)c5ccc2[nH]5)C=C4)C=C3)cc1
REMARK SMILES IDX 6 1 5 2 4 3 3 4 2 5 1 6 29 7 30 8 94 9 31 10 93 11 32 12
REMARK SMILES IDX 33 13 34 14 87 15 35 16 92 17 86 18 88 19 36 20 91 21 85 22
REMARK SMILES IDX 84 23 37 25 71 26 50 27 70 28 51 29 54 30 69 31 89 32 52 33
REMARK SMILES IDX 53 34 68 36 90 37 55 38 38 39 39 40 48 41 40 42 41 43 47 44
REMARK SMILES IDX 49 45 42 46 43 47 44 48 45 49 46 50 72 51 73 52 82 53 74 54
REMARK SMILES IDX 75 55 81 56 83 57 76 58 77 59 78 60 79 61 80 62 56 63 57 64
REMARK SMILES IDX 66 65 58 66 59 67 65 68 67 69 60 70 61 71 62 72 63 73 64 74
REMARK SMILES IDX 7 75 8 76 9 77 10 78 11 79 12 80 13 81 28 82 14 83 27 84
REMARK SMILES IDX 15 85 16 86 17 87 18 88 26 89 19 90 25 91 20 92 24 93 21 94
REMARK SMILES IDX 23 95 22 96
REMARK H PARENT 88 24 54 35
REMARK Flexibility Score: inf
ROOT
ATOM      1  O   UNL A   1      40.160  21.635  27.063  1.00  0.00    -0.374 OA
ENDROOT
BRANCH   1   2
ATOM      2  C   UNL A   1      41.520  22.063  27.142  1.00  0.00     0.202 C 
BRANCH   2   3
ATOM      3  C   UNL A   1      42.011  22.773  25.880  1.00  0.00     0.261 C 
BRANCH   3   4
ATOM      4  O   UNL A   1      42.641  24.019  26.215  1.00  0.00    -0.460 OA
BRANCH   4   5
ATOM      5  C   UNL A   1      42.143  25.275  26.160  1.00  0.00     0.338 C 
ATOM      6  O   UNL A   1      42.068  25.798  25.048  1.00  0.00    -0.246 OA
BRANCH   5   7
ATOM      7  C   UNL A   1      41.783  26.116  27.356  1.00  0.00     0.060 A 
ATOM      8  C   UNL A   1      42.486  27.330  27.493  1.00  0.00     0.016 A 
ATOM      9  C   UNL A   1      40.886  25.782  28.373  1.00  0.00     0.016 A 
ATOM     10  C   UNL A   1      42.319  28.154  28.613  1.00  0.00     0.010 A 
ATOM     11  C   UNL A   1      40.716  26.594  29.496  1.00  0.00     0.010 A 
ATOM     12  C   UNL A   1      41.436  27.778  29.626  1.00  0.00    -0.014 A 
BRANCH  12  13
ATOM     13  C   UNL A   1      41.157  28.650  30.781  1.00  0.00     0.031 A 
ATOM     14  C   UNL A   1      40.076  29.685  30.718  1.00  0.00     0.074 A 
ATOM     15  C   UNL A   1      41.988  28.565  31.834  1.00  0.00     0.049 A 
ATOM     16  N   UNL A   1      39.700  30.534  31.636  1.00  0.00    -0.248 NA
ATOM     17  C   UNL A   1      39.331  29.797  29.453  1.00  0.00     0.031 C 
ATOM     18  C   UNL A   1      43.128  27.648  31.928  1.00  0.00     0.029 A 
ATOM     19  N   UNL A   1      42.029  29.273  33.004  1.00  0.00    -0.354 N 
ATOM     20  C   UNL A   1      38.663  31.269  31.075  1.00  0.00     0.074 A 
ATOM     21  C   UNL A   1      38.497  30.797  29.717  1.00  0.00     0.031 C 
ATOM     22  C   UNL A   1      43.767  27.862  33.088  1.00  0.00     0.029 A 
ATOM     23  C   UNL A   1      43.081  28.923  33.815  1.00  0.00     0.049 A 
ATOM     24  H   UNL A   1      41.370  29.965  33.240  1.00  0.00     0.167 HD
ATOM     25  C   UNL A   1      37.913  32.234  31.659  1.00  0.00     0.037 A 
ATOM     26  C   UNL A   1      43.441  29.405  35.019  1.00  0.00     0.037 A 
ATOM     27  C   UNL A   1      38.120  32.691  33.011  1.00  0.00     0.049 A 
ATOM     28  C   UNL A   1      42.577  30.449  35.658  1.00  0.00     0.074 A 
ATOM     29  C   UNL A   1      37.375  33.601  33.739  1.00  0.00     0.029 A 
ATOM     30  N   UNL A   1      39.162  32.280  33.833  1.00  0.00    -0.354 N 
ATOM     31  N   UNL A   1      41.518  31.048  35.166  1.00  0.00    -0.248 NA
ATOM     32  C   UNL A   1      42.932  30.865  37.020  1.00  0.00     0.031 C 
ATOM     33  C   UNL A   1      37.988  33.768  34.986  1.00  0.00     0.029 A 
ATOM     34  C   UNL A   1      39.092  32.932  35.052  1.00  0.00     0.049 A 
ATOM     35  H   UNL A   1      39.850  31.620  33.585  1.00  0.00     0.167 HD
ATOM     36  C   UNL A   1      41.068  31.903  36.163  1.00  0.00     0.074 A 
ATOM     37  C   UNL A   1      41.964  31.730  37.292  1.00  0.00     0.031 C 
ATOM     38  C   UNL A   1      40.010  32.750  36.150  1.00  0.00     0.037 A 
BRANCH  25  39
ATOM     39  C   UNL A   1      36.787  32.842  30.866  1.00  0.00     0.058 A 
ATOM     40  C   UNL A   1      35.456  32.445  31.070  1.00  0.00     0.135 A 
ATOM     41  C   UNL A   1      37.022  33.894  29.965  1.00  0.00     0.135 A 
ATOM     42  F   UNL A   1      35.173  31.438  31.912  1.00  0.00    -0.206 F 
ATOM     43  C   UNL A   1      34.399  33.063  30.408  1.00  0.00     0.059 A 
ATOM     44  C   UNL A   1      35.977  34.540  29.305  1.00  0.00     0.059 A 
ATOM     45  F   UNL A   1      38.274  34.315  29.729  1.00  0.00    -0.206 F 
ATOM     46  C   UNL A   1      34.669  34.115  29.532  1.00  0.00     0.060 A 
BRANCH  46  47
ATOM     47  S   UNL A   1      33.279  34.932  28.718  1.00  0.00     0.124 S 
ATOM     48  O   UNL A   1      32.786  33.872  27.844  1.00  0.00    -0.237 OA
ATOM     49  O   UNL A   1      32.417  35.276  29.843  1.00  0.00    -0.237 OA
ATOM     50  O   UNL A   1      33.899  36.066  28.038  1.00  0.00    -0.744 OA
ENDBRANCH  46  47
ENDBRANCH  25  39
BRANCH  26  51
ATOM     51  C   UNL A   1      44.630  28.835  35.698  1.00  0.00     0.058 A 
ATOM     52  C   UNL A   1      45.887  29.438  35.565  1.00  0.00     0.135 A 
ATOM     53  C   UNL A   1      44.516  27.740  36.570  1.00  0.00     0.135 A 
ATOM     54  F   UNL A   1      46.042  30.491  34.748  1.00  0.00    -0.206 F 
ATOM     55  C   UNL A   1      46.993  28.981  36.274  1.00  0.00     0.059 A 
ATOM     56  C   UNL A   1      45.604  27.274  37.303  1.00  0.00     0.059 A 
ATOM     57  F   UNL A   1      43.326  27.145  36.751  1.00  0.00    -0.206 F 
ATOM     58  C   UNL A   1      46.839  27.903  37.147  1.00  0.00     0.060 A 
BRANCH  58  59
ATOM     59  S   UNL A   1      48.261  27.379  38.129  1.00  0.00     0.124 S 
ATOM     60  O   UNL A   1      49.363  28.006  37.409  1.00  0.00    -0.237 OA
ATOM     61  O   UNL A   1      47.952  27.940  39.440  1.00  0.00    -0.237 OA
ATOM     62  O   UNL A   1      48.205  25.921  38.052  1.00  0.00    -0.744 OA
ENDBRANCH  58  59
ENDBRANCH  26  51
BRANCH  38  63
ATOM     63  C   UNL A   1      39.771  33.555  37.392  1.00  0.00     0.058 A 
ATOM     64  C   UNL A   1      40.501  34.725  37.651  1.00  0.00     0.135 A 
ATOM     65  C   UNL A   1      38.768  33.185  38.301  1.00  0.00     0.135 A 
ATOM     66  F   UNL A   1      41.475  35.114  36.813  1.00  0.00    -0.206 F 
ATOM     67  C   UNL A   1      40.256  35.494  38.782  1.00  0.00     0.059 A 
ATOM     68  C   UNL A   1      38.491  33.952  39.428  1.00  0.00     0.059 A 
ATOM     69  F   UNL A   1      38.038  32.078  38.090  1.00  0.00    -0.206 F 
ATOM     70  C   UNL A   1      39.248  35.099  39.664  1.00  0.00     0.060 A 
BRANCH  70  71
ATOM     71  S   UNL A   1      38.917  36.127  41.111  1.00  0.00     0.124 S 
ATOM     72  O   UNL A   1      38.544  37.394  40.491  1.00  0.00    -0.237 OA
ATOM     73  O   UNL A   1      37.837  35.400  41.770  1.00  0.00    -0.237 OA
ATOM     74  O   UNL A   1      40.190  36.128  41.825  1.00  0.00    -0.744 OA
ENDBRANCH  70  71
ENDBRANCH  38  63
ENDBRANCH  12  13
ENDBRANCH   5   7
ENDBRANCH   4   5
ENDBRANCH   3   4
ENDBRANCH   2   3
ENDBRANCH   1   2
BRANCH   1  75
ATOM     75  C   UNL A   1      39.237  22.598  26.545  1.00  0.00     0.202 C 
BRANCH  75  76
ATOM     76  C   UNL A   1      38.147  21.885  25.739  1.00  0.00     0.261 C 
BRANCH  76  77
ATOM     77  O   UNL A   1      37.218  22.866  25.249  1.00  0.00    -0.459 OA
BRANCH  77  78
ATOM     78  C   UNL A   1      35.900  22.611  25.509  1.00  0.00     0.348 C 
ATOM     79  O   UNL A   1      35.488  21.791  26.319  1.00  0.00    -0.245 OA
BRANCH  78  80
ATOM     80  C   UNL A   1      35.111  23.572  24.767  1.00  0.00     0.116 A 
ATOM     81  C   UNL A   1      34.573  24.759  25.226  1.00  0.00     0.074 A 
ATOM     82  S   UNL A   1      34.624  23.256  23.160  1.00  0.00    -0.133 S 
ATOM     83  C   UNL A   1      33.632  25.323  24.326  1.00  0.00     0.131 A 
ATOM     84  C   UNL A   1      33.547  24.590  23.164  1.00  0.00     0.112 A 
BRANCH  83  85
ATOM     85  O   UNL A   1      32.829  26.403  24.499  1.00  0.00    -0.489 OA
BRANCH  85  86
ATOM     86  C   UNL A   1      31.429  26.121  24.549  1.00  0.00     0.275 C 
BRANCH  86  87
ATOM     87  C   UNL A   1      30.606  26.625  23.341  1.00  0.00     0.215 C 
ATOM     88  C   UNL A   1      31.265  27.825  22.624  1.00  0.00     0.088 C 
ATOM     89  O   UNL A   1      29.236  26.952  23.689  1.00  0.00    -0.486 OA
ATOM     90  C   UNL A   1      30.096  28.718  22.475  1.00  0.00     0.001 A 
ATOM     91  C   UNL A   1      28.986  28.150  23.078  1.00  0.00     0.123 A 
ATOM     92  C   UNL A   1      30.014  29.961  21.869  1.00  0.00     0.047 A 
ATOM     93  C   UNL A   1      27.752  28.771  23.073  1.00  0.00     0.050 A 
ATOM     94  C   UNL A   1      28.774  30.599  21.860  1.00  0.00     0.123 A 
ATOM     95  C   UNL A   1      27.644  30.012  22.441  1.00  0.00     0.043 A 
ATOM     96  F   UNL A   1      28.666  31.808  21.295  1.00  0.00    -0.207 F 
ENDBRANCH  86  87
ENDBRANCH  85  86
ENDBRANCH  83  85
ENDBRANCH  78  80
ENDBRANCH  77  78
ENDBRANCH  76  77
ENDBRANCH  75  76
ENDBRANCH   1  75
TORSDOF 20
ENDMDL
