MODEL 1
REMARK VINA RESULT:     -11.3      0.000      0.000
REMARK SMILES Cc1cc(C(=O)OCCOCCOC(=O)c2ccc(-c3c4nc(c(-c5c(F)cc(S(=O)(=O)[O-])cc5F)c5ccc([nH]5)c(-c5c(F)cc(S(=O)(=O)[O-])cc5F)c5nc(c(-c6c(F)cc(S(=O)(=O)[O-])cc6F)c6ccc3[nH]6)C=C5)C=C4)cc2)c(C)n1[C@@H]1C[N@H+]2CC[C@@H]1CC2
REMARK SMILES IDX 11 1 10 2 9 3 8 4 7 5 5 6 6 7 4 8 1 9 2 10 3 11 84 12 82 13
REMARK SMILES IDX 83 14 85 15 86 16 90 17 87 18 91 19 89 20 92 21 88 22 12 24
REMARK SMILES IDX 13 25 14 26 15 27 16 28 17 29 81 30 18 31 80 32 19 33 20 34
REMARK SMILES IDX 21 35 74 36 22 37 79 38 73 39 75 40 23 41 78 42 72 43 71 44
REMARK SMILES IDX 24 46 58 47 37 48 57 49 38 50 41 51 56 52 76 53 39 54 40 55
REMARK SMILES IDX 55 57 77 58 42 59 25 60 26 61 35 62 27 63 28 64 34 65 36 66
REMARK SMILES IDX 29 67 30 68 31 69 32 70 33 71 59 72 60 73 69 74 61 75 62 76
REMARK SMILES IDX 68 77 70 78 63 79 64 80 65 81 66 82 67 83 43 84 44 85 53 86
REMARK SMILES IDX 45 87 46 88 52 89 54 90 47 91 48 92 49 93 50 94 51 95
REMARK H PARENT 87 23 75 45 41 56
REMARK Flexibility Score: inf
ROOT
ATOM      1  C   UNL A   1      43.975  20.801  25.264  1.00  0.00     0.202 C 
ENDROOT
BRANCH   1   2
ATOM      2  O   UNL A   1      43.680  19.423  25.555  1.00  0.00    -0.374 OA
BRANCH   2   3
ATOM      3  C   UNL A   1      42.597  19.173  26.449  1.00  0.00     0.202 C 
BRANCH   3   4
ATOM      4  C   UNL A   1      41.202  19.544  25.910  1.00  0.00     0.261 C 
BRANCH   4   5
ATOM      5  O   UNL A   1      40.503  20.412  26.809  1.00  0.00    -0.460 OA
BRANCH   5   6
ATOM      6  C   UNL A   1      40.280  21.684  26.376  1.00  0.00     0.340 C 
ATOM      7  O   UNL A   1      41.150  22.558  26.277  1.00  0.00    -0.246 OA
BRANCH   6   8
ATOM      8  C   UNL A   1      38.882  21.885  26.010  1.00  0.00     0.081 A 
ATOM      9  C   UNL A   1      35.641  20.632  24.786  1.00  0.00     0.064 C 
ATOM     10  C   UNL A   1      36.787  21.451  25.258  1.00  0.00     0.016 A 
ATOM     11  C   UNL A   1      38.071  20.956  25.332  1.00  0.00     0.038 A 
ATOM     12  N   UNL A   1      36.798  22.755  25.747  1.00  0.00    -0.339 N 
ATOM     13  C   UNL A   1      38.103  23.027  26.195  1.00  0.00     0.030 A 
ATOM     14  C   UNL A   1      38.603  24.329  26.747  1.00  0.00     0.065 C 
BRANCH  12  15
ATOM     15  C   UNL A   1      35.661  23.668  25.931  1.00  0.00     0.145 C 
ATOM     16  C   UNL A   1      34.491  23.107  26.773  1.00  0.00     0.288 C 
ATOM     17  C   UNL A   1      35.081  24.423  24.697  1.00  0.00     0.029 C 
ATOM     18  N   UNL A   1      33.166  23.441  26.184  1.00  0.00    -0.333 N 
ATOM     19  C   UNL A   1      34.160  25.543  25.255  1.00  0.00     0.067 C 
ATOM     20  C   UNL A   1      34.130  23.544  23.877  1.00  0.00     0.067 C 
ATOM     21  C   UNL A   1      33.031  24.911  26.095  1.00  0.00     0.262 C 
ATOM     22  C   UNL A   1      33.100  22.886  24.812  1.00  0.00     0.262 C 
ATOM     23  H   UNL A   1      32.422  23.052  26.765  1.00  0.00     0.348 HD
ENDBRANCH  12  15
ENDBRANCH   6   8
ENDBRANCH   5   6
ENDBRANCH   4   5
ENDBRANCH   3   4
ENDBRANCH   2   3
ENDBRANCH   1   2
BRANCH   1  24
ATOM     24  C   UNL A   1      45.453  21.274  25.416  1.00  0.00     0.261 C 
BRANCH  24  25
ATOM     25  O   UNL A   1      45.730  22.651  25.891  1.00  0.00    -0.460 OA
BRANCH  25  26
ATOM     26  C   UNL A   1      45.055  23.668  25.254  1.00  0.00     0.338 C 
ATOM     27  O   UNL A   1      45.172  23.850  24.045  1.00  0.00    -0.246 OA
BRANCH  26  28
ATOM     28  C   UNL A   1      44.054  24.522  26.084  1.00  0.00     0.060 A 
ATOM     29  C   UNL A   1      43.384  25.523  25.404  1.00  0.00     0.016 A 
ATOM     30  C   UNL A   1      43.809  24.555  27.477  1.00  0.00     0.016 A 
ATOM     31  C   UNL A   1      42.498  26.446  26.075  1.00  0.00     0.010 A 
ATOM     32  C   UNL A   1      42.946  25.587  28.175  1.00  0.00     0.010 A 
ATOM     33  C   UNL A   1      42.245  26.606  27.502  1.00  0.00    -0.014 A 
BRANCH  33  34
ATOM     34  C   UNL A   1      41.415  28.029  28.022  1.00  0.00     0.031 A 
ATOM     35  C   UNL A   1      42.486  29.051  27.853  1.00  0.00     0.074 A 
ATOM     36  C   UNL A   1      40.287  28.613  28.676  1.00  0.00     0.049 A 
ATOM     37  N   UNL A   1      43.574  28.861  28.540  1.00  0.00    -0.248 NA
ATOM     38  C   UNL A   1      42.648  29.947  26.706  1.00  0.00     0.031 C 
ATOM     39  C   UNL A   1      39.156  27.940  29.352  1.00  0.00     0.029 A 
ATOM     40  N   UNL A   1      39.874  30.000  28.954  1.00  0.00    -0.354 N 
ATOM     41  C   UNL A   1      44.507  29.757  28.106  1.00  0.00     0.074 A 
ATOM     42  C   UNL A   1      43.936  30.291  26.868  1.00  0.00     0.031 C 
ATOM     43  C   UNL A   1      38.176  28.809  29.771  1.00  0.00     0.029 A 
ATOM     44  C   UNL A   1      38.517  30.213  29.507  1.00  0.00     0.049 A 
ATOM     45  H   UNL A   1      40.478  30.757  28.778  1.00  0.00     0.167 HD
ATOM     46  C   UNL A   1      45.170  30.388  29.114  1.00  0.00     0.037 A 
ATOM     47  C   UNL A   1      37.780  31.384  29.842  1.00  0.00     0.037 A 
ATOM     48  C   UNL A   1      44.523  31.638  29.414  1.00  0.00     0.049 A 
ATOM     49  C   UNL A   1      38.802  32.345  30.271  1.00  0.00     0.074 A 
ATOM     50  C   UNL A   1      43.996  32.626  28.602  1.00  0.00     0.029 A 
ATOM     51  N   UNL A   1      43.868  31.725  30.622  1.00  0.00    -0.354 N 
ATOM     52  N   UNL A   1      39.391  32.254  31.422  1.00  0.00    -0.248 NA
ATOM     53  C   UNL A   1      39.148  33.512  29.468  1.00  0.00     0.031 C 
ATOM     54  C   UNL A   1      42.714  32.863  29.136  1.00  0.00     0.029 A 
ATOM     55  C   UNL A   1      42.689  32.414  30.449  1.00  0.00     0.049 A 
ATOM     56  H   UNL A   1      44.192  31.354  31.476  1.00  0.00     0.167 HD
ATOM     57  C   UNL A   1      40.520  32.986  31.236  1.00  0.00     0.074 A 
ATOM     58  C   UNL A   1      40.205  33.924  30.170  1.00  0.00     0.031 C 
ATOM     59  C   UNL A   1      41.688  32.347  31.482  1.00  0.00     0.037 A 
BRANCH  46  60
ATOM     60  C   UNL A   1      45.703  29.418  30.154  1.00  0.00     0.058 A 
ATOM     61  C   UNL A   1      47.083  29.209  30.236  1.00  0.00     0.135 A 
ATOM     62  C   UNL A   1      44.882  28.578  30.948  1.00  0.00     0.135 A 
ATOM     63  F   UNL A   1      47.925  29.994  29.542  1.00  0.00    -0.206 F 
ATOM     64  C   UNL A   1      47.623  28.185  31.017  1.00  0.00     0.059 A 
ATOM     65  C   UNL A   1      45.394  27.508  31.676  1.00  0.00     0.059 A 
ATOM     66  F   UNL A   1      43.557  28.784  31.018  1.00  0.00    -0.206 F 
ATOM     67  C   UNL A   1      46.769  27.320  31.706  1.00  0.00     0.060 A 
BRANCH  67  68
ATOM     68  S   UNL A   1      47.487  25.936  32.620  1.00  0.00     0.124 S 
ATOM     69  O   UNL A   1      48.041  26.598  33.800  1.00  0.00    -0.237 OA
ATOM     70  O   UNL A   1      46.315  25.104  32.865  1.00  0.00    -0.237 OA
ATOM     71  O   UNL A   1      48.483  25.391  31.703  1.00  0.00    -0.744 OA
ENDBRANCH  67  68
ENDBRANCH  46  60
BRANCH  47  72
ATOM     72  C   UNL A   1      36.349  32.069  30.185  1.00  0.00     0.058 A 
ATOM     73  C   UNL A   1      35.845  32.183  31.545  1.00  0.00     0.135 A 
ATOM     74  C   UNL A   1      35.702  32.979  29.329  1.00  0.00     0.135 A 
ATOM     75  F   UNL A   1      36.282  31.369  32.517  1.00  0.00    -0.206 F 
ATOM     76  C   UNL A   1      34.938  33.172  32.015  1.00  0.00     0.059 A 
ATOM     77  C   UNL A   1      34.760  33.969  29.778  1.00  0.00     0.059 A 
ATOM     78  F   UNL A   1      36.023  33.002  28.028  1.00  0.00    -0.206 F 
ATOM     79  C   UNL A   1      34.424  34.098  31.129  1.00  0.00     0.060 A 
BRANCH  79  80
ATOM     80  S   UNL A   1      33.475  35.530  31.775  1.00  0.00     0.124 S 
ATOM     81  O   UNL A   1      32.351  34.898  32.460  1.00  0.00    -0.237 OA
ATOM     82  O   UNL A   1      34.447  36.189  32.644  1.00  0.00    -0.237 OA
ATOM     83  O   UNL A   1      33.128  36.278  30.570  1.00  0.00    -0.744 OA
ENDBRANCH  79  80
ENDBRANCH  47  72
BRANCH  59  84
ATOM     84  C   UNL A   1      41.786  31.521  32.751  1.00  0.00     0.058 A 
ATOM     85  C   UNL A   1      42.166  31.966  34.038  1.00  0.00     0.135 A 
ATOM     86  C   UNL A   1      41.529  30.145  32.627  1.00  0.00     0.135 A 
ATOM     87  F   UNL A   1      42.338  33.267  34.319  1.00  0.00    -0.206 F 
ATOM     88  C   UNL A   1      42.364  31.079  35.102  1.00  0.00     0.059 A 
ATOM     89  C   UNL A   1      41.665  29.252  33.686  1.00  0.00     0.059 A 
ATOM     90  F   UNL A   1      41.132  29.643  31.445  1.00  0.00    -0.206 F 
ATOM     91  C   UNL A   1      42.125  29.722  34.911  1.00  0.00     0.060 A 
BRANCH  91  92
ATOM     92  S   UNL A   1      42.422  28.571  36.270  1.00  0.00     0.124 S 
ATOM     93  O   UNL A   1      41.070  28.108  36.571  1.00  0.00    -0.237 OA
ATOM     94  O   UNL A   1      43.305  27.581  35.665  1.00  0.00    -0.237 OA
ATOM     95  O   UNL A   1      43.028  29.413  37.298  1.00  0.00    -0.744 OA
ENDBRANCH  91  92
ENDBRANCH  59  84
ENDBRANCH  33  34
ENDBRANCH  26  28
ENDBRANCH  25  26
ENDBRANCH  24  25
ENDBRANCH   1  24
TORSDOF 18
ENDMDL
MODEL 2
REMARK VINA RESULT:     -10.9      1.598      2.764
REMARK SMILES Cc1cc(C(=O)OCCOCCOC(=O)c2ccc(-c3c4nc(c(-c5c(F)cc(S(=O)(=O)[O-])cc5F)c5ccc([nH]5)c(-c5c(F)cc(S(=O)(=O)[O-])cc5F)c5nc(c(-c6c(F)cc(S(=O)(=O)[O-])cc6F)c6ccc3[nH]6)C=C5)C=C4)cc2)c(C)n1[C@@H]1C[N@H+]2CC[C@@H]1CC2
REMARK SMILES IDX 11 1 10 2 9 3 8 4 7 5 5 6 6 7 4 8 1 9 2 10 3 11 84 12 82 13
REMARK SMILES IDX 83 14 85 15 86 16 90 17 87 18 91 19 89 20 92 21 88 22 12 24
REMARK SMILES IDX 13 25 14 26 15 27 16 28 17 29 81 30 18 31 80 32 19 33 20 34
REMARK SMILES IDX 21 35 74 36 22 37 79 38 73 39 75 40 23 41 78 42 72 43 71 44
REMARK SMILES IDX 24 46 58 47 37 48 57 49 38 50 41 51 56 52 76 53 39 54 40 55
REMARK SMILES IDX 55 57 77 58 42 59 25 60 26 61 35 62 27 63 28 64 34 65 36 66
REMARK SMILES IDX 29 67 30 68 31 69 32 70 33 71 59 72 60 73 69 74 61 75 62 76
REMARK SMILES IDX 68 77 70 78 63 79 64 80 65 81 66 82 67 83 43 84 44 85 53 86
REMARK SMILES IDX 45 87 46 88 52 89 54 90 47 91 48 92 49 93 50 94 51 95
REMARK H PARENT 87 23 75 45 41 56
REMARK Flexibility Score: inf
ROOT
ATOM      1  C   UNL A   1      41.885  20.073  26.519  1.00  0.00     0.202 C 
ENDROOT
BRANCH   1   2
ATOM      2  O   UNL A   1      40.448  20.025  26.596  1.00  0.00    -0.374 OA
BRANCH   2   3
ATOM      3  C   UNL A   1      39.753  21.254  26.391  1.00  0.00     0.202 C 
BRANCH   3   4
ATOM      4  C   UNL A   1      38.660  21.216  25.305  1.00  0.00     0.261 C 
BRANCH   4   5
ATOM      5  O   UNL A   1      37.394  21.648  25.815  1.00  0.00    -0.460 OA
BRANCH   5   6
ATOM      6  C   UNL A   1      36.293  21.009  25.331  1.00  0.00     0.340 C 
ATOM      7  O   UNL A   1      36.257  19.818  24.999  1.00  0.00    -0.246 OA
BRANCH   6   8
ATOM      8  C   UNL A   1      35.140  21.901  25.278  1.00  0.00     0.081 A 
ATOM      9  C   UNL A   1      32.124  23.389  26.782  1.00  0.00     0.064 C 
ATOM     10  C   UNL A   1      33.231  22.963  25.889  1.00  0.00     0.016 A 
ATOM     11  C   UNL A   1      34.078  21.921  26.201  1.00  0.00     0.038 A 
ATOM     12  N   UNL A   1      33.657  23.519  24.684  1.00  0.00    -0.339 N 
ATOM     13  C   UNL A   1      34.829  22.844  24.298  1.00  0.00     0.030 A 
ATOM     14  C   UNL A   1      35.609  23.062  23.036  1.00  0.00     0.065 C 
BRANCH  12  15
ATOM     15  C   UNL A   1      33.115  24.689  23.980  1.00  0.00     0.145 C 
ATOM     16  C   UNL A   1      32.703  25.874  24.884  1.00  0.00     0.288 C 
ATOM     17  C   UNL A   1      32.025  24.484  22.884  1.00  0.00     0.029 C 
ATOM     18  N   UNL A   1      31.409  26.477  24.463  1.00  0.00    -0.333 N 
ATOM     19  C   UNL A   1      31.925  25.823  22.102  1.00  0.00     0.067 C 
ATOM     20  C   UNL A   1      30.627  24.310  23.487  1.00  0.00     0.067 C 
ATOM     21  C   UNL A   1      31.529  26.957  23.069  1.00  0.00     0.262 C 
ATOM     22  C   UNL A   1      30.360  25.432  24.505  1.00  0.00     0.262 C 
ATOM     23  H   UNL A   1      31.171  27.251  25.085  1.00  0.00     0.348 HD
ENDBRANCH  12  15
ENDBRANCH   6   8
ENDBRANCH   5   6
ENDBRANCH   4   5
ENDBRANCH   3   4
ENDBRANCH   2   3
ENDBRANCH   1   2
BRANCH   1  24
ATOM     24  C   UNL A   1      42.534  21.346  25.893  1.00  0.00     0.261 C 
BRANCH  24  25
ATOM     25  O   UNL A   1      43.827  21.223  25.176  1.00  0.00    -0.460 OA
BRANCH  25  26
ATOM     26  C   UNL A   1      44.820  22.102  25.546  1.00  0.00     0.338 C 
ATOM     27  O   UNL A   1      46.004  21.777  25.509  1.00  0.00    -0.246 OA
BRANCH  26  28
ATOM     28  C   UNL A   1      44.416  23.558  25.915  1.00  0.00     0.060 A 
ATOM     29  C   UNL A   1      44.078  23.790  27.236  1.00  0.00     0.016 A 
ATOM     30  C   UNL A   1      44.185  24.684  25.090  1.00  0.00     0.016 A 
ATOM     31  C   UNL A   1      43.597  25.074  27.690  1.00  0.00     0.010 A 
ATOM     32  C   UNL A   1      43.594  25.995  25.570  1.00  0.00     0.010 A 
ATOM     33  C   UNL A   1      43.255  26.257  26.911  1.00  0.00    -0.014 A 
BRANCH  33  34
ATOM     34  C   UNL A   1      42.365  27.513  27.695  1.00  0.00     0.031 A 
ATOM     35  C   UNL A   1      43.429  28.544  27.857  1.00  0.00     0.074 A 
ATOM     36  C   UNL A   1      41.183  27.923  28.384  1.00  0.00     0.049 A 
ATOM     37  N   UNL A   1      44.466  28.193  28.558  1.00  0.00    -0.248 NA
ATOM     38  C   UNL A   1      43.658  29.690  26.975  1.00  0.00     0.031 C 
ATOM     39  C   UNL A   1      40.017  27.108  28.792  1.00  0.00     0.029 A 
ATOM     40  N   UNL A   1      40.727  29.203  28.957  1.00  0.00    -0.354 N 
ATOM     41  C   UNL A   1      45.413  29.167  28.423  1.00  0.00     0.074 A 
ATOM     42  C   UNL A   1      44.925  29.984  27.311  1.00  0.00     0.031 C 
ATOM     43  C   UNL A   1      38.995  27.851  29.333  1.00  0.00     0.029 A 
ATOM     44  C   UNL A   1      39.330  29.277  29.442  1.00  0.00     0.049 A 
ATOM     45  H   UNL A   1      41.329  29.979  29.013  1.00  0.00     0.167 HD
ATOM     46  C   UNL A   1      45.990  29.535  29.600  1.00  0.00     0.037 A 
ATOM     47  C   UNL A   1      38.551  30.334  29.993  1.00  0.00     0.037 A 
ATOM     48  C   UNL A   1      45.302  30.676  30.143  1.00  0.00     0.049 A 
ATOM     49  C   UNL A   1      39.523  31.161  30.715  1.00  0.00     0.074 A 
ATOM     50  C   UNL A   1      44.819  31.831  29.555  1.00  0.00     0.029 A 
ATOM     51  N   UNL A   1      44.559  30.470  31.284  1.00  0.00    -0.354 N 
ATOM     52  N   UNL A   1      40.028  30.795  31.851  1.00  0.00    -0.248 NA
ATOM     53  C   UNL A   1      39.906  32.487  30.245  1.00  0.00     0.031 C 
ATOM     54  C   UNL A   1      43.498  31.934  30.034  1.00  0.00     0.029 A 
ATOM     55  C   UNL A   1      43.384  31.181  31.194  1.00  0.00     0.049 A 
ATOM     56  H   UNL A   1      44.827  29.904  32.045  1.00  0.00     0.167 HD
ATOM     57  C   UNL A   1      41.154  31.550  31.931  1.00  0.00     0.074 A 
ATOM     58  C   UNL A   1      40.902  32.717  31.102  1.00  0.00     0.031 C 
ATOM     59  C   UNL A   1      42.312  30.868  32.103  1.00  0.00     0.037 A 
BRANCH  46  60
ATOM     60  C   UNL A   1      46.462  28.342  30.413  1.00  0.00     0.058 A 
ATOM     61  C   UNL A   1      45.519  27.598  31.129  1.00  0.00     0.135 A 
ATOM     62  C   UNL A   1      47.826  28.023  30.633  1.00  0.00     0.135 A 
ATOM     63  F   UNL A   1      44.207  27.819  30.943  1.00  0.00    -0.206 F 
ATOM     64  C   UNL A   1      45.903  26.628  32.057  1.00  0.00     0.059 A 
ATOM     65  C   UNL A   1      48.232  27.111  31.603  1.00  0.00     0.059 A 
ATOM     66  F   UNL A   1      48.791  28.608  29.905  1.00  0.00    -0.206 F 
ATOM     67  C   UNL A   1      47.261  26.416  32.310  1.00  0.00     0.060 A 
BRANCH  67  68
ATOM     68  S   UNL A   1      47.730  25.234  33.594  1.00  0.00     0.124 S 
ATOM     69  O   UNL A   1      46.535  24.398  33.699  1.00  0.00    -0.237 OA
ATOM     70  O   UNL A   1      48.891  24.588  32.991  1.00  0.00    -0.237 OA
ATOM     71  O   UNL A   1      47.993  26.070  34.760  1.00  0.00    -0.744 OA
ENDBRANCH  67  68
ENDBRANCH  46  60
BRANCH  47  72
ATOM     72  C   UNL A   1      37.087  30.917  30.383  1.00  0.00     0.058 A 
ATOM     73  C   UNL A   1      36.586  30.915  31.748  1.00  0.00     0.135 A 
ATOM     74  C   UNL A   1      36.388  31.845  29.589  1.00  0.00     0.135 A 
ATOM     75  F   UNL A   1      37.071  30.063  32.664  1.00  0.00    -0.206 F 
ATOM     76  C   UNL A   1      35.630  31.820  32.284  1.00  0.00     0.059 A 
ATOM     77  C   UNL A   1      35.397  32.752  30.104  1.00  0.00     0.059 A 
ATOM     78  F   UNL A   1      36.701  31.971  28.292  1.00  0.00    -0.206 F 
ATOM     79  C   UNL A   1      35.063  32.774  31.461  1.00  0.00     0.060 A 
BRANCH  79  80
ATOM     80  S   UNL A   1      34.042  34.107  32.202  1.00  0.00     0.124 S 
ATOM     81  O   UNL A   1      35.039  35.009  32.769  1.00  0.00    -0.237 OA
ATOM     82  O   UNL A   1      33.312  34.627  31.048  1.00  0.00    -0.237 OA
ATOM     83  O   UNL A   1      33.217  33.400  33.177  1.00  0.00    -0.744 OA
ENDBRANCH  79  80
ENDBRANCH  47  72
BRANCH  59  84
ATOM     84  C   UNL A   1      42.332  29.760  33.140  1.00  0.00     0.058 A 
ATOM     85  C   UNL A   1      41.876  28.431  32.984  1.00  0.00     0.135 A 
ATOM     86  C   UNL A   1      42.803  30.103  34.418  1.00  0.00     0.135 A 
ATOM     87  F   UNL A   1      41.499  27.943  31.792  1.00  0.00    -0.206 F 
ATOM     88  C   UNL A   1      41.809  27.539  34.059  1.00  0.00     0.059 A 
ATOM     89  C   UNL A   1      42.800  29.214  35.488  1.00  0.00     0.059 A 
ATOM     90  F   UNL A   1      43.286  31.337  34.644  1.00  0.00    -0.206 F 
ATOM     91  C   UNL A   1      42.260  27.945  35.311  1.00  0.00     0.060 A 
BRANCH  91  92
ATOM     92  S   UNL A   1      42.133  26.810  36.709  1.00  0.00     0.124 S 
ATOM     93  O   UNL A   1      40.806  27.124  37.230  1.00  0.00    -0.237 OA
ATOM     94  O   UNL A   1      42.268  25.504  36.075  1.00  0.00    -0.237 OA
ATOM     95  O   UNL A   1      43.243  27.210  37.570  1.00  0.00    -0.744 OA
ENDBRANCH  91  92
ENDBRANCH  59  84
ENDBRANCH  33  34
ENDBRANCH  26  28
ENDBRANCH  25  26
ENDBRANCH  24  25
ENDBRANCH   1  24
TORSDOF 18
ENDMDL
MODEL 3
REMARK VINA RESULT:     -10.8      1.941      3.160
REMARK SMILES Cc1cc(C(=O)OCCOCCOC(=O)c2ccc(-c3c4nc(c(-c5c(F)cc(S(=O)(=O)[O-])cc5F)c5ccc([nH]5)c(-c5c(F)cc(S(=O)(=O)[O-])cc5F)c5nc(c(-c6c(F)cc(S(=O)(=O)[O-])cc6F)c6ccc3[nH]6)C=C5)C=C4)cc2)c(C)n1[C@@H]1C[N@H+]2CC[C@@H]1CC2
REMARK SMILES IDX 11 1 10 2 9 3 8 4 7 5 5 6 6 7 4 8 1 9 2 10 3 11 84 12 82 13
REMARK SMILES IDX 83 14 85 15 86 16 90 17 87 18 91 19 89 20 92 21 88 22 12 24
REMARK SMILES IDX 13 25 14 26 15 27 16 28 17 29 81 30 18 31 80 32 19 33 20 34
REMARK SMILES IDX 21 35 74 36 22 37 79 38 73 39 75 40 23 41 78 42 72 43 71 44
REMARK SMILES IDX 24 46 58 47 37 48 57 49 38 50 41 51 56 52 76 53 39 54 40 55
REMARK SMILES IDX 55 57 77 58 42 59 25 60 26 61 35 62 27 63 28 64 34 65 36 66
REMARK SMILES IDX 29 67 30 68 31 69 32 70 33 71 59 72 60 73 69 74 61 75 62 76
REMARK SMILES IDX 68 77 70 78 63 79 64 80 65 81 66 82 67 83 43 84 44 85 53 86
REMARK SMILES IDX 45 87 46 88 52 89 54 90 47 91 48 92 49 93 50 94 51 95
REMARK H PARENT 87 23 75 45 41 56
REMARK Flexibility Score: inf
ROOT
ATOM      1  C   UNL A   1      39.833  21.796  26.080  1.00  0.00     0.202 C 
ENDROOT
BRANCH   1   2
ATOM      2  O   UNL A   1      38.450  21.402  26.162  1.00  0.00    -0.374 OA
BRANCH   2   3
ATOM      3  C   UNL A   1      37.754  21.244  24.928  1.00  0.00     0.202 C 
BRANCH   3   4
ATOM      4  C   UNL A   1      36.884  22.444  24.506  1.00  0.00     0.261 C 
BRANCH   4   5
ATOM      5  O   UNL A   1      35.696  22.022  23.828  1.00  0.00    -0.460 OA
BRANCH   5   6
ATOM      6  C   UNL A   1      34.513  22.303  24.441  1.00  0.00     0.340 C 
ATOM      7  O   UNL A   1      34.007  21.625  25.343  1.00  0.00    -0.246 OA
BRANCH   6   8
ATOM      8  C   UNL A   1      33.922  23.531  23.920  1.00  0.00     0.081 A 
ATOM      9  C   UNL A   1      32.660  25.594  21.139  1.00  0.00     0.064 C 
ATOM     10  C   UNL A   1      33.116  25.056  22.447  1.00  0.00     0.016 A 
ATOM     11  C   UNL A   1      33.827  23.881  22.560  1.00  0.00     0.038 A 
ATOM     12  N   UNL A   1      32.884  25.546  23.731  1.00  0.00    -0.339 N 
ATOM     13  C   UNL A   1      33.403  24.607  24.641  1.00  0.00     0.030 A 
ATOM     14  C   UNL A   1      33.435  24.736  26.135  1.00  0.00     0.065 C 
BRANCH  12  15
ATOM     15  C   UNL A   1      32.114  26.732  24.128  1.00  0.00     0.145 C 
ATOM     16  C   UNL A   1      30.969  27.130  23.168  1.00  0.00     0.288 C 
ATOM     17  C   UNL A   1      32.871  28.020  24.575  1.00  0.00     0.029 C 
ATOM     18  N   UNL A   1      30.908  28.600  22.945  1.00  0.00    -0.333 N 
ATOM     19  C   UNL A   1      31.819  28.940  25.253  1.00  0.00     0.067 C 
ATOM     20  C   UNL A   1      33.361  28.845  23.380  1.00  0.00     0.067 C 
ATOM     21  C   UNL A   1      30.703  29.279  24.244  1.00  0.00     0.262 C 
ATOM     22  C   UNL A   1      32.204  29.052  22.386  1.00  0.00     0.262 C 
ATOM     23  H   UNL A   1      30.144  28.821  22.306  1.00  0.00     0.348 HD
ENDBRANCH  12  15
ENDBRANCH   6   8
ENDBRANCH   5   6
ENDBRANCH   4   5
ENDBRANCH   3   4
ENDBRANCH   2   3
ENDBRANCH   1   2
BRANCH   1  24
ATOM     24  C   UNL A   1      40.914  20.697  26.316  1.00  0.00     0.261 C 
BRANCH  24  25
ATOM     25  O   UNL A   1      42.154  21.045  27.051  1.00  0.00    -0.460 OA
BRANCH  25  26
ATOM     26  C   UNL A   1      43.007  21.931  26.432  1.00  0.00     0.338 C 
ATOM     27  O   UNL A   1      43.859  21.544  25.637  1.00  0.00    -0.246 OA
BRANCH  26  28
ATOM     28  C   UNL A   1      42.799  23.452  26.683  1.00  0.00     0.060 A 
ATOM     29  C   UNL A   1      42.416  23.822  27.959  1.00  0.00     0.016 A 
ATOM     30  C   UNL A   1      42.788  24.539  25.777  1.00  0.00     0.016 A 
ATOM     31  C   UNL A   1      42.101  25.190  28.299  1.00  0.00     0.010 A 
ATOM     32  C   UNL A   1      42.367  25.951  26.133  1.00  0.00     0.010 A 
ATOM     33  C   UNL A   1      41.986  26.352  27.428  1.00  0.00    -0.014 A 
BRANCH  33  34
ATOM     34  C   UNL A   1      41.243  27.774  28.068  1.00  0.00     0.031 A 
ATOM     35  C   UNL A   1      42.399  28.714  28.066  1.00  0.00     0.074 A 
ATOM     36  C   UNL A   1      40.130  28.375  28.732  1.00  0.00     0.049 A 
ATOM     37  N   UNL A   1      43.428  28.359  28.777  1.00  0.00    -0.248 NA
ATOM     38  C   UNL A   1      42.693  29.714  27.038  1.00  0.00     0.031 C 
ATOM     39  C   UNL A   1      38.913  27.729  29.273  1.00  0.00     0.029 A 
ATOM     40  N   UNL A   1      39.812  29.753  29.147  1.00  0.00    -0.354 N 
ATOM     41  C   UNL A   1      44.452  29.215  28.491  1.00  0.00     0.074 A 
ATOM     42  C   UNL A   1      43.994  29.928  27.298  1.00  0.00     0.031 C 
ATOM     43  C   UNL A   1      37.983  28.626  29.742  1.00  0.00     0.029 A 
ATOM     44  C   UNL A   1      38.447  30.018  29.657  1.00  0.00     0.049 A 
ATOM     45  H   UNL A   1      40.482  30.471  29.086  1.00  0.00     0.167 HD
ATOM     46  C   UNL A   1      45.105  29.674  29.595  1.00  0.00     0.037 A 
ATOM     47  C   UNL A   1      37.786  31.203  30.089  1.00  0.00     0.037 A 
ATOM     48  C   UNL A   1      44.542  30.933  30.005  1.00  0.00     0.049 A 
ATOM     49  C   UNL A   1      38.856  32.021  30.671  1.00  0.00     0.074 A 
ATOM     50  C   UNL A   1      44.141  32.045  29.287  1.00  0.00     0.029 A 
ATOM     51  N   UNL A   1      43.830  30.942  31.184  1.00  0.00    -0.354 N 
ATOM     52  N   UNL A   1      39.371  31.755  31.831  1.00  0.00    -0.248 NA
ATOM     53  C   UNL A   1      39.336  33.236  30.024  1.00  0.00     0.031 C 
ATOM     54  C   UNL A   1      42.854  32.329  29.785  1.00  0.00     0.029 A 
ATOM     55  C   UNL A   1      42.720  31.742  31.035  1.00  0.00     0.049 A 
ATOM     56  H   UNL A   1      44.077  30.453  32.003  1.00  0.00     0.167 HD
ATOM     57  C   UNL A   1      40.562  32.406  31.781  1.00  0.00     0.074 A 
ATOM     58  C   UNL A   1      40.381  33.478  30.816  1.00  0.00     0.031 C 
ATOM     59  C   UNL A   1      41.661  31.647  32.007  1.00  0.00     0.037 A 
BRANCH  46  60
ATOM     60  C   UNL A   1      45.501  28.554  30.541  1.00  0.00     0.058 A 
ATOM     61  C   UNL A   1      44.510  27.943  31.315  1.00  0.00     0.135 A 
ATOM     62  C   UNL A   1      46.842  28.191  30.820  1.00  0.00     0.135 A 
ATOM     63  F   UNL A   1      43.214  28.209  31.081  1.00  0.00    -0.206 F 
ATOM     64  C   UNL A   1      44.829  27.061  32.350  1.00  0.00     0.059 A 
ATOM     65  C   UNL A   1      47.187  27.370  31.891  1.00  0.00     0.059 A 
ATOM     66  F   UNL A   1      47.848  28.641  30.052  1.00  0.00    -0.206 F 
ATOM     67  C   UNL A   1      46.170  26.807  32.651  1.00  0.00     0.060 A 
BRANCH  67  68
ATOM     68  S   UNL A   1      46.558  25.750  34.063  1.00  0.00     0.124 S 
ATOM     69  O   UNL A   1      47.810  26.326  34.549  1.00  0.00    -0.237 OA
ATOM     70  O   UNL A   1      45.399  25.966  34.922  1.00  0.00    -0.237 OA
ATOM     71  O   UNL A   1      46.686  24.419  33.479  1.00  0.00    -0.744 OA
ENDBRANCH  67  68
ENDBRANCH  46  60
BRANCH  47  72
ATOM     72  C   UNL A   1      36.397  31.964  30.441  1.00  0.00     0.058 A 
ATOM     73  C   UNL A   1      35.880  32.053  31.797  1.00  0.00     0.135 A 
ATOM     74  C   UNL A   1      35.824  32.949  29.616  1.00  0.00     0.135 A 
ATOM     75  F   UNL A   1      36.247  31.172  32.740  1.00  0.00    -0.206 F 
ATOM     76  C   UNL A   1      35.030  33.078  32.297  1.00  0.00     0.059 A 
ATOM     77  C   UNL A   1      34.940  33.978  30.094  1.00  0.00     0.059 A 
ATOM     78  F   UNL A   1      36.168  33.006  28.322  1.00  0.00    -0.206 F 
ATOM     79  C   UNL A   1      34.591  34.072  31.445  1.00  0.00     0.060 A 
BRANCH  79  80
ATOM     80  S   UNL A   1      33.725  35.533  32.139  1.00  0.00     0.124 S 
ATOM     81  O   UNL A   1      32.532  34.952  32.745  1.00  0.00    -0.237 OA
ATOM     82  O   UNL A   1      34.707  36.069  33.078  1.00  0.00    -0.237 OA
ATOM     83  O   UNL A   1      33.483  36.371  30.967  1.00  0.00    -0.744 OA
ENDBRANCH  79  80
ENDBRANCH  47  72
BRANCH  59  84
ATOM     84  C   UNL A   1      41.624  30.681  33.177  1.00  0.00     0.058 A 
ATOM     85  C   UNL A   1      41.950  30.953  34.525  1.00  0.00     0.135 A 
ATOM     86  C   UNL A   1      41.285  29.349  32.882  1.00  0.00     0.135 A 
ATOM     87  F   UNL A   1      42.190  32.198  34.962  1.00  0.00    -0.206 F 
ATOM     88  C   UNL A   1      42.021  29.942  35.490  1.00  0.00     0.059 A 
ATOM     89  C   UNL A   1      41.293  28.338  33.838  1.00  0.00     0.059 A 
ATOM     90  F   UNL A   1      40.931  29.011  31.630  1.00  0.00    -0.206 F 
ATOM     91  C   UNL A   1      41.704  28.635  35.132  1.00  0.00     0.060 A 
BRANCH  91  92
ATOM     92  S   UNL A   1      41.838  27.322  36.364  1.00  0.00     0.124 S 
ATOM     93  O   UNL A   1      40.627  27.529  37.154  1.00  0.00    -0.237 OA
ATOM     94  O   UNL A   1      41.858  26.115  35.548  1.00  0.00    -0.237 OA
ATOM     95  O   UNL A   1      43.086  27.637  37.056  1.00  0.00    -0.744 OA
ENDBRANCH  91  92
ENDBRANCH  59  84
ENDBRANCH  33  34
ENDBRANCH  26  28
ENDBRANCH  25  26
ENDBRANCH  24  25
ENDBRANCH   1  24
TORSDOF 18
ENDMDL
