MODEL 1
REMARK VINA RESULT:     -11.4      0.000      0.000
REMARK SMILES CC(C)N(c1cc2c(cc1Cl)C=C(C(=O)OCCOCCOC(=O)c1ccc(-c3c4nc(c(-c5c(F)cc(S(=O)(=O)[O-])cc5F)c5ccc([nH]5)c(-c5c(F)cc(S(=O)(=O)[O-])cc5F)c5nc(c(-c6c(F)cc(S(=O)(=O)[O-])cc6F)c6ccc3[nH]6)C=C5)C=C4)cc1)[C@@H](C(F)(F)F)O2)C(C)C
REMARK SMILES IDX 20 1 19 2 18 3 17 4 16 5 14 6 15 7 13 8 5 9 6 10 10 11 7 12
REMARK SMILES IDX 9 13 11 14 8 15 96 16 12 17 91 18 4 19 2 20 1 21 3 22 97 23
REMARK SMILES IDX 98 24 99 25 92 26 93 27 94 28 95 29 21 30 22 31 23 32 24 33
REMARK SMILES IDX 25 34 26 35 90 36 27 37 89 38 28 39 29 40 30 41 83 42 31 43
REMARK SMILES IDX 88 44 82 45 84 46 32 47 87 48 81 49 80 50 33 52 67 53 46 54
REMARK SMILES IDX 66 55 47 56 50 57 65 58 85 59 48 60 49 61 64 63 86 64 51 65
REMARK SMILES IDX 34 66 35 67 44 68 36 69 37 70 43 71 45 72 38 73 39 74 40 75
REMARK SMILES IDX 41 76 42 77 68 78 69 79 78 80 70 81 71 82 77 83 79 84 72 85
REMARK SMILES IDX 73 86 74 87 75 88 76 89 52 90 53 91 62 92 54 93 55 94 61 95
REMARK SMILES IDX 63 96 56 97 57 98 58 99 59 100 60 101
REMARK H PARENT 84 51 50 62
REMARK Flexibility Score: inf
ROOT
ATOM      1  C   UNL A   1      40.181  21.472  26.869  1.00  0.00     0.202 C 
ENDROOT
BRANCH   1   2
ATOM      2  O   UNL A   1      39.828  20.582  25.812  1.00  0.00    -0.374 OA
BRANCH   2   3
ATOM      3  C   UNL A   1      38.480  20.574  25.350  1.00  0.00     0.202 C 
BRANCH   3   4
ATOM      4  C   UNL A   1      37.651  21.850  25.526  1.00  0.00     0.261 C 
BRANCH   4   5
ATOM      5  O   UNL A   1      36.704  22.040  24.464  1.00  0.00    -0.460 OA
BRANCH   5   6
ATOM      6  C   UNL A   1      35.507  21.448  24.679  1.00  0.00     0.338 C 
ATOM      7  O   UNL A   1      35.311  20.279  24.971  1.00  0.00    -0.246 OA
BRANCH   6   8
ATOM      8  C   UNL A   1      34.431  22.455  24.656  1.00  0.00     0.087 C 
ATOM      9  C   UNL A   1      32.077  26.886  24.128  1.00  0.00     0.060 A 
ATOM     10  C   UNL A   1      31.811  25.687  24.834  1.00  0.00     0.074 A 
ATOM     11  C   UNL A   1      33.160  26.849  23.217  1.00  0.00     0.065 A 
ATOM     12  C   UNL A   1      32.616  24.548  24.707  1.00  0.00     0.130 A 
ATOM     13  C   UNL A   1      33.935  25.693  23.054  1.00  0.00     0.034 A 
ATOM     14  Cl  UNL A   1      33.727  28.222  22.322  1.00  0.00    -0.082 Cl
ATOM     15  C   UNL A   1      33.688  24.561  23.824  1.00  0.00     0.019 A 
ATOM     16  O   UNL A   1      32.302  23.470  25.488  1.00  0.00    -0.475 OA
ATOM     17  C   UNL A   1      34.606  23.444  23.773  1.00  0.00     0.027 C 
ATOM     18  C   UNL A   1      33.270  22.379  25.611  1.00  0.00     0.316 C 
BRANCH   9  19
ATOM     19  N   UNL A   1      31.299  28.033  24.401  1.00  0.00    -0.365 N 
BRANCH  19  20
ATOM     20  C   UNL A   1      31.613  28.816  25.617  1.00  0.00     0.076 C 
ATOM     21  C   UNL A   1      31.670  27.963  26.882  1.00  0.00     0.030 C 
ATOM     22  C   UNL A   1      32.881  29.663  25.489  1.00  0.00     0.030 C 
ENDBRANCH  19  20
BRANCH  19  23
ATOM     23  C   UNL A   1      30.240  28.355  23.411  1.00  0.00     0.076 C 
ATOM     24  C   UNL A   1      29.042  27.411  23.490  1.00  0.00     0.030 C 
ATOM     25  C   UNL A   1      29.800  29.814  23.447  1.00  0.00     0.030 C 
ENDBRANCH  19  23
ENDBRANCH   9  19
BRANCH  18  26
ATOM     26  C   UNL A   1      33.725  22.280  27.076  1.00  0.00     0.430 C 
ATOM     27  F   UNL A   1      34.878  22.960  27.278  1.00  0.00    -0.167 F 
ATOM     28  F   UNL A   1      32.807  22.803  27.919  1.00  0.00    -0.167 F 
ATOM     29  F   UNL A   1      33.936  20.997  27.449  1.00  0.00    -0.167 F 
ENDBRANCH  18  26
ENDBRANCH   6   8
ENDBRANCH   5   6
ENDBRANCH   4   5
ENDBRANCH   3   4
ENDBRANCH   2   3
ENDBRANCH   1   2
BRANCH   1  30
ATOM     30  C   UNL A   1      41.180  22.602  26.581  1.00  0.00     0.261 C 
BRANCH  30  31
ATOM     31  O   UNL A   1      40.563  23.896  26.500  1.00  0.00    -0.460 OA
BRANCH  31  32
ATOM     32  C   UNL A   1      41.428  24.934  26.368  1.00  0.00     0.338 C 
ATOM     33  O   UNL A   1      42.223  25.118  25.459  1.00  0.00    -0.246 OA
BRANCH  32  34
ATOM     34  C   UNL A   1      41.133  25.945  27.400  1.00  0.00     0.060 A 
ATOM     35  C   UNL A   1      40.065  25.782  28.282  1.00  0.00     0.016 A 
ATOM     36  C   UNL A   1      41.975  27.061  27.499  1.00  0.00     0.016 A 
ATOM     37  C   UNL A   1      39.854  26.735  29.282  1.00  0.00     0.010 A 
ATOM     38  C   UNL A   1      41.762  28.011  28.499  1.00  0.00     0.010 A 
ATOM     39  C   UNL A   1      40.710  27.845  29.410  1.00  0.00    -0.014 A 
BRANCH  39  40
ATOM     40  C   UNL A   1      40.571  28.756  30.574  1.00  0.00     0.031 A 
ATOM     41  C   UNL A   1      41.430  28.603  31.797  1.00  0.00     0.074 A 
ATOM     42  C   UNL A   1      39.640  29.730  30.517  1.00  0.00     0.049 A 
ATOM     43  N   UNL A   1      41.470  29.355  32.867  1.00  0.00    -0.248 NA
ATOM     44  C   UNL A   1      42.357  27.461  31.831  1.00  0.00     0.031 C 
ATOM     45  C   UNL A   1      38.715  29.938  29.400  1.00  0.00     0.029 A 
ATOM     46  N   UNL A   1      39.316  30.723  31.406  1.00  0.00    -0.354 N 
ATOM     47  C   UNL A   1      42.432  28.792  33.696  1.00  0.00     0.074 A 
ATOM     48  C   UNL A   1      42.925  27.609  33.022  1.00  0.00     0.031 C 
ATOM     49  C   UNL A   1      37.946  31.006  29.661  1.00  0.00     0.029 A 
ATOM     50  C   UNL A   1      38.296  31.539  30.974  1.00  0.00     0.049 A 
ATOM     51  H   UNL A   1      39.770  30.840  32.272  1.00  0.00     0.167 HD
ATOM     52  C   UNL A   1      42.869  29.236  34.898  1.00  0.00     0.037 A 
ATOM     53  C   UNL A   1      37.706  32.593  31.569  1.00  0.00     0.037 A 
ATOM     54  C   UNL A   1      42.373  30.419  35.557  1.00  0.00     0.049 A 
ATOM     55  C   UNL A   1      38.203  33.050  32.914  1.00  0.00     0.074 A 
ATOM     56  C   UNL A   1      42.804  30.978  36.748  1.00  0.00     0.029 A 
ATOM     57  N   UNL A   1      41.334  31.214  35.096  1.00  0.00    -0.354 N 
ATOM     58  N   UNL A   1      39.180  32.560  33.639  1.00  0.00    -0.248 NA
ATOM     59  C   UNL A   1      37.526  34.204  33.521  1.00  0.00     0.031 C 
ATOM     60  C   UNL A   1      41.986  32.074  37.039  1.00  0.00     0.029 A 
ATOM     61  C   UNL A   1      41.087  32.238  35.998  1.00  0.00     0.049 A 
ATOM     62  H   UNL A   1      40.845  31.073  34.254  1.00  0.00     0.167 HD
ATOM     63  C   UNL A   1      39.246  33.358  34.777  1.00  0.00     0.074 A 
ATOM     64  C   UNL A   1      38.228  34.376  34.632  1.00  0.00     0.031 C 
ATOM     65  C   UNL A   1      40.074  33.252  35.845  1.00  0.00     0.037 A 
BRANCH  52  66
ATOM     66  C   UNL A   1      43.957  28.466  35.597  1.00  0.00     0.058 A 
ATOM     67  C   UNL A   1      45.310  28.799  35.432  1.00  0.00     0.135 A 
ATOM     68  C   UNL A   1      43.634  27.485  36.550  1.00  0.00     0.135 A 
ATOM     69  F   UNL A   1      45.673  29.719  34.526  1.00  0.00    -0.206 F 
ATOM     70  C   UNL A   1      46.305  28.195  36.195  1.00  0.00     0.059 A 
ATOM     71  C   UNL A   1      44.610  26.886  37.341  1.00  0.00     0.059 A 
ATOM     72  F   UNL A   1      42.355  27.130  36.747  1.00  0.00    -0.206 F 
ATOM     73  C   UNL A   1      45.943  27.251  37.158  1.00  0.00     0.060 A 
BRANCH  73  74
ATOM     74  S   UNL A   1      47.243  26.535  38.187  1.00  0.00     0.124 S 
ATOM     75  O   UNL A   1      48.078  27.701  38.460  1.00  0.00    -0.237 OA
ATOM     76  O   UNL A   1      46.486  26.017  39.322  1.00  0.00    -0.237 OA
ATOM     77  O   UNL A   1      47.845  25.524  37.323  1.00  0.00    -0.744 OA
ENDBRANCH  73  74
ENDBRANCH  52  66
BRANCH  53  78
ATOM     78  C   UNL A   1      36.576  33.291  30.896  1.00  0.00     0.058 A 
ATOM     79  C   UNL A   1      36.791  34.141  29.802  1.00  0.00     0.135 A 
ATOM     80  C   UNL A   1      35.255  33.124  31.341  1.00  0.00     0.135 A 
ATOM     81  F   UNL A   1      38.036  34.338  29.339  1.00  0.00    -0.206 F 
ATOM     82  C   UNL A   1      35.744  34.823  29.191  1.00  0.00     0.059 A 
ATOM     83  C   UNL A   1      34.187  33.769  30.727  1.00  0.00     0.059 A 
ATOM     84  F   UNL A   1      34.991  32.307  32.374  1.00  0.00    -0.206 F 
ATOM     85  C   UNL A   1      34.444  34.629  29.662  1.00  0.00     0.060 A 
BRANCH  85  86
ATOM     86  S   UNL A   1      33.091  35.506  28.850  1.00  0.00     0.124 S 
ATOM     87  O   UNL A   1      33.814  36.494  28.058  1.00  0.00    -0.237 OA
ATOM     88  O   UNL A   1      32.442  34.436  28.099  1.00  0.00    -0.237 OA
ATOM     89  O   UNL A   1      32.316  36.037  29.968  1.00  0.00    -0.744 OA
ENDBRANCH  85  86
ENDBRANCH  53  78
BRANCH  65  90
ATOM     90  C   UNL A   1      39.932  34.269  36.945  1.00  0.00     0.058 A 
ATOM     91  C   UNL A   1      40.561  35.522  36.874  1.00  0.00     0.135 A 
ATOM     92  C   UNL A   1      39.101  34.016  38.050  1.00  0.00     0.135 A 
ATOM     93  F   UNL A   1      41.371  35.814  35.845  1.00  0.00    -0.206 F 
ATOM     94  C   UNL A   1      40.383  36.482  37.866  1.00  0.00     0.059 A 
ATOM     95  C   UNL A   1      38.884  34.972  39.037  1.00  0.00     0.059 A 
ATOM     96  F   UNL A   1      38.469  32.836  38.163  1.00  0.00    -0.206 F 
ATOM     97  C   UNL A   1      39.537  36.199  38.940  1.00  0.00     0.060 A 
BRANCH  97  98
ATOM     98  S   UNL A   1      39.286  37.473  40.196  1.00  0.00     0.124 S 
ATOM     99  O   UNL A   1      40.609  38.086  40.262  1.00  0.00    -0.237 OA
ATOM    100  O   UNL A   1      38.236  38.292  39.600  1.00  0.00    -0.237 OA
ATOM    101  O   UNL A   1      38.888  36.714  41.377  1.00  0.00    -0.744 OA
ENDBRANCH  97  98
ENDBRANCH  65  90
ENDBRANCH  39  40
ENDBRANCH  32  34
ENDBRANCH  31  32
ENDBRANCH  30  31
ENDBRANCH   1  30
TORSDOF 21
ENDMDL
MODEL 2
REMARK VINA RESULT:     -11.2      0.661      7.984
REMARK SMILES CC(C)N(c1cc2c(cc1Cl)C=C(C(=O)OCCOCCOC(=O)c1ccc(-c3c4nc(c(-c5c(F)cc(S(=O)(=O)[O-])cc5F)c5ccc([nH]5)c(-c5c(F)cc(S(=O)(=O)[O-])cc5F)c5nc(c(-c6c(F)cc(S(=O)(=O)[O-])cc6F)c6ccc3[nH]6)C=C5)C=C4)cc1)[C@@H](C(F)(F)F)O2)C(C)C
REMARK SMILES IDX 20 1 19 2 18 3 17 4 16 5 14 6 15 7 13 8 5 9 6 10 10 11 7 12
REMARK SMILES IDX 9 13 11 14 8 15 96 16 12 17 91 18 4 19 2 20 1 21 3 22 97 23
REMARK SMILES IDX 98 24 99 25 92 26 93 27 94 28 95 29 21 30 22 31 23 32 24 33
REMARK SMILES IDX 25 34 26 35 90 36 27 37 89 38 28 39 29 40 30 41 83 42 31 43
REMARK SMILES IDX 88 44 82 45 84 46 32 47 87 48 81 49 80 50 33 52 67 53 46 54
REMARK SMILES IDX 66 55 47 56 50 57 65 58 85 59 48 60 49 61 64 63 86 64 51 65
REMARK SMILES IDX 34 66 35 67 44 68 36 69 37 70 43 71 45 72 38 73 39 74 40 75
REMARK SMILES IDX 41 76 42 77 68 78 69 79 78 80 70 81 71 82 77 83 79 84 72 85
REMARK SMILES IDX 73 86 74 87 75 88 76 89 52 90 53 91 62 92 54 93 55 94 61 95
REMARK SMILES IDX 63 96 56 97 57 98 58 99 59 100 60 101
REMARK H PARENT 84 51 50 62
REMARK Flexibility Score: inf
ROOT
ATOM      1  C   UNL A   1      40.489  21.213  26.607  1.00  0.00     0.202 C 
ENDROOT
BRANCH   1   2
ATOM      2  O   UNL A   1      39.310  21.533  25.873  1.00  0.00    -0.374 OA
BRANCH   2   3
ATOM      3  C   UNL A   1      38.472  20.469  25.430  1.00  0.00     0.202 C 
BRANCH   3   4
ATOM      4  C   UNL A   1      37.254  20.821  24.571  1.00  0.00     0.261 C 
BRANCH   4   5
ATOM      5  O   UNL A   1      36.168  21.348  25.347  1.00  0.00    -0.460 OA
BRANCH   5   6
ATOM      6  C   UNL A   1      34.945  20.955  24.924  1.00  0.00     0.338 C 
ATOM      7  O   UNL A   1      34.587  19.815  24.675  1.00  0.00    -0.246 OA
BRANCH   6   8
ATOM      8  C   UNL A   1      34.013  22.098  24.934  1.00  0.00     0.087 C 
ATOM      9  C   UNL A   1      32.215  26.771  24.312  1.00  0.00     0.060 A 
ATOM     10  C   UNL A   1      31.873  25.665  25.130  1.00  0.00     0.074 A 
ATOM     11  C   UNL A   1      33.175  26.529  23.301  1.00  0.00     0.065 A 
ATOM     12  C   UNL A   1      32.504  24.420  25.009  1.00  0.00     0.130 A 
ATOM     13  C   UNL A   1      33.770  25.269  23.149  1.00  0.00     0.034 A 
ATOM     14  Cl  UNL A   1      33.815  27.752  22.252  1.00  0.00    -0.082 Cl
ATOM     15  C   UNL A   1      33.464  24.231  24.024  1.00  0.00     0.019 A 
ATOM     16  O   UNL A   1      32.140  23.446  25.897  1.00  0.00    -0.475 OA
ATOM     17  C   UNL A   1      34.218  22.998  23.965  1.00  0.00     0.027 C 
ATOM     18  C   UNL A   1      32.965  22.242  26.004  1.00  0.00     0.316 C 
BRANCH   9  19
ATOM     19  N   UNL A   1      31.628  28.028  24.574  1.00  0.00    -0.365 N 
BRANCH  19  20
ATOM     20  C   UNL A   1      32.118  28.798  25.740  1.00  0.00     0.076 C 
ATOM     21  C   UNL A   1      31.563  28.291  27.069  1.00  0.00     0.030 C 
ATOM     22  C   UNL A   1      33.643  28.903  25.806  1.00  0.00     0.030 C 
ENDBRANCH  19  20
BRANCH  19  23
ATOM     23  C   UNL A   1      30.575  28.469  23.625  1.00  0.00     0.076 C 
ATOM     24  C   UNL A   1      29.383  27.517  23.571  1.00  0.00     0.030 C 
ATOM     25  C   UNL A   1      30.125  29.910  23.845  1.00  0.00     0.030 C 
ENDBRANCH  19  23
ENDBRANCH   9  19
BRANCH  18  26
ATOM     26  C   UNL A   1      33.562  22.171  27.419  1.00  0.00     0.430 C 
ATOM     27  F   UNL A   1      34.635  22.989  27.539  1.00  0.00    -0.167 F 
ATOM     28  F   UNL A   1      32.668  22.556  28.357  1.00  0.00    -0.167 F 
ATOM     29  F   UNL A   1      33.966  20.919  27.731  1.00  0.00    -0.167 F 
ENDBRANCH  18  26
ENDBRANCH   6   8
ENDBRANCH   5   6
ENDBRANCH   4   5
ENDBRANCH   3   4
ENDBRANCH   2   3
ENDBRANCH   1   2
BRANCH   1  30
ATOM     30  C   UNL A   1      41.566  22.293  26.784  1.00  0.00     0.261 C 
BRANCH  30  31
ATOM     31  O   UNL A   1      41.072  23.625  26.577  1.00  0.00    -0.460 OA
BRANCH  31  32
ATOM     32  C   UNL A   1      42.027  24.590  26.542  1.00  0.00     0.338 C 
ATOM     33  O   UNL A   1      42.941  24.693  25.740  1.00  0.00    -0.246 OA
BRANCH  32  34
ATOM     34  C   UNL A   1      41.686  25.643  27.517  1.00  0.00     0.060 A 
ATOM     35  C   UNL A   1      40.551  25.540  28.320  1.00  0.00     0.016 A 
ATOM     36  C   UNL A   1      42.553  26.737  27.645  1.00  0.00     0.016 A 
ATOM     37  C   UNL A   1      40.295  26.530  29.271  1.00  0.00     0.010 A 
ATOM     38  C   UNL A   1      42.294  27.725  28.597  1.00  0.00     0.010 A 
ATOM     39  C   UNL A   1      41.172  27.619  29.429  1.00  0.00    -0.014 A 
BRANCH  39  40
ATOM     40  C   UNL A   1      40.975  28.572  30.551  1.00  0.00     0.031 A 
ATOM     41  C   UNL A   1      39.910  29.631  30.504  1.00  0.00     0.074 A 
ATOM     42  C   UNL A   1      41.788  28.475  31.622  1.00  0.00     0.049 A 
ATOM     43  N   UNL A   1      39.576  30.495  31.428  1.00  0.00    -0.248 NA
ATOM     44  C   UNL A   1      39.124  29.741  29.266  1.00  0.00     0.031 C 
ATOM     45  C   UNL A   1      42.890  27.518  31.753  1.00  0.00     0.029 A 
ATOM     46  N   UNL A   1      41.818  29.179  32.800  1.00  0.00    -0.354 N 
ATOM     47  C   UNL A   1      38.534  31.242  30.894  1.00  0.00     0.074 A 
ATOM     48  C   UNL A   1      38.316  30.756  29.547  1.00  0.00     0.031 C 
ATOM     49  C   UNL A   1      43.472  27.680  32.951  1.00  0.00     0.029 A 
ATOM     50  C   UNL A   1      42.810  28.770  33.661  1.00  0.00     0.049 A 
ATOM     51  H   UNL A   1      41.190  29.908  33.008  1.00  0.00     0.167 HD
ATOM     52  C   UNL A   1      37.819  32.229  31.485  1.00  0.00     0.037 A 
ATOM     53  C   UNL A   1      43.152  29.224  34.883  1.00  0.00     0.037 A 
ATOM     54  C   UNL A   1      38.043  32.701  32.829  1.00  0.00     0.049 A 
ATOM     55  C   UNL A   1      42.349  30.336  35.503  1.00  0.00     0.074 A 
ATOM     56  C   UNL A   1      37.324  33.654  33.531  1.00  0.00     0.029 A 
ATOM     57  N   UNL A   1      39.061  32.273  33.668  1.00  0.00    -0.354 N 
ATOM     58  N   UNL A   1      41.305  30.965  35.019  1.00  0.00    -0.248 NA
ATOM     59  C   UNL A   1      42.762  30.795  36.836  1.00  0.00     0.031 C 
ATOM     60  C   UNL A   1      37.944  33.847  34.769  1.00  0.00     0.029 A 
ATOM     61  C   UNL A   1      39.010  32.969  34.866  1.00  0.00     0.049 A 
ATOM     62  H   UNL A   1      39.721  31.577  33.446  1.00  0.00     0.167 HD
ATOM     63  C   UNL A   1      40.927  31.880  35.996  1.00  0.00     0.074 A 
ATOM     64  C   UNL A   1      41.837  31.705  37.107  1.00  0.00     0.031 C 
ATOM     65  C   UNL A   1      39.919  32.785  35.971  1.00  0.00     0.037 A 
BRANCH  52  66
ATOM     66  C   UNL A   1      36.703  32.873  30.708  1.00  0.00     0.058 A 
ATOM     67  C   UNL A   1      35.361  32.532  30.936  1.00  0.00     0.135 A 
ATOM     68  C   UNL A   1      36.968  33.943  29.835  1.00  0.00     0.135 A 
ATOM     69  F   UNL A   1      35.054  31.511  31.750  1.00  0.00    -0.206 F 
ATOM     70  C   UNL A   1      34.321  33.234  30.337  1.00  0.00     0.059 A 
ATOM     71  C   UNL A   1      35.943  34.674  29.243  1.00  0.00     0.059 A 
ATOM     72  F   UNL A   1      38.234  34.309  29.582  1.00  0.00    -0.206 F 
ATOM     73  C   UNL A   1      34.621  34.314  29.503  1.00  0.00     0.060 A 
BRANCH  73  74
ATOM     74  S   UNL A   1      33.254  35.256  28.794  1.00  0.00     0.124 S 
ATOM     75  O   UNL A   1      32.564  34.231  28.016  1.00  0.00    -0.237 OA
ATOM     76  O   UNL A   1      32.555  35.726  29.985  1.00  0.00    -0.237 OA
ATOM     77  O   UNL A   1      33.922  36.291  28.011  1.00  0.00    -0.744 OA
ENDBRANCH  73  74
ENDBRANCH  52  66
BRANCH  53  78
ATOM     78  C   UNL A   1      44.312  28.628  35.600  1.00  0.00     0.058 A 
ATOM     79  C   UNL A   1      44.146  27.563  36.498  1.00  0.00     0.135 A 
ATOM     80  C   UNL A   1      45.613  29.118  35.404  1.00  0.00     0.135 A 
ATOM     81  F   UNL A   1      42.921  27.060  36.723  1.00  0.00    -0.206 F 
ATOM     82  C   UNL A   1      45.220  27.025  37.198  1.00  0.00     0.059 A 
ATOM     83  C   UNL A   1      46.708  28.576  36.067  1.00  0.00     0.059 A 
ATOM     84  F   UNL A   1      45.831  30.124  34.543  1.00  0.00    -0.206 F 
ATOM     85  C   UNL A   1      46.499  27.539  36.974  1.00  0.00     0.060 A 
BRANCH  85  86
ATOM     86  S   UNL A   1      47.889  26.820  37.875  1.00  0.00     0.124 S 
ATOM     87  O   UNL A   1      47.465  25.432  38.010  1.00  0.00    -0.237 OA
ATOM     88  O   UNL A   1      49.002  27.063  36.963  1.00  0.00    -0.237 OA
ATOM     89  O   UNL A   1      47.922  27.593  39.114  1.00  0.00    -0.744 OA
ENDBRANCH  85  86
ENDBRANCH  53  78
BRANCH  65  90
ATOM     90  C   UNL A   1      39.726  33.655  37.184  1.00  0.00     0.058 A 
ATOM     91  C   UNL A   1      40.409  34.872  37.334  1.00  0.00     0.135 A 
ATOM     92  C   UNL A   1      38.793  33.302  38.174  1.00  0.00     0.135 A 
ATOM     93  F   UNL A   1      41.316  35.254  36.421  1.00  0.00    -0.206 F 
ATOM     94  C   UNL A   1      40.186  35.700  38.429  1.00  0.00     0.059 A 
ATOM     95  C   UNL A   1      38.532  34.131  39.262  1.00  0.00     0.059 A 
ATOM     96  F   UNL A   1      38.105  32.153  38.076  1.00  0.00    -0.206 F 
ATOM     97  C   UNL A   1      39.241  35.324  39.385  1.00  0.00     0.060 A 
BRANCH  97  98
ATOM     98  S   UNL A   1      38.936  36.432  40.777  1.00  0.00     0.124 S 
ATOM     99  O   UNL A   1      37.937  35.685  41.535  1.00  0.00    -0.237 OA
ATOM    100  O   UNL A   1      40.256  36.530  41.390  1.00  0.00    -0.237 OA
ATOM    101  O   UNL A   1      38.453  37.654  40.141  1.00  0.00    -0.744 OA
ENDBRANCH  97  98
ENDBRANCH  65  90
ENDBRANCH  39  40
ENDBRANCH  32  34
ENDBRANCH  31  32
ENDBRANCH  30  31
ENDBRANCH   1  30
TORSDOF 21
ENDMDL
MODEL 3
REMARK VINA RESULT:     -10.5      6.311     10.586
REMARK SMILES CC(C)N(c1cc2c(cc1Cl)C=C(C(=O)OCCOCCOC(=O)c1ccc(-c3c4nc(c(-c5c(F)cc(S(=O)(=O)[O-])cc5F)c5ccc([nH]5)c(-c5c(F)cc(S(=O)(=O)[O-])cc5F)c5nc(c(-c6c(F)cc(S(=O)(=O)[O-])cc6F)c6ccc3[nH]6)C=C5)C=C4)cc1)[C@@H](C(F)(F)F)O2)C(C)C
REMARK SMILES IDX 20 1 19 2 18 3 17 4 16 5 14 6 15 7 13 8 5 9 6 10 10 11 7 12
REMARK SMILES IDX 9 13 11 14 8 15 96 16 12 17 91 18 4 19 2 20 1 21 3 22 97 23
REMARK SMILES IDX 98 24 99 25 92 26 93 27 94 28 95 29 21 30 22 31 23 32 24 33
REMARK SMILES IDX 25 34 26 35 90 36 27 37 89 38 28 39 29 40 30 41 83 42 31 43
REMARK SMILES IDX 88 44 82 45 84 46 32 47 87 48 81 49 80 50 33 52 67 53 46 54
REMARK SMILES IDX 66 55 47 56 50 57 65 58 85 59 48 60 49 61 64 63 86 64 51 65
REMARK SMILES IDX 34 66 35 67 44 68 36 69 37 70 43 71 45 72 38 73 39 74 40 75
REMARK SMILES IDX 41 76 42 77 68 78 69 79 78 80 70 81 71 82 77 83 79 84 72 85
REMARK SMILES IDX 73 86 74 87 75 88 76 89 52 90 53 91 62 92 54 93 55 94 61 95
REMARK SMILES IDX 63 96 56 97 57 98 58 99 59 100 60 101
REMARK H PARENT 84 51 50 62
REMARK Flexibility Score: inf
ROOT
ATOM      1  C   UNL A   1      40.360  19.963  26.448  1.00  0.00     0.202 C 
ENDROOT
BRANCH   1   2
ATOM      2  O   UNL A   1      40.258  21.361  26.181  1.00  0.00    -0.374 OA
BRANCH   2   3
ATOM      3  C   UNL A   1      38.965  21.924  25.980  1.00  0.00     0.202 C 
BRANCH   3   4
ATOM      4  C   UNL A   1      37.952  21.123  25.155  1.00  0.00     0.261 C 
BRANCH   4   5
ATOM      5  O   UNL A   1      36.828  21.916  24.746  1.00  0.00    -0.460 OA
BRANCH   5   6
ATOM      6  C   UNL A   1      35.647  21.256  24.777  1.00  0.00     0.338 C 
ATOM      7  O   UNL A   1      35.477  20.069  25.007  1.00  0.00    -0.246 OA
BRANCH   6   8
ATOM      8  C   UNL A   1      34.530  22.208  24.632  1.00  0.00     0.087 C 
ATOM      9  C   UNL A   1      32.028  26.511  23.807  1.00  0.00     0.060 A 
ATOM     10  C   UNL A   1      31.750  25.306  24.500  1.00  0.00     0.074 A 
ATOM     11  C   UNL A   1      33.196  26.519  23.009  1.00  0.00     0.065 A 
ATOM     12  C   UNL A   1      32.619  24.208  24.471  1.00  0.00     0.130 A 
ATOM     13  C   UNL A   1      34.040  25.402  22.942  1.00  0.00     0.034 A 
ATOM     14  Cl  UNL A   1      33.783  27.910  22.156  1.00  0.00    -0.082 Cl
ATOM     15  C   UNL A   1      33.772  24.266  23.699  1.00  0.00     0.019 A 
ATOM     16  O   UNL A   1      32.281  23.123  25.232  1.00  0.00    -0.475 OA
ATOM     17  C   UNL A   1      34.745  23.197  23.756  1.00  0.00     0.027 C 
ATOM     18  C   UNL A   1      33.284  22.083  25.467  1.00  0.00     0.316 C 
BRANCH   9  19
ATOM     19  N   UNL A   1      31.171  27.620  23.984  1.00  0.00    -0.365 N 
BRANCH  19  20
ATOM     20  C   UNL A   1      30.099  27.839  22.987  1.00  0.00     0.076 C 
ATOM     21  C   UNL A   1      28.718  27.422  23.489  1.00  0.00     0.030 C 
ATOM     22  C   UNL A   1      30.056  29.267  22.439  1.00  0.00     0.030 C 
ENDBRANCH  19  20
BRANCH  19  23
ATOM     23  C   UNL A   1      31.423  28.456  25.185  1.00  0.00     0.076 C 
ATOM     24  C   UNL A   1      31.675  27.631  26.445  1.00  0.00     0.030 C 
ATOM     25  C   UNL A   1      32.513  29.501  24.977  1.00  0.00     0.030 C 
ENDBRANCH  19  23
ENDBRANCH   9  19
BRANCH  18  26
ATOM     26  C   UNL A   1      33.594  22.021  26.971  1.00  0.00     0.430 C 
ATOM     27  F   UNL A   1      33.662  20.740  27.405  1.00  0.00    -0.167 F 
ATOM     28  F   UNL A   1      34.783  22.596  27.260  1.00  0.00    -0.167 F 
ATOM     29  F   UNL A   1      32.648  22.650  27.705  1.00  0.00    -0.167 F 
ENDBRANCH  18  26
ENDBRANCH   6   8
ENDBRANCH   5   6
ENDBRANCH   4   5
ENDBRANCH   3   4
ENDBRANCH   2   3
ENDBRANCH   1   2
BRANCH   1  30
ATOM     30  C   UNL A   1      41.713  19.268  26.243  1.00  0.00     0.261 C 
BRANCH  30  31
ATOM     31  O   UNL A   1      42.342  19.608  24.998  1.00  0.00    -0.460 OA
BRANCH  31  32
ATOM     32  C   UNL A   1      43.699  19.636  25.031  1.00  0.00     0.338 C 
ATOM     33  O   UNL A   1      44.461  18.733  24.727  1.00  0.00    -0.246 OA
BRANCH  32  34
ATOM     34  C   UNL A   1      44.148  21.014  25.306  1.00  0.00     0.060 A 
ATOM     35  C   UNL A   1      44.133  21.988  24.308  1.00  0.00     0.016 A 
ATOM     36  C   UNL A   1      44.557  21.333  26.608  1.00  0.00     0.016 A 
ATOM     37  C   UNL A   1      44.512  23.294  24.624  1.00  0.00     0.010 A 
ATOM     38  C   UNL A   1      44.935  22.640  26.920  1.00  0.00     0.010 A 
ATOM     39  C   UNL A   1      44.898  23.635  25.934  1.00  0.00    -0.014 A 
BRANCH  39  40
ATOM     40  C   UNL A   1      45.138  25.057  26.289  1.00  0.00     0.031 A 
ATOM     41  C   UNL A   1      44.029  25.941  26.783  1.00  0.00     0.074 A 
ATOM     42  C   UNL A   1      46.386  25.549  26.147  1.00  0.00     0.049 A 
ATOM     43  N   UNL A   1      44.093  27.182  27.190  1.00  0.00    -0.248 NA
ATOM     44  C   UNL A   1      42.676  25.365  26.821  1.00  0.00     0.031 C 
ATOM     45  C   UNL A   1      47.529  24.795  25.627  1.00  0.00     0.029 A 
ATOM     46  N   UNL A   1      46.904  26.788  26.427  1.00  0.00    -0.354 N 
ATOM     47  C   UNL A   1      42.798  27.536  27.547  1.00  0.00     0.074 A 
ATOM     48  C   UNL A   1      41.959  26.389  27.270  1.00  0.00     0.031 C 
ATOM     49  C   UNL A   1      48.618  25.580  25.646  1.00  0.00     0.029 A 
ATOM     50  C   UNL A   1      48.247  26.899  26.148  1.00  0.00     0.049 A 
ATOM     51  H   UNL A   1      46.367  27.527  26.792  1.00  0.00     0.167 HD
ATOM     52  C   UNL A   1      42.361  28.706  28.072  1.00  0.00     0.037 A 
ATOM     53  C   UNL A   1      49.085  27.947  26.275  1.00  0.00     0.037 A 
ATOM     54  C   UNL A   1      43.208  29.839  28.347  1.00  0.00     0.049 A 
ATOM     55  C   UNL A   1      48.563  29.238  26.844  1.00  0.00     0.074 A 
ATOM     56  C   UNL A   1      42.860  31.043  28.937  1.00  0.00     0.029 A 
ATOM     57  N   UNL A   1      44.559  29.921  28.043  1.00  0.00    -0.354 N 
ATOM     58  N   UNL A   1      47.353  29.522  27.265  1.00  0.00    -0.248 NA
ATOM     59  C   UNL A   1      49.516  30.350  26.964  1.00  0.00     0.031 C 
ATOM     60  C   UNL A   1      43.984  31.874  28.933  1.00  0.00     0.029 A 
ATOM     61  C   UNL A   1      45.049  31.168  28.400  1.00  0.00     0.049 A 
ATOM     62  H   UNL A   1      45.090  29.200  27.634  1.00  0.00     0.167 HD
ATOM     63  C   UNL A   1      47.407  30.837  27.715  1.00  0.00     0.074 A 
ATOM     64  C   UNL A   1      48.772  31.284  27.539  1.00  0.00     0.031 C 
ATOM     65  C   UNL A   1      46.412  31.604  28.225  1.00  0.00     0.037 A 
BRANCH  52  66
ATOM     66  C   UNL A   1      40.901  28.840  28.412  1.00  0.00     0.058 A 
ATOM     67  C   UNL A   1      40.447  28.743  29.736  1.00  0.00     0.135 A 
ATOM     68  C   UNL A   1      39.972  29.215  27.426  1.00  0.00     0.135 A 
ATOM     69  F   UNL A   1      41.290  28.376  30.713  1.00  0.00    -0.206 F 
ATOM     70  C   UNL A   1      39.127  29.023  30.073  1.00  0.00     0.059 A 
ATOM     71  C   UNL A   1      38.653  29.522  27.744  1.00  0.00     0.059 A 
ATOM     72  F   UNL A   1      40.355  29.321  26.144  1.00  0.00    -0.206 F 
ATOM     73  C   UNL A   1      38.241  29.427  29.073  1.00  0.00     0.060 A 
BRANCH  73  74
ATOM     74  S   UNL A   1      36.551  29.855  29.545  1.00  0.00     0.124 S 
ATOM     75  O   UNL A   1      36.427  29.181  30.834  1.00  0.00    -0.237 OA
ATOM     76  O   UNL A   1      36.607  31.313  29.595  1.00  0.00    -0.237 OA
ATOM     77  O   UNL A   1      35.742  29.296  28.467  1.00  0.00    -0.744 OA
ENDBRANCH  73  74
ENDBRANCH  52  66
BRANCH  53  78
ATOM     78  C   UNL A   1      50.507  27.816  25.856  1.00  0.00     0.058 A 
ATOM     79  C   UNL A   1      51.524  27.572  26.790  1.00  0.00     0.135 A 
ATOM     80  C   UNL A   1      50.877  27.942  24.507  1.00  0.00     0.135 A 
ATOM     81  F   UNL A   1      51.224  27.447  28.092  1.00  0.00    -0.206 F 
ATOM     82  C   UNL A   1      52.859  27.484  26.408  1.00  0.00     0.059 A 
ATOM     83  C   UNL A   1      52.201  27.827  24.096  1.00  0.00     0.059 A 
ATOM     84  F   UNL A   1      49.941  28.160  23.570  1.00  0.00    -0.206 F 
ATOM     85  C   UNL A   1      53.187  27.613  25.057  1.00  0.00     0.060 A 
BRANCH  85  86
ATOM     86  S   UNL A   1      54.921  27.481  24.572  1.00  0.00     0.124 S 
ATOM     87  O   UNL A   1      54.877  26.374  23.624  1.00  0.00    -0.237 OA
ATOM     88  O   UNL A   1      55.179  28.800  24.004  1.00  0.00    -0.237 OA
ATOM     89  O   UNL A   1      55.602  27.204  25.834  1.00  0.00    -0.744 OA
ENDBRANCH  85  86
ENDBRANCH  53  78
BRANCH  65  90
ATOM     90  C   UNL A   1      46.755  33.008  28.648  1.00  0.00     0.058 A 
ATOM     91  C   UNL A   1      47.235  33.292  29.935  1.00  0.00     0.135 A 
ATOM     92  C   UNL A   1      46.671  34.070  27.731  1.00  0.00     0.135 A 
ATOM     93  F   UNL A   1      47.329  32.316  30.852  1.00  0.00    -0.206 F 
ATOM     94  C   UNL A   1      47.605  34.582  30.305  1.00  0.00     0.059 A 
ATOM     95  C   UNL A   1      47.065  35.361  28.070  1.00  0.00     0.059 A 
ATOM     96  F   UNL A   1      46.227  33.852  26.483  1.00  0.00    -0.206 F 
ATOM     97  C   UNL A   1      47.522  35.608  29.363  1.00  0.00     0.060 A 
BRANCH  97  98
ATOM     98  S   UNL A   1      48.045  37.267  29.848  1.00  0.00     0.124 S 
ATOM     99  O   UNL A   1      47.017  37.627  30.819  1.00  0.00    -0.237 OA
ATOM    100  O   UNL A   1      49.377  37.023  30.394  1.00  0.00    -0.237 OA
ATOM    101  O   UNL A   1      48.014  38.015  28.596  1.00  0.00    -0.744 OA
ENDBRANCH  97  98
ENDBRANCH  65  90
ENDBRANCH  39  40
ENDBRANCH  32  34
ENDBRANCH  31  32
ENDBRANCH  30  31
ENDBRANCH   1  30
TORSDOF 21
ENDMDL
