MODEL 1
REMARK VINA RESULT:     -11.7      0.000      0.000
REMARK SMILES O=C(Cn1cnc(-c2ccccc2)c1-c1ccccc1)OCCOCCOC(=O)c1ccc(-c2c3nc(c(-c4c(F)cc(S(=O)(=O)[O-])cc4F)c4ccc([nH]4)c(-c4c(F)cc(S(=O)(=O)[O-])cc4F)c4nc(c(-c5c(F)cc(S(=O)(=O)[O-])cc5F)c5ccc2[nH]5)C=C4)C=C3)cc1
REMARK SMILES IDX 25 1 24 2 23 3 22 4 21 5 2 6 1 7 3 8 4 9 5 10 14 11 6 12
REMARK SMILES IDX 7 13 15 14 16 15 20 16 17 17 19 18 18 19 8 20 9 21 13 22
REMARK SMILES IDX 10 23 12 24 11 25 26 26 27 27 28 28 29 29 30 30 31 31 95 32
REMARK SMILES IDX 32 33 94 34 33 35 34 36 35 37 88 38 36 39 93 40 87 41 89 42
REMARK SMILES IDX 37 43 92 44 86 45 85 46 38 48 72 49 51 50 71 51 52 52 55 53
REMARK SMILES IDX 70 54 90 55 53 56 54 57 69 59 91 60 56 61 39 62 40 63 49 64
REMARK SMILES IDX 41 65 42 66 48 67 50 68 43 69 44 70 45 71 46 72 47 73 73 74
REMARK SMILES IDX 74 75 83 76 75 77 76 78 82 79 84 80 77 81 78 82 79 83 80 84
REMARK SMILES IDX 81 85 57 86 58 87 67 88 59 89 60 90 66 91 68 92 61 93 62 94
REMARK SMILES IDX 63 95 64 96 65 97
REMARK H PARENT 89 47 55 58
REMARK Flexibility Score: inf
ROOT
ATOM      1  C   UNL A   1      38.381  21.239  25.323  1.00  0.00     0.202 C 
ENDROOT
BRANCH   1   2
ATOM      2  O   UNL A   1      37.268  22.122  25.513  1.00  0.00    -0.374 OA
BRANCH   2   3
ATOM      3  C   UNL A   1      36.218  22.075  24.548  1.00  0.00     0.202 C 
BRANCH   3   4
ATOM      4  C   UNL A   1      35.613  23.413  24.169  1.00  0.00     0.261 C 
BRANCH   4   5
ATOM      5  O   UNL A   1      34.186  23.432  24.354  1.00  0.00    -0.462 OA
BRANCH   5   6
ATOM      6  C   UNL A   1      33.431  24.526  24.585  1.00  0.00     0.326 C 
ATOM      7  O   UNL A   1      32.477  24.435  25.362  1.00  0.00    -0.250 OA
BRANCH   6   8
ATOM      8  C   UNL A   1      33.703  25.838  23.891  1.00  0.00     0.246 C 
BRANCH   8   9
ATOM      9  N   UNL A   1      32.561  26.437  23.242  1.00  0.00    -0.319 N 
ATOM     10  C   UNL A   1      32.066  25.960  22.056  1.00  0.00     0.201 A 
ATOM     11  C   UNL A   1      31.758  27.482  23.669  1.00  0.00     0.076 A 
ATOM     12  N   UNL A   1      31.005  26.622  21.678  1.00  0.00    -0.236 NA
ATOM     13  C   UNL A   1      30.828  27.585  22.639  1.00  0.00     0.096 A 
BRANCH  11  14
ATOM     14  C   UNL A   1      31.806  28.203  24.956  1.00  0.00     0.000 A 
ATOM     15  C   UNL A   1      32.307  29.520  24.992  1.00  0.00     0.010 A 
ATOM     16  C   UNL A   1      31.443  27.607  26.168  1.00  0.00     0.010 A 
ATOM     17  C   UNL A   1      32.461  30.210  26.197  1.00  0.00     0.001 A 
ATOM     18  C   UNL A   1      31.585  28.304  27.378  1.00  0.00     0.001 A 
ATOM     19  C   UNL A   1      32.103  29.599  27.392  1.00  0.00     0.000 A 
ENDBRANCH  11  14
BRANCH  13  20
ATOM     20  C   UNL A   1      29.774  28.568  22.554  1.00  0.00     0.002 A 
ATOM     21  C   UNL A   1      28.509  28.284  23.076  1.00  0.00     0.010 A 
ATOM     22  C   UNL A   1      30.015  29.803  21.939  1.00  0.00     0.010 A 
ATOM     23  C   UNL A   1      27.492  29.233  22.982  1.00  0.00     0.001 A 
ATOM     24  C   UNL A   1      28.997  30.746  21.843  1.00  0.00     0.001 A 
ATOM     25  C   UNL A   1      27.736  30.459  22.362  1.00  0.00     0.000 A 
ENDBRANCH  13  20
ENDBRANCH   8   9
ENDBRANCH   6   8
ENDBRANCH   5   6
ENDBRANCH   4   5
ENDBRANCH   3   4
ENDBRANCH   2   3
ENDBRANCH   1   2
BRANCH   1  26
ATOM     26  C   UNL A   1      39.570  21.455  26.248  1.00  0.00     0.261 C 
BRANCH  26  27
ATOM     27  O   UNL A   1      39.788  22.844  26.383  1.00  0.00    -0.460 OA
BRANCH  27  28
ATOM     28  C   UNL A   1      40.801  23.204  27.202  1.00  0.00     0.338 C 
ATOM     29  O   UNL A   1      41.172  22.652  28.228  1.00  0.00    -0.246 OA
BRANCH  28  30
ATOM     30  C   UNL A   1      41.390  24.430  26.626  1.00  0.00     0.060 A 
ATOM     31  C   UNL A   1      42.576  24.782  27.255  1.00  0.00     0.016 A 
ATOM     32  C   UNL A   1      40.492  25.377  26.100  1.00  0.00     0.016 A 
ATOM     33  C   UNL A   1      42.597  26.025  27.823  1.00  0.00     0.010 A 
ATOM     34  C   UNL A   1      40.488  26.600  26.704  1.00  0.00     0.010 A 
ATOM     35  C   UNL A   1      41.475  26.842  27.653  1.00  0.00    -0.014 A 
BRANCH  35  36
ATOM     36  C   UNL A   1      41.378  28.018  28.471  1.00  0.00     0.031 A 
ATOM     37  C   UNL A   1      42.529  28.905  28.252  1.00  0.00     0.074 A 
ATOM     38  C   UNL A   1      40.296  28.277  29.224  1.00  0.00     0.049 A 
ATOM     39  N   UNL A   1      43.563  29.058  29.010  1.00  0.00    -0.248 NA
ATOM     40  C   UNL A   1      42.679  29.464  26.897  1.00  0.00     0.031 C 
ATOM     41  C   UNL A   1      39.002  27.587  29.247  1.00  0.00     0.029 A 
ATOM     42  N   UNL A   1      40.102  29.319  30.069  1.00  0.00    -0.354 N 
ATOM     43  C   UNL A   1      44.362  29.955  28.317  1.00  0.00     0.074 A 
ATOM     44  C   UNL A   1      43.931  29.914  26.946  1.00  0.00     0.031 C 
ATOM     45  C   UNL A   1      38.098  28.368  29.885  1.00  0.00     0.029 A 
ATOM     46  C   UNL A   1      38.775  29.543  30.406  1.00  0.00     0.049 A 
ATOM     47  H   UNL A   1      40.843  29.871  30.413  1.00  0.00     0.167 HD
ATOM     48  C   UNL A   1      45.060  30.923  28.965  1.00  0.00     0.037 A 
ATOM     49  C   UNL A   1      38.310  30.701  30.942  1.00  0.00     0.037 A 
ATOM     50  C   UNL A   1      45.194  30.632  30.369  1.00  0.00     0.049 A 
ATOM     51  C   UNL A   1      39.492  31.407  31.525  1.00  0.00     0.074 A 
ATOM     52  C   UNL A   1      45.729  29.581  31.089  1.00  0.00     0.029 A 
ATOM     53  N   UNL A   1      44.366  31.301  31.241  1.00  0.00    -0.354 N 
ATOM     54  N   UNL A   1      40.187  30.947  32.534  1.00  0.00    -0.248 NA
ATOM     55  C   UNL A   1      40.199  32.357  30.675  1.00  0.00     0.031 C 
ATOM     56  C   UNL A   1      44.849  29.398  32.195  1.00  0.00     0.029 A 
ATOM     57  C   UNL A   1      43.857  30.378  32.123  1.00  0.00     0.049 A 
ATOM     58  H   UNL A   1      44.173  32.266  31.235  1.00  0.00     0.167 HD
ATOM     59  C   UNL A   1      41.513  31.225  32.224  1.00  0.00     0.074 A 
ATOM     60  C   UNL A   1      41.452  32.152  31.097  1.00  0.00     0.031 C 
ATOM     61  C   UNL A   1      42.537  30.461  32.714  1.00  0.00     0.037 A 
BRANCH  48  62
ATOM     62  C   UNL A   1      45.252  32.295  28.380  1.00  0.00     0.058 A 
ATOM     63  C   UNL A   1      46.553  32.775  28.164  1.00  0.00     0.135 A 
ATOM     64  C   UNL A   1      44.213  33.249  28.247  1.00  0.00     0.135 A 
ATOM     65  F   UNL A   1      47.610  31.959  28.298  1.00  0.00    -0.206 F 
ATOM     66  C   UNL A   1      46.806  34.116  27.876  1.00  0.00     0.059 A 
ATOM     67  C   UNL A   1      44.436  34.567  27.888  1.00  0.00     0.059 A 
ATOM     68  F   UNL A   1      42.940  32.981  28.558  1.00  0.00    -0.206 F 
ATOM     69  C   UNL A   1      45.740  35.004  27.748  1.00  0.00     0.060 A 
BRANCH  69  70
ATOM     70  S   UNL A   1      46.060  36.754  27.487  1.00  0.00     0.124 S 
ATOM     71  O   UNL A   1      47.173  36.703  26.545  1.00  0.00    -0.237 OA
ATOM     72  O   UNL A   1      44.785  37.217  26.951  1.00  0.00    -0.237 OA
ATOM     73  O   UNL A   1      46.385  37.240  28.825  1.00  0.00    -0.744 OA
ENDBRANCH  69  70
ENDBRANCH  48  62
BRANCH  49  74
ATOM     74  C   UNL A   1      37.047  31.398  30.570  1.00  0.00     0.058 A 
ATOM     75  C   UNL A   1      36.186  31.928  31.547  1.00  0.00     0.135 A 
ATOM     76  C   UNL A   1      36.783  31.788  29.239  1.00  0.00     0.135 A 
ATOM     77  F   UNL A   1      36.380  31.639  32.843  1.00  0.00    -0.206 F 
ATOM     78  C   UNL A   1      35.148  32.815  31.227  1.00  0.00     0.059 A 
ATOM     79  C   UNL A   1      35.750  32.656  28.896  1.00  0.00     0.059 A 
ATOM     80  F   UNL A   1      37.581  31.407  28.231  1.00  0.00    -0.206 F 
ATOM     81  C   UNL A   1      34.948  33.184  29.897  1.00  0.00     0.060 A 
BRANCH  81  82
ATOM     82  S   UNL A   1      33.712  34.441  29.490  1.00  0.00     0.124 S 
ATOM     83  O   UNL A   1      34.520  35.450  28.814  1.00  0.00    -0.237 OA
ATOM     84  O   UNL A   1      32.783  33.696  28.647  1.00  0.00    -0.237 OA
ATOM     85  O   UNL A   1      33.186  34.835  30.794  1.00  0.00    -0.744 OA
ENDBRANCH  81  82
ENDBRANCH  49  74
BRANCH  61  86
ATOM     86  C   UNL A   1      42.216  29.454  33.794  1.00  0.00     0.058 A 
ATOM     87  C   UNL A   1      41.731  28.157  33.543  1.00  0.00     0.135 A 
ATOM     88  C   UNL A   1      42.572  29.754  35.117  1.00  0.00     0.135 A 
ATOM     89  F   UNL A   1      41.472  27.754  32.292  1.00  0.00    -0.206 F 
ATOM     90  C   UNL A   1      41.566  27.218  34.562  1.00  0.00     0.059 A 
ATOM     91  C   UNL A   1      42.445  28.824  36.146  1.00  0.00     0.059 A 
ATOM     92  F   UNL A   1      43.106  30.950  35.414  1.00  0.00    -0.206 F 
ATOM     93  C   UNL A   1      41.929  27.561  35.864  1.00  0.00     0.060 A 
BRANCH  93  94
ATOM     94  S   UNL A   1      41.792  26.320  37.170  1.00  0.00     0.124 S 
ATOM     95  O   UNL A   1      41.928  25.073  36.426  1.00  0.00    -0.237 OA
ATOM     96  O   UNL A   1      42.910  26.658  38.047  1.00  0.00    -0.237 OA
ATOM     97  O   UNL A   1      40.469  26.566  37.740  1.00  0.00    -0.744 OA
ENDBRANCH  93  94
ENDBRANCH  61  86
ENDBRANCH  35  36
ENDBRANCH  28  30
ENDBRANCH  27  28
ENDBRANCH  26  27
ENDBRANCH   1  26
TORSDOF 20
ENDMDL
MODEL 2
REMARK VINA RESULT:     -11.3      2.976      9.443
REMARK SMILES O=C(Cn1cnc(-c2ccccc2)c1-c1ccccc1)OCCOCCOC(=O)c1ccc(-c2c3nc(c(-c4c(F)cc(S(=O)(=O)[O-])cc4F)c4ccc([nH]4)c(-c4c(F)cc(S(=O)(=O)[O-])cc4F)c4nc(c(-c5c(F)cc(S(=O)(=O)[O-])cc5F)c5ccc2[nH]5)C=C4)C=C3)cc1
REMARK SMILES IDX 25 1 24 2 23 3 22 4 21 5 2 6 1 7 3 8 4 9 5 10 14 11 6 12
REMARK SMILES IDX 7 13 15 14 16 15 20 16 17 17 19 18 18 19 8 20 9 21 13 22
REMARK SMILES IDX 10 23 12 24 11 25 26 26 27 27 28 28 29 29 30 30 31 31 95 32
REMARK SMILES IDX 32 33 94 34 33 35 34 36 35 37 88 38 36 39 93 40 87 41 89 42
REMARK SMILES IDX 37 43 92 44 86 45 85 46 38 48 72 49 51 50 71 51 52 52 55 53
REMARK SMILES IDX 70 54 90 55 53 56 54 57 69 59 91 60 56 61 39 62 40 63 49 64
REMARK SMILES IDX 41 65 42 66 48 67 50 68 43 69 44 70 45 71 46 72 47 73 73 74
REMARK SMILES IDX 74 75 83 76 75 77 76 78 82 79 84 80 77 81 78 82 79 83 80 84
REMARK SMILES IDX 81 85 57 86 58 87 67 88 59 89 60 90 66 91 68 92 61 93 62 94
REMARK SMILES IDX 63 95 64 96 65 97
REMARK H PARENT 89 47 55 58
REMARK Flexibility Score: inf
ROOT
ATOM      1  C   UNL A   1      33.284  29.027  26.661  1.00  0.00     0.202 C 
ENDROOT
BRANCH   1   2
ATOM      2  O   UNL A   1      32.006  28.978  26.014  1.00  0.00    -0.374 OA
BRANCH   2   3
ATOM      3  C   UNL A   1      31.955  28.437  24.695  1.00  0.00     0.202 C 
BRANCH   3   4
ATOM      4  C   UNL A   1      30.794  27.504  24.411  1.00  0.00     0.261 C 
BRANCH   4   5
ATOM      5  O   UNL A   1      31.125  26.130  24.684  1.00  0.00    -0.462 OA
BRANCH   5   6
ATOM      6  C   UNL A   1      31.397  25.606  25.898  1.00  0.00     0.326 C 
ATOM      7  O   UNL A   1      30.742  25.992  26.869  1.00  0.00    -0.250 OA
BRANCH   6   8
ATOM      8  C   UNL A   1      32.500  24.596  26.097  1.00  0.00     0.246 C 
BRANCH   8   9
ATOM      9  N   UNL A   1      32.178  23.248  25.693  1.00  0.00    -0.319 N 
ATOM     10  C   UNL A   1      30.895  22.767  25.721  1.00  0.00     0.201 A 
ATOM     11  C   UNL A   1      33.008  22.266  25.177  1.00  0.00     0.076 A 
ATOM     12  N   UNL A   1      30.830  21.543  25.268  1.00  0.00    -0.236 NA
ATOM     13  C   UNL A   1      32.126  21.209  24.968  1.00  0.00     0.096 A 
BRANCH  11  14
ATOM     14  C   UNL A   1      34.435  22.372  24.818  1.00  0.00     0.000 A 
ATOM     15  C   UNL A   1      35.415  22.104  25.795  1.00  0.00     0.010 A 
ATOM     16  C   UNL A   1      34.866  22.805  23.559  1.00  0.00     0.010 A 
ATOM     17  C   UNL A   1      36.776  22.283  25.532  1.00  0.00     0.001 A 
ATOM     18  C   UNL A   1      36.233  22.971  23.291  1.00  0.00     0.001 A 
ATOM     19  C   UNL A   1      37.185  22.721  24.279  1.00  0.00     0.000 A 
ENDBRANCH  11  14
BRANCH  13  20
ATOM     20  C   UNL A   1      32.487  19.898  24.482  1.00  0.00     0.002 A 
ATOM     21  C   UNL A   1      33.144  18.997  25.326  1.00  0.00     0.010 A 
ATOM     22  C   UNL A   1      32.191  19.532  23.163  1.00  0.00     0.010 A 
ATOM     23  C   UNL A   1      33.500  17.736  24.849  1.00  0.00     0.001 A 
ATOM     24  C   UNL A   1      32.552  18.275  22.689  1.00  0.00     0.001 A 
ATOM     25  C   UNL A   1      33.209  17.380  23.531  1.00  0.00     0.000 A 
ENDBRANCH  13  20
ENDBRANCH   8   9
ENDBRANCH   6   8
ENDBRANCH   5   6
ENDBRANCH   4   5
ENDBRANCH   3   4
ENDBRANCH   2   3
ENDBRANCH   1   2
BRANCH   1  26
ATOM     26  C   UNL A   1      33.881  30.413  26.855  1.00  0.00     0.261 C 
BRANCH  26  27
ATOM     27  O   UNL A   1      35.169  30.272  27.420  1.00  0.00    -0.460 OA
BRANCH  27  28
ATOM     28  C   UNL A   1      35.666  31.370  28.031  1.00  0.00     0.338 C 
ATOM     29  O   UNL A   1      35.707  32.515  27.605  1.00  0.00    -0.246 OA
BRANCH  28  30
ATOM     30  C   UNL A   1      36.181  30.923  29.341  1.00  0.00     0.060 A 
ATOM     31  C   UNL A   1      37.068  31.837  29.891  1.00  0.00     0.016 A 
ATOM     32  C   UNL A   1      36.296  29.534  29.536  1.00  0.00     0.016 A 
ATOM     33  C   UNL A   1      38.321  31.359  30.158  1.00  0.00     0.010 A 
ATOM     34  C   UNL A   1      37.555  29.060  29.755  1.00  0.00     0.010 A 
ATOM     35  C   UNL A   1      38.564  30.000  29.933  1.00  0.00    -0.014 A 
BRANCH  35  36
ATOM     36  C   UNL A   1      39.931  29.559  29.942  1.00  0.00     0.031 A 
ATOM     37  C   UNL A   1      40.394  29.320  31.317  1.00  0.00     0.074 A 
ATOM     38  C   UNL A   1      40.605  29.299  28.810  1.00  0.00     0.049 A 
ATOM     39  N   UNL A   1      41.147  30.080  32.039  1.00  0.00    -0.248 NA
ATOM     40  C   UNL A   1      39.704  28.256  32.066  1.00  0.00     0.031 C 
ATOM     41  C   UNL A   1      40.103  29.229  27.434  1.00  0.00     0.029 A 
ATOM     42  N   UNL A   1      41.901  28.924  28.683  1.00  0.00    -0.354 N 
ATOM     43  C   UNL A   1      41.226  29.421  33.256  1.00  0.00     0.074 A 
ATOM     44  C   UNL A   1      40.108  28.518  33.307  1.00  0.00     0.031 C 
ATOM     45  C   UNL A   1      41.028  28.612  26.660  1.00  0.00     0.029 A 
ATOM     46  C   UNL A   1      42.215  28.356  27.457  1.00  0.00     0.049 A 
ATOM     47  H   UNL A   1      42.564  29.046  29.402  1.00  0.00     0.167 HD
ATOM     48  C   UNL A   1      42.383  29.390  33.967  1.00  0.00     0.037 A 
ATOM     49  C   UNL A   1      43.326  27.611  27.224  1.00  0.00     0.037 A 
ATOM     50  C   UNL A   1      43.299  30.416  33.538  1.00  0.00     0.049 A 
ATOM     51  C   UNL A   1      44.301  27.947  28.308  1.00  0.00     0.074 A 
ATOM     52  C   UNL A   1      43.233  31.794  33.454  1.00  0.00     0.029 A 
ATOM     53  N   UNL A   1      44.339  30.040  32.720  1.00  0.00    -0.354 N 
ATOM     54  N   UNL A   1      44.841  29.130  28.455  1.00  0.00    -0.248 NA
ATOM     55  C   UNL A   1      44.285  27.125  29.511  1.00  0.00     0.031 C 
ATOM     56  C   UNL A   1      43.917  32.129  32.250  1.00  0.00     0.029 A 
ATOM     57  C   UNL A   1      44.409  30.948  31.691  1.00  0.00     0.049 A 
ATOM     58  H   UNL A   1      44.927  29.261  32.848  1.00  0.00     0.167 HD
ATOM     59  C   UNL A   1      44.864  29.355  29.827  1.00  0.00     0.074 A 
ATOM     60  C   UNL A   1      44.567  28.057  30.428  1.00  0.00     0.031 C 
ATOM     61  C   UNL A   1      44.832  30.621  30.344  1.00  0.00     0.037 A 
BRANCH  48  62
ATOM     62  C   UNL A   1      42.804  28.180  34.754  1.00  0.00     0.058 A 
ATOM     63  C   UNL A   1      43.090  28.313  36.121  1.00  0.00     0.135 A 
ATOM     64  C   UNL A   1      43.167  26.943  34.167  1.00  0.00     0.135 A 
ATOM     65  F   UNL A   1      42.816  29.458  36.765  1.00  0.00    -0.206 F 
ATOM     66  C   UNL A   1      43.730  27.305  36.844  1.00  0.00     0.059 A 
ATOM     67  C   UNL A   1      43.732  25.901  34.882  1.00  0.00     0.059 A 
ATOM     68  F   UNL A   1      43.088  26.716  32.851  1.00  0.00    -0.206 F 
ATOM     69  C   UNL A   1      44.053  26.107  36.210  1.00  0.00     0.060 A 
BRANCH  69  70
ATOM     70  S   UNL A   1      44.973  24.846  37.100  1.00  0.00     0.124 S 
ATOM     71  O   UNL A   1      44.512  23.632  36.435  1.00  0.00    -0.237 OA
ATOM     72  O   UNL A   1      46.354  25.237  36.837  1.00  0.00    -0.237 OA
ATOM     73  O   UNL A   1      44.531  25.018  38.481  1.00  0.00    -0.744 OA
ENDBRANCH  69  70
ENDBRANCH  48  62
BRANCH  49  74
ATOM     74  C   UNL A   1      43.391  26.349  26.434  1.00  0.00     0.058 A 
ATOM     75  C   UNL A   1      44.419  26.119  25.504  1.00  0.00     0.135 A 
ATOM     76  C   UNL A   1      42.591  25.232  26.759  1.00  0.00     0.135 A 
ATOM     77  F   UNL A   1      45.250  27.114  25.158  1.00  0.00    -0.206 F 
ATOM     78  C   UNL A   1      44.660  24.851  24.954  1.00  0.00     0.059 A 
ATOM     79  C   UNL A   1      42.803  23.968  26.216  1.00  0.00     0.059 A 
ATOM     80  F   UNL A   1      41.629  25.312  27.689  1.00  0.00    -0.206 F 
ATOM     81  C   UNL A   1      43.853  23.778  25.330  1.00  0.00     0.060 A 
BRANCH  81  82
ATOM     82  S   UNL A   1      44.247  22.111  24.747  1.00  0.00     0.124 S 
ATOM     83  O   UNL A   1      45.515  21.848  25.416  1.00  0.00    -0.237 OA
ATOM     84  O   UNL A   1      43.102  21.341  25.221  1.00  0.00    -0.237 OA
ATOM     85  O   UNL A   1      44.329  22.269  23.297  1.00  0.00    -0.744 OA
ENDBRANCH  81  82
ENDBRANCH  49  74
BRANCH  61  86
ATOM     86  C   UNL A   1      45.016  31.780  29.393  1.00  0.00     0.058 A 
ATOM     87  C   UNL A   1      46.268  32.226  28.929  1.00  0.00     0.135 A 
ATOM     88  C   UNL A   1      43.879  32.348  28.801  1.00  0.00     0.135 A 
ATOM     89  F   UNL A   1      47.401  31.658  29.363  1.00  0.00    -0.206 F 
ATOM     90  C   UNL A   1      46.385  33.220  27.956  1.00  0.00     0.059 A 
ATOM     91  C   UNL A   1      43.971  33.319  27.806  1.00  0.00     0.059 A 
ATOM     92  F   UNL A   1      42.656  31.918  29.148  1.00  0.00    -0.206 F 
ATOM     93  C   UNL A   1      45.228  33.760  27.397  1.00  0.00     0.060 A 
BRANCH  93  94
ATOM     94  S   UNL A   1      45.378  34.988  26.079  1.00  0.00     0.124 S 
ATOM     95  O   UNL A   1      44.058  35.608  26.085  1.00  0.00    -0.237 OA
ATOM     96  O   UNL A   1      46.474  35.829  26.553  1.00  0.00    -0.237 OA
ATOM     97  O   UNL A   1      45.685  34.186  24.897  1.00  0.00    -0.744 OA
ENDBRANCH  93  94
ENDBRANCH  61  86
ENDBRANCH  35  36
ENDBRANCH  28  30
ENDBRANCH  27  28
ENDBRANCH  26  27
ENDBRANCH   1  26
TORSDOF 20
ENDMDL
MODEL 3
REMARK VINA RESULT:     -10.8      2.789      9.462
REMARK SMILES O=C(Cn1cnc(-c2ccccc2)c1-c1ccccc1)OCCOCCOC(=O)c1ccc(-c2c3nc(c(-c4c(F)cc(S(=O)(=O)[O-])cc4F)c4ccc([nH]4)c(-c4c(F)cc(S(=O)(=O)[O-])cc4F)c4nc(c(-c5c(F)cc(S(=O)(=O)[O-])cc5F)c5ccc2[nH]5)C=C4)C=C3)cc1
REMARK SMILES IDX 25 1 24 2 23 3 22 4 21 5 2 6 1 7 3 8 4 9 5 10 14 11 6 12
REMARK SMILES IDX 7 13 15 14 16 15 20 16 17 17 19 18 18 19 8 20 9 21 13 22
REMARK SMILES IDX 10 23 12 24 11 25 26 26 27 27 28 28 29 29 30 30 31 31 95 32
REMARK SMILES IDX 32 33 94 34 33 35 34 36 35 37 88 38 36 39 93 40 87 41 89 42
REMARK SMILES IDX 37 43 92 44 86 45 85 46 38 48 72 49 51 50 71 51 52 52 55 53
REMARK SMILES IDX 70 54 90 55 53 56 54 57 69 59 91 60 56 61 39 62 40 63 49 64
REMARK SMILES IDX 41 65 42 66 48 67 50 68 43 69 44 70 45 71 46 72 47 73 73 74
REMARK SMILES IDX 74 75 83 76 75 77 76 78 82 79 84 80 77 81 78 82 79 83 80 84
REMARK SMILES IDX 81 85 57 86 58 87 67 88 59 89 60 90 66 91 68 92 61 93 62 94
REMARK SMILES IDX 63 95 64 96 65 97
REMARK H PARENT 89 47 55 58
REMARK Flexibility Score: inf
ROOT
ATOM      1  C   UNL A   1      33.211  28.996  26.585  1.00  0.00     0.202 C 
ENDROOT
BRANCH   1   2
ATOM      2  O   UNL A   1      31.864  28.967  26.097  1.00  0.00    -0.374 OA
BRANCH   2   3
ATOM      3  C   UNL A   1      31.667  28.650  24.720  1.00  0.00     0.202 C 
BRANCH   3   4
ATOM      4  C   UNL A   1      30.316  28.062  24.366  1.00  0.00     0.261 C 
BRANCH   4   5
ATOM      5  O   UNL A   1      30.396  26.651  24.093  1.00  0.00    -0.462 OA
BRANCH   5   6
ATOM      6  C   UNL A   1      30.632  25.680  25.000  1.00  0.00     0.326 C 
ATOM      7  O   UNL A   1      30.295  25.868  26.171  1.00  0.00    -0.250 OA
BRANCH   6   8
ATOM      8  C   UNL A   1      31.328  24.395  24.623  1.00  0.00     0.246 C 
BRANCH   8   9
ATOM      9  N   UNL A   1      32.750  24.370  24.873  1.00  0.00    -0.319 N 
ATOM     10  C   UNL A   1      33.455  25.506  25.176  1.00  0.00     0.201 A 
ATOM     11  C   UNL A   1      33.612  23.288  24.922  1.00  0.00     0.076 A 
ATOM     12  N   UNL A   1      34.713  25.243  25.411  1.00  0.00    -0.236 NA
ATOM     13  C   UNL A   1      34.832  23.890  25.219  1.00  0.00     0.096 A 
BRANCH  11  14
ATOM     14  C   UNL A   1      33.284  21.852  24.818  1.00  0.00     0.000 A 
ATOM     15  C   UNL A   1      32.863  21.328  23.579  1.00  0.00     0.010 A 
ATOM     16  C   UNL A   1      33.298  20.994  25.923  1.00  0.00     0.010 A 
ATOM     17  C   UNL A   1      32.450  19.999  23.452  1.00  0.00     0.001 A 
ATOM     18  C   UNL A   1      32.896  19.656  25.792  1.00  0.00     0.001 A 
ATOM     19  C   UNL A   1      32.463  19.163  24.561  1.00  0.00     0.000 A 
ENDBRANCH  11  14
BRANCH  13  20
ATOM     20  C   UNL A   1      36.100  23.207  25.334  1.00  0.00     0.002 A 
ATOM     21  C   UNL A   1      37.114  23.746  26.130  1.00  0.00     0.010 A 
ATOM     22  C   UNL A   1      36.317  22.012  24.637  1.00  0.00     0.010 A 
ATOM     23  C   UNL A   1      38.339  23.089  26.229  1.00  0.00     0.001 A 
ATOM     24  C   UNL A   1      37.543  21.361  24.734  1.00  0.00     0.001 A 
ATOM     25  C   UNL A   1      38.554  21.901  25.527  1.00  0.00     0.000 A 
ENDBRANCH  13  20
ENDBRANCH   8   9
ENDBRANCH   6   8
ENDBRANCH   5   6
ENDBRANCH   4   5
ENDBRANCH   3   4
ENDBRANCH   2   3
ENDBRANCH   1   2
BRANCH   1  26
ATOM     26  C   UNL A   1      33.838  30.375  26.733  1.00  0.00     0.261 C 
BRANCH  26  27
ATOM     27  O   UNL A   1      35.121  30.225  27.307  1.00  0.00    -0.460 OA
BRANCH  27  28
ATOM     28  C   UNL A   1      35.628  31.325  27.907  1.00  0.00     0.338 C 
ATOM     29  O   UNL A   1      35.681  32.464  27.468  1.00  0.00    -0.246 OA
BRANCH  28  30
ATOM     30  C   UNL A   1      36.137  30.887  29.222  1.00  0.00     0.060 A 
ATOM     31  C   UNL A   1      37.018  31.808  29.771  1.00  0.00     0.016 A 
ATOM     32  C   UNL A   1      36.257  29.500  29.425  1.00  0.00     0.016 A 
ATOM     33  C   UNL A   1      38.271  31.336  30.048  1.00  0.00     0.010 A 
ATOM     34  C   UNL A   1      37.516  29.032  29.654  1.00  0.00     0.010 A 
ATOM     35  C   UNL A   1      38.521  29.977  29.833  1.00  0.00    -0.014 A 
BRANCH  35  36
ATOM     36  C   UNL A   1      39.889  29.541  29.852  1.00  0.00     0.031 A 
ATOM     37  C   UNL A   1      40.346  29.311  31.230  1.00  0.00     0.074 A 
ATOM     38  C   UNL A   1      40.571  29.279  28.725  1.00  0.00     0.049 A 
ATOM     39  N   UNL A   1      41.091  30.077  31.953  1.00  0.00    -0.248 NA
ATOM     40  C   UNL A   1      39.655  28.247  31.981  1.00  0.00     0.031 C 
ATOM     41  C   UNL A   1      40.077  29.200  27.346  1.00  0.00     0.029 A 
ATOM     42  N   UNL A   1      41.869  28.909  28.607  1.00  0.00    -0.354 N 
ATOM     43  C   UNL A   1      41.165  29.424  33.174  1.00  0.00     0.074 A 
ATOM     44  C   UNL A   1      40.051  28.517  33.223  1.00  0.00     0.031 C 
ATOM     45  C   UNL A   1      41.010  28.584  26.580  1.00  0.00     0.029 A 
ATOM     46  C   UNL A   1      42.193  28.335  27.385  1.00  0.00     0.049 A 
ATOM     47  H   UNL A   1      42.527  29.036  29.329  1.00  0.00     0.167 HD
ATOM     48  C   UNL A   1      42.319  29.402  33.891  1.00  0.00     0.037 A 
ATOM     49  C   UNL A   1      43.308  27.594  27.162  1.00  0.00     0.037 A 
ATOM     50  C   UNL A   1      43.232  30.428  33.462  1.00  0.00     0.049 A 
ATOM     51  C   UNL A   1      44.275  27.939  28.250  1.00  0.00     0.074 A 
ATOM     52  C   UNL A   1      43.162  31.806  33.372  1.00  0.00     0.029 A 
ATOM     53  N   UNL A   1      44.279  30.053  32.653  1.00  0.00    -0.354 N 
ATOM     54  N   UNL A   1      44.810  29.125  28.395  1.00  0.00    -0.248 NA
ATOM     55  C   UNL A   1      44.255  27.123  29.457  1.00  0.00     0.031 C 
ATOM     56  C   UNL A   1      43.851  32.138  32.171  1.00  0.00     0.029 A 
ATOM     57  C   UNL A   1      44.352  30.957  31.620  1.00  0.00     0.049 A 
ATOM     58  H   UNL A   1      44.870  29.277  32.788  1.00  0.00     0.167 HD
ATOM     59  C   UNL A   1      44.823  29.356  29.767  1.00  0.00     0.074 A 
ATOM     60  C   UNL A   1      44.528  28.060  30.372  1.00  0.00     0.031 C 
ATOM     61  C   UNL A   1      44.784  30.624  30.277  1.00  0.00     0.037 A 
BRANCH  48  62
ATOM     62  C   UNL A   1      42.739  28.196  34.687  1.00  0.00     0.058 A 
ATOM     63  C   UNL A   1      42.982  28.330  36.062  1.00  0.00     0.135 A 
ATOM     64  C   UNL A   1      43.144  26.969  34.107  1.00  0.00     0.135 A 
ATOM     65  F   UNL A   1      42.666  29.467  36.701  1.00  0.00    -0.206 F 
ATOM     66  C   UNL A   1      43.619  27.332  36.800  1.00  0.00     0.059 A 
ATOM     67  C   UNL A   1      43.709  25.936  34.834  1.00  0.00     0.059 A 
ATOM     68  F   UNL A   1      43.109  26.746  32.788  1.00  0.00    -0.206 F 
ATOM     69  C   UNL A   1      43.985  26.142  36.173  1.00  0.00     0.060 A 
BRANCH  69  70
ATOM     70  S   UNL A   1      44.903  24.896  37.086  1.00  0.00     0.124 S 
ATOM     71  O   UNL A   1      44.439  23.671  36.443  1.00  0.00    -0.237 OA
ATOM     72  O   UNL A   1      46.285  25.280  36.815  1.00  0.00    -0.237 OA
ATOM     73  O   UNL A   1      44.462  25.095  38.463  1.00  0.00    -0.744 OA
ENDBRANCH  69  70
ENDBRANCH  48  62
BRANCH  49  74
ATOM     74  C   UNL A   1      43.382  26.329  26.378  1.00  0.00     0.058 A 
ATOM     75  C   UNL A   1      44.444  26.077  25.492  1.00  0.00     0.135 A 
ATOM     76  C   UNL A   1      42.550  25.227  26.673  1.00  0.00     0.135 A 
ATOM     77  F   UNL A   1      45.306  27.056  25.179  1.00  0.00    -0.206 F 
ATOM     78  C   UNL A   1      44.684  24.804  24.956  1.00  0.00     0.059 A 
ATOM     79  C   UNL A   1      42.761  23.958  26.143  1.00  0.00     0.059 A 
ATOM     80  F   UNL A   1      41.552  25.327  27.563  1.00  0.00    -0.206 F 
ATOM     81  C   UNL A   1      43.843  23.746  25.301  1.00  0.00     0.060 A 
BRANCH  81  82
ATOM     82  S   UNL A   1      44.230  22.070  24.739  1.00  0.00     0.124 S 
ATOM     83  O   UNL A   1      45.469  21.790  25.455  1.00  0.00    -0.237 OA
ATOM     84  O   UNL A   1      43.056  21.321  25.174  1.00  0.00    -0.237 OA
ATOM     85  O   UNL A   1      44.367  22.221  23.292  1.00  0.00    -0.744 OA
ENDBRANCH  81  82
ENDBRANCH  49  74
BRANCH  61  86
ATOM     86  C   UNL A   1      44.969  31.780  29.322  1.00  0.00     0.058 A 
ATOM     87  C   UNL A   1      46.220  32.219  28.851  1.00  0.00     0.135 A 
ATOM     88  C   UNL A   1      43.832  32.351  28.732  1.00  0.00     0.135 A 
ATOM     89  F   UNL A   1      47.353  31.648  29.281  1.00  0.00    -0.206 F 
ATOM     90  C   UNL A   1      46.338  33.210  27.874  1.00  0.00     0.059 A 
ATOM     91  C   UNL A   1      43.923  33.319  27.734  1.00  0.00     0.059 A 
ATOM     92  F   UNL A   1      42.608  31.928  29.086  1.00  0.00    -0.206 F 
ATOM     93  C   UNL A   1      45.180  33.753  27.318  1.00  0.00     0.060 A 
BRANCH  93  94
ATOM     94  S   UNL A   1      45.330  34.976  25.996  1.00  0.00     0.124 S 
ATOM     95  O   UNL A   1      44.009  35.593  25.997  1.00  0.00    -0.237 OA
ATOM     96  O   UNL A   1      46.423  35.822  26.469  1.00  0.00    -0.237 OA
ATOM     97  O   UNL A   1      45.643  34.170  24.818  1.00  0.00    -0.744 OA
ENDBRANCH  93  94
ENDBRANCH  61  86
ENDBRANCH  35  36
ENDBRANCH  28  30
ENDBRANCH  27  28
ENDBRANCH  26  27
ENDBRANCH   1  26
TORSDOF 20
ENDMDL
