MODEL 1
REMARK VINA RESULT:     -10.8      0.000      0.000
REMARK SMILES CS(=O)(=O)c1ccc(/C=C(/C(=O)OCCOCCOC(=O)c2ccc(-c3c4nc(c(-c5c(F)cc(S(=O)(=O)[O-])cc5F)c5ccc([nH]5)c(-c5c(F)cc(S(=O)(=O)[O-])cc5F)c5nc(c(-c6c(F)cc(S(=O)(=O)[O-])cc6F)c6ccc3[nH]6)C=C5)C=C4)cc2)c2ccccc2)cc1
REMARK SMILES IDX 17 1 16 2 15 3 14 4 13 5 11 6 12 7 10 8 9 9 8 10 5 11 6 12
REMARK SMILES IDX 95 13 7 14 94 15 2 16 1 17 3 18 4 19 88 20 89 21 93 22 90 23
REMARK SMILES IDX 92 24 91 25 18 26 19 27 20 28 21 29 22 30 23 31 87 32 24 33
REMARK SMILES IDX 86 34 25 35 26 36 27 37 80 38 28 39 85 40 79 41 81 42 29 43
REMARK SMILES IDX 84 44 78 45 77 46 30 48 64 49 43 50 63 51 44 52 47 53 62 54
REMARK SMILES IDX 82 55 45 56 46 57 61 59 83 60 48 61 31 62 32 63 41 64 33 65
REMARK SMILES IDX 34 66 40 67 42 68 35 69 36 70 37 71 38 72 39 73 65 74 66 75
REMARK SMILES IDX 75 76 67 77 68 78 74 79 76 80 69 81 70 82 71 83 72 84 73 85
REMARK SMILES IDX 49 86 50 87 59 88 51 89 52 90 58 91 60 92 53 93 54 94 55 95
REMARK SMILES IDX 56 96 57 97
REMARK H PARENT 81 47 47 58
REMARK Flexibility Score: inf
ROOT
ATOM      1  C   UNL A   1      31.656  30.433  25.430  1.00  0.00     0.202 C 
ENDROOT
BRANCH   1   2
ATOM      2  O   UNL A   1      32.194  29.412  24.596  1.00  0.00    -0.374 OA
BRANCH   2   3
ATOM      3  C   UNL A   1      31.761  29.377  23.234  1.00  0.00     0.202 C 
BRANCH   3   4
ATOM      4  C   UNL A   1      30.325  28.911  22.974  1.00  0.00     0.261 C 
BRANCH   4   5
ATOM      5  O   UNL A   1      30.282  27.524  22.591  1.00  0.00    -0.460 OA
BRANCH   5   6
ATOM      6  C   UNL A   1      29.614  26.712  23.451  1.00  0.00     0.338 C 
ATOM      7  O   UNL A   1      28.423  26.789  23.723  1.00  0.00    -0.246 OA
BRANCH   6   8
ATOM      8  C   UNL A   1      30.479  25.598  23.959  1.00  0.00     0.067 C 
ATOM      9  C   UNL A   1      30.237  24.315  23.598  1.00  0.00     0.024 C 
BRANCH   9  10
ATOM     10  C   UNL A   1      31.120  23.139  23.800  1.00  0.00    -0.025 A 
ATOM     11  C   UNL A   1      32.381  20.673  24.264  1.00  0.00     0.067 A 
ATOM     12  C   UNL A   1      32.381  21.218  22.983  1.00  0.00     0.021 A 
ATOM     13  C   UNL A   1      31.873  21.400  25.339  1.00  0.00     0.021 A 
ATOM     14  C   UNL A   1      31.778  22.459  22.765  1.00  0.00     0.009 A 
ATOM     15  C   UNL A   1      31.245  22.628  25.103  1.00  0.00     0.009 A 
BRANCH  11  16
ATOM     16  S   UNL A   1      32.990  19.021  24.492  1.00  0.00     0.175 S 
ATOM     17  C   UNL A   1      32.516  18.196  22.991  1.00  0.00     0.163 C 
ATOM     18  O   UNL A   1      32.235  18.411  25.576  1.00  0.00    -0.224 OA
ATOM     19  O   UNL A   1      34.434  19.092  24.535  1.00  0.00    -0.224 OA
ENDBRANCH  11  16
ENDBRANCH   9  10
BRANCH   8  20
ATOM     20  C   UNL A   1      31.633  26.003  24.787  1.00  0.00    -0.011 A 
ATOM     21  C   UNL A   1      32.925  25.957  24.241  1.00  0.00     0.009 A 
ATOM     22  C   UNL A   1      31.455  26.480  26.090  1.00  0.00     0.009 A 
ATOM     23  C   UNL A   1      34.019  26.415  24.973  1.00  0.00     0.001 A 
ATOM     24  C   UNL A   1      32.553  26.937  26.820  1.00  0.00     0.001 A 
ATOM     25  C   UNL A   1      33.831  26.912  26.260  1.00  0.00     0.000 A 
ENDBRANCH   8  20
ENDBRANCH   6   8
ENDBRANCH   5   6
ENDBRANCH   4   5
ENDBRANCH   3   4
ENDBRANCH   2   3
ENDBRANCH   1   2
BRANCH   1  26
ATOM     26  C   UNL A   1      32.304  30.658  26.801  1.00  0.00     0.261 C 
BRANCH  26  27
ATOM     27  O   UNL A   1      33.690  30.291  26.834  1.00  0.00    -0.460 OA
BRANCH  27  28
ATOM     28  C   UNL A   1      34.426  31.027  27.702  1.00  0.00     0.338 C 
ATOM     29  O   UNL A   1      34.082  32.053  28.270  1.00  0.00    -0.246 OA
BRANCH  28  30
ATOM     30  C   UNL A   1      35.685  30.332  28.028  1.00  0.00     0.060 A 
ATOM     31  C   UNL A   1      35.716  29.612  29.227  1.00  0.00     0.016 A 
ATOM     32  C   UNL A   1      36.830  30.448  27.235  1.00  0.00     0.016 A 
ATOM     33  C   UNL A   1      36.913  29.072  29.683  1.00  0.00     0.010 A 
ATOM     34  C   UNL A   1      38.035  29.906  27.697  1.00  0.00     0.010 A 
ATOM     35  C   UNL A   1      38.090  29.264  28.946  1.00  0.00    -0.014 A 
BRANCH  35  36
ATOM     36  C   UNL A   1      39.386  28.952  29.596  1.00  0.00     0.031 A 
ATOM     37  C   UNL A   1      39.773  29.708  30.840  1.00  0.00     0.074 A 
ATOM     38  C   UNL A   1      40.161  27.952  29.140  1.00  0.00     0.049 A 
ATOM     39  N   UNL A   1      40.816  29.555  31.614  1.00  0.00    -0.248 NA
ATOM     40  C   UNL A   1      38.858  30.779  31.271  1.00  0.00     0.031 C 
ATOM     41  C   UNL A   1      39.875  27.132  27.964  1.00  0.00     0.029 A 
ATOM     42  N   UNL A   1      41.342  27.451  29.621  1.00  0.00    -0.354 N 
ATOM     43  C   UNL A   1      40.683  30.505  32.620  1.00  0.00     0.074 A 
ATOM     44  C   UNL A   1      39.481  31.258  32.338  1.00  0.00     0.031 C 
ATOM     45  C   UNL A   1      40.856  26.224  27.817  1.00  0.00     0.029 A 
ATOM     46  C   UNL A   1      41.845  26.411  28.876  1.00  0.00     0.049 A 
ATOM     47  H   UNL A   1      41.789  27.802  30.425  1.00  0.00     0.167 HD
ATOM     48  C   UNL A   1      41.482  30.722  33.693  1.00  0.00     0.037 A 
ATOM     49  C   UNL A   1      42.975  25.695  29.033  1.00  0.00     0.037 A 
ATOM     50  C   UNL A   1      42.677  29.969  33.972  1.00  0.00     0.049 A 
ATOM     51  C   UNL A   1      43.868  25.979  30.213  1.00  0.00     0.074 A 
ATOM     52  C   UNL A   1      43.550  30.100  35.038  1.00  0.00     0.029 A 
ATOM     53  N   UNL A   1      43.168  28.942  33.178  1.00  0.00    -0.354 N 
ATOM     54  N   UNL A   1      43.718  26.866  31.169  1.00  0.00    -0.248 NA
ATOM     55  C   UNL A   1      45.079  25.156  30.341  1.00  0.00     0.031 C 
ATOM     56  C   UNL A   1      44.593  29.182  34.865  1.00  0.00     0.029 A 
ATOM     57  C   UNL A   1      44.342  28.445  33.719  1.00  0.00     0.049 A 
ATOM     58  H   UNL A   1      42.745  28.617  32.350  1.00  0.00     0.167 HD
ATOM     59  C   UNL A   1      44.800  26.689  32.026  1.00  0.00     0.074 A 
ATOM     60  C   UNL A   1      45.587  25.600  31.482  1.00  0.00     0.031 C 
ATOM     61  C   UNL A   1      45.115  27.363  33.160  1.00  0.00     0.037 A 
BRANCH  48  62
ATOM     62  C   UNL A   1      41.099  31.834  34.630  1.00  0.00     0.058 A 
ATOM     63  C   UNL A   1      40.258  31.613  35.734  1.00  0.00     0.135 A 
ATOM     64  C   UNL A   1      41.592  33.134  34.433  1.00  0.00     0.135 A 
ATOM     65  F   UNL A   1      39.741  30.395  35.958  1.00  0.00    -0.206 F 
ATOM     66  C   UNL A   1      39.900  32.647  36.593  1.00  0.00     0.059 A 
ATOM     67  C   UNL A   1      41.267  34.177  35.295  1.00  0.00     0.059 A 
ATOM     68  F   UNL A   1      42.395  33.401  33.392  1.00  0.00    -0.206 F 
ATOM     69  C   UNL A   1      40.409  33.927  36.365  1.00  0.00     0.060 A 
BRANCH  69  70
ATOM     70  S   UNL A   1      39.936  35.259  37.489  1.00  0.00     0.124 S 
ATOM     71  O   UNL A   1      41.102  35.328  38.364  1.00  0.00    -0.237 OA
ATOM     72  O   UNL A   1      39.757  36.386  36.580  1.00  0.00    -0.237 OA
ATOM     73  O   UNL A   1      38.713  34.760  38.112  1.00  0.00    -0.744 OA
ENDBRANCH  69  70
ENDBRANCH  48  62
BRANCH  49  74
ATOM     74  C   UNL A   1      43.324  24.634  28.051  1.00  0.00     0.058 A 
ATOM     75  C   UNL A   1      42.792  23.341  28.156  1.00  0.00     0.135 A 
ATOM     76  C   UNL A   1      44.201  24.896  26.986  1.00  0.00     0.135 A 
ATOM     77  F   UNL A   1      41.957  23.038  29.160  1.00  0.00    -0.206 F 
ATOM     78  C   UNL A   1      43.128  22.339  27.249  1.00  0.00     0.059 A 
ATOM     79  C   UNL A   1      44.532  23.920  26.054  1.00  0.00     0.059 A 
ATOM     80  F   UNL A   1      44.728  26.122  26.836  1.00  0.00    -0.206 F 
ATOM     81  C   UNL A   1      43.999  22.640  26.200  1.00  0.00     0.060 A 
BRANCH  81  82
ATOM     82  S   UNL A   1      44.390  21.349  24.999  1.00  0.00     0.124 S 
ATOM     83  O   UNL A   1      45.754  21.000  25.378  1.00  0.00    -0.237 OA
ATOM     84  O   UNL A   1      43.369  20.345  25.285  1.00  0.00    -0.237 OA
ATOM     85  O   UNL A   1      44.244  22.030  23.716  1.00  0.00    -0.744 OA
ENDBRANCH  81  82
ENDBRANCH  49  74
BRANCH  61  86
ATOM     86  C   UNL A   1      46.347  26.919  33.902  1.00  0.00     0.058 A 
ATOM     87  C   UNL A   1      47.605  27.488  33.654  1.00  0.00     0.135 A 
ATOM     88  C   UNL A   1      46.262  25.918  34.885  1.00  0.00     0.135 A 
ATOM     89  F   UNL A   1      47.741  28.447  32.725  1.00  0.00    -0.206 F 
ATOM     90  C   UNL A   1      48.745  27.049  34.320  1.00  0.00     0.059 A 
ATOM     91  C   UNL A   1      47.384  25.485  35.584  1.00  0.00     0.059 A 
ATOM     92  F   UNL A   1      45.080  25.351  35.174  1.00  0.00    -0.206 F 
ATOM     93  C   UNL A   1      48.625  26.042  35.279  1.00  0.00     0.060 A 
BRANCH  93  94
ATOM     94  S   UNL A   1      50.112  25.471  36.130  1.00  0.00     0.124 S 
ATOM     95  O   UNL A   1      49.542  24.750  37.263  1.00  0.00    -0.237 OA
ATOM     96  O   UNL A   1      50.759  24.646  35.114  1.00  0.00    -0.237 OA
ATOM     97  O   UNL A   1      50.810  26.710  36.460  1.00  0.00    -0.744 OA
ENDBRANCH  93  94
ENDBRANCH  61  86
ENDBRANCH  35  36
ENDBRANCH  28  30
ENDBRANCH  27  28
ENDBRANCH  26  27
ENDBRANCH   1  26
TORSDOF 20
ENDMDL
MODEL 2
REMARK VINA RESULT:     -10.8      4.176      8.799
REMARK SMILES CS(=O)(=O)c1ccc(/C=C(/C(=O)OCCOCCOC(=O)c2ccc(-c3c4nc(c(-c5c(F)cc(S(=O)(=O)[O-])cc5F)c5ccc([nH]5)c(-c5c(F)cc(S(=O)(=O)[O-])cc5F)c5nc(c(-c6c(F)cc(S(=O)(=O)[O-])cc6F)c6ccc3[nH]6)C=C5)C=C4)cc2)c2ccccc2)cc1
REMARK SMILES IDX 17 1 16 2 15 3 14 4 13 5 11 6 12 7 10 8 9 9 8 10 5 11 6 12
REMARK SMILES IDX 95 13 7 14 94 15 2 16 1 17 3 18 4 19 88 20 89 21 93 22 90 23
REMARK SMILES IDX 92 24 91 25 18 26 19 27 20 28 21 29 22 30 23 31 87 32 24 33
REMARK SMILES IDX 86 34 25 35 26 36 27 37 80 38 28 39 85 40 79 41 81 42 29 43
REMARK SMILES IDX 84 44 78 45 77 46 30 48 64 49 43 50 63 51 44 52 47 53 62 54
REMARK SMILES IDX 82 55 45 56 46 57 61 59 83 60 48 61 31 62 32 63 41 64 33 65
REMARK SMILES IDX 34 66 40 67 42 68 35 69 36 70 37 71 38 72 39 73 65 74 66 75
REMARK SMILES IDX 75 76 67 77 68 78 74 79 76 80 69 81 70 82 71 83 72 84 73 85
REMARK SMILES IDX 49 86 50 87 59 88 51 89 52 90 58 91 60 92 53 93 54 94 55 95
REMARK SMILES IDX 56 96 57 97
REMARK H PARENT 81 47 47 58
REMARK Flexibility Score: inf
ROOT
ATOM      1  C   UNL A   1      33.038  30.866  27.073  1.00  0.00     0.202 C 
ENDROOT
BRANCH   1   2
ATOM      2  O   UNL A   1      33.070  29.473  26.782  1.00  0.00    -0.374 OA
BRANCH   2   3
ATOM      3  C   UNL A   1      32.814  29.074  25.434  1.00  0.00     0.202 C 
BRANCH   3   4
ATOM      4  C   UNL A   1      33.630  27.897  24.891  1.00  0.00     0.261 C 
BRANCH   4   5
ATOM      5  O   UNL A   1      32.849  26.687  24.852  1.00  0.00    -0.460 OA
BRANCH   5   6
ATOM      6  C   UNL A   1      32.998  25.946  23.724  1.00  0.00     0.338 C 
ATOM      7  O   UNL A   1      33.072  26.388  22.586  1.00  0.00    -0.246 OA
BRANCH   6   8
ATOM      8  C   UNL A   1      33.192  24.491  24.030  1.00  0.00     0.067 C 
ATOM      9  C   UNL A   1      32.134  23.646  24.072  1.00  0.00     0.024 C 
BRANCH   9  10
ATOM     10  C   UNL A   1      32.164  22.162  24.112  1.00  0.00    -0.025 A 
ATOM     11  C   UNL A   1      32.647  19.399  23.966  1.00  0.00     0.067 A 
ATOM     12  C   UNL A   1      32.671  20.039  25.203  1.00  0.00     0.021 A 
ATOM     13  C   UNL A   1      32.262  20.093  22.820  1.00  0.00     0.021 A 
ATOM     14  C   UNL A   1      32.400  21.408  25.271  1.00  0.00     0.009 A 
ATOM     15  C   UNL A   1      32.023  21.469  22.898  1.00  0.00     0.009 A 
BRANCH  11  16
ATOM     16  S   UNL A   1      33.167  17.705  23.870  1.00  0.00     0.175 S 
ATOM     17  C   UNL A   1      34.884  17.773  24.325  1.00  0.00     0.163 C 
ATOM     18  O   UNL A   1      33.107  17.296  22.475  1.00  0.00    -0.224 OA
ATOM     19  O   UNL A   1      32.454  16.973  24.894  1.00  0.00    -0.224 OA
ENDBRANCH  11  16
ENDBRANCH   9  10
BRANCH   8  20
ATOM     20  C   UNL A   1      34.591  24.045  24.191  1.00  0.00    -0.011 A 
ATOM     21  C   UNL A   1      35.232  24.214  25.429  1.00  0.00     0.009 A 
ATOM     22  C   UNL A   1      35.271  23.410  23.148  1.00  0.00     0.009 A 
ATOM     23  C   UNL A   1      36.521  23.723  25.631  1.00  0.00     0.001 A 
ATOM     24  C   UNL A   1      36.561  22.920  23.353  1.00  0.00     0.001 A 
ATOM     25  C   UNL A   1      37.182  23.070  24.593  1.00  0.00     0.000 A 
ENDBRANCH   8  20
ENDBRANCH   6   8
ENDBRANCH   5   6
ENDBRANCH   4   5
ENDBRANCH   3   4
ENDBRANCH   2   3
ENDBRANCH   1   2
BRANCH   1  26
ATOM     26  C   UNL A   1      34.258  31.485  27.766  1.00  0.00     0.261 C 
BRANCH  26  27
ATOM     27  O   UNL A   1      35.011  30.536  28.531  1.00  0.00    -0.460 OA
BRANCH  27  28
ATOM     28  C   UNL A   1      35.966  31.101  29.309  1.00  0.00     0.338 C 
ATOM     29  O   UNL A   1      35.817  32.014  30.108  1.00  0.00    -0.246 OA
BRANCH  28  30
ATOM     30  C   UNL A   1      37.230  30.350  29.201  1.00  0.00     0.060 A 
ATOM     31  C   UNL A   1      37.908  30.080  30.395  1.00  0.00     0.016 A 
ATOM     32  C   UNL A   1      37.785  29.993  27.969  1.00  0.00     0.016 A 
ATOM     33  C   UNL A   1      39.183  29.527  30.361  1.00  0.00     0.010 A 
ATOM     34  C   UNL A   1      39.070  29.438  27.937  1.00  0.00     0.010 A 
ATOM     35  C   UNL A   1      39.792  29.254  29.129  1.00  0.00    -0.014 A 
BRANCH  35  36
ATOM     36  C   UNL A   1      41.246  28.959  29.112  1.00  0.00     0.031 A 
ATOM     37  C   UNL A   1      41.702  27.592  28.673  1.00  0.00     0.074 A 
ATOM     38  C   UNL A   1      42.145  29.918  29.394  1.00  0.00     0.049 A 
ATOM     39  N   UNL A   1      42.917  27.136  28.511  1.00  0.00    -0.248 NA
ATOM     40  C   UNL A   1      40.647  26.609  28.375  1.00  0.00     0.031 C 
ATOM     41  C   UNL A   1      41.821  31.285  29.801  1.00  0.00     0.029 A 
ATOM     42  N   UNL A   1      43.515  29.889  29.370  1.00  0.00    -0.354 N 
ATOM     43  C   UNL A   1      42.773  25.818  28.091  1.00  0.00     0.074 A 
ATOM     44  C   UNL A   1      41.355  25.534  28.063  1.00  0.00     0.031 C 
ATOM     45  C   UNL A   1      42.965  31.966  29.985  1.00  0.00     0.029 A 
ATOM     46  C   UNL A   1      44.098  31.081  29.727  1.00  0.00     0.049 A 
ATOM     47  H   UNL A   1      44.032  29.090  29.121  1.00  0.00     0.167 HD
ATOM     48  C   UNL A   1      43.734  24.928  27.745  1.00  0.00     0.037 A 
ATOM     49  C   UNL A   1      45.399  31.416  29.832  1.00  0.00     0.037 A 
ATOM     50  C   UNL A   1      45.144  25.216  27.772  1.00  0.00     0.049 A 
ATOM     51  C   UNL A   1      46.451  30.397  29.478  1.00  0.00     0.074 A 
ATOM     52  C   UNL A   1      46.199  24.389  27.429  1.00  0.00     0.029 A 
ATOM     53  N   UNL A   1      45.698  26.426  28.167  1.00  0.00    -0.354 N 
ATOM     54  N   UNL A   1      46.300  29.162  29.061  1.00  0.00    -0.248 NA
ATOM     55  C   UNL A   1      47.853  30.824  29.598  1.00  0.00     0.031 C 
ATOM     56  C   UNL A   1      47.393  25.084  27.658  1.00  0.00     0.029 A 
ATOM     57  C   UNL A   1      47.079  26.361  28.094  1.00  0.00     0.049 A 
ATOM     58  H   UNL A   1      45.183  27.214  28.456  1.00  0.00     0.167 HD
ATOM     59  C   UNL A   1      47.585  28.673  28.843  1.00  0.00     0.074 A 
ATOM     60  C   UNL A   1      48.499  29.752  29.160  1.00  0.00     0.031 C 
ATOM     61  C   UNL A   1      47.974  27.445  28.418  1.00  0.00     0.037 A 
BRANCH  48  62
ATOM     62  C   UNL A   1      43.289  23.553  27.329  1.00  0.00     0.058 A 
ATOM     63  C   UNL A   1      43.139  23.202  25.977  1.00  0.00     0.135 A 
ATOM     64  C   UNL A   1      43.026  22.567  28.294  1.00  0.00     0.135 A 
ATOM     65  F   UNL A   1      43.356  24.111  25.014  1.00  0.00    -0.206 F 
ATOM     66  C   UNL A   1      42.719  21.931  25.599  1.00  0.00     0.059 A 
ATOM     67  C   UNL A   1      42.630  21.281  27.937  1.00  0.00     0.059 A 
ATOM     68  F   UNL A   1      43.150  22.850  29.600  1.00  0.00    -0.206 F 
ATOM     69  C   UNL A   1      42.466  20.976  26.586  1.00  0.00     0.060 A 
BRANCH  69  70
ATOM     70  S   UNL A   1      41.922  19.331  26.080  1.00  0.00     0.124 S 
ATOM     71  O   UNL A   1      42.242  18.542  27.265  1.00  0.00    -0.237 OA
ATOM     72  O   UNL A   1      40.501  19.537  25.819  1.00  0.00    -0.237 OA
ATOM     73  O   UNL A   1      42.738  19.051  24.902  1.00  0.00    -0.744 OA
ENDBRANCH  69  70
ENDBRANCH  48  62
BRANCH  49  74
ATOM     74  C   UNL A   1      45.781  32.779  30.288  1.00  0.00     0.058 A 
ATOM     75  C   UNL A   1      46.054  33.046  31.637  1.00  0.00     0.135 A 
ATOM     76  C   UNL A   1      45.879  33.843  29.377  1.00  0.00     0.135 A 
ATOM     77  F   UNL A   1      45.966  32.065  32.547  1.00  0.00    -0.206 F 
ATOM     78  C   UNL A   1      46.397  34.324  32.071  1.00  0.00     0.059 A 
ATOM     79  C   UNL A   1      46.243  35.122  29.783  1.00  0.00     0.059 A 
ATOM     80  F   UNL A   1      45.638  33.635  28.073  1.00  0.00    -0.206 F 
ATOM     81  C   UNL A   1      46.489  35.355  31.135  1.00  0.00     0.060 A 
BRANCH  81  82
ATOM     82  S   UNL A   1      46.982  36.998  31.699  1.00  0.00     0.124 S 
ATOM     83  O   UNL A   1      47.554  37.566  30.483  1.00  0.00    -0.237 OA
ATOM     84  O   UNL A   1      45.710  37.568  32.134  1.00  0.00    -0.237 OA
ATOM     85  O   UNL A   1      47.931  36.714  32.771  1.00  0.00    -0.744 OA
ENDBRANCH  81  82
ENDBRANCH  49  74
BRANCH  61  86
ATOM     86  C   UNL A   1      49.451  27.217  28.243  1.00  0.00     0.058 A 
ATOM     87  C   UNL A   1      50.112  27.531  27.046  1.00  0.00     0.135 A 
ATOM     88  C   UNL A   1      50.218  26.688  29.295  1.00  0.00     0.135 A 
ATOM     89  F   UNL A   1      49.426  28.039  26.010  1.00  0.00    -0.206 F 
ATOM     90  C   UNL A   1      51.471  27.287  26.880  1.00  0.00     0.059 A 
ATOM     91  C   UNL A   1      51.584  26.463  29.161  1.00  0.00     0.059 A 
ATOM     92  F   UNL A   1      49.640  26.384  30.469  1.00  0.00    -0.206 F 
ATOM     93  C   UNL A   1      52.198  26.745  27.942  1.00  0.00     0.060 A 
BRANCH  93  94
ATOM     94  S   UNL A   1      53.959  26.421  27.713  1.00  0.00     0.124 S 
ATOM     95  O   UNL A   1      53.932  25.306  26.772  1.00  0.00    -0.237 OA
ATOM     96  O   UNL A   1      54.446  27.690  27.180  1.00  0.00    -0.237 OA
ATOM     97  O   UNL A   1      54.421  26.096  29.060  1.00  0.00    -0.744 OA
ENDBRANCH  93  94
ENDBRANCH  61  86
ENDBRANCH  35  36
ENDBRANCH  28  30
ENDBRANCH  27  28
ENDBRANCH  26  27
ENDBRANCH   1  26
TORSDOF 20
ENDMDL
MODEL 3
REMARK VINA RESULT:     -10.7      4.713      6.107
REMARK SMILES CS(=O)(=O)c1ccc(/C=C(/C(=O)OCCOCCOC(=O)c2ccc(-c3c4nc(c(-c5c(F)cc(S(=O)(=O)[O-])cc5F)c5ccc([nH]5)c(-c5c(F)cc(S(=O)(=O)[O-])cc5F)c5nc(c(-c6c(F)cc(S(=O)(=O)[O-])cc6F)c6ccc3[nH]6)C=C5)C=C4)cc2)c2ccccc2)cc1
REMARK SMILES IDX 17 1 16 2 15 3 14 4 13 5 11 6 12 7 10 8 9 9 8 10 5 11 6 12
REMARK SMILES IDX 95 13 7 14 94 15 2 16 1 17 3 18 4 19 88 20 89 21 93 22 90 23
REMARK SMILES IDX 92 24 91 25 18 26 19 27 20 28 21 29 22 30 23 31 87 32 24 33
REMARK SMILES IDX 86 34 25 35 26 36 27 37 80 38 28 39 85 40 79 41 81 42 29 43
REMARK SMILES IDX 84 44 78 45 77 46 30 48 64 49 43 50 63 51 44 52 47 53 62 54
REMARK SMILES IDX 82 55 45 56 46 57 61 59 83 60 48 61 31 62 32 63 41 64 33 65
REMARK SMILES IDX 34 66 40 67 42 68 35 69 36 70 37 71 38 72 39 73 65 74 66 75
REMARK SMILES IDX 75 76 67 77 68 78 74 79 76 80 69 81 70 82 71 83 72 84 73 85
REMARK SMILES IDX 49 86 50 87 59 88 51 89 52 90 58 91 60 92 53 93 54 94 55 95
REMARK SMILES IDX 56 96 57 97
REMARK H PARENT 81 47 47 58
REMARK Flexibility Score: inf
ROOT
ATOM      1  C   UNL A   1      34.510  31.864  28.060  1.00  0.00     0.202 C 
ENDROOT
BRANCH   1   2
ATOM      2  O   UNL A   1      34.052  30.554  27.744  1.00  0.00    -0.374 OA
BRANCH   2   3
ATOM      3  C   UNL A   1      33.415  30.364  26.479  1.00  0.00     0.202 C 
BRANCH   3   4
ATOM      4  C   UNL A   1      32.333  29.282  26.403  1.00  0.00     0.261 C 
BRANCH   4   5
ATOM      5  O   UNL A   1      32.901  27.961  26.467  1.00  0.00    -0.460 OA
BRANCH   5   6
ATOM      6  C   UNL A   1      32.001  26.956  26.622  1.00  0.00     0.338 C 
ATOM      7  O   UNL A   1      30.952  27.030  27.248  1.00  0.00    -0.246 OA
BRANCH   6   8
ATOM      8  C   UNL A   1      32.369  25.743  25.821  1.00  0.00     0.067 C 
ATOM      9  C   UNL A   1      32.586  24.553  26.431  1.00  0.00     0.024 C 
BRANCH   9  10
ATOM     10  C   UNL A   1      32.712  23.220  25.789  1.00  0.00    -0.025 A 
ATOM     11  C   UNL A   1      33.064  20.543  25.016  1.00  0.00     0.067 A 
ATOM     12  C   UNL A   1      31.789  21.102  25.006  1.00  0.00     0.021 A 
ATOM     13  C   UNL A   1      34.179  21.335  25.284  1.00  0.00     0.021 A 
ATOM     14  C   UNL A   1      31.625  22.443  25.363  1.00  0.00     0.009 A 
ATOM     15  C   UNL A   1      33.998  22.668  25.669  1.00  0.00     0.009 A 
BRANCH  11  16
ATOM     16  S   UNL A   1      33.236  18.799  24.736  1.00  0.00     0.175 S 
ATOM     17  C   UNL A   1      32.496  18.564  23.137  1.00  0.00     0.163 C 
ATOM     18  O   UNL A   1      32.401  18.104  25.704  1.00  0.00    -0.224 OA
ATOM     19  O   UNL A   1      34.650  18.513  24.628  1.00  0.00    -0.224 OA
ENDBRANCH  11  16
ENDBRANCH   9  10
BRANCH   8  20
ATOM     20  C   UNL A   1      32.391  25.918  24.356  1.00  0.00    -0.011 A 
ATOM     21  C   UNL A   1      33.624  25.993  23.687  1.00  0.00     0.009 A 
ATOM     22  C   UNL A   1      31.206  25.957  23.615  1.00  0.00     0.009 A 
ATOM     23  C   UNL A   1      33.671  26.071  22.296  1.00  0.00     0.001 A 
ATOM     24  C   UNL A   1      31.256  26.035  22.222  1.00  0.00     0.001 A 
ATOM     25  C   UNL A   1      32.486  26.085  21.564  1.00  0.00     0.000 A 
ENDBRANCH   8  20
ENDBRANCH   6   8
ENDBRANCH   5   6
ENDBRANCH   4   5
ENDBRANCH   3   4
ENDBRANCH   2   3
ENDBRANCH   1   2
BRANCH   1  26
ATOM     26  C   UNL A   1      34.945  32.148  29.502  1.00  0.00     0.261 C 
BRANCH  26  27
ATOM     27  O   UNL A   1      36.369  32.230  29.653  1.00  0.00    -0.460 OA
BRANCH  27  28
ATOM     28  C   UNL A   1      36.864  31.394  30.599  1.00  0.00     0.338 C 
ATOM     29  O   UNL A   1      36.422  31.216  31.724  1.00  0.00    -0.246 OA
BRANCH  28  30
ATOM     30  C   UNL A   1      37.945  30.565  30.038  1.00  0.00     0.060 A 
ATOM     31  C   UNL A   1      38.904  30.086  30.937  1.00  0.00     0.016 A 
ATOM     32  C   UNL A   1      38.073  30.329  28.666  1.00  0.00     0.016 A 
ATOM     33  C   UNL A   1      40.041  29.441  30.462  1.00  0.00     0.010 A 
ATOM     34  C   UNL A   1      39.219  29.681  28.190  1.00  0.00     0.010 A 
ATOM     35  C   UNL A   1      40.230  29.284  29.082  1.00  0.00    -0.014 A 
BRANCH  35  36
ATOM     36  C   UNL A   1      41.571  28.878  28.597  1.00  0.00     0.031 A 
ATOM     37  C   UNL A   1      42.676  29.902  28.583  1.00  0.00     0.074 A 
ATOM     38  C   UNL A   1      41.823  27.601  28.262  1.00  0.00     0.049 A 
ATOM     39  N   UNL A   1      43.938  29.756  28.271  1.00  0.00    -0.248 NA
ATOM     40  C   UNL A   1      42.309  31.273  28.976  1.00  0.00     0.031 C 
ATOM     41  C   UNL A   1      40.840  26.517  28.265  1.00  0.00     0.029 A 
ATOM     42  N   UNL A   1      42.988  26.998  27.863  1.00  0.00    -0.354 N 
ATOM     43  C   UNL A   1      44.514  31.011  28.431  1.00  0.00     0.074 A 
ATOM     44  C   UNL A   1      43.458  31.916  28.828  1.00  0.00     0.031 C 
ATOM     45  C   UNL A   1      41.448  25.379  27.889  1.00  0.00     0.029 A 
ATOM     46  C   UNL A   1      42.854  25.656  27.603  1.00  0.00     0.049 A 
ATOM     47  H   UNL A   1      43.841  27.481  27.772  1.00  0.00     0.167 HD
ATOM     48  C   UNL A   1      45.810  31.376  28.278  1.00  0.00     0.037 A 
ATOM     49  C   UNL A   1      43.763  24.756  27.180  1.00  0.00     0.037 A 
ATOM     50  C   UNL A   1      46.859  30.471  27.886  1.00  0.00     0.049 A 
ATOM     51  C   UNL A   1      45.191  25.192  26.980  1.00  0.00     0.074 A 
ATOM     52  C   UNL A   1      48.207  30.736  27.714  1.00  0.00     0.029 A 
ATOM     53  N   UNL A   1      46.678  29.124  27.603  1.00  0.00    -0.354 N 
ATOM     54  N   UNL A   1      45.726  26.378  27.157  1.00  0.00    -0.248 NA
ATOM     55  C   UNL A   1      46.141  24.164  26.532  1.00  0.00     0.031 C 
ATOM     56  C   UNL A   1      48.832  29.559  27.284  1.00  0.00     0.029 A 
ATOM     57  C   UNL A   1      47.885  28.550  27.239  1.00  0.00     0.049 A 
ATOM     58  H   UNL A   1      45.817  28.648  27.653  1.00  0.00     0.167 HD
ATOM     59  C   UNL A   1      47.080  26.232  26.869  1.00  0.00     0.074 A 
ATOM     60  C   UNL A   1      47.282  24.839  26.522  1.00  0.00     0.031 C 
ATOM     61  C   UNL A   1      48.066  27.162  26.891  1.00  0.00     0.037 A 
BRANCH  48  62
ATOM     62  C   UNL A   1      46.158  32.820  28.514  1.00  0.00     0.058 A 
ATOM     63  C   UNL A   1      46.121  33.768  27.478  1.00  0.00     0.135 A 
ATOM     64  C   UNL A   1      46.515  33.266  29.795  1.00  0.00     0.135 A 
ATOM     65  F   UNL A   1      45.806  33.392  26.227  1.00  0.00    -0.206 F 
ATOM     66  C   UNL A   1      46.451  35.101  27.700  1.00  0.00     0.059 A 
ATOM     67  C   UNL A   1      46.824  34.600  30.046  1.00  0.00     0.059 A 
ATOM     68  F   UNL A   1      46.571  32.402  30.821  1.00  0.00    -0.206 F 
ATOM     69  C   UNL A   1      46.803  35.508  28.988  1.00  0.00     0.060 A 
BRANCH  69  70
ATOM     70  S   UNL A   1      47.229  37.241  29.261  1.00  0.00     0.124 S 
ATOM     71  O   UNL A   1      46.157  37.920  28.541  1.00  0.00    -0.237 OA
ATOM     72  O   UNL A   1      47.184  37.349  30.715  1.00  0.00    -0.237 OA
ATOM     73  O   UNL A   1      48.558  37.362  28.668  1.00  0.00    -0.744 OA
ENDBRANCH  69  70
ENDBRANCH  48  62
BRANCH  49  74
ATOM     74  C   UNL A   1      43.353  23.349  26.924  1.00  0.00     0.058 A 
ATOM     75  C   UNL A   1      43.208  22.859  25.619  1.00  0.00     0.135 A 
ATOM     76  C   UNL A   1      43.097  22.468  27.986  1.00  0.00     0.135 A 
ATOM     77  F   UNL A   1      43.433  23.664  24.570  1.00  0.00    -0.206 F 
ATOM     78  C   UNL A   1      42.810  21.548  25.373  1.00  0.00     0.059 A 
ATOM     79  C   UNL A   1      42.722  21.147  27.767  1.00  0.00     0.059 A 
ATOM     80  F   UNL A   1      43.232  22.886  29.255  1.00  0.00    -0.206 F 
ATOM     81  C   UNL A   1      42.570  20.699  26.455  1.00  0.00     0.060 A 
BRANCH  81  82
ATOM     82  S   UNL A   1      42.102  18.986  26.128  1.00  0.00     0.124 S 
ATOM     83  O   UNL A   1      43.020  18.631  25.053  1.00  0.00    -0.237 OA
ATOM     84  O   UNL A   1      42.350  18.349  27.419  1.00  0.00    -0.237 OA
ATOM     85  O   UNL A   1      40.695  19.088  25.751  1.00  0.00    -0.744 OA
ENDBRANCH  81  82
ENDBRANCH  49  74
BRANCH  61  86
ATOM     86  C   UNL A   1      49.458  26.694  26.560  1.00  0.00     0.058 A 
ATOM     87  C   UNL A   1      50.322  26.187  27.542  1.00  0.00     0.135 A 
ATOM     88  C   UNL A   1      49.927  26.742  25.236  1.00  0.00     0.135 A 
ATOM     89  F   UNL A   1      49.923  26.120  28.822  1.00  0.00    -0.206 F 
ATOM     90  C   UNL A   1      51.618  25.787  27.234  1.00  0.00     0.059 A 
ATOM     91  C   UNL A   1      51.209  26.320  24.901  1.00  0.00     0.059 A 
ATOM     92  F   UNL A   1      49.136  27.203  24.253  1.00  0.00    -0.206 F 
ATOM     93  C   UNL A   1      52.055  25.864  25.910  1.00  0.00     0.060 A 
BRANCH  93  94
ATOM     94  S   UNL A   1      53.742  25.353  25.521  1.00  0.00     0.124 S 
ATOM     95  O   UNL A   1      53.513  24.098  24.814  1.00  0.00    -0.237 OA
ATOM     96  O   UNL A   1      54.227  26.462  24.704  1.00  0.00    -0.237 OA
ATOM     97  O   UNL A   1      54.371  25.231  26.834  1.00  0.00    -0.744 OA
ENDBRANCH  93  94
ENDBRANCH  61  86
ENDBRANCH  35  36
ENDBRANCH  28  30
ENDBRANCH  27  28
ENDBRANCH  26  27
ENDBRANCH   1  26
TORSDOF 20
ENDMDL
