MODEL 1
REMARK VINA RESULT:     -12.0      0.000      0.000
REMARK SMILES Cc1cc(NC(=O)c2ccc(Br)cc2N)ccc1C(=O)OCCOCCOC(=O)c1ccc(-c2c3nc(c(-c4c(F)cc(S(=O)(=O)[O-])cc4F)c4ccc([nH]4)c(-c4c(F)cc(S(=O)(=O)[O-])cc4F)c4nc(c(-c5c(F)cc(S(=O)(=O)[O-])cc5F)c5ccc2[nH]5)C=C4)C=C3)cc1
REMARK SMILES IDX 24 1 23 2 22 3 21 4 19 5 20 6 18 7 1 8 2 9 3 10 4 11 17 12
REMARK SMILES IDX 16 13 5 14 6 15 7 17 8 18 9 19 14 20 10 21 13 22 11 23 12 24
REMARK SMILES IDX 15 25 25 28 26 29 27 30 28 31 29 32 30 33 31 34 95 35 32 36
REMARK SMILES IDX 94 37 33 38 34 39 35 40 88 41 36 42 93 43 87 44 89 45 37 46
REMARK SMILES IDX 92 47 86 48 85 49 38 51 72 52 51 53 71 54 52 55 55 56 70 57
REMARK SMILES IDX 90 58 53 59 54 60 69 62 91 63 56 64 39 65 40 66 49 67 41 68
REMARK SMILES IDX 42 69 48 70 50 71 43 72 44 73 45 74 46 75 47 76 73 77 74 78
REMARK SMILES IDX 83 79 75 80 76 81 82 82 84 83 77 84 78 85 79 86 80 87 81 88
REMARK SMILES IDX 57 89 58 90 67 91 59 92 60 93 66 94 68 95 61 96 62 97 63 98
REMARK SMILES IDX 64 99 65 100
REMARK H PARENT 5 16 15 26 15 27 89 50 55 61
REMARK Flexibility Score: inf
ROOT
ATOM      1  O   UNL A   1      31.385  30.097  25.287  1.00  0.00    -0.374 OA
ENDROOT
BRANCH   1   2
ATOM      2  C   UNL A   1      30.563  29.783  24.170  1.00  0.00     0.202 C 
BRANCH   2   3
ATOM      3  C   UNL A   1      31.441  29.034  23.221  1.00  0.00     0.261 C 
BRANCH   3   4
ATOM      4  O   UNL A   1      30.785  27.944  22.546  1.00  0.00    -0.460 OA
BRANCH   4   5
ATOM      5  C   UNL A   1      30.361  26.879  23.248  1.00  0.00     0.338 C 
ATOM      6  O   UNL A   1      29.216  26.571  23.502  1.00  0.00    -0.246 OA
BRANCH   5   7
ATOM      7  C   UNL A   1      31.560  26.130  23.701  1.00  0.00     0.063 A 
ATOM      8  C   UNL A   1      32.525  25.578  21.330  1.00  0.00     0.045 C 
ATOM      9  C   UNL A   1      32.495  25.513  22.838  1.00  0.00    -0.035 A 
ATOM     10  C   UNL A   1      33.607  24.910  23.418  1.00  0.00     0.030 A 
ATOM     11  C   UNL A   1      33.856  25.018  24.780  1.00  0.00     0.041 A 
ATOM     12  C   UNL A   1      31.730  26.059  25.099  1.00  0.00     0.018 A 
ATOM     13  C   UNL A   1      32.875  25.487  25.646  1.00  0.00     0.027 A 
BRANCH  11  14
ATOM     14  N   UNL A   1      35.152  24.819  25.265  1.00  0.00    -0.322 N 
ATOM     15  C   UNL A   1      35.675  23.647  25.794  1.00  0.00     0.257 C 
ATOM     16  H   UNL A   1      35.759  25.593  25.227  1.00  0.00     0.170 HD
ATOM     17  O   UNL A   1      36.705  23.704  26.468  1.00  0.00    -0.269 OA
BRANCH  15  18
ATOM     18  C   UNL A   1      35.049  22.300  25.544  1.00  0.00     0.063 A 
ATOM     19  C   UNL A   1      33.712  22.169  25.966  1.00  0.00     0.017 A 
ATOM     20  C   UNL A   1      35.702  21.191  24.953  1.00  0.00     0.045 A 
ATOM     21  C   UNL A   1      33.028  20.958  25.828  1.00  0.00     0.016 A 
ATOM     22  C   UNL A   1      34.996  19.978  24.833  1.00  0.00     0.042 A 
ATOM     23  C   UNL A   1      33.678  19.865  25.266  1.00  0.00     0.020 A 
ATOM     24  Br  UNL A   1      32.785  18.203  25.136  1.00  0.00    -0.051 Br
BRANCH  20  25
ATOM     25  N   UNL A   1      37.059  21.158  24.627  1.00  0.00    -0.398 N 
ATOM     26  H   UNL A   1      37.687  21.774  25.070  1.00  0.00     0.156 HD
ATOM     27  H   UNL A   1      37.388  20.520  23.954  1.00  0.00     0.156 HD
ENDBRANCH  20  25
ENDBRANCH  15  18
ENDBRANCH  11  14
ENDBRANCH   5   7
ENDBRANCH   4   5
ENDBRANCH   3   4
ENDBRANCH   2   3
ENDBRANCH   1   2
BRANCH   1  28
ATOM     28  C   UNL A   1      32.712  29.632  25.217  1.00  0.00     0.202 C 
BRANCH  28  29
ATOM     29  C   UNL A   1      33.284  29.257  26.587  1.00  0.00     0.261 C 
BRANCH  29  30
ATOM     30  O   UNL A   1      33.267  30.397  27.476  1.00  0.00    -0.460 OA
BRANCH  30  31
ATOM     31  C   UNL A   1      34.424  31.121  27.559  1.00  0.00     0.338 C 
ATOM     32  O   UNL A   1      34.509  32.296  27.252  1.00  0.00    -0.246 OA
BRANCH  31  33
ATOM     33  C   UNL A   1      35.525  30.291  28.134  1.00  0.00     0.060 A 
ATOM     34  C   UNL A   1      35.495  29.831  29.465  1.00  0.00     0.016 A 
ATOM     35  C   UNL A   1      36.680  30.122  27.377  1.00  0.00     0.016 A 
ATOM     36  C   UNL A   1      36.664  29.327  30.074  1.00  0.00     0.010 A 
ATOM     37  C   UNL A   1      37.841  29.721  28.000  1.00  0.00     0.010 A 
ATOM     38  C   UNL A   1      37.857  29.338  29.354  1.00  0.00    -0.014 A 
BRANCH  38  39
ATOM     39  C   UNL A   1      39.213  29.084  29.857  1.00  0.00     0.031 A 
ATOM     40  C   UNL A   1      39.880  27.839  29.405  1.00  0.00     0.074 A 
ATOM     41  C   UNL A   1      39.963  30.102  30.352  1.00  0.00     0.049 A 
ATOM     42  N   UNL A   1      41.087  27.527  29.710  1.00  0.00    -0.248 NA
ATOM     43  C   UNL A   1      39.236  26.812  28.582  1.00  0.00     0.031 C 
ATOM     44  C   UNL A   1      41.413  30.300  30.256  1.00  0.00     0.029 A 
ATOM     45  N   UNL A   1      39.551  31.240  31.046  1.00  0.00    -0.354 N 
ATOM     46  C   UNL A   1      41.485  26.502  28.890  1.00  0.00     0.074 A 
ATOM     47  C   UNL A   1      40.267  26.004  28.308  1.00  0.00     0.031 C 
ATOM     48  C   UNL A   1      41.792  31.309  31.061  1.00  0.00     0.029 A 
ATOM     49  C   UNL A   1      40.619  31.730  31.808  1.00  0.00     0.049 A 
ATOM     50  H   UNL A   1      38.651  31.637  31.005  1.00  0.00     0.167 HD
ATOM     51  C   UNL A   1      42.824  26.302  28.737  1.00  0.00     0.037 A 
ATOM     52  C   UNL A   1      40.485  31.860  33.154  1.00  0.00     0.037 A 
ATOM     53  C   UNL A   1      43.564  27.119  29.718  1.00  0.00     0.049 A 
ATOM     54  C   UNL A   1      41.382  30.829  33.771  1.00  0.00     0.074 A 
ATOM     55  C   UNL A   1      44.354  28.250  29.628  1.00  0.00     0.029 A 
ATOM     56  N   UNL A   1      43.257  26.967  31.074  1.00  0.00    -0.354 N 
ATOM     57  N   UNL A   1      41.748  29.754  33.121  1.00  0.00    -0.248 NA
ATOM     58  C   UNL A   1      42.084  30.984  35.040  1.00  0.00     0.031 C 
ATOM     59  C   UNL A   1      44.409  28.842  30.929  1.00  0.00     0.029 A 
ATOM     60  C   UNL A   1      43.686  28.051  31.817  1.00  0.00     0.049 A 
ATOM     61  H   UNL A   1      42.794  26.185  31.453  1.00  0.00     0.167 HD
ATOM     62  C   UNL A   1      42.779  29.162  33.772  1.00  0.00     0.074 A 
ATOM     63  C   UNL A   1      42.917  29.927  35.001  1.00  0.00     0.031 C 
ATOM     64  C   UNL A   1      43.464  28.101  33.262  1.00  0.00     0.037 A 
BRANCH  51  65
ATOM     65  C   UNL A   1      43.488  25.490  27.638  1.00  0.00     0.058 A 
ATOM     66  C   UNL A   1      43.610  24.088  27.772  1.00  0.00     0.135 A 
ATOM     67  C   UNL A   1      44.097  26.014  26.474  1.00  0.00     0.135 A 
ATOM     68  F   UNL A   1      43.120  23.450  28.845  1.00  0.00    -0.206 F 
ATOM     69  C   UNL A   1      44.257  23.281  26.829  1.00  0.00     0.059 A 
ATOM     70  C   UNL A   1      44.707  25.222  25.495  1.00  0.00     0.059 A 
ATOM     71  F   UNL A   1      44.189  27.328  26.246  1.00  0.00    -0.206 F 
ATOM     72  C   UNL A   1      44.794  23.854  25.684  1.00  0.00     0.060 A 
BRANCH  72  73
ATOM     73  S   UNL A   1      45.613  22.806  24.467  1.00  0.00     0.124 S 
ATOM     74  O   UNL A   1      46.144  21.733  25.300  1.00  0.00    -0.237 OA
ATOM     75  O   UNL A   1      44.513  22.440  23.582  1.00  0.00    -0.237 OA
ATOM     76  O   UNL A   1      46.617  23.688  23.876  1.00  0.00    -0.744 OA
ENDBRANCH  72  73
ENDBRANCH  51  65
BRANCH  52  77
ATOM     77  C   UNL A   1      39.117  32.356  33.527  1.00  0.00     0.058 A 
ATOM     78  C   UNL A   1      38.840  33.704  33.194  1.00  0.00     0.135 A 
ATOM     79  C   UNL A   1      38.009  31.497  33.621  1.00  0.00     0.135 A 
ATOM     80  F   UNL A   1      39.850  34.581  33.072  1.00  0.00    -0.206 F 
ATOM     81  C   UNL A   1      37.567  34.139  32.814  1.00  0.00     0.059 A 
ATOM     82  C   UNL A   1      36.725  31.908  33.218  1.00  0.00     0.059 A 
ATOM     83  F   UNL A   1      38.184  30.202  33.925  1.00  0.00    -0.206 F 
ATOM     84  C   UNL A   1      36.526  33.214  32.764  1.00  0.00     0.060 A 
BRANCH  84  85
ATOM     85  S   UNL A   1      35.026  33.653  31.822  1.00  0.00     0.124 S 
ATOM     86  O   UNL A   1      35.451  33.436  30.447  1.00  0.00    -0.237 OA
ATOM     87  O   UNL A   1      34.036  32.703  32.333  1.00  0.00    -0.237 OA
ATOM     88  O   UNL A   1      34.790  35.037  32.214  1.00  0.00    -0.744 OA
ENDBRANCH  84  85
ENDBRANCH  52  77
BRANCH  64  89
ATOM     89  C   UNL A   1      44.020  27.042  34.164  1.00  0.00     0.058 A 
ATOM     90  C   UNL A   1      45.396  26.934  34.442  1.00  0.00     0.135 A 
ATOM     91  C   UNL A   1      43.168  26.212  34.923  1.00  0.00     0.135 A 
ATOM     92  F   UNL A   1      46.297  27.771  33.905  1.00  0.00    -0.206 F 
ATOM     93  C   UNL A   1      45.904  25.983  35.312  1.00  0.00     0.059 A 
ATOM     94  C   UNL A   1      43.652  25.306  35.856  1.00  0.00     0.059 A 
ATOM     95  F   UNL A   1      41.834  26.265  34.797  1.00  0.00    -0.206 F 
ATOM     96  C   UNL A   1      45.024  25.164  36.005  1.00  0.00     0.060 A 
BRANCH  96  97
ATOM     97  S   UNL A   1      45.691  23.910  37.100  1.00  0.00     0.124 S 
ATOM     98  O   UNL A   1      45.433  22.698  36.329  1.00  0.00    -0.237 OA
ATOM     99  O   UNL A   1      47.094  24.299  37.213  1.00  0.00    -0.237 OA
ATOM    100  O   UNL A   1      44.903  24.069  38.316  1.00  0.00    -0.744 OA
ENDBRANCH  96  97
ENDBRANCH  64  89
ENDBRANCH  38  39
ENDBRANCH  31  33
ENDBRANCH  30  31
ENDBRANCH  29  30
ENDBRANCH  28  29
ENDBRANCH   1  28
TORSDOF 20
ENDMDL
MODEL 2
REMARK VINA RESULT:     -12.0      1.500      1.967
REMARK SMILES Cc1cc(NC(=O)c2ccc(Br)cc2N)ccc1C(=O)OCCOCCOC(=O)c1ccc(-c2c3nc(c(-c4c(F)cc(S(=O)(=O)[O-])cc4F)c4ccc([nH]4)c(-c4c(F)cc(S(=O)(=O)[O-])cc4F)c4nc(c(-c5c(F)cc(S(=O)(=O)[O-])cc5F)c5ccc2[nH]5)C=C4)C=C3)cc1
REMARK SMILES IDX 24 1 23 2 22 3 21 4 19 5 20 6 18 7 1 8 2 9 3 10 4 11 17 12
REMARK SMILES IDX 16 13 5 14 6 15 7 17 8 18 9 19 14 20 10 21 13 22 11 23 12 24
REMARK SMILES IDX 15 25 25 28 26 29 27 30 28 31 29 32 30 33 31 34 95 35 32 36
REMARK SMILES IDX 94 37 33 38 34 39 35 40 88 41 36 42 93 43 87 44 89 45 37 46
REMARK SMILES IDX 92 47 86 48 85 49 38 51 72 52 51 53 71 54 52 55 55 56 70 57
REMARK SMILES IDX 90 58 53 59 54 60 69 62 91 63 56 64 39 65 40 66 49 67 41 68
REMARK SMILES IDX 42 69 48 70 50 71 43 72 44 73 45 74 46 75 47 76 73 77 74 78
REMARK SMILES IDX 83 79 75 80 76 81 82 82 84 83 77 84 78 85 79 86 80 87 81 88
REMARK SMILES IDX 57 89 58 90 67 91 59 92 60 93 66 94 68 95 61 96 62 97 63 98
REMARK SMILES IDX 64 99 65 100
REMARK H PARENT 5 16 15 26 15 27 89 50 55 61
REMARK Flexibility Score: inf
ROOT
ATOM      1  O   UNL A   1      32.506  29.698  24.527  1.00  0.00    -0.374 OA
ENDROOT
BRANCH   1   2
ATOM      2  C   UNL A   1      32.272  28.455  23.879  1.00  0.00     0.202 C 
BRANCH   2   3
ATOM      3  C   UNL A   1      30.968  28.611  23.165  1.00  0.00     0.261 C 
BRANCH   3   4
ATOM      4  O   UNL A   1      30.394  27.371  22.709  1.00  0.00    -0.460 OA
BRANCH   4   5
ATOM      5  C   UNL A   1      29.518  26.711  23.487  1.00  0.00     0.338 C 
ATOM      6  O   UNL A   1      28.388  27.046  23.773  1.00  0.00    -0.246 OA
BRANCH   5   7
ATOM      7  C   UNL A   1      30.186  25.480  23.978  1.00  0.00     0.063 A 
ATOM      8  C   UNL A   1      30.326  26.160  26.503  1.00  0.00     0.045 C 
ATOM      9  C   UNL A   1      30.586  25.262  25.317  1.00  0.00    -0.035 A 
ATOM     10  C   UNL A   1      31.136  24.024  25.632  1.00  0.00     0.030 A 
ATOM     11  C   UNL A   1      31.175  22.995  24.699  1.00  0.00     0.041 A 
ATOM     12  C   UNL A   1      30.415  24.492  22.999  1.00  0.00     0.018 A 
ATOM     13  C   UNL A   1      30.927  23.247  23.355  1.00  0.00     0.027 A 
BRANCH  11  14
ATOM     14  N   UNL A   1      31.295  21.671  25.132  1.00  0.00    -0.322 N 
ATOM     15  C   UNL A   1      32.471  20.975  25.373  1.00  0.00     0.257 C 
ATOM     16  H   UNL A   1      30.456  21.180  25.282  1.00  0.00     0.170 HD
ATOM     17  O   UNL A   1      32.435  19.745  25.435  1.00  0.00    -0.269 OA
BRANCH  15  18
ATOM     18  C   UNL A   1      33.788  21.672  25.602  1.00  0.00     0.063 A 
ATOM     19  C   UNL A   1      34.687  21.632  24.519  1.00  0.00     0.017 A 
ATOM     20  C   UNL A   1      34.173  22.321  26.801  1.00  0.00     0.045 A 
ATOM     21  C   UNL A   1      35.957  22.204  24.616  1.00  0.00     0.016 A 
ATOM     22  C   UNL A   1      35.462  22.883  26.878  1.00  0.00     0.042 A 
ATOM     23  C   UNL A   1      36.341  22.823  25.799  1.00  0.00     0.020 A 
ATOM     24  Br  UNL A   1      38.082  23.544  25.965  1.00  0.00    -0.051 Br
BRANCH  20  25
ATOM     25  N   UNL A   1      33.428  22.303  27.980  1.00  0.00    -0.398 N 
ATOM     26  H   UNL A   1      33.109  21.447  28.348  1.00  0.00     0.156 HD
ATOM     27  H   UNL A   1      33.222  23.146  28.445  1.00  0.00     0.156 HD
ENDBRANCH  20  25
ENDBRANCH  15  18
ENDBRANCH  11  14
ENDBRANCH   5   7
ENDBRANCH   4   5
ENDBRANCH   3   4
ENDBRANCH   2   3
ENDBRANCH   1   2
BRANCH   1  28
ATOM     28  C   UNL A   1      31.611  30.023  25.565  1.00  0.00     0.202 C 
BRANCH  28  29
ATOM     29  C   UNL A   1      32.324  30.434  26.857  1.00  0.00     0.261 C 
BRANCH  29  30
ATOM     30  O   UNL A   1      33.758  30.374  26.690  1.00  0.00    -0.460 OA
BRANCH  30  31
ATOM     31  C   UNL A   1      34.505  31.110  27.566  1.00  0.00     0.338 C 
ATOM     32  O   UNL A   1      34.259  32.266  27.860  1.00  0.00    -0.246 OA
BRANCH  31  33
ATOM     33  C   UNL A   1      35.603  30.280  28.149  1.00  0.00     0.060 A 
ATOM     34  C   UNL A   1      35.565  29.821  29.480  1.00  0.00     0.016 A 
ATOM     35  C   UNL A   1      36.763  30.113  27.400  1.00  0.00     0.016 A 
ATOM     36  C   UNL A   1      36.730  29.318  30.096  1.00  0.00     0.010 A 
ATOM     37  C   UNL A   1      37.920  29.713  28.031  1.00  0.00     0.010 A 
ATOM     38  C   UNL A   1      37.928  29.330  29.385  1.00  0.00    -0.014 A 
BRANCH  38  39
ATOM     39  C   UNL A   1      39.281  29.076  29.897  1.00  0.00     0.031 A 
ATOM     40  C   UNL A   1      39.963  27.848  29.426  1.00  0.00     0.074 A 
ATOM     41  C   UNL A   1      40.016  30.091  30.421  1.00  0.00     0.049 A 
ATOM     42  N   UNL A   1      41.169  27.540  29.737  1.00  0.00    -0.248 NA
ATOM     43  C   UNL A   1      39.337  26.833  28.575  1.00  0.00     0.031 C 
ATOM     44  C   UNL A   1      41.465  30.303  30.345  1.00  0.00     0.029 A 
ATOM     45  N   UNL A   1      39.587  31.210  31.134  1.00  0.00    -0.354 N 
ATOM     46  C   UNL A   1      41.586  26.535  28.900  1.00  0.00     0.074 A 
ATOM     47  C   UNL A   1      40.378  26.039  28.295  1.00  0.00     0.031 C 
ATOM     48  C   UNL A   1      41.827  31.298  31.175  1.00  0.00     0.029 A 
ATOM     49  C   UNL A   1      40.642  31.693  31.918  1.00  0.00     0.049 A 
ATOM     50  H   UNL A   1      38.684  31.601  31.092  1.00  0.00     0.167 HD
ATOM     51  C   UNL A   1      42.928  26.351  28.758  1.00  0.00     0.037 A 
ATOM     52  C   UNL A   1      40.492  31.793  33.265  1.00  0.00     0.037 A 
ATOM     53  C   UNL A   1      43.650  27.152  29.763  1.00  0.00     0.049 A 
ATOM     54  C   UNL A   1      41.392  30.758  33.870  1.00  0.00     0.074 A 
ATOM     55  C   UNL A   1      44.431  28.292  29.706  1.00  0.00     0.029 A 
ATOM     56  N   UNL A   1      43.330  26.970  31.112  1.00  0.00    -0.354 N 
ATOM     57  N   UNL A   1      41.775  29.700  33.201  1.00  0.00    -0.248 NA
ATOM     58  C   UNL A   1      42.079  30.891  35.149  1.00  0.00     0.031 C 
ATOM     59  C   UNL A   1      44.466  28.857  31.020  1.00  0.00     0.029 A 
ATOM     60  C   UNL A   1      43.742  28.041  31.883  1.00  0.00     0.049 A 
ATOM     61  H   UNL A   1      42.870  26.176  31.470  1.00  0.00     0.167 HD
ATOM     62  C   UNL A   1      42.804  29.103  33.851  1.00  0.00     0.074 A 
ATOM     63  C   UNL A   1      42.922  29.843  35.097  1.00  0.00     0.031 C 
ATOM     64  C   UNL A   1      43.504  28.059  33.326  1.00  0.00     0.037 A 
BRANCH  51  65
ATOM     65  C   UNL A   1      43.610  25.567  27.649  1.00  0.00     0.058 A 
ATOM     66  C   UNL A   1      44.612  24.622  27.966  1.00  0.00     0.135 A 
ATOM     67  C   UNL A   1      43.399  25.743  26.262  1.00  0.00     0.135 A 
ATOM     68  F   UNL A   1      44.955  24.377  29.239  1.00  0.00    -0.206 F 
ATOM     69  C   UNL A   1      45.322  23.904  26.997  1.00  0.00     0.059 A 
ATOM     70  C   UNL A   1      44.064  25.003  25.277  1.00  0.00     0.059 A 
ATOM     71  F   UNL A   1      42.583  26.683  25.776  1.00  0.00    -0.206 F 
ATOM     72  C   UNL A   1      45.034  24.090  25.652  1.00  0.00     0.060 A 
BRANCH  72  73
ATOM     73  S   UNL A   1      45.944  23.151  24.410  1.00  0.00     0.124 S 
ATOM     74  O   UNL A   1      46.969  24.105  24.001  1.00  0.00    -0.237 OA
ATOM     75  O   UNL A   1      46.414  22.000  25.174  1.00  0.00    -0.237 OA
ATOM     76  O   UNL A   1      44.933  22.852  23.398  1.00  0.00    -0.744 OA
ENDBRANCH  72  73
ENDBRANCH  51  65
BRANCH  52  77
ATOM     77  C   UNL A   1      39.117  32.269  33.634  1.00  0.00     0.058 A 
ATOM     78  C   UNL A   1      38.856  33.641  33.394  1.00  0.00     0.135 A 
ATOM     79  C   UNL A   1      38.002  31.413  33.631  1.00  0.00     0.135 A 
ATOM     80  F   UNL A   1      39.873  34.518  33.366  1.00  0.00    -0.206 F 
ATOM     81  C   UNL A   1      37.596  34.111  33.010  1.00  0.00     0.059 A 
ATOM     82  C   UNL A   1      36.733  31.861  33.222  1.00  0.00     0.059 A 
ATOM     83  F   UNL A   1      38.162  30.098  33.843  1.00  0.00    -0.206 F 
ATOM     84  C   UNL A   1      36.553  33.200  32.861  1.00  0.00     0.060 A 
BRANCH  84  85
ATOM     85  S   UNL A   1      35.084  33.716  31.911  1.00  0.00     0.124 S 
ATOM     86  O   UNL A   1      34.879  35.080  32.377  1.00  0.00    -0.237 OA
ATOM     87  O   UNL A   1      35.534  33.586  30.524  1.00  0.00    -0.237 OA
ATOM     88  O   UNL A   1      34.079  32.740  32.311  1.00  0.00    -0.744 OA
ENDBRANCH  84  85
ENDBRANCH  52  77
BRANCH  64  89
ATOM     89  C   UNL A   1      44.059  26.986  34.212  1.00  0.00     0.058 A 
ATOM     90  C   UNL A   1      45.423  26.922  34.554  1.00  0.00     0.135 A 
ATOM     91  C   UNL A   1      43.207  26.091  34.893  1.00  0.00     0.135 A 
ATOM     92  F   UNL A   1      46.313  27.816  34.096  1.00  0.00    -0.206 F 
ATOM     93  C   UNL A   1      45.928  25.956  35.410  1.00  0.00     0.059 A 
ATOM     94  C   UNL A   1      43.683  25.166  35.812  1.00  0.00     0.059 A 
ATOM     95  F   UNL A   1      41.880  26.096  34.702  1.00  0.00    -0.206 F 
ATOM     96  C   UNL A   1      45.051  25.074  36.024  1.00  0.00     0.060 A 
BRANCH  96  97
ATOM     97  S   UNL A   1      45.717  23.802  37.099  1.00  0.00     0.124 S 
ATOM     98  O   UNL A   1      45.362  22.595  36.361  1.00  0.00    -0.237 OA
ATOM     99  O   UNL A   1      47.141  24.126  37.133  1.00  0.00    -0.237 OA
ATOM    100  O   UNL A   1      45.003  24.013  38.353  1.00  0.00    -0.744 OA
ENDBRANCH  96  97
ENDBRANCH  64  89
ENDBRANCH  38  39
ENDBRANCH  31  33
ENDBRANCH  30  31
ENDBRANCH  29  30
ENDBRANCH  28  29
ENDBRANCH   1  28
TORSDOF 20
ENDMDL
MODEL 3
REMARK VINA RESULT:     -11.8      3.886      9.978
REMARK SMILES Cc1cc(NC(=O)c2ccc(Br)cc2N)ccc1C(=O)OCCOCCOC(=O)c1ccc(-c2c3nc(c(-c4c(F)cc(S(=O)(=O)[O-])cc4F)c4ccc([nH]4)c(-c4c(F)cc(S(=O)(=O)[O-])cc4F)c4nc(c(-c5c(F)cc(S(=O)(=O)[O-])cc5F)c5ccc2[nH]5)C=C4)C=C3)cc1
REMARK SMILES IDX 24 1 23 2 22 3 21 4 19 5 20 6 18 7 1 8 2 9 3 10 4 11 17 12
REMARK SMILES IDX 16 13 5 14 6 15 7 17 8 18 9 19 14 20 10 21 13 22 11 23 12 24
REMARK SMILES IDX 15 25 25 28 26 29 27 30 28 31 29 32 30 33 31 34 95 35 32 36
REMARK SMILES IDX 94 37 33 38 34 39 35 40 88 41 36 42 93 43 87 44 89 45 37 46
REMARK SMILES IDX 92 47 86 48 85 49 38 51 72 52 51 53 71 54 52 55 55 56 70 57
REMARK SMILES IDX 90 58 53 59 54 60 69 62 91 63 56 64 39 65 40 66 49 67 41 68
REMARK SMILES IDX 42 69 48 70 50 71 43 72 44 73 45 74 46 75 47 76 73 77 74 78
REMARK SMILES IDX 83 79 75 80 76 81 82 82 84 83 77 84 78 85 79 86 80 87 81 88
REMARK SMILES IDX 57 89 58 90 67 91 59 92 60 93 66 94 68 95 61 96 62 97 63 98
REMARK SMILES IDX 64 99 65 100
REMARK H PARENT 5 16 15 26 15 27 89 50 55 61
REMARK Flexibility Score: inf
ROOT
ATOM      1  O   UNL A   1      35.754  22.045  24.235  1.00  0.00    -0.374 OA
ENDROOT
BRANCH   1   2
ATOM      2  C   UNL A   1      34.349  22.266  24.240  1.00  0.00     0.202 C 
BRANCH   2   3
ATOM      3  C   UNL A   1      34.004  22.637  25.646  1.00  0.00     0.261 C 
BRANCH   3   4
ATOM      4  O   UNL A   1      32.924  23.583  25.758  1.00  0.00    -0.460 OA
BRANCH   4   5
ATOM      5  C   UNL A   1      31.681  23.228  25.390  1.00  0.00     0.338 C 
ATOM      6  O   UNL A   1      31.101  22.195  25.651  1.00  0.00    -0.246 OA
BRANCH   5   7
ATOM      7  C   UNL A   1      31.123  24.327  24.563  1.00  0.00     0.063 A 
ATOM      8  C   UNL A   1      29.530  25.338  26.379  1.00  0.00     0.045 C 
ATOM      9  C   UNL A   1      30.129  25.235  24.997  1.00  0.00    -0.035 A 
ATOM     10  C   UNL A   1      29.764  26.256  24.125  1.00  0.00     0.030 A 
ATOM     11  C   UNL A   1      30.436  26.454  22.926  1.00  0.00     0.041 A 
ATOM     12  C   UNL A   1      31.656  24.427  23.261  1.00  0.00     0.018 A 
ATOM     13  C   UNL A   1      31.301  25.486  22.429  1.00  0.00     0.027 A 
BRANCH  11  14
ATOM     14  N   UNL A   1      30.379  27.702  22.298  1.00  0.00    -0.322 N 
ATOM     15  C   UNL A   1      30.864  28.906  22.789  1.00  0.00     0.257 C 
ATOM     16  H   UNL A   1      29.948  27.730  21.414  1.00  0.00     0.170 HD
ATOM     17  O   UNL A   1      30.464  29.959  22.289  1.00  0.00    -0.269 OA
BRANCH  15  18
ATOM     18  C   UNL A   1      31.893  28.973  23.888  1.00  0.00     0.063 A 
ATOM     19  C   UNL A   1      31.430  29.483  25.116  1.00  0.00     0.017 A 
ATOM     20  C   UNL A   1      33.251  28.591  23.761  1.00  0.00     0.045 A 
ATOM     21  C   UNL A   1      32.294  29.635  26.204  1.00  0.00     0.016 A 
ATOM     22  C   UNL A   1      34.105  28.762  24.868  1.00  0.00     0.042 A 
ATOM     23  C   UNL A   1      33.631  29.278  26.072  1.00  0.00     0.020 A 
ATOM     24  Br  UNL A   1      34.824  29.541  27.516  1.00  0.00    -0.051 Br
BRANCH  20  25
ATOM     25  N   UNL A   1      33.853  28.207  22.562  1.00  0.00    -0.398 N 
ATOM     26  H   UNL A   1      33.942  28.855  21.826  1.00  0.00     0.156 HD
ATOM     27  H   UNL A   1      34.189  27.288  22.452  1.00  0.00     0.156 HD
ENDBRANCH  20  25
ENDBRANCH  15  18
ENDBRANCH  11  14
ENDBRANCH   5   7
ENDBRANCH   4   5
ENDBRANCH   3   4
ENDBRANCH   2   3
ENDBRANCH   1   2
BRANCH   1  28
ATOM     28  C   UNL A   1      36.249  21.248  25.285  1.00  0.00     0.202 C 
BRANCH  28  29
ATOM     29  C   UNL A   1      37.778  21.158  25.291  1.00  0.00     0.261 C 
BRANCH  29  30
ATOM     30  O   UNL A   1      38.366  22.467  25.459  1.00  0.00    -0.460 OA
BRANCH  30  31
ATOM     31  C   UNL A   1      39.231  22.617  26.507  1.00  0.00     0.338 C 
ATOM     32  O   UNL A   1      39.749  21.685  27.095  1.00  0.00    -0.246 OA
BRANCH  31  33
ATOM     33  C   UNL A   1      39.491  24.065  26.773  1.00  0.00     0.060 A 
ATOM     34  C   UNL A   1      40.105  24.899  25.818  1.00  0.00     0.016 A 
ATOM     35  C   UNL A   1      39.272  24.543  28.060  1.00  0.00     0.016 A 
ATOM     36  C   UNL A   1      40.619  26.158  26.195  1.00  0.00     0.010 A 
ATOM     37  C   UNL A   1      39.858  25.727  28.447  1.00  0.00     0.010 A 
ATOM     38  C   UNL A   1      40.553  26.540  27.533  1.00  0.00    -0.014 A 
BRANCH  38  39
ATOM     39  C   UNL A   1      41.219  27.680  28.176  1.00  0.00     0.031 A 
ATOM     40  C   UNL A   1      40.379  28.856  28.505  1.00  0.00     0.074 A 
ATOM     41  C   UNL A   1      42.410  27.512  28.807  1.00  0.00     0.049 A 
ATOM     42  N   UNL A   1      40.813  29.889  29.129  1.00  0.00    -0.248 NA
ATOM     43  C   UNL A   1      38.967  28.989  28.137  1.00  0.00     0.031 C 
ATOM     44  C   UNL A   1      42.906  28.178  30.016  1.00  0.00     0.029 A 
ATOM     45  N   UNL A   1      43.454  26.641  28.496  1.00  0.00    -0.354 N 
ATOM     46  C   UNL A   1      39.733  30.629  29.541  1.00  0.00     0.074 A 
ATOM     47  C   UNL A   1      38.624  30.107  28.787  1.00  0.00     0.031 C 
ATOM     48  C   UNL A   1      44.211  27.900  30.189  1.00  0.00     0.029 A 
ATOM     49  C   UNL A   1      44.648  27.138  29.032  1.00  0.00     0.049 A 
ATOM     50  H   UNL A   1      43.365  25.806  27.981  1.00  0.00     0.167 HD
ATOM     51  C   UNL A   1      39.926  31.510  30.562  1.00  0.00     0.037 A 
ATOM     52  C   UNL A   1      45.703  27.390  28.213  1.00  0.00     0.037 A 
ATOM     53  C   UNL A   1      41.368  31.641  30.840  1.00  0.00     0.049 A 
ATOM     54  C   UNL A   1      45.870  28.880  28.181  1.00  0.00     0.074 A 
ATOM     55  C   UNL A   1      42.191  31.227  31.871  1.00  0.00     0.029 A 
ATOM     56  N   UNL A   1      42.216  32.006  29.790  1.00  0.00    -0.354 N 
ATOM     57  N   UNL A   1      44.880  29.691  28.456  1.00  0.00    -0.248 NA
ATOM     58  C   UNL A   1      47.143  29.576  28.042  1.00  0.00     0.031 C 
ATOM     59  C   UNL A   1      43.534  31.229  31.378  1.00  0.00     0.029 A 
ATOM     60  C   UNL A   1      43.532  31.681  30.062  1.00  0.00     0.049 A 
ATOM     61  H   UNL A   1      41.914  32.442  28.960  1.00  0.00     0.167 HD
ATOM     62  C   UNL A   1      45.363  30.942  28.656  1.00  0.00     0.074 A 
ATOM     63  C   UNL A   1      46.776  30.839  28.325  1.00  0.00     0.031 C 
ATOM     64  C   UNL A   1      44.590  31.973  29.094  1.00  0.00     0.037 A 
BRANCH  51  65
ATOM     65  C   UNL A   1      38.838  32.156  31.403  1.00  0.00     0.058 A 
ATOM     66  C   UNL A   1      38.531  31.637  32.681  1.00  0.00     0.135 A 
ATOM     67  C   UNL A   1      38.003  33.223  30.997  1.00  0.00     0.135 A 
ATOM     68  F   UNL A   1      39.208  30.595  33.185  1.00  0.00    -0.206 F 
ATOM     69  C   UNL A   1      37.506  32.143  33.488  1.00  0.00     0.059 A 
ATOM     70  C   UNL A   1      37.003  33.777  31.806  1.00  0.00     0.059 A 
ATOM     71  F   UNL A   1      38.065  33.753  29.772  1.00  0.00    -0.206 F 
ATOM     72  C   UNL A   1      36.753  33.223  33.050  1.00  0.00     0.060 A 
BRANCH  72  73
ATOM     73  S   UNL A   1      35.443  33.879  34.102  1.00  0.00     0.124 S 
ATOM     74  O   UNL A   1      35.871  33.441  35.426  1.00  0.00    -0.237 OA
ATOM     75  O   UNL A   1      35.529  35.313  33.847  1.00  0.00    -0.237 OA
ATOM     76  O   UNL A   1      34.237  33.230  33.592  1.00  0.00    -0.744 OA
ENDBRANCH  72  73
ENDBRANCH  51  65
BRANCH  52  77
ATOM     77  C   UNL A   1      45.838  26.341  27.147  1.00  0.00     0.058 A 
ATOM     78  C   UNL A   1      46.246  25.060  27.593  1.00  0.00     0.135 A 
ATOM     79  C   UNL A   1      45.083  26.376  25.961  1.00  0.00     0.135 A 
ATOM     80  F   UNL A   1      46.957  24.945  28.727  1.00  0.00    -0.206 F 
ATOM     81  C   UNL A   1      45.796  23.877  26.998  1.00  0.00     0.059 A 
ATOM     82  C   UNL A   1      44.600  25.198  25.363  1.00  0.00     0.059 A 
ATOM     83  F   UNL A   1      44.651  27.549  25.474  1.00  0.00    -0.206 F 
ATOM     84  C   UNL A   1      44.916  23.957  25.921  1.00  0.00     0.060 A 
BRANCH  84  85
ATOM     85  S   UNL A   1      43.966  22.466  25.470  1.00  0.00     0.124 S 
ATOM     86  O   UNL A   1      43.597  22.741  24.090  1.00  0.00    -0.237 OA
ATOM     87  O   UNL A   1      44.942  21.392  25.660  1.00  0.00    -0.237 OA
ATOM     88  O   UNL A   1      42.878  22.468  26.441  1.00  0.00    -0.744 OA
ENDBRANCH  84  85
ENDBRANCH  52  77
BRANCH  64  89
ATOM     89  C   UNL A   1      44.849  33.375  28.635  1.00  0.00     0.058 A 
ATOM     90  C   UNL A   1      45.606  34.289  29.394  1.00  0.00     0.135 A 
ATOM     91  C   UNL A   1      44.499  33.792  27.334  1.00  0.00     0.135 A 
ATOM     92  F   UNL A   1      46.132  33.959  30.584  1.00  0.00    -0.206 F 
ATOM     93  C   UNL A   1      45.884  35.571  28.949  1.00  0.00     0.059 A 
ATOM     94  C   UNL A   1      44.835  35.045  26.839  1.00  0.00     0.059 A 
ATOM     95  F   UNL A   1      43.834  32.989  26.490  1.00  0.00    -0.206 F 
ATOM     96  C   UNL A   1      45.482  35.944  27.674  1.00  0.00     0.060 A 
BRANCH  96  97
ATOM     97  S   UNL A   1      45.812  37.618  27.120  1.00  0.00     0.124 S 
ATOM     98  O   UNL A   1      44.459  38.097  26.853  1.00  0.00    -0.237 OA
ATOM     99  O   UNL A   1      46.475  38.213  28.278  1.00  0.00    -0.237 OA
ATOM    100  O   UNL A   1      46.661  37.425  25.951  1.00  0.00    -0.744 OA
ENDBRANCH  96  97
ENDBRANCH  64  89
ENDBRANCH  38  39
ENDBRANCH  31  33
ENDBRANCH  30  31
ENDBRANCH  29  30
ENDBRANCH  28  29
ENDBRANCH   1  28
TORSDOF 20
ENDMDL
