MODEL 1
REMARK VINA RESULT:     -10.3      0.000      0.000
REMARK SMILES CC[C@@H](C)N(C)S(=O)(=O)c1cc(C(=O)OCCOCCOC(=O)c2ccc(-c3c4nc(c(-c5c(F)cc(S(=O)(=O)[O-])cc5F)c5ccc([nH]5)c(-c5c(F)cc(S(=O)(=O)[O-])cc5F)c5nc(c(-c6c(F)cc(S(=O)(=O)[O-])cc6F)c6ccc3[nH]6)C=C5)C=C4)cc2)ccc1Br
REMARK SMILES IDX 17 1 16 2 15 3 13 4 14 5 12 6 10 7 11 8 92 9 91 10 93 11
REMARK SMILES IDX 90 12 7 13 8 14 9 15 5 16 6 17 3 18 4 19 2 20 1 21 18 22
REMARK SMILES IDX 19 23 20 24 21 25 22 26 23 27 24 28 25 29 89 30 26 31 88 32
REMARK SMILES IDX 27 33 28 34 29 35 82 36 30 37 87 38 81 39 83 40 31 41 86 42
REMARK SMILES IDX 80 43 79 44 32 46 66 47 45 48 65 49 46 50 49 51 64 52 84 53
REMARK SMILES IDX 47 54 48 55 63 57 85 58 50 59 33 60 34 61 43 62 35 63 36 64
REMARK SMILES IDX 42 65 44 66 37 67 38 68 39 69 40 70 41 71 67 72 68 73 77 74
REMARK SMILES IDX 69 75 70 76 76 77 78 78 71 79 72 80 73 81 74 82 75 83 51 84
REMARK SMILES IDX 52 85 61 86 53 87 54 88 60 89 62 90 55 91 56 92 57 93 58 94
REMARK SMILES IDX 59 95
REMARK H PARENT 83 45 49 56
REMARK Flexibility Score: inf
ROOT
ATOM      1  C   UNL A   1      37.268  22.277  24.952  1.00  0.00     0.202 C 
ENDROOT
BRANCH   1   2
ATOM      2  C   UNL A   1      36.460  21.126  25.554  1.00  0.00     0.261 C 
BRANCH   2   3
ATOM      3  O   UNL A   1      35.111  21.163  25.051  1.00  0.00    -0.460 OA
BRANCH   3   4
ATOM      4  C   UNL A   1      34.380  22.220  25.461  1.00  0.00     0.338 C 
ATOM      5  O   UNL A   1      34.126  22.541  26.613  1.00  0.00    -0.246 OA
BRANCH   4   6
ATOM      6  C   UNL A   1      34.016  23.076  24.310  1.00  0.00     0.061 A 
ATOM      7  C   UNL A   1      33.477  25.336  23.556  1.00  0.00     0.097 A 
ATOM      8  C   UNL A   1      33.927  24.449  24.550  1.00  0.00     0.038 A 
ATOM      9  C   UNL A   1      33.091  24.834  22.315  1.00  0.00     0.038 A 
ATOM     10  C   UNL A   1      33.260  23.460  22.051  1.00  0.00     0.018 A 
ATOM     11  Br  UNL A   1      32.232  25.838  20.954  1.00  0.00    -0.049 Br
ATOM     12  C   UNL A   1      33.724  22.581  23.040  1.00  0.00     0.017 A 
BRANCH   7  13
ATOM     13  S   UNL A   1      33.346  27.018  24.103  1.00  0.00     0.244 S 
ATOM     14  O   UNL A   1      33.952  27.832  23.082  1.00  0.00    -0.207 OA
ATOM     15  O   UNL A   1      33.888  26.998  25.456  1.00  0.00    -0.207 OA
BRANCH  13  16
ATOM     16  N   UNL A   1      31.703  27.485  24.152  1.00  0.00    -0.198 NA
ATOM     17  C   UNL A   1      31.419  28.696  24.968  1.00  0.00     0.124 C 
BRANCH  16  18
ATOM     18  C   UNL A   1      30.682  26.386  24.414  1.00  0.00     0.069 C 
ATOM     19  C   UNL A   1      29.291  26.740  23.878  1.00  0.00     0.026 C 
BRANCH  18  20
ATOM     20  C   UNL A   1      30.634  25.981  25.899  1.00  0.00     0.016 C 
ATOM     21  C   UNL A   1      30.425  24.490  26.129  1.00  0.00     0.005 C 
ENDBRANCH  18  20
ENDBRANCH  16  18
ENDBRANCH  13  16
ENDBRANCH   7  13
ENDBRANCH   4   6
ENDBRANCH   3   4
ENDBRANCH   2   3
ENDBRANCH   1   2
BRANCH   1  22
ATOM     22  O   UNL A   1      38.372  22.683  25.766  1.00  0.00    -0.374 OA
BRANCH  22  23
ATOM     23  C   UNL A   1      39.318  21.659  26.084  1.00  0.00     0.202 C 
BRANCH  23  24
ATOM     24  C   UNL A   1      40.706  22.192  26.452  1.00  0.00     0.261 C 
BRANCH  24  25
ATOM     25  O   UNL A   1      40.590  23.316  27.343  1.00  0.00    -0.460 OA
BRANCH  25  26
ATOM     26  C   UNL A   1      41.430  24.347  27.087  1.00  0.00     0.338 C 
ATOM     27  O   UNL A   1      42.257  24.412  26.189  1.00  0.00    -0.246 OA
BRANCH  26  28
ATOM     28  C   UNL A   1      41.094  25.497  27.953  1.00  0.00     0.060 A 
ATOM     29  C   UNL A   1      42.098  26.448  28.178  1.00  0.00     0.016 A 
ATOM     30  C   UNL A   1      39.840  25.642  28.556  1.00  0.00     0.016 A 
ATOM     31  C   UNL A   1      41.867  27.519  29.039  1.00  0.00     0.010 A 
ATOM     32  C   UNL A   1      39.613  26.713  29.426  1.00  0.00     0.010 A 
ATOM     33  C   UNL A   1      40.636  27.639  29.695  1.00  0.00    -0.014 A 
BRANCH  33  34
ATOM     34  C   UNL A   1      40.476  28.652  30.765  1.00  0.00     0.031 A 
ATOM     35  C   UNL A   1      41.355  28.569  31.982  1.00  0.00     0.074 A 
ATOM     36  C   UNL A   1      39.585  29.651  30.641  1.00  0.00     0.049 A 
ATOM     37  N   UNL A   1      41.391  29.347  33.032  1.00  0.00    -0.248 NA
ATOM     38  C   UNL A   1      42.324  27.461  32.018  1.00  0.00     0.031 C 
ATOM     39  C   UNL A   1      38.694  29.855  29.498  1.00  0.00     0.029 A 
ATOM     40  N   UNL A   1      39.280  30.682  31.493  1.00  0.00    -0.354 N 
ATOM     41  C   UNL A   1      42.385  28.828  33.853  1.00  0.00     0.074 A 
ATOM     42  C   UNL A   1      42.910  27.653  33.191  1.00  0.00     0.031 C 
ATOM     43  C   UNL A   1      37.936  30.941  29.726  1.00  0.00     0.029 A 
ATOM     44  C   UNL A   1      38.274  31.498  31.035  1.00  0.00     0.049 A 
ATOM     45  H   UNL A   1      39.741  30.826  32.352  1.00  0.00     0.167 HD
ATOM     46  C   UNL A   1      42.826  29.292  35.045  1.00  0.00     0.037 A 
ATOM     47  C   UNL A   1      37.686  32.564  31.612  1.00  0.00     0.037 A 
ATOM     48  C   UNL A   1      42.303  30.457  35.707  1.00  0.00     0.049 A 
ATOM     49  C   UNL A   1      38.161  33.035  32.961  1.00  0.00     0.074 A 
ATOM     50  C   UNL A   1      42.692  31.011  36.914  1.00  0.00     0.029 A 
ATOM     51  N   UNL A   1      41.271  31.244  35.220  1.00  0.00    -0.354 N 
ATOM     52  N   UNL A   1      39.117  32.547  33.714  1.00  0.00    -0.248 NA
ATOM     53  C   UNL A   1      37.478  34.203  33.538  1.00  0.00     0.031 C 
ATOM     54  C   UNL A   1      41.876  32.118  37.171  1.00  0.00     0.029 A 
ATOM     55  C   UNL A   1      40.999  32.271  36.108  1.00  0.00     0.049 A 
ATOM     56  H   UNL A   1      40.802  31.096  34.366  1.00  0.00     0.167 HD
ATOM     57  C   UNL A   1      39.166  33.360  34.842  1.00  0.00     0.074 A 
ATOM     58  C   UNL A   1      38.146  34.374  34.671  1.00  0.00     0.031 C 
ATOM     59  C   UNL A   1      39.985  33.275  35.919  1.00  0.00     0.037 A 
BRANCH  46  60
ATOM     60  C   UNL A   1      43.924  28.521  35.718  1.00  0.00     0.058 A 
ATOM     61  C   UNL A   1      45.276  28.797  35.459  1.00  0.00     0.135 A 
ATOM     62  C   UNL A   1      43.622  27.505  36.637  1.00  0.00     0.135 A 
ATOM     63  F   UNL A   1      45.615  29.746  34.573  1.00  0.00    -0.206 F 
ATOM     64  C   UNL A   1      46.292  28.073  36.074  1.00  0.00     0.059 A 
ATOM     65  C   UNL A   1      44.623  26.781  37.276  1.00  0.00     0.059 A 
ATOM     66  F   UNL A   1      42.344  27.200  36.911  1.00  0.00    -0.206 F 
ATOM     67  C   UNL A   1      45.956  27.063  36.977  1.00  0.00     0.060 A 
BRANCH  67  68
ATOM     68  S   UNL A   1      47.282  26.123  37.762  1.00  0.00     0.124 S 
ATOM     69  O   UNL A   1      47.231  26.634  39.127  1.00  0.00    -0.237 OA
ATOM     70  O   UNL A   1      46.839  24.743  37.585  1.00  0.00    -0.237 OA
ATOM     71  O   UNL A   1      48.464  26.501  36.992  1.00  0.00    -0.744 OA
ENDBRANCH  67  68
ENDBRANCH  46  60
BRANCH  47  72
ATOM     72  C   UNL A   1      36.572  33.259  30.917  1.00  0.00     0.058 A 
ATOM     73  C   UNL A   1      35.239  33.048  31.294  1.00  0.00     0.135 A 
ATOM     74  C   UNL A   1      36.825  34.155  29.868  1.00  0.00     0.135 A 
ATOM     75  F   UNL A   1      34.950  32.191  32.286  1.00  0.00    -0.206 F 
ATOM     76  C   UNL A   1      34.190  33.695  30.650  1.00  0.00     0.059 A 
ATOM     77  C   UNL A   1      35.795  34.828  29.220  1.00  0.00     0.059 A 
ATOM     78  F   UNL A   1      38.087  34.398  29.479  1.00  0.00    -0.206 F 
ATOM     79  C   UNL A   1      34.480  34.586  29.613  1.00  0.00     0.060 A 
BRANCH  79  80
ATOM     80  S   UNL A   1      33.122  35.473  28.819  1.00  0.00     0.124 S 
ATOM     81  O   UNL A   1      32.443  34.395  28.111  1.00  0.00    -0.237 OA
ATOM     82  O   UNL A   1      32.408  36.035  29.962  1.00  0.00    -0.237 OA
ATOM     83  O   UNL A   1      33.809  36.449  27.980  1.00  0.00    -0.744 OA
ENDBRANCH  79  80
ENDBRANCH  47  72
BRANCH  59  84
ATOM     84  C   UNL A   1      39.832  34.319  36.987  1.00  0.00     0.058 A 
ATOM     85  C   UNL A   1      39.049  34.091  38.128  1.00  0.00     0.135 A 
ATOM     86  C   UNL A   1      40.524  35.538  36.895  1.00  0.00     0.135 A 
ATOM     87  F   UNL A   1      38.364  32.944  38.258  1.00  0.00    -0.206 F 
ATOM     88  C   UNL A   1      38.945  35.042  39.139  1.00  0.00     0.059 A 
ATOM     89  C   UNL A   1      40.450  36.495  37.902  1.00  0.00     0.059 A 
ATOM     90  F   UNL A   1      41.294  35.799  35.827  1.00  0.00    -0.206 F 
ATOM     91  C   UNL A   1      39.649  36.242  39.016  1.00  0.00     0.060 A 
BRANCH  91  92
ATOM     92  S   UNL A   1      39.544  37.455  40.350  1.00  0.00     0.124 S 
ATOM     93  O   UNL A   1      39.558  36.595  41.529  1.00  0.00    -0.237 OA
ATOM     94  O   UNL A   1      40.742  38.262  40.140  1.00  0.00    -0.237 OA
ATOM     95  O   UNL A   1      38.283  38.139  40.084  1.00  0.00    -0.744 OA
ENDBRANCH  91  92
ENDBRANCH  59  84
ENDBRANCH  33  34
ENDBRANCH  26  28
ENDBRANCH  25  26
ENDBRANCH  24  25
ENDBRANCH  23  24
ENDBRANCH  22  23
ENDBRANCH   1  22
TORSDOF 21
ENDMDL
MODEL 2
REMARK VINA RESULT:     -10.0      1.082      2.075
REMARK SMILES CC[C@@H](C)N(C)S(=O)(=O)c1cc(C(=O)OCCOCCOC(=O)c2ccc(-c3c4nc(c(-c5c(F)cc(S(=O)(=O)[O-])cc5F)c5ccc([nH]5)c(-c5c(F)cc(S(=O)(=O)[O-])cc5F)c5nc(c(-c6c(F)cc(S(=O)(=O)[O-])cc6F)c6ccc3[nH]6)C=C5)C=C4)cc2)ccc1Br
REMARK SMILES IDX 17 1 16 2 15 3 13 4 14 5 12 6 10 7 11 8 92 9 91 10 93 11
REMARK SMILES IDX 90 12 7 13 8 14 9 15 5 16 6 17 3 18 4 19 2 20 1 21 18 22
REMARK SMILES IDX 19 23 20 24 21 25 22 26 23 27 24 28 25 29 89 30 26 31 88 32
REMARK SMILES IDX 27 33 28 34 29 35 82 36 30 37 87 38 81 39 83 40 31 41 86 42
REMARK SMILES IDX 80 43 79 44 32 46 66 47 45 48 65 49 46 50 49 51 64 52 84 53
REMARK SMILES IDX 47 54 48 55 63 57 85 58 50 59 33 60 34 61 43 62 35 63 36 64
REMARK SMILES IDX 42 65 44 66 37 67 38 68 39 69 40 70 41 71 67 72 68 73 77 74
REMARK SMILES IDX 69 75 70 76 76 77 78 78 71 79 72 80 73 81 74 82 75 83 51 84
REMARK SMILES IDX 52 85 61 86 53 87 54 88 60 89 62 90 55 91 56 92 57 93 58 94
REMARK SMILES IDX 59 95
REMARK H PARENT 83 45 49 56
REMARK Flexibility Score: inf
ROOT
ATOM      1  C   UNL A   1      36.947  21.318  24.569  1.00  0.00     0.202 C 
ENDROOT
BRANCH   1   2
ATOM      2  C   UNL A   1      35.787  20.957  25.497  1.00  0.00     0.261 C 
BRANCH   2   3
ATOM      3  O   UNL A   1      34.627  21.736  25.151  1.00  0.00    -0.460 OA
BRANCH   3   4
ATOM      4  C   UNL A   1      34.222  22.608  26.099  1.00  0.00     0.338 C 
ATOM      5  O   UNL A   1      34.743  22.811  27.186  1.00  0.00    -0.246 OA
BRANCH   4   6
ATOM      6  C   UNL A   1      33.103  23.436  25.597  1.00  0.00     0.061 A 
ATOM      7  C   UNL A   1      32.128  25.673  25.489  1.00  0.00     0.097 A 
ATOM      8  C   UNL A   1      33.189  24.812  25.822  1.00  0.00     0.038 A 
ATOM      9  C   UNL A   1      30.961  25.142  24.945  1.00  0.00     0.038 A 
ATOM     10  C   UNL A   1      30.911  23.766  24.645  1.00  0.00     0.018 A 
ATOM     11  Br  UNL A   1      29.351  26.107  24.671  1.00  0.00    -0.049 Br
ATOM     12  C   UNL A   1      31.978  22.913  24.964  1.00  0.00     0.017 A 
BRANCH   7  13
ATOM     13  S   UNL A   1      32.406  27.363  25.951  1.00  0.00     0.244 S 
ATOM     14  O   UNL A   1      33.741  27.428  26.488  1.00  0.00    -0.207 OA
ATOM     15  O   UNL A   1      31.255  27.703  26.777  1.00  0.00    -0.207 OA
BRANCH  13  16
ATOM     16  N   UNL A   1      32.421  28.350  24.556  1.00  0.00    -0.198 NA
ATOM     17  C   UNL A   1      31.154  29.085  24.295  1.00  0.00     0.124 C 
BRANCH  16  18
ATOM     18  C   UNL A   1      32.979  27.732  23.281  1.00  0.00     0.069 C 
ATOM     19  C   UNL A   1      34.095  28.580  22.661  1.00  0.00     0.026 C 
BRANCH  18  20
ATOM     20  C   UNL A   1      31.872  27.413  22.258  1.00  0.00     0.016 C 
ATOM     21  C   UNL A   1      32.010  26.044  21.604  1.00  0.00     0.005 C 
ENDBRANCH  18  20
ENDBRANCH  16  18
ENDBRANCH  13  16
ENDBRANCH   7  13
ENDBRANCH   4   6
ENDBRANCH   3   4
ENDBRANCH   2   3
ENDBRANCH   1   2
BRANCH   1  22
ATOM     22  O   UNL A   1      37.462  22.635  24.786  1.00  0.00    -0.374 OA
BRANCH  22  23
ATOM     23  C   UNL A   1      38.143  22.838  26.027  1.00  0.00     0.202 C 
BRANCH  23  24
ATOM     24  C   UNL A   1      39.667  22.912  25.891  1.00  0.00     0.261 C 
BRANCH  24  25
ATOM     25  O   UNL A   1      40.220  23.751  26.922  1.00  0.00    -0.460 OA
BRANCH  25  26
ATOM     26  C   UNL A   1      40.516  25.016  26.540  1.00  0.00     0.338 C 
ATOM     27  O   UNL A   1      40.574  25.441  25.395  1.00  0.00    -0.246 OA
BRANCH  26  28
ATOM     28  C   UNL A   1      40.597  25.894  27.727  1.00  0.00     0.060 A 
ATOM     29  C   UNL A   1      39.556  25.811  28.661  1.00  0.00     0.016 A 
ATOM     30  C   UNL A   1      41.648  26.795  27.923  1.00  0.00     0.016 A 
ATOM     31  C   UNL A   1      39.538  26.658  29.766  1.00  0.00     0.010 A 
ATOM     32  C   UNL A   1      41.624  27.652  29.030  1.00  0.00     0.010 A 
ATOM     33  C   UNL A   1      40.553  27.607  29.939  1.00  0.00    -0.014 A 
BRANCH  33  34
ATOM     34  C   UNL A   1      40.413  28.641  30.992  1.00  0.00     0.031 A 
ATOM     35  C   UNL A   1      41.300  28.569  32.204  1.00  0.00     0.074 A 
ATOM     36  C   UNL A   1      39.532  29.648  30.856  1.00  0.00     0.049 A 
ATOM     37  N   UNL A   1      41.351  29.365  33.240  1.00  0.00    -0.248 NA
ATOM     38  C   UNL A   1      42.256  27.451  32.254  1.00  0.00     0.031 C 
ATOM     39  C   UNL A   1      38.636  29.841  29.716  1.00  0.00     0.029 A 
ATOM     40  N   UNL A   1      39.246  30.698  31.691  1.00  0.00    -0.354 N 
ATOM     41  C   UNL A   1      42.345  28.850  34.063  1.00  0.00     0.074 A 
ATOM     42  C   UNL A   1      42.852  27.657  33.419  1.00  0.00     0.031 C 
ATOM     43  C   UNL A   1      37.892  30.940  29.930  1.00  0.00     0.029 A 
ATOM     44  C   UNL A   1      38.245  31.516  31.226  1.00  0.00     0.049 A 
ATOM     45  H   UNL A   1      39.714  30.851  32.544  1.00  0.00     0.167 HD
ATOM     46  C   UNL A   1      42.800  29.330  35.244  1.00  0.00     0.037 A 
ATOM     47  C   UNL A   1      37.674  32.600  31.788  1.00  0.00     0.037 A 
ATOM     48  C   UNL A   1      42.296  30.513  35.888  1.00  0.00     0.049 A 
ATOM     49  C   UNL A   1      38.163  33.089  33.125  1.00  0.00     0.074 A 
ATOM     50  C   UNL A   1      42.699  31.083  37.083  1.00  0.00     0.029 A 
ATOM     51  N   UNL A   1      41.269  31.303  35.394  1.00  0.00    -0.354 N 
ATOM     52  N   UNL A   1      39.119  32.604  33.880  1.00  0.00    -0.248 NA
ATOM     53  C   UNL A   1      37.499  34.274  33.685  1.00  0.00     0.031 C 
ATOM     54  C   UNL A   1      41.898  32.204  37.325  1.00  0.00     0.029 A 
ATOM     55  C   UNL A   1      41.015  32.348  36.265  1.00  0.00     0.049 A 
ATOM     56  H   UNL A   1      40.792  31.145  34.547  1.00  0.00     0.167 HD
ATOM     57  C   UNL A   1      39.185  33.436  34.992  1.00  0.00     0.074 A 
ATOM     58  C   UNL A   1      38.176  34.458  34.811  1.00  0.00     0.031 C 
ATOM     59  C   UNL A   1      40.011  33.361  36.065  1.00  0.00     0.037 A 
BRANCH  46  60
ATOM     60  C   UNL A   1      43.894  28.558  35.922  1.00  0.00     0.058 A 
ATOM     61  C   UNL A   1      43.609  27.481  36.776  1.00  0.00     0.135 A 
ATOM     62  C   UNL A   1      45.240  28.892  35.708  1.00  0.00     0.135 A 
ATOM     63  F   UNL A   1      42.336  27.136  37.027  1.00  0.00    -0.206 F 
ATOM     64  C   UNL A   1      44.623  26.775  37.414  1.00  0.00     0.059 A 
ATOM     65  C   UNL A   1      46.270  28.189  36.323  1.00  0.00     0.059 A 
ATOM     66  F   UNL A   1      45.562  29.919  34.906  1.00  0.00    -0.206 F 
ATOM     67  C   UNL A   1      45.951  27.140  37.185  1.00  0.00     0.060 A 
BRANCH  67  68
ATOM     68  S   UNL A   1      47.260  26.224  38.025  1.00  0.00     0.124 S 
ATOM     69  O   UNL A   1      48.295  27.245  38.149  1.00  0.00    -0.237 OA
ATOM     70  O   UNL A   1      46.616  25.822  39.271  1.00  0.00    -0.237 OA
ATOM     71  O   UNL A   1      47.559  25.135  37.099  1.00  0.00    -0.744 OA
ENDBRANCH  67  68
ENDBRANCH  46  60
BRANCH  47  72
ATOM     72  C   UNL A   1      36.563  33.295  31.088  1.00  0.00     0.058 A 
ATOM     73  C   UNL A   1      35.248  33.224  31.568  1.00  0.00     0.135 A 
ATOM     74  C   UNL A   1      36.802  34.050  29.930  1.00  0.00     0.135 A 
ATOM     75  F   UNL A   1      34.973  32.505  32.667  1.00  0.00    -0.206 F 
ATOM     76  C   UNL A   1      34.203  33.874  30.920  1.00  0.00     0.059 A 
ATOM     77  C   UNL A   1      35.776  34.722  29.275  1.00  0.00     0.059 A 
ATOM     78  F   UNL A   1      38.047  34.155  29.440  1.00  0.00    -0.206 F 
ATOM     79  C   UNL A   1      34.478  34.622  29.773  1.00  0.00     0.060 A 
BRANCH  79  80
ATOM     80  S   UNL A   1      33.130  35.515  28.969  1.00  0.00     0.124 S 
ATOM     81  O   UNL A   1      33.854  36.576  28.279  1.00  0.00    -0.237 OA
ATOM     82  O   UNL A   1      32.540  34.487  28.118  1.00  0.00    -0.237 OA
ATOM     83  O   UNL A   1      32.299  35.940  30.091  1.00  0.00    -0.744 OA
ENDBRANCH  79  80
ENDBRANCH  47  72
BRANCH  59  84
ATOM     84  C   UNL A   1      39.878  34.425  37.115  1.00  0.00     0.058 A 
ATOM     85  C   UNL A   1      40.428  35.703  36.937  1.00  0.00     0.135 A 
ATOM     86  C   UNL A   1      39.141  34.183  38.286  1.00  0.00     0.135 A 
ATOM     87  F   UNL A   1      41.145  35.982  35.837  1.00  0.00    -0.206 F 
ATOM     88  C   UNL A   1      40.264  36.704  37.891  1.00  0.00     0.059 A 
ATOM     89  C   UNL A   1      38.950  35.173  39.245  1.00  0.00     0.059 A 
ATOM     90  F   UNL A   1      38.588  32.978  38.498  1.00  0.00    -0.206 F 
ATOM     91  C   UNL A   1      39.524  36.428  39.042  1.00  0.00     0.060 A 
BRANCH  91  92
ATOM     92  S   UNL A   1      39.280  37.742  40.257  1.00  0.00     0.124 S 
ATOM     93  O   UNL A   1      38.251  38.550  39.612  1.00  0.00    -0.237 OA
ATOM     94  O   UNL A   1      38.855  37.003  41.442  1.00  0.00    -0.237 OA
ATOM     95  O   UNL A   1      40.598  38.361  40.353  1.00  0.00    -0.744 OA
ENDBRANCH  91  92
ENDBRANCH  59  84
ENDBRANCH  33  34
ENDBRANCH  26  28
ENDBRANCH  25  26
ENDBRANCH  24  25
ENDBRANCH  23  24
ENDBRANCH  22  23
ENDBRANCH   1  22
TORSDOF 21
ENDMDL
MODEL 3
REMARK VINA RESULT:     -10.0      6.223      8.402
REMARK SMILES CC[C@@H](C)N(C)S(=O)(=O)c1cc(C(=O)OCCOCCOC(=O)c2ccc(-c3c4nc(c(-c5c(F)cc(S(=O)(=O)[O-])cc5F)c5ccc([nH]5)c(-c5c(F)cc(S(=O)(=O)[O-])cc5F)c5nc(c(-c6c(F)cc(S(=O)(=O)[O-])cc6F)c6ccc3[nH]6)C=C5)C=C4)cc2)ccc1Br
REMARK SMILES IDX 17 1 16 2 15 3 13 4 14 5 12 6 10 7 11 8 92 9 91 10 93 11
REMARK SMILES IDX 90 12 7 13 8 14 9 15 5 16 6 17 3 18 4 19 2 20 1 21 18 22
REMARK SMILES IDX 19 23 20 24 21 25 22 26 23 27 24 28 25 29 89 30 26 31 88 32
REMARK SMILES IDX 27 33 28 34 29 35 82 36 30 37 87 38 81 39 83 40 31 41 86 42
REMARK SMILES IDX 80 43 79 44 32 46 66 47 45 48 65 49 46 50 49 51 64 52 84 53
REMARK SMILES IDX 47 54 48 55 63 57 85 58 50 59 33 60 34 61 43 62 35 63 36 64
REMARK SMILES IDX 42 65 44 66 37 67 38 68 39 69 40 70 41 71 67 72 68 73 77 74
REMARK SMILES IDX 69 75 70 76 76 77 78 78 71 79 72 80 73 81 74 82 75 83 51 84
REMARK SMILES IDX 52 85 61 86 53 87 54 88 60 89 62 90 55 91 56 92 57 93 58 94
REMARK SMILES IDX 59 95
REMARK H PARENT 83 45 49 56
REMARK Flexibility Score: inf
ROOT
ATOM      1  C   UNL A   1      37.406  21.988  24.700  1.00  0.00     0.202 C 
ENDROOT
BRANCH   1   2
ATOM      2  C   UNL A   1      36.640  22.688  23.576  1.00  0.00     0.261 C 
BRANCH   2   3
ATOM      3  O   UNL A   1      35.239  22.740  23.903  1.00  0.00    -0.460 OA
BRANCH   3   4
ATOM      4  C   UNL A   1      34.498  23.544  23.111  1.00  0.00     0.338 C 
ATOM      5  O   UNL A   1      34.171  23.340  21.951  1.00  0.00    -0.246 OA
BRANCH   4   6
ATOM      6  C   UNL A   1      33.979  24.695  23.882  1.00  0.00     0.061 A 
ATOM      7  C   UNL A   1      32.712  26.782  23.801  1.00  0.00     0.097 A 
ATOM      8  C   UNL A   1      33.163  25.596  23.195  1.00  0.00     0.038 A 
ATOM      9  C   UNL A   1      33.105  27.075  25.105  1.00  0.00     0.038 A 
ATOM     10  C   UNL A   1      33.860  26.125  25.821  1.00  0.00     0.018 A 
ATOM     11  Br  UNL A   1      32.805  28.728  25.987  1.00  0.00    -0.049 Br
ATOM     12  C   UNL A   1      34.294  24.936  25.218  1.00  0.00     0.017 A 
BRANCH   7  13
ATOM     13  S   UNL A   1      31.774  27.828  22.718  1.00  0.00     0.244 S 
ATOM     14  O   UNL A   1      31.381  27.014  21.598  1.00  0.00    -0.207 OA
ATOM     15  O   UNL A   1      32.622  28.998  22.526  1.00  0.00    -0.207 OA
BRANCH  13  16
ATOM     16  N   UNL A   1      30.319  28.296  23.483  1.00  0.00    -0.198 NA
ATOM     17  C   UNL A   1      29.261  27.250  23.510  1.00  0.00     0.124 C 
BRANCH  16  18
ATOM     18  C   UNL A   1      29.749  29.656  23.104  1.00  0.00     0.069 C 
ATOM     19  C   UNL A   1      29.892  30.684  24.230  1.00  0.00     0.026 C 
BRANCH  18  20
ATOM     20  C   UNL A   1      28.294  29.557  22.606  1.00  0.00     0.016 C 
ATOM     21  C   UNL A   1      27.995  30.426  21.391  1.00  0.00     0.005 C 
ENDBRANCH  18  20
ENDBRANCH  16  18
ENDBRANCH  13  16
ENDBRANCH   7  13
ENDBRANCH   4   6
ENDBRANCH   3   4
ENDBRANCH   2   3
ENDBRANCH   1   2
BRANCH   1  22
ATOM     22  O   UNL A   1      37.218  20.570  24.721  1.00  0.00    -0.374 OA
BRANCH  22  23
ATOM     23  C   UNL A   1      38.266  19.815  25.334  1.00  0.00     0.202 C 
BRANCH  23  24
ATOM     24  C   UNL A   1      39.439  20.669  25.823  1.00  0.00     0.261 C 
BRANCH  24  25
ATOM     25  O   UNL A   1      40.279  19.905  26.708  1.00  0.00    -0.460 OA
BRANCH  25  26
ATOM     26  C   UNL A   1      41.570  19.782  26.317  1.00  0.00     0.338 C 
ATOM     27  O   UNL A   1      42.079  18.818  25.763  1.00  0.00    -0.246 OA
BRANCH  26  28
ATOM     28  C   UNL A   1      42.274  21.069  26.498  1.00  0.00     0.060 A 
ATOM     29  C   UNL A   1      42.472  21.517  27.811  1.00  0.00     0.016 A 
ATOM     30  C   UNL A   1      42.718  21.840  25.418  1.00  0.00     0.016 A 
ATOM     31  C   UNL A   1      43.069  22.753  28.046  1.00  0.00     0.010 A 
ATOM     32  C   UNL A   1      43.309  23.085  25.656  1.00  0.00     0.010 A 
ATOM     33  C   UNL A   1      43.459  23.560  26.971  1.00  0.00    -0.014 A 
BRANCH  33  34
ATOM     34  C   UNL A   1      43.892  24.954  27.225  1.00  0.00     0.031 A 
ATOM     35  C   UNL A   1      45.329  25.325  26.986  1.00  0.00     0.074 A 
ATOM     36  C   UNL A   1      43.011  25.886  27.632  1.00  0.00     0.049 A 
ATOM     37  N   UNL A   1      45.922  26.480  27.138  1.00  0.00    -0.248 NA
ATOM     38  C   UNL A   1      46.215  24.250  26.511  1.00  0.00     0.031 C 
ATOM     39  C   UNL A   1      41.587  25.656  27.874  1.00  0.00     0.029 A 
ATOM     40  N   UNL A   1      43.191  27.215  27.917  1.00  0.00    -0.354 N 
ATOM     41  C   UNL A   1      47.247  26.275  26.775  1.00  0.00     0.074 A 
ATOM     42  C   UNL A   1      47.378  24.878  26.421  1.00  0.00     0.031 C 
ATOM     43  C   UNL A   1      41.024  26.806  28.281  1.00  0.00     0.029 A 
ATOM     44  C   UNL A   1      42.048  27.847  28.346  1.00  0.00     0.049 A 
ATOM     45  H   UNL A   1      44.057  27.675  27.823  1.00  0.00     0.167 HD
ATOM     46  C   UNL A   1      48.262  27.170  26.733  1.00  0.00     0.037 A 
ATOM     47  C   UNL A   1      41.856  29.117  28.753  1.00  0.00     0.037 A 
ATOM     48  C   UNL A   1      48.137  28.558  27.088  1.00  0.00     0.049 A 
ATOM     49  C   UNL A   1      43.010  30.084  28.743  1.00  0.00     0.074 A 
ATOM     50  C   UNL A   1      49.107  29.545  27.069  1.00  0.00     0.029 A 
ATOM     51  N   UNL A   1      46.968  29.155  27.535  1.00  0.00    -0.354 N 
ATOM     52  N   UNL A   1      44.252  29.880  28.376  1.00  0.00    -0.248 NA
ATOM     53  C   UNL A   1      42.736  31.454  29.200  1.00  0.00     0.031 C 
ATOM     54  C   UNL A   1      48.530  30.733  27.531  1.00  0.00     0.029 A 
ATOM     55  C   UNL A   1      47.194  30.492  27.809  1.00  0.00     0.049 A 
ATOM     56  H   UNL A   1      46.103  28.694  27.640  1.00  0.00     0.167 HD
ATOM     57  C   UNL A   1      44.902  31.099  28.537  1.00  0.00     0.074 A 
ATOM     58  C   UNL A   1      43.915  32.038  29.030  1.00  0.00     0.031 C 
ATOM     59  C   UNL A   1      46.198  31.413  28.293  1.00  0.00     0.037 A 
BRANCH  46  60
ATOM     60  C   UNL A   1      49.607  26.663  26.299  1.00  0.00     0.058 A 
ATOM     61  C   UNL A   1      50.042  26.788  24.970  1.00  0.00     0.135 A 
ATOM     62  C   UNL A   1      50.471  26.055  27.222  1.00  0.00     0.135 A 
ATOM     63  F   UNL A   1      49.243  27.344  24.047  1.00  0.00    -0.206 F 
ATOM     64  C   UNL A   1      51.283  26.307  24.567  1.00  0.00     0.059 A 
ATOM     65  C   UNL A   1      51.723  25.583  26.844  1.00  0.00     0.059 A 
ATOM     66  F   UNL A   1      50.096  25.906  28.502  1.00  0.00    -0.206 F 
ATOM     67  C   UNL A   1      52.115  25.700  25.510  1.00  0.00     0.060 A 
BRANCH  67  68
ATOM     68  S   UNL A   1      53.719  25.069  24.975  1.00  0.00     0.124 S 
ATOM     69  O   UNL A   1      53.520  23.629  25.099  1.00  0.00    -0.237 OA
ATOM     70  O   UNL A   1      53.821  25.579  23.611  1.00  0.00    -0.237 OA
ATOM     71  O   UNL A   1      54.650  25.660  25.932  1.00  0.00    -0.744 OA
ENDBRANCH  67  68
ENDBRANCH  46  60
BRANCH  47  72
ATOM     72  C   UNL A   1      40.512  29.549  29.215  1.00  0.00     0.058 A 
ATOM     73  C   UNL A   1      40.248  29.767  30.574  1.00  0.00     0.135 A 
ATOM     74  C   UNL A   1      39.469  29.759  28.300  1.00  0.00     0.135 A 
ATOM     75  F   UNL A   1      41.214  29.568  31.485  1.00  0.00    -0.206 F 
ATOM     76  C   UNL A   1      38.993  30.172  31.015  1.00  0.00     0.059 A 
ATOM     77  C   UNL A   1      38.211  30.181  28.715  1.00  0.00     0.059 A 
ATOM     78  F   UNL A   1      39.678  29.573  26.988  1.00  0.00    -0.206 F 
ATOM     79  C   UNL A   1      37.980  30.378  30.076  1.00  0.00     0.060 A 
BRANCH  79  80
ATOM     80  S   UNL A   1      36.369  30.964  30.644  1.00  0.00     0.124 S 
ATOM     81  O   UNL A   1      35.694  31.233  29.380  1.00  0.00    -0.237 OA
ATOM     82  O   UNL A   1      35.871  29.821  31.402  1.00  0.00    -0.237 OA
ATOM     83  O   UNL A   1      36.707  32.137  31.445  1.00  0.00    -0.744 OA
ENDBRANCH  79  80
ENDBRANCH  47  72
BRANCH  59  84
ATOM     84  C   UNL A   1      46.622  32.834  28.531  1.00  0.00     0.058 A 
ATOM     85  C   UNL A   1      46.580  33.792  27.508  1.00  0.00     0.135 A 
ATOM     86  C   UNL A   1      47.017  33.254  29.812  1.00  0.00     0.135 A 
ATOM     87  F   UNL A   1      46.215  33.438  26.266  1.00  0.00    -0.206 F 
ATOM     88  C   UNL A   1      46.929  35.119  27.742  1.00  0.00     0.059 A 
ATOM     89  C   UNL A   1      47.353  34.578  30.072  1.00  0.00     0.059 A 
ATOM     90  F   UNL A   1      47.063  32.376  30.826  1.00  0.00    -0.206 F 
ATOM     91  C   UNL A   1      47.315  35.502  29.028  1.00  0.00     0.060 A 
BRANCH  91  92
ATOM     92  S   UNL A   1      47.727  37.234  29.335  1.00  0.00     0.124 S 
ATOM     93  O   UNL A   1      46.662  37.630  30.250  1.00  0.00    -0.237 OA
ATOM     94  O   UNL A   1      49.063  37.144  29.917  1.00  0.00    -0.237 OA
ATOM     95  O   UNL A   1      47.670  37.834  28.006  1.00  0.00    -0.744 OA
ENDBRANCH  91  92
ENDBRANCH  59  84
ENDBRANCH  33  34
ENDBRANCH  26  28
ENDBRANCH  25  26
ENDBRANCH  24  25
ENDBRANCH  23  24
ENDBRANCH  22  23
ENDBRANCH   1  22
TORSDOF 21
ENDMDL
