MODEL 1
REMARK VINA RESULT:     -12.0      0.000      0.000
REMARK SMILES O=C(OCCOCCOC(=O)c1ccc(-c2c3nc(c(-c4c(F)cc(S(=O)(=O)[O-])cc4F)c4ccc([nH]4)c(-c4c(F)cc(S(=O)(=O)[O-])cc4F)c4nc(c(-c5c(F)cc(S(=O)(=O)[O-])cc5F)c5ccc2[nH]5)C=C4)C=C3)cc1)C1=Cc2cc(S(F)(F)(F)(F)F)cc(Br)c2O[C@H]1C(F)(F)F
REMARK SMILES IDX 7 1 6 2 5 3 4 4 3 5 2 6 1 7 78 8 79 9 94 10 80 11 93 12
REMARK SMILES IDX 81 13 92 14 82 15 90 16 89 17 91 18 95 19 96 20 97 21 98 22
REMARK SMILES IDX 83 23 84 24 85 25 86 26 87 27 88 28 8 29 9 30 10 31 11 32
REMARK SMILES IDX 12 33 13 34 77 35 14 36 76 37 15 38 16 39 17 40 70 41 18 42
REMARK SMILES IDX 75 43 69 44 71 45 19 46 74 47 68 48 67 49 20 51 54 52 33 53
REMARK SMILES IDX 53 54 34 55 37 56 52 57 72 58 35 59 36 60 51 62 73 63 38 64
REMARK SMILES IDX 21 65 22 66 31 67 23 68 24 69 30 70 32 71 25 72 26 73 27 74
REMARK SMILES IDX 28 75 29 76 55 77 56 78 65 79 57 80 58 81 64 82 66 83 59 84
REMARK SMILES IDX 60 85 61 86 62 87 63 88 39 89 40 90 49 91 41 92 42 93 48 94
REMARK SMILES IDX 50 95 43 96 44 97 45 98 46 99 47 100
REMARK H PARENT 71 50 37 61
REMARK Flexibility Score: inf
ROOT
ATOM      1  C   UNL A   1      33.170  29.002  25.103  1.00  0.00     0.202 C 
ENDROOT
BRANCH   1   2
ATOM      2  O   UNL A   1      33.866  27.786  25.333  1.00  0.00    -0.374 OA
BRANCH   2   3
ATOM      3  C   UNL A   1      33.608  26.884  24.267  1.00  0.00     0.202 C 
BRANCH   3   4
ATOM      4  C   UNL A   1      34.287  25.555  24.551  1.00  0.00     0.261 C 
BRANCH   4   5
ATOM      5  O   UNL A   1      33.428  24.742  25.337  1.00  0.00    -0.460 OA
BRANCH   5   6
ATOM      6  C   UNL A   1      32.555  23.816  24.707  1.00  0.00     0.338 C 
ATOM      7  O   UNL A   1      32.672  23.577  23.464  1.00  0.00    -0.246 OA
BRANCH   6   8
ATOM      8  C   UNL A   1      31.480  23.111  25.519  1.00  0.00     0.087 C 
ATOM      9  C   UNL A   1      31.583  21.778  25.771  1.00  0.00     0.027 C 
ATOM     10  C   UNL A   1      30.292  23.896  26.051  1.00  0.00     0.316 C 
ATOM     11  C   UNL A   1      32.772  20.993  25.240  1.00  0.00     0.020 A 
ATOM     12  O   UNL A   1      34.174  22.841  25.758  1.00  0.00    -0.474 OA
ATOM     13  C   UNL A   1      32.554  19.736  24.702  1.00  0.00     0.036 A 
ATOM     14  C   UNL A   1      33.998  21.491  25.354  1.00  0.00     0.142 A 
ATOM     15  C   UNL A   1      33.727  18.954  24.576  1.00  0.00     0.109 A 
ATOM     16  C   UNL A   1      35.097  20.712  25.084  1.00  0.00     0.062 A 
ATOM     17  C   UNL A   1      34.956  19.439  24.606  1.00  0.00     0.044 A 
ATOM     18  Br  UNL A   1      36.892  21.436  25.390  1.00  0.00    -0.047 Br
BRANCH  10  19
ATOM     19  C   UNL A   1      30.418  25.352  25.632  1.00  0.00     0.430 C 
ATOM     20  F   UNL A   1      31.370  25.943  26.348  1.00  0.00    -0.167 F 
ATOM     21  F   UNL A   1      30.735  25.408  24.341  1.00  0.00    -0.167 F 
ATOM     22  F   UNL A   1      29.260  25.975  25.832  1.00  0.00    -0.167 F 
ENDBRANCH  10  19
BRANCH  15  23
ATOM     23  S   UNL A   1      33.530  17.169  24.361  1.00  0.00     0.310 S 
ATOM     24  F   UNL A   1      35.094  16.923  24.459  1.00  0.00    -0.094 F 
ATOM     25  F   UNL A   1      33.727  17.365  22.811  1.00  0.00    -0.094 F 
ATOM     26  F   UNL A   1      33.362  15.634  24.174  1.00  0.00    -0.094 F 
ATOM     27  F   UNL A   1      33.475  16.975  25.929  1.00  0.00    -0.094 F 
ATOM     28  F   UNL A   1      33.812  18.709  24.576  1.00  0.00    -0.094 F 
ENDBRANCH  15  23
ENDBRANCH   6   8
ENDBRANCH   5   6
ENDBRANCH   4   5
ENDBRANCH   3   4
ENDBRANCH   2   3
ENDBRANCH   1   2
BRANCH   1  29
ATOM     29  C   UNL A   1      32.806  29.638  26.434  1.00  0.00     0.261 C 
BRANCH  29  30
ATOM     30  O   UNL A   1      33.780  29.290  27.407  1.00  0.00    -0.460 OA
BRANCH  30  31
ATOM     31  C   UNL A   1      34.570  30.303  28.016  1.00  0.00     0.338 C 
ATOM     32  O   UNL A   1      34.050  31.427  28.301  1.00  0.00    -0.246 OA
BRANCH  31  33
ATOM     33  C   UNL A   1      36.035  30.041  28.324  1.00  0.00     0.060 A 
ATOM     34  C   UNL A   1      36.965  30.176  27.306  1.00  0.00     0.016 A 
ATOM     35  C   UNL A   1      36.387  29.596  29.525  1.00  0.00     0.016 A 
ATOM     36  C   UNL A   1      38.200  29.538  27.570  1.00  0.00     0.010 A 
ATOM     37  C   UNL A   1      37.654  29.113  29.747  1.00  0.00     0.010 A 
ATOM     38  C   UNL A   1      38.607  29.160  28.768  1.00  0.00    -0.014 A 
BRANCH  38  39
ATOM     39  C   UNL A   1      40.057  28.798  29.044  1.00  0.00     0.031 A 
ATOM     40  C   UNL A   1      40.515  27.518  28.728  1.00  0.00     0.074 A 
ATOM     41  C   UNL A   1      40.871  29.818  29.506  1.00  0.00     0.049 A 
ATOM     42  N   UNL A   1      41.770  27.068  28.775  1.00  0.00    -0.248 NA
ATOM     43  C   UNL A   1      39.647  26.423  28.269  1.00  0.00     0.031 C 
ATOM     44  C   UNL A   1      40.417  31.115  29.820  1.00  0.00     0.029 A 
ATOM     45  N   UNL A   1      42.226  29.777  29.743  1.00  0.00    -0.354 N 
ATOM     46  C   UNL A   1      41.818  25.794  28.379  1.00  0.00     0.074 A 
ATOM     47  C   UNL A   1      40.453  25.359  28.054  1.00  0.00     0.031 C 
ATOM     48  C   UNL A   1      41.483  31.841  30.251  1.00  0.00     0.029 A 
ATOM     49  C   UNL A   1      42.619  31.011  30.213  1.00  0.00     0.049 A 
ATOM     50  H   UNL A   1      42.814  28.999  29.602  1.00  0.00     0.167 HD
ATOM     51  C   UNL A   1      42.946  24.980  28.275  1.00  0.00     0.037 A 
ATOM     52  C   UNL A   1      43.891  31.409  30.595  1.00  0.00     0.037 A 
ATOM     53  C   UNL A   1      44.225  25.390  28.616  1.00  0.00     0.049 A 
ATOM     54  C   UNL A   1      45.011  30.575  30.547  1.00  0.00     0.074 A 
ATOM     55  C   UNL A   1      45.375  24.584  28.510  1.00  0.00     0.029 A 
ATOM     56  N   UNL A   1      44.614  26.616  29.108  1.00  0.00    -0.354 N 
ATOM     57  N   UNL A   1      45.065  29.314  30.114  1.00  0.00    -0.248 NA
ATOM     58  C   UNL A   1      46.357  30.975  30.979  1.00  0.00     0.031 C 
ATOM     59  C   UNL A   1      46.440  25.310  28.941  1.00  0.00     0.029 A 
ATOM     60  C   UNL A   1      45.974  26.581  29.325  1.00  0.00     0.049 A 
ATOM     61  H   UNL A   1      44.021  27.384  29.277  1.00  0.00     0.167 HD
ATOM     62  C   UNL A   1      46.313  28.852  30.202  1.00  0.00     0.074 A 
ATOM     63  C   UNL A   1      47.161  29.911  30.765  1.00  0.00     0.031 C 
ATOM     64  C   UNL A   1      46.780  27.590  29.829  1.00  0.00     0.037 A 
BRANCH  51  65
ATOM     65  C   UNL A   1      42.762  23.561  27.759  1.00  0.00     0.058 A 
ATOM     66  C   UNL A   1      42.868  23.399  26.387  1.00  0.00     0.135 A 
ATOM     67  C   UNL A   1      42.560  22.523  28.562  1.00  0.00     0.135 A 
ATOM     68  F   UNL A   1      43.316  24.354  25.577  1.00  0.00    -0.206 F 
ATOM     69  C   UNL A   1      42.458  22.125  25.928  1.00  0.00     0.059 A 
ATOM     70  C   UNL A   1      42.299  21.278  28.043  1.00  0.00     0.059 A 
ATOM     71  F   UNL A   1      42.613  22.690  29.881  1.00  0.00    -0.206 F 
ATOM     72  C   UNL A   1      42.329  21.058  26.694  1.00  0.00     0.060 A 
BRANCH  72  73
ATOM     73  S   UNL A   1      42.200  19.393  25.996  1.00  0.00     0.124 S 
ATOM     74  O   UNL A   1      42.704  18.371  27.019  1.00  0.00    -0.237 OA
ATOM     75  O   UNL A   1      40.740  19.094  25.653  1.00  0.00    -0.237 OA
ATOM     76  O   UNL A   1      43.152  19.295  24.578  1.00  0.00    -0.744 OA
ENDBRANCH  72  73
ENDBRANCH  51  65
BRANCH  52  77
ATOM     77  C   UNL A   1      44.078  32.832  31.095  1.00  0.00     0.058 A 
ATOM     78  C   UNL A   1      43.798  33.165  32.410  1.00  0.00     0.135 A 
ATOM     79  C   UNL A   1      44.438  33.756  30.212  1.00  0.00     0.135 A 
ATOM     80  F   UNL A   1      43.682  32.260  33.379  1.00  0.00    -0.206 F 
ATOM     81  C   UNL A   1      43.645  34.554  32.629  1.00  0.00     0.059 A 
ATOM     82  C   UNL A   1      44.395  35.089  30.539  1.00  0.00     0.059 A 
ATOM     83  F   UNL A   1      44.846  33.386  29.002  1.00  0.00    -0.206 F 
ATOM     84  C   UNL A   1      44.068  35.494  31.803  1.00  0.00     0.060 A 
BRANCH  84  85
ATOM     85  S   UNL A   1      44.208  37.223  32.318  1.00  0.00     0.124 S 
ATOM     86  O   UNL A   1      45.672  37.546  32.630  1.00  0.00    -0.237 OA
ATOM     87  O   UNL A   1      43.714  38.134  31.192  1.00  0.00    -0.237 OA
ATOM     88  O   UNL A   1      43.259  37.480  33.717  1.00  0.00    -0.744 OA
ENDBRANCH  84  85
ENDBRANCH  52  77
BRANCH  64  89
ATOM     89  C   UNL A   1      48.265  27.303  29.986  1.00  0.00     0.058 A 
ATOM     90  C   UNL A   1      48.714  26.761  31.179  1.00  0.00     0.135 A 
ATOM     91  C   UNL A   1      49.113  27.643  29.022  1.00  0.00     0.135 A 
ATOM     92  F   UNL A   1      47.907  26.177  32.060  1.00  0.00    -0.206 F 
ATOM     93  C   UNL A   1      50.110  26.883  31.375  1.00  0.00     0.059 A 
ATOM     94  C   UNL A   1      50.468  27.609  29.238  1.00  0.00     0.059 A 
ATOM     95  F   UNL A   1      48.644  28.019  27.836  1.00  0.00    -0.206 F 
ATOM     96  C   UNL A   1      50.982  27.140  30.416  1.00  0.00     0.060 A 
BRANCH  96  97
ATOM     97  S   UNL A   1      52.758  26.885  30.648  1.00  0.00     0.124 S 
ATOM     98  O   UNL A   1      53.385  26.433  29.326  1.00  0.00    -0.237 OA
ATOM     99  O   UNL A   1      53.407  28.196  31.099  1.00  0.00    -0.237 OA
ATOM    100  O   UNL A   1      53.012  25.684  31.838  1.00  0.00    -0.744 OA
ENDBRANCH  96  97
ENDBRANCH  64  89
ENDBRANCH  38  39
ENDBRANCH  31  33
ENDBRANCH  30  31
ENDBRANCH  29  30
ENDBRANCH   1  29
TORSDOF 19
ENDMDL
MODEL 2
REMARK VINA RESULT:     -11.6      3.344      8.068
REMARK SMILES O=C(OCCOCCOC(=O)c1ccc(-c2c3nc(c(-c4c(F)cc(S(=O)(=O)[O-])cc4F)c4ccc([nH]4)c(-c4c(F)cc(S(=O)(=O)[O-])cc4F)c4nc(c(-c5c(F)cc(S(=O)(=O)[O-])cc5F)c5ccc2[nH]5)C=C4)C=C3)cc1)C1=Cc2cc(S(F)(F)(F)(F)F)cc(Br)c2O[C@H]1C(F)(F)F
REMARK SMILES IDX 7 1 6 2 5 3 4 4 3 5 2 6 1 7 78 8 79 9 94 10 80 11 93 12
REMARK SMILES IDX 81 13 92 14 82 15 90 16 89 17 91 18 95 19 96 20 97 21 98 22
REMARK SMILES IDX 83 23 84 24 85 25 86 26 87 27 88 28 8 29 9 30 10 31 11 32
REMARK SMILES IDX 12 33 13 34 77 35 14 36 76 37 15 38 16 39 17 40 70 41 18 42
REMARK SMILES IDX 75 43 69 44 71 45 19 46 74 47 68 48 67 49 20 51 54 52 33 53
REMARK SMILES IDX 53 54 34 55 37 56 52 57 72 58 35 59 36 60 51 62 73 63 38 64
REMARK SMILES IDX 21 65 22 66 31 67 23 68 24 69 30 70 32 71 25 72 26 73 27 74
REMARK SMILES IDX 28 75 29 76 55 77 56 78 65 79 57 80 58 81 64 82 66 83 59 84
REMARK SMILES IDX 60 85 61 86 62 87 63 88 39 89 40 90 49 91 41 92 42 93 48 94
REMARK SMILES IDX 50 95 43 96 44 97 45 98 46 99 47 100
REMARK H PARENT 71 50 37 61
REMARK Flexibility Score: inf
ROOT
ATOM      1  C   UNL A   1      37.846  20.269  25.019  1.00  0.00     0.202 C 
ENDROOT
BRANCH   1   2
ATOM      2  O   UNL A   1      36.911  21.338  25.015  1.00  0.00    -0.374 OA
BRANCH   2   3
ATOM      3  C   UNL A   1      37.187  22.204  23.924  1.00  0.00     0.202 C 
BRANCH   3   4
ATOM      4  C   UNL A   1      36.051  23.202  23.768  1.00  0.00     0.261 C 
BRANCH   4   5
ATOM      5  O   UNL A   1      35.018  22.892  24.692  1.00  0.00    -0.460 OA
BRANCH   5   6
ATOM      6  C   UNL A   1      33.690  22.693  24.231  1.00  0.00     0.338 C 
ATOM      7  O   UNL A   1      33.465  22.535  22.990  1.00  0.00    -0.246 OA
BRANCH   6   8
ATOM      8  C   UNL A   1      32.537  22.667  25.222  1.00  0.00     0.087 C 
ATOM      9  C   UNL A   1      32.050  23.832  25.730  1.00  0.00     0.027 C 
ATOM     10  C   UNL A   1      31.927  21.340  25.644  1.00  0.00     0.316 C 
ATOM     11  C   UNL A   1      32.659  25.159  25.307  1.00  0.00     0.020 A 
ATOM     12  O   UNL A   1      32.845  24.324  23.089  1.00  0.00    -0.474 OA
ATOM     13  C   UNL A   1      32.872  26.131  26.270  1.00  0.00     0.036 A 
ATOM     14  C   UNL A   1      32.920  25.390  24.025  1.00  0.00     0.142 A 
ATOM     15  C   UNL A   1      33.092  27.425  25.739  1.00  0.00     0.109 A 
ATOM     16  C   UNL A   1      33.261  26.649  23.596  1.00  0.00     0.062 A 
ATOM     17  C   UNL A   1      33.431  27.673  24.487  1.00  0.00     0.044 A 
ATOM     18  Br  UNL A   1      33.509  26.984  21.681  1.00  0.00    -0.047 Br
BRANCH  10  19
ATOM     19  C   UNL A   1      32.647  20.204  24.937  1.00  0.00     0.430 C 
ATOM     20  F   UNL A   1      33.955  20.294  25.161  1.00  0.00    -0.167 F 
ATOM     21  F   UNL A   1      32.196  19.043  25.404  1.00  0.00    -0.167 F 
ATOM     22  F   UNL A   1      32.416  20.276  23.629  1.00  0.00    -0.167 F 
ENDBRANCH  10  19
BRANCH  15  23
ATOM     23  S   UNL A   1      32.895  28.837  26.854  1.00  0.00     0.310 S 
ATOM     24  F   UNL A   1      32.353  27.914  28.025  1.00  0.00    -0.094 F 
ATOM     25  F   UNL A   1      31.404  28.975  26.365  1.00  0.00    -0.094 F 
ATOM     26  F   UNL A   1      32.723  30.050  27.812  1.00  0.00    -0.094 F 
ATOM     27  F   UNL A   1      34.345  28.595  27.434  1.00  0.00    -0.094 F 
ATOM     28  F   UNL A   1      33.047  27.535  25.970  1.00  0.00    -0.094 F 
ENDBRANCH  15  23
ENDBRANCH   6   8
ENDBRANCH   5   6
ENDBRANCH   4   5
ENDBRANCH   3   4
ENDBRANCH   2   3
ENDBRANCH   1   2
BRANCH   1  29
ATOM     29  C   UNL A   1      39.120  20.713  25.719  1.00  0.00     0.261 C 
BRANCH  29  30
ATOM     30  O   UNL A   1      39.865  19.572  26.116  1.00  0.00    -0.460 OA
BRANCH  30  31
ATOM     31  C   UNL A   1      41.285  19.607  26.092  1.00  0.00     0.338 C 
ATOM     32  O   UNL A   1      41.940  18.562  25.784  1.00  0.00    -0.246 OA
BRANCH  31  33
ATOM     33  C   UNL A   1      42.020  20.892  26.437  1.00  0.00     0.060 A 
ATOM     34  C   UNL A   1      42.221  21.208  27.770  1.00  0.00     0.016 A 
ATOM     35  C   UNL A   1      42.367  21.733  25.469  1.00  0.00     0.016 A 
ATOM     36  C   UNL A   1      42.536  22.569  27.995  1.00  0.00     0.010 A 
ATOM     37  C   UNL A   1      42.796  23.003  25.768  1.00  0.00     0.010 A 
ATOM     38  C   UNL A   1      42.961  23.403  27.065  1.00  0.00    -0.014 A 
BRANCH  38  39
ATOM     39  C   UNL A   1      43.601  24.737  27.417  1.00  0.00     0.031 A 
ATOM     40  C   UNL A   1      44.968  24.918  27.197  1.00  0.00     0.074 A 
ATOM     41  C   UNL A   1      42.747  25.738  27.845  1.00  0.00     0.049 A 
ATOM     42  N   UNL A   1      45.669  26.046  27.318  1.00  0.00    -0.248 NA
ATOM     43  C   UNL A   1      45.883  23.847  26.775  1.00  0.00     0.031 C 
ATOM     44  C   UNL A   1      41.365  25.565  28.061  1.00  0.00     0.029 A 
ATOM     45  N   UNL A   1      43.058  27.048  28.134  1.00  0.00    -0.354 N 
ATOM     46  C   UNL A   1      46.948  25.831  27.004  1.00  0.00     0.074 A 
ATOM     47  C   UNL A   1      47.106  24.412  26.656  1.00  0.00     0.031 C 
ATOM     48  C   UNL A   1      40.854  26.750  28.486  1.00  0.00     0.029 A 
ATOM     49  C   UNL A   1      41.905  27.684  28.541  1.00  0.00     0.049 A 
ATOM     50  H   UNL A   1      43.950  27.459  28.063  1.00  0.00     0.167 HD
ATOM     51  C   UNL A   1      47.988  26.761  26.992  1.00  0.00     0.037 A 
ATOM     52  C   UNL A   1      41.760  29.002  28.945  1.00  0.00     0.037 A 
ATOM     53  C   UNL A   1      47.834  28.090  27.354  1.00  0.00     0.049 A 
ATOM     54  C   UNL A   1      42.813  29.919  28.990  1.00  0.00     0.074 A 
ATOM     55  C   UNL A   1      48.870  29.043  27.341  1.00  0.00     0.029 A 
ATOM     56  N   UNL A   1      46.687  28.720  27.785  1.00  0.00    -0.354 N 
ATOM     57  N   UNL A   1      44.084  29.713  28.638  1.00  0.00    -0.248 NA
ATOM     58  C   UNL A   1      42.678  31.309  29.446  1.00  0.00     0.031 C 
ATOM     59  C   UNL A   1      48.358  30.229  27.766  1.00  0.00     0.029 A 
ATOM     60  C   UNL A   1      46.994  30.036  28.053  1.00  0.00     0.049 A 
ATOM     61  H   UNL A   1      45.802  28.301  27.884  1.00  0.00     0.167 HD
ATOM     62  C   UNL A   1      44.792  30.831  28.800  1.00  0.00     0.074 A 
ATOM     63  C   UNL A   1      43.900  31.873  29.329  1.00  0.00     0.031 C 
ATOM     64  C   UNL A   1      46.146  31.027  28.524  1.00  0.00     0.037 A 
BRANCH  51  65
ATOM     65  C   UNL A   1      49.367  26.291  26.558  1.00  0.00     0.058 A 
ATOM     66  C   UNL A   1      50.166  25.762  27.557  1.00  0.00     0.135 A 
ATOM     67  C   UNL A   1      49.777  26.331  25.296  1.00  0.00     0.135 A 
ATOM     68  F   UNL A   1      49.711  25.469  28.773  1.00  0.00    -0.206 F 
ATOM     69  C   UNL A   1      51.511  25.559  27.167  1.00  0.00     0.059 A 
ATOM     70  C   UNL A   1      51.067  25.989  24.968  1.00  0.00     0.059 A 
ATOM     71  F   UNL A   1      48.931  26.706  24.339  1.00  0.00    -0.206 F 
ATOM     72  C   UNL A   1      51.930  25.515  25.916  1.00  0.00     0.060 A 
BRANCH  72  73
ATOM     73  S   UNL A   1      53.560  24.858  25.478  1.00  0.00     0.124 S 
ATOM     74  O   UNL A   1      53.423  23.391  25.064  1.00  0.00    -0.237 OA
ATOM     75  O   UNL A   1      54.140  25.666  24.316  1.00  0.00    -0.237 OA
ATOM     76  O   UNL A   1      54.602  24.974  26.830  1.00  0.00    -0.744 OA
ENDBRANCH  72  73
ENDBRANCH  51  65
BRANCH  52  77
ATOM     77  C   UNL A   1      40.378  29.476  29.363  1.00  0.00     0.058 A 
ATOM     78  C   UNL A   1      39.442  29.859  28.416  1.00  0.00     0.135 A 
ATOM     79  C   UNL A   1      40.129  29.588  30.662  1.00  0.00     0.135 A 
ATOM     80  F   UNL A   1      39.539  29.536  27.129  1.00  0.00    -0.206 F 
ATOM     81  C   UNL A   1      38.375  30.624  28.942  1.00  0.00     0.059 A 
ATOM     82  C   UNL A   1      38.997  30.229  31.105  1.00  0.00     0.059 A 
ATOM     83  F   UNL A   1      40.982  29.074  31.544  1.00  0.00    -0.206 F 
ATOM     84  C   UNL A   1      38.058  30.686  30.223  1.00  0.00     0.060 A 
BRANCH  84  85
ATOM     85  S   UNL A   1      36.466  31.341  30.780  1.00  0.00     0.124 S 
ATOM     86  O   UNL A   1      36.643  32.787  31.248  1.00  0.00    -0.237 OA
ATOM     87  O   UNL A   1      35.463  31.299  29.624  1.00  0.00    -0.237 OA
ATOM     88  O   UNL A   1      35.881  30.390  32.076  1.00  0.00    -0.744 OA
ENDBRANCH  84  85
ENDBRANCH  52  77
BRANCH  64  89
ATOM     89  C   UNL A   1      46.729  32.413  28.753  1.00  0.00     0.058 A 
ATOM     90  C   UNL A   1      46.716  33.320  27.707  1.00  0.00     0.135 A 
ATOM     91  C   UNL A   1      47.306  32.706  29.913  1.00  0.00     0.135 A 
ATOM     92  F   UNL A   1      45.945  33.178  26.632  1.00  0.00    -0.206 F 
ATOM     93  C   UNL A   1      47.596  34.413  27.885  1.00  0.00     0.059 A 
ATOM     94  C   UNL A   1      48.039  33.859  30.057  1.00  0.00     0.059 A 
ATOM     95  F   UNL A   1      47.172  31.877  30.943  1.00  0.00    -0.206 F 
ATOM     96  C   UNL A   1      48.118  34.774  29.043  1.00  0.00     0.060 A 
BRANCH  96  97
ATOM     97  S   UNL A   1      48.896  36.391  29.277  1.00  0.00     0.124 S 
ATOM     98  O   UNL A   1      50.178  36.227  30.096  1.00  0.00    -0.237 OA
ATOM     99  O   UNL A   1      49.236  36.996  27.913  1.00  0.00    -0.237 OA
ATOM    100  O   UNL A   1      47.818  37.428  30.107  1.00  0.00    -0.744 OA
ENDBRANCH  96  97
ENDBRANCH  64  89
ENDBRANCH  38  39
ENDBRANCH  31  33
ENDBRANCH  30  31
ENDBRANCH  29  30
ENDBRANCH   1  29
TORSDOF 19
ENDMDL
MODEL 3
REMARK VINA RESULT:     -11.5      4.911     10.545
REMARK SMILES O=C(OCCOCCOC(=O)c1ccc(-c2c3nc(c(-c4c(F)cc(S(=O)(=O)[O-])cc4F)c4ccc([nH]4)c(-c4c(F)cc(S(=O)(=O)[O-])cc4F)c4nc(c(-c5c(F)cc(S(=O)(=O)[O-])cc5F)c5ccc2[nH]5)C=C4)C=C3)cc1)C1=Cc2cc(S(F)(F)(F)(F)F)cc(Br)c2O[C@H]1C(F)(F)F
REMARK SMILES IDX 7 1 6 2 5 3 4 4 3 5 2 6 1 7 78 8 79 9 94 10 80 11 93 12
REMARK SMILES IDX 81 13 92 14 82 15 90 16 89 17 91 18 95 19 96 20 97 21 98 22
REMARK SMILES IDX 83 23 84 24 85 25 86 26 87 27 88 28 8 29 9 30 10 31 11 32
REMARK SMILES IDX 12 33 13 34 77 35 14 36 76 37 15 38 16 39 17 40 70 41 18 42
REMARK SMILES IDX 75 43 69 44 71 45 19 46 74 47 68 48 67 49 20 51 54 52 33 53
REMARK SMILES IDX 53 54 34 55 37 56 52 57 72 58 35 59 36 60 51 62 73 63 38 64
REMARK SMILES IDX 21 65 22 66 31 67 23 68 24 69 30 70 32 71 25 72 26 73 27 74
REMARK SMILES IDX 28 75 29 76 55 77 56 78 65 79 57 80 58 81 64 82 66 83 59 84
REMARK SMILES IDX 60 85 61 86 62 87 63 88 39 89 40 90 49 91 41 92 42 93 48 94
REMARK SMILES IDX 50 95 43 96 44 97 45 98 46 99 47 100
REMARK H PARENT 71 50 37 61
REMARK Flexibility Score: inf
ROOT
ATOM      1  C   UNL A   1      38.908  21.491  25.755  1.00  0.00     0.202 C 
ENDROOT
BRANCH   1   2
ATOM      2  O   UNL A   1      37.721  22.251  25.587  1.00  0.00    -0.374 OA
BRANCH   2   3
ATOM      3  C   UNL A   1      37.079  21.865  24.380  1.00  0.00     0.202 C 
BRANCH   3   4
ATOM      4  C   UNL A   1      36.336  23.055  23.797  1.00  0.00     0.261 C 
BRANCH   4   5
ATOM      5  O   UNL A   1      35.204  23.347  24.602  1.00  0.00    -0.460 OA
BRANCH   5   6
ATOM      6  C   UNL A   1      33.897  23.082  24.113  1.00  0.00     0.338 C 
ATOM      7  O   UNL A   1      33.712  22.878  22.872  1.00  0.00    -0.246 OA
BRANCH   6   8
ATOM      8  C   UNL A   1      32.719  23.041  25.073  1.00  0.00     0.087 C 
ATOM      9  C   UNL A   1      32.231  24.196  25.601  1.00  0.00     0.027 C 
ATOM     10  C   UNL A   1      32.086  21.709  25.443  1.00  0.00     0.316 C 
ATOM     11  C   UNL A   1      32.863  25.528  25.230  1.00  0.00     0.020 A 
ATOM     12  O   UNL A   1      33.097  24.753  22.996  1.00  0.00    -0.474 OA
ATOM     13  C   UNL A   1      33.061  26.472  26.225  1.00  0.00     0.036 A 
ATOM     14  C   UNL A   1      33.158  25.791  23.962  1.00  0.00     0.142 A 
ATOM     15  C   UNL A   1      33.306  27.777  25.736  1.00  0.00     0.109 A 
ATOM     16  C   UNL A   1      33.522  27.059  23.577  1.00  0.00     0.062 A 
ATOM     17  C   UNL A   1      33.679  28.056  24.500  1.00  0.00     0.044 A 
ATOM     18  Br  UNL A   1      33.822  27.443  21.679  1.00  0.00    -0.047 Br
BRANCH  10  19
ATOM     19  C   UNL A   1      32.813  20.586  24.723  1.00  0.00     0.430 C 
ATOM     20  F   UNL A   1      32.612  20.688  23.413  1.00  0.00    -0.167 F 
ATOM     21  F   UNL A   1      34.116  20.675  24.980  1.00  0.00    -0.167 F 
ATOM     22  F   UNL A   1      32.356  19.412  25.151  1.00  0.00    -0.167 F 
ENDBRANCH  10  19
BRANCH  15  23
ATOM     23  S   UNL A   1      33.094  29.160  26.884  1.00  0.00     0.310 S 
ATOM     24  F   UNL A   1      32.715  28.188  28.080  1.00  0.00    -0.094 F 
ATOM     25  F   UNL A   1      31.564  29.191  26.515  1.00  0.00    -0.094 F 
ATOM     26  F   UNL A   1      32.910  30.347  27.871  1.00  0.00    -0.094 F 
ATOM     27  F   UNL A   1      34.599  29.021  27.345  1.00  0.00    -0.094 F 
ATOM     28  F   UNL A   1      33.272  27.881  25.971  1.00  0.00    -0.094 F 
ENDBRANCH  15  23
ENDBRANCH   6   8
ENDBRANCH   5   6
ENDBRANCH   4   5
ENDBRANCH   3   4
ENDBRANCH   2   3
ENDBRANCH   1   2
BRANCH   1  29
ATOM     29  C   UNL A   1      39.844  22.217  26.707  1.00  0.00     0.261 C 
BRANCH  29  30
ATOM     30  O   UNL A   1      39.730  23.618  26.507  1.00  0.00    -0.460 OA
BRANCH  30  31
ATOM     31  C   UNL A   1      40.854  24.461  26.718  1.00  0.00     0.338 C 
ATOM     32  O   UNL A   1      41.942  24.233  26.102  1.00  0.00    -0.246 OA
BRANCH  31  33
ATOM     33  C   UNL A   1      40.756  25.632  27.681  1.00  0.00     0.060 A 
ATOM     34  C   UNL A   1      41.791  26.551  27.720  1.00  0.00     0.016 A 
ATOM     35  C   UNL A   1      39.738  25.704  28.531  1.00  0.00     0.016 A 
ATOM     36  C   UNL A   1      41.806  27.348  28.890  1.00  0.00     0.010 A 
ATOM     37  C   UNL A   1      39.758  26.601  29.571  1.00  0.00     0.010 A 
ATOM     38  C   UNL A   1      40.779  27.499  29.706  1.00  0.00    -0.014 A 
BRANCH  38  39
ATOM     39  C   UNL A   1      40.735  28.613  30.740  1.00  0.00     0.031 A 
ATOM     40  C   UNL A   1      39.777  29.621  30.618  1.00  0.00     0.074 A 
ATOM     41  C   UNL A   1      41.601  28.495  31.813  1.00  0.00     0.049 A 
ATOM     42  N   UNL A   1      39.504  30.594  31.489  1.00  0.00    -0.248 NA
ATOM     43  C   UNL A   1      38.879  29.769  29.463  1.00  0.00     0.031 C 
ATOM     44  C   UNL A   1      42.565  27.476  31.946  1.00  0.00     0.029 A 
ATOM     45  N   UNL A   1      41.694  29.310  32.918  1.00  0.00    -0.354 N 
ATOM     46  C   UNL A   1      38.508  31.356  31.032  1.00  0.00     0.074 A 
ATOM     47  C   UNL A   1      38.096  30.840  29.720  1.00  0.00     0.031 C 
ATOM     48  C   UNL A   1      43.237  27.682  33.110  1.00  0.00     0.029 A 
ATOM     49  C   UNL A   1      42.704  28.831  33.723  1.00  0.00     0.049 A 
ATOM     50  H   UNL A   1      41.135  30.100  33.101  1.00  0.00     0.167 HD
ATOM     51  C   UNL A   1      37.927  32.459  31.659  1.00  0.00     0.037 A 
ATOM     52  C   UNL A   1      43.152  29.355  34.926  1.00  0.00     0.037 A 
ATOM     53  C   UNL A   1      38.345  32.957  32.883  1.00  0.00     0.049 A 
ATOM     54  C   UNL A   1      42.609  30.494  35.526  1.00  0.00     0.074 A 
ATOM     55  C   UNL A   1      37.766  34.063  33.532  1.00  0.00     0.029 A 
ATOM     56  N   UNL A   1      39.371  32.492  33.676  1.00  0.00    -0.354 N 
ATOM     57  N   UNL A   1      41.588  31.232  35.087  1.00  0.00    -0.248 NA
ATOM     58  C   UNL A   1      43.096  31.076  36.783  1.00  0.00     0.031 C 
ATOM     59  C   UNL A   1      38.438  34.269  34.696  1.00  0.00     0.029 A 
ATOM     60  C   UNL A   1      39.450  33.295  34.792  1.00  0.00     0.049 A 
ATOM     61  H   UNL A   1      39.949  31.720  33.478  1.00  0.00     0.167 HD
ATOM     62  C   UNL A   1      41.344  32.229  35.939  1.00  0.00     0.074 A 
ATOM     63  C   UNL A   1      42.315  32.148  37.039  1.00  0.00     0.031 C 
ATOM     64  C   UNL A   1      40.346  33.202  35.846  1.00  0.00     0.037 A 
BRANCH  51  65
ATOM     65  C   UNL A   1      36.768  33.153  30.960  1.00  0.00     0.058 A 
ATOM     66  C   UNL A   1      35.505  32.845  31.435  1.00  0.00     0.135 A 
ATOM     67  C   UNL A   1      36.942  34.041  29.988  1.00  0.00     0.135 A 
ATOM     68  F   UNL A   1      35.298  32.166  32.560  1.00  0.00    -0.206 F 
ATOM     69  C   UNL A   1      34.454  33.319  30.614  1.00  0.00     0.059 A 
ATOM     70  C   UNL A   1      35.863  34.566  29.319  1.00  0.00     0.059 A 
ATOM     71  F   UNL A   1      38.173  34.426  29.659  1.00  0.00    -0.206 F 
ATOM     72  C   UNL A   1      34.586  34.258  29.696  1.00  0.00     0.060 A 
BRANCH  72  73
ATOM     73  S   UNL A   1      33.151  35.095  28.976  1.00  0.00     0.124 S 
ATOM     74  O   UNL A   1      32.152  35.439  30.084  1.00  0.00    -0.237 OA
ATOM     75  O   UNL A   1      33.605  36.380  28.282  1.00  0.00    -0.237 OA
ATOM     76  O   UNL A   1      32.402  34.064  27.835  1.00  0.00    -0.744 OA
ENDBRANCH  72  73
ENDBRANCH  51  65
BRANCH  52  77
ATOM     77  C   UNL A   1      44.299  28.650  35.632  1.00  0.00     0.058 A 
ATOM     78  C   UNL A   1      45.615  28.971  35.344  1.00  0.00     0.135 A 
ATOM     79  C   UNL A   1      43.997  27.666  36.471  1.00  0.00     0.135 A 
ATOM     80  F   UNL A   1      45.969  30.091  34.720  1.00  0.00    -0.206 F 
ATOM     81  C   UNL A   1      46.548  27.998  35.770  1.00  0.00     0.059 A 
ATOM     82  C   UNL A   1      44.979  26.837  36.958  1.00  0.00     0.059 A 
ATOM     83  F   UNL A   1      42.734  27.482  36.844  1.00  0.00    -0.206 F 
ATOM     84  C   UNL A   1      46.296  27.058  36.665  1.00  0.00     0.060 A 
BRANCH  84  85
ATOM     85  S   UNL A   1      47.621  26.116  37.458  1.00  0.00     0.124 S 
ATOM     86  O   UNL A   1      48.934  26.897  37.356  1.00  0.00    -0.237 OA
ATOM     87  O   UNL A   1      47.276  25.890  38.932  1.00  0.00    -0.237 OA
ATOM     88  O   UNL A   1      47.795  24.606  36.675  1.00  0.00    -0.744 OA
ENDBRANCH  84  85
ENDBRANCH  52  77
BRANCH  64  89
ATOM     89  C   UNL A   1      40.236  34.222  36.967  1.00  0.00     0.058 A 
ATOM     90  C   UNL A   1      40.980  35.387  36.881  1.00  0.00     0.135 A 
ATOM     91  C   UNL A   1      39.499  33.953  38.039  1.00  0.00     0.135 A 
ATOM     92  F   UNL A   1      41.525  35.818  35.746  1.00  0.00    -0.206 F 
ATOM     93  C   UNL A   1      41.109  36.078  38.109  1.00  0.00     0.059 A 
ATOM     94  C   UNL A   1      39.572  34.749  39.156  1.00  0.00     0.059 A 
ATOM     95  F   UNL A   1      38.682  32.905  38.029  1.00  0.00    -0.206 F 
ATOM     96  C   UNL A   1      40.334  35.886  39.161  1.00  0.00     0.060 A 
BRANCH  96  97
ATOM     97  S   UNL A   1      40.283  37.061  40.537  1.00  0.00     0.124 S 
ATOM     98  O   UNL A   1      38.877  37.079  41.140  1.00  0.00    -0.237 OA
ATOM     99  O   UNL A   1      41.293  36.637  41.607  1.00  0.00    -0.237 OA
ATOM    100  O   UNL A   1      40.679  38.623  39.967  1.00  0.00    -0.744 OA
ENDBRANCH  96  97
ENDBRANCH  64  89
ENDBRANCH  38  39
ENDBRANCH  31  33
ENDBRANCH  30  31
ENDBRANCH  29  30
ENDBRANCH   1  29
TORSDOF 19
ENDMDL
