MODEL 1
REMARK VINA RESULT:     -11.1      0.000      0.000
REMARK SMILES O=C(OCCOCCOC(=O)[C@@H](c1ccccc1)[C@H](C(=O)c1ccccc1)c1ccccc1)c1ccc(-c2c3nc(c(-c4c(F)cc(S(=O)(=O)[O-])cc4F)c4ccc([nH]4)c(-c4c(F)cc(S(=O)(=O)[O-])cc4F)c4nc(c(-c5c(F)cc(S(=O)(=O)[O-])cc5F)c5ccc2[nH]5)C=C4)C=C3)cc1
REMARK SMILES IDX 6 1 5 2 4 3 3 4 2 5 1 6 34 7 35 8 99 9 36 10 98 11 37 12
REMARK SMILES IDX 38 13 39 14 92 15 40 16 97 17 91 18 93 19 41 20 96 21 90 22
REMARK SMILES IDX 89 23 42 25 76 26 55 27 75 28 56 29 59 30 74 31 94 32 57 33
REMARK SMILES IDX 58 34 73 36 95 37 60 38 43 39 44 40 53 41 45 42 46 43 52 44
REMARK SMILES IDX 54 45 47 46 48 47 49 48 50 49 51 50 77 51 78 52 87 53 79 54
REMARK SMILES IDX 80 55 86 56 88 57 81 58 82 59 83 60 84 61 85 62 61 63 62 64
REMARK SMILES IDX 71 65 63 66 64 67 70 68 72 69 65 70 66 71 67 72 68 73 69 74
REMARK SMILES IDX 7 75 8 76 9 77 10 78 11 79 12 80 13 81 14 82 18 83 15 84
REMARK SMILES IDX 17 85 16 86 19 87 28 88 29 89 33 90 30 91 32 92 31 93 20 94
REMARK SMILES IDX 21 95 22 96 23 97 27 98 24 99 26 100 25 101
REMARK H PARENT 93 24 59 35
REMARK Flexibility Score: inf
ROOT
ATOM      1  O   UNL A   1      38.170  22.953  26.163  1.00  0.00    -0.374 OA
ENDROOT
BRANCH   1   2
ATOM      2  C   UNL A   1      39.396  22.239  26.294  1.00  0.00     0.202 C 
BRANCH   2   3
ATOM      3  C   UNL A   1      40.341  22.559  27.458  1.00  0.00     0.261 C 
BRANCH   3   4
ATOM      4  O   UNL A   1      41.384  23.491  27.068  1.00  0.00    -0.460 OA
BRANCH   4   5
ATOM      5  C   UNL A   1      41.202  24.790  26.673  1.00  0.00     0.338 C 
ATOM      6  O   UNL A   1      41.413  25.144  25.529  1.00  0.00    -0.246 OA
BRANCH   5   7
ATOM      7  C   UNL A   1      40.750  25.760  27.696  1.00  0.00     0.060 A 
ATOM      8  C   UNL A   1      41.402  26.966  27.745  1.00  0.00     0.016 A 
ATOM      9  C   UNL A   1      39.726  25.546  28.600  1.00  0.00     0.016 A 
ATOM     10  C   UNL A   1      41.415  27.756  28.847  1.00  0.00     0.010 A 
ATOM     11  C   UNL A   1      39.479  26.530  29.572  1.00  0.00     0.010 A 
ATOM     12  C   UNL A   1      40.358  27.623  29.712  1.00  0.00    -0.014 A 
BRANCH  12  13
ATOM     13  C   UNL A   1      40.303  28.656  30.751  1.00  0.00     0.031 A 
ATOM     14  C   UNL A   1      41.369  28.636  31.787  1.00  0.00     0.074 A 
ATOM     15  C   UNL A   1      39.444  29.689  30.601  1.00  0.00     0.049 A 
ATOM     16  N   UNL A   1      41.467  29.352  32.867  1.00  0.00    -0.248 NA
ATOM     17  C   UNL A   1      42.476  27.680  31.587  1.00  0.00     0.031 C 
ATOM     18  C   UNL A   1      38.500  29.864  29.480  1.00  0.00     0.029 A 
ATOM     19  N   UNL A   1      39.260  30.823  31.341  1.00  0.00    -0.354 N 
ATOM     20  C   UNL A   1      42.606  28.892  33.508  1.00  0.00     0.074 A 
ATOM     21  C   UNL A   1      43.170  27.835  32.702  1.00  0.00     0.031 C 
ATOM     22  C   UNL A   1      37.891  31.052  29.582  1.00  0.00     0.029 A 
ATOM     23  C   UNL A   1      38.277  31.650  30.845  1.00  0.00     0.049 A 
ATOM     24  H   UNL A   1      39.779  31.028  32.151  1.00  0.00     0.167 HD
ATOM     25  C   UNL A   1      43.109  29.327  34.682  1.00  0.00     0.037 A 
ATOM     26  C   UNL A   1      37.697  32.728  31.400  1.00  0.00     0.037 A 
ATOM     27  C   UNL A   1      42.499  30.398  35.420  1.00  0.00     0.049 A 
ATOM     28  C   UNL A   1      38.200  33.116  32.762  1.00  0.00     0.074 A 
ATOM     29  C   UNL A   1      42.813  30.880  36.673  1.00  0.00     0.029 A 
ATOM     30  N   UNL A   1      41.441  31.167  34.941  1.00  0.00    -0.354 N 
ATOM     31  N   UNL A   1      39.182  32.580  33.455  1.00  0.00    -0.248 NA
ATOM     32  C   UNL A   1      37.516  34.222  33.431  1.00  0.00     0.031 C 
ATOM     33  C   UNL A   1      41.917  31.914  36.968  1.00  0.00     0.029 A 
ATOM     34  C   UNL A   1      41.084  32.118  35.876  1.00  0.00     0.049 A 
ATOM     35  H   UNL A   1      41.010  31.050  34.064  1.00  0.00     0.167 HD
ATOM     36  C   UNL A   1      39.242  33.291  34.642  1.00  0.00     0.074 A 
ATOM     37  C   UNL A   1      38.215  34.316  34.554  1.00  0.00     0.031 C 
ATOM     38  C   UNL A   1      40.054  33.116  35.715  1.00  0.00     0.037 A 
BRANCH  25  39
ATOM     39  C   UNL A   1      44.289  28.588  35.233  1.00  0.00     0.058 A 
ATOM     40  C   UNL A   1      44.146  27.475  36.077  1.00  0.00     0.135 A 
ATOM     41  C   UNL A   1      45.590  29.039  34.960  1.00  0.00     0.135 A 
ATOM     42  F   UNL A   1      42.924  27.036  36.417  1.00  0.00    -0.206 F 
ATOM     43  C   UNL A   1      45.250  26.845  36.642  1.00  0.00     0.059 A 
ATOM     44  C   UNL A   1      46.710  28.408  35.492  1.00  0.00     0.059 A 
ATOM     45  F   UNL A   1      45.782  30.121  34.188  1.00  0.00    -0.206 F 
ATOM     46  C   UNL A   1      46.529  27.317  36.339  1.00  0.00     0.060 A 
BRANCH  46  47
ATOM     47  S   UNL A   1      47.951  26.478  37.068  1.00  0.00     0.124 S 
ATOM     48  O   UNL A   1      48.721  26.121  35.879  1.00  0.00    -0.237 OA
ATOM     49  O   UNL A   1      48.529  27.523  37.907  1.00  0.00    -0.237 OA
ATOM     50  O   UNL A   1      47.354  25.358  37.788  1.00  0.00    -0.744 OA
ENDBRANCH  46  47
ENDBRANCH  25  39
BRANCH  26  51
ATOM     51  C   UNL A   1      36.538  33.404  30.750  1.00  0.00     0.058 A 
ATOM     52  C   UNL A   1      36.706  34.282  29.669  1.00  0.00     0.135 A 
ATOM     53  C   UNL A   1      35.224  33.201  31.214  1.00  0.00     0.135 A 
ATOM     54  F   UNL A   1      37.933  34.516  29.181  1.00  0.00    -0.206 F 
ATOM     55  C   UNL A   1      35.628  34.956  29.097  1.00  0.00     0.059 A 
ATOM     56  C   UNL A   1      34.128  33.834  30.637  1.00  0.00     0.059 A 
ATOM     57  F   UNL A   1      34.991  32.363  32.237  1.00  0.00    -0.206 F 
ATOM     58  C   UNL A   1      34.342  34.729  29.593  1.00  0.00     0.060 A 
BRANCH  58  59
ATOM     59  S   UNL A   1      32.951  35.614  28.855  1.00  0.00     0.124 S 
ATOM     60  O   UNL A   1      32.337  34.570  28.044  1.00  0.00    -0.237 OA
ATOM     61  O   UNL A   1      32.197  36.036  30.031  1.00  0.00    -0.237 OA
ATOM     62  O   UNL A   1      33.595  36.693  28.112  1.00  0.00    -0.744 OA
ENDBRANCH  58  59
ENDBRANCH  26  51
BRANCH  38  63
ATOM     63  C   UNL A   1      39.879  34.091  36.837  1.00  0.00     0.058 A 
ATOM     64  C   UNL A   1      40.497  35.349  36.823  1.00  0.00     0.135 A 
ATOM     65  C   UNL A   1      39.048  33.766  37.919  1.00  0.00     0.135 A 
ATOM     66  F   UNL A   1      41.308  35.695  35.810  1.00  0.00    -0.206 F 
ATOM     67  C   UNL A   1      40.322  36.246  37.866  1.00  0.00     0.059 A 
ATOM     68  C   UNL A   1      38.828  34.662  38.955  1.00  0.00     0.059 A 
ATOM     69  F   UNL A   1      38.427  32.577  37.965  1.00  0.00    -0.206 F 
ATOM     70  C   UNL A   1      39.484  35.893  38.926  1.00  0.00     0.060 A 
BRANCH  70  71
ATOM     71  S   UNL A   1      39.242  37.078  40.262  1.00  0.00     0.124 S 
ATOM     72  O   UNL A   1      40.615  37.307  40.700  1.00  0.00    -0.237 OA
ATOM     73  O   UNL A   1      38.599  38.194  39.575  1.00  0.00    -0.237 OA
ATOM     74  O   UNL A   1      38.394  36.356  41.205  1.00  0.00    -0.744 OA
ENDBRANCH  70  71
ENDBRANCH  38  63
ENDBRANCH  12  13
ENDBRANCH   5   7
ENDBRANCH   4   5
ENDBRANCH   3   4
ENDBRANCH   2   3
ENDBRANCH   1   2
BRANCH   1  75
ATOM     75  C   UNL A   1      37.078  22.296  25.508  1.00  0.00     0.202 C 
BRANCH  75  76
ATOM     76  C   UNL A   1      36.306  23.307  24.682  1.00  0.00     0.261 C 
BRANCH  76  77
ATOM     77  O   UNL A   1      35.788  24.321  25.549  1.00  0.00    -0.463 OA
BRANCH  77  78
ATOM     78  C   UNL A   1      34.464  24.324  25.857  1.00  0.00     0.314 C 
ATOM     79  O   UNL A   1      33.897  23.503  26.564  1.00  0.00    -0.252 OA
BRANCH  78  80
ATOM     80  C   UNL A   1      33.746  25.461  25.144  1.00  0.00     0.144 C 
BRANCH  80  81
ATOM     81  C   UNL A   1      33.501  25.443  23.626  1.00  0.00    -0.033 A 
ATOM     82  C   UNL A   1      33.652  26.600  22.840  1.00  0.00     0.004 A 
ATOM     83  C   UNL A   1      33.203  24.268  22.926  1.00  0.00     0.004 A 
ATOM     84  C   UNL A   1      33.277  26.647  21.496  1.00  0.00     0.000 A 
ATOM     85  C   UNL A   1      32.821  24.301  21.575  1.00  0.00     0.000 A 
ATOM     86  C   UNL A   1      32.818  25.502  20.871  1.00  0.00     0.000 A 
ENDBRANCH  80  81
BRANCH  80  87
ATOM     87  C   UNL A   1      32.559  25.863  26.074  1.00  0.00     0.110 C 
BRANCH  87  88
ATOM     88  C   UNL A   1      32.785  27.291  26.605  1.00  0.00    -0.036 A 
ATOM     89  C   UNL A   1      31.785  28.013  27.257  1.00  0.00     0.004 A 
ATOM     90  C   UNL A   1      34.021  27.941  26.375  1.00  0.00     0.004 A 
ATOM     91  C   UNL A   1      31.957  29.375  27.515  1.00  0.00     0.000 A 
ATOM     92  C   UNL A   1      34.174  29.306  26.586  1.00  0.00     0.000 A 
ATOM     93  C   UNL A   1      33.129  30.028  27.138  1.00  0.00     0.000 A 
ENDBRANCH  87  88
BRANCH  87  94
ATOM     94  C   UNL A   1      31.088  25.526  25.592  1.00  0.00     0.171 C 
ATOM     95  O   UNL A   1      30.524  24.508  26.017  1.00  0.00    -0.293 OA
BRANCH  94  96
ATOM     96  C   UNL A   1      30.221  26.403  24.717  1.00  0.00     0.018 A 
ATOM     97  C   UNL A   1      28.881  26.040  24.535  1.00  0.00     0.012 A 
ATOM     98  C   UNL A   1      30.664  27.542  24.042  1.00  0.00     0.012 A 
ATOM     99  C   UNL A   1      28.009  26.855  23.794  1.00  0.00     0.001 A 
ATOM    100  C   UNL A   1      29.804  28.366  23.308  1.00  0.00     0.001 A 
ATOM    101  C   UNL A   1      28.466  28.030  23.199  1.00  0.00     0.000 A 
ENDBRANCH  94  96
ENDBRANCH  87  94
ENDBRANCH  80  87
ENDBRANCH  78  80
ENDBRANCH  77  78
ENDBRANCH  76  77
ENDBRANCH  75  76
ENDBRANCH   1  75
TORSDOF 22
ENDMDL
MODEL 2
REMARK VINA RESULT:     -10.9      1.629      8.607
REMARK SMILES O=C(OCCOCCOC(=O)[C@@H](c1ccccc1)[C@H](C(=O)c1ccccc1)c1ccccc1)c1ccc(-c2c3nc(c(-c4c(F)cc(S(=O)(=O)[O-])cc4F)c4ccc([nH]4)c(-c4c(F)cc(S(=O)(=O)[O-])cc4F)c4nc(c(-c5c(F)cc(S(=O)(=O)[O-])cc5F)c5ccc2[nH]5)C=C4)C=C3)cc1
REMARK SMILES IDX 6 1 5 2 4 3 3 4 2 5 1 6 34 7 35 8 99 9 36 10 98 11 37 12
REMARK SMILES IDX 38 13 39 14 92 15 40 16 97 17 91 18 93 19 41 20 96 21 90 22
REMARK SMILES IDX 89 23 42 25 76 26 55 27 75 28 56 29 59 30 74 31 94 32 57 33
REMARK SMILES IDX 58 34 73 36 95 37 60 38 43 39 44 40 53 41 45 42 46 43 52 44
REMARK SMILES IDX 54 45 47 46 48 47 49 48 50 49 51 50 77 51 78 52 87 53 79 54
REMARK SMILES IDX 80 55 86 56 88 57 81 58 82 59 83 60 84 61 85 62 61 63 62 64
REMARK SMILES IDX 71 65 63 66 64 67 70 68 72 69 65 70 66 71 67 72 68 73 69 74
REMARK SMILES IDX 7 75 8 76 9 77 10 78 11 79 12 80 13 81 14 82 18 83 15 84
REMARK SMILES IDX 17 85 16 86 19 87 28 88 29 89 33 90 30 91 32 92 31 93 20 94
REMARK SMILES IDX 21 95 22 96 23 97 27 98 24 99 26 100 25 101
REMARK H PARENT 93 24 59 35
REMARK Flexibility Score: inf
ROOT
ATOM      1  O   UNL A   1      38.967  22.908  26.864  1.00  0.00    -0.374 OA
ENDROOT
BRANCH   1   2
ATOM      2  C   UNL A   1      40.321  22.641  26.516  1.00  0.00     0.202 C 
BRANCH   2   3
ATOM      3  C   UNL A   1      41.455  23.278  27.328  1.00  0.00     0.261 C 
BRANCH   3   4
ATOM      4  O   UNL A   1      42.010  24.444  26.662  1.00  0.00    -0.460 OA
BRANCH   4   5
ATOM      5  C   UNL A   1      41.348  25.613  26.394  1.00  0.00     0.338 C 
ATOM      6  O   UNL A   1      41.140  25.981  25.254  1.00  0.00    -0.246 OA
BRANCH   5   7
ATOM      7  C   UNL A   1      40.904  26.428  27.547  1.00  0.00     0.060 A 
ATOM      8  C   UNL A   1      41.514  27.644  27.726  1.00  0.00     0.016 A 
ATOM      9  C   UNL A   1      39.925  26.062  28.453  1.00  0.00     0.016 A 
ATOM     10  C   UNL A   1      41.543  28.289  28.917  1.00  0.00     0.010 A 
ATOM     11  C   UNL A   1      39.683  26.905  29.549  1.00  0.00     0.010 A 
ATOM     12  C   UNL A   1      40.528  28.007  29.796  1.00  0.00    -0.014 A 
BRANCH  12  13
ATOM     13  C   UNL A   1      40.478  28.899  30.958  1.00  0.00     0.031 A 
ATOM     14  C   UNL A   1      39.410  29.934  30.976  1.00  0.00     0.074 A 
ATOM     15  C   UNL A   1      41.238  28.609  32.038  1.00  0.00     0.049 A 
ATOM     16  N   UNL A   1      39.237  30.910  31.816  1.00  0.00    -0.248 NA
ATOM     17  C   UNL A   1      38.400  29.867  29.902  1.00  0.00     0.031 C 
ATOM     18  C   UNL A   1      42.170  27.471  32.150  1.00  0.00     0.029 A 
ATOM     19  N   UNL A   1      41.309  29.192  33.272  1.00  0.00    -0.354 N 
ATOM     20  C   UNL A   1      38.142  31.611  31.340  1.00  0.00     0.074 A 
ATOM     21  C   UNL A   1      37.685  30.955  30.138  1.00  0.00     0.031 C 
ATOM     22  C   UNL A   1      42.664  27.411  33.393  1.00  0.00     0.029 A 
ATOM     23  C   UNL A   1      42.214  28.586  34.115  1.00  0.00     0.049 A 
ATOM     24  H   UNL A   1      40.767  29.970  33.533  1.00  0.00     0.167 HD
ATOM     25  C   UNL A   1      37.591  32.719  31.878  1.00  0.00     0.037 A 
ATOM     26  C   UNL A   1      42.687  28.991  35.306  1.00  0.00     0.037 A 
ATOM     27  C   UNL A   1      38.092  33.306  33.089  1.00  0.00     0.049 A 
ATOM     28  C   UNL A   1      42.139  30.291  35.822  1.00  0.00     0.074 A 
ATOM     29  C   UNL A   1      37.724  34.485  33.701  1.00  0.00     0.029 A 
ATOM     30  N   UNL A   1      39.077  32.725  33.884  1.00  0.00    -0.354 N 
ATOM     31  N   UNL A   1      41.206  31.054  35.293  1.00  0.00    -0.248 NA
ATOM     32  C   UNL A   1      42.711  30.805  37.067  1.00  0.00     0.031 C 
ATOM     33  C   UNL A   1      38.517  34.637  34.845  1.00  0.00     0.029 A 
ATOM     34  C   UNL A   1      39.336  33.523  34.979  1.00  0.00     0.049 A 
ATOM     35  H   UNL A   1      39.524  31.868  33.693  1.00  0.00     0.167 HD
ATOM     36  C   UNL A   1      41.071  32.136  36.146  1.00  0.00     0.074 A 
ATOM     37  C   UNL A   1      41.997  31.908  37.242  1.00  0.00     0.031 C 
ATOM     38  C   UNL A   1      40.269  33.227  36.040  1.00  0.00     0.037 A 
BRANCH  25  39
ATOM     39  C   UNL A   1      36.480  33.369  31.110  1.00  0.00     0.058 A 
ATOM     40  C   UNL A   1      36.707  34.063  29.911  1.00  0.00     0.135 A 
ATOM     41  C   UNL A   1      35.171  33.349  31.618  1.00  0.00     0.135 A 
ATOM     42  F   UNL A   1      37.949  34.163  29.412  1.00  0.00    -0.206 F 
ATOM     43  C   UNL A   1      35.678  34.726  29.250  1.00  0.00     0.059 A 
ATOM     44  C   UNL A   1      34.122  33.981  30.958  1.00  0.00     0.059 A 
ATOM     45  F   UNL A   1      34.906  32.730  32.779  1.00  0.00    -0.206 F 
ATOM     46  C   UNL A   1      34.388  34.675  29.780  1.00  0.00     0.060 A 
BRANCH  46  47
ATOM     47  S   UNL A   1      33.062  35.527  28.900  1.00  0.00     0.124 S 
ATOM     48  O   UNL A   1      33.810  36.510  28.123  1.00  0.00    -0.237 OA
ATOM     49  O   UNL A   1      32.454  34.443  28.134  1.00  0.00    -0.237 OA
ATOM     50  O   UNL A   1      32.236  36.072  29.973  1.00  0.00    -0.744 OA
ENDBRANCH  46  47
ENDBRANCH  25  39
BRANCH  26  51
ATOM     51  C   UNL A   1      43.782  28.252  35.996  1.00  0.00     0.058 A 
ATOM     52  C   UNL A   1      45.133  28.547  35.765  1.00  0.00     0.135 A 
ATOM     53  C   UNL A   1      43.499  27.208  36.898  1.00  0.00     0.135 A 
ATOM     54  F   UNL A   1      45.468  29.532  34.917  1.00  0.00    -0.206 F 
ATOM     55  C   UNL A   1      46.158  27.820  36.369  1.00  0.00     0.059 A 
ATOM     56  C   UNL A   1      44.503  26.492  37.541  1.00  0.00     0.059 A 
ATOM     57  F   UNL A   1      42.227  26.882  37.176  1.00  0.00    -0.206 F 
ATOM     58  C   UNL A   1      45.831  26.789  37.252  1.00  0.00     0.060 A 
BRANCH  58  59
ATOM     59  S   UNL A   1      47.163  25.843  38.022  1.00  0.00     0.124 S 
ATOM     60  O   UNL A   1      46.836  24.484  37.605  1.00  0.00    -0.237 OA
ATOM     61  O   UNL A   1      48.352  26.429  37.409  1.00  0.00    -0.237 OA
ATOM     62  O   UNL A   1      46.997  26.123  39.445  1.00  0.00    -0.744 OA
ENDBRANCH  58  59
ENDBRANCH  26  51
BRANCH  38  63
ATOM     63  C   UNL A   1      40.344  34.209  37.166  1.00  0.00     0.058 A 
ATOM     64  C   UNL A   1      39.465  34.147  38.257  1.00  0.00     0.135 A 
ATOM     65  C   UNL A   1      41.337  35.200  37.164  1.00  0.00     0.135 A 
ATOM     66  F   UNL A   1      38.494  33.220  38.293  1.00  0.00    -0.206 F 
ATOM     67  C   UNL A   1      39.548  35.059  39.298  1.00  0.00     0.059 A 
ATOM     68  C   UNL A   1      41.462  36.099  38.212  1.00  0.00     0.059 A 
ATOM     69  F   UNL A   1      42.207  35.286  36.144  1.00  0.00    -0.206 F 
ATOM     70  C   UNL A   1      40.552  36.030  39.266  1.00  0.00     0.060 A 
BRANCH  70  71
ATOM     71  S   UNL A   1      40.667  37.192  40.638  1.00  0.00     0.124 S 
ATOM     72  O   UNL A   1      39.374  37.005  41.288  1.00  0.00    -0.237 OA
ATOM     73  O   UNL A   1      41.826  36.693  41.373  1.00  0.00    -0.237 OA
ATOM     74  O   UNL A   1      40.858  38.479  39.977  1.00  0.00    -0.744 OA
ENDBRANCH  70  71
ENDBRANCH  38  63
ENDBRANCH  12  13
ENDBRANCH   5   7
ENDBRANCH   4   5
ENDBRANCH   3   4
ENDBRANCH   2   3
ENDBRANCH   1   2
BRANCH   1  75
ATOM     75  C   UNL A   1      38.062  23.266  25.812  1.00  0.00     0.202 C 
BRANCH  75  76
ATOM     76  C   UNL A   1      36.769  22.492  25.977  1.00  0.00     0.261 C 
BRANCH  76  77
ATOM     77  O   UNL A   1      36.357  21.993  24.700  1.00  0.00    -0.463 OA
BRANCH  77  78
ATOM     78  C   UNL A   1      35.537  22.747  23.921  1.00  0.00     0.314 C 
ATOM     79  O   UNL A   1      35.862  23.313  22.887  1.00  0.00    -0.252 OA
BRANCH  78  80
ATOM     80  C   UNL A   1      34.152  22.858  24.541  1.00  0.00     0.144 C 
BRANCH  80  81
ATOM     81  C   UNL A   1      33.691  24.124  25.282  1.00  0.00    -0.033 A 
ATOM     82  C   UNL A   1      32.569  24.117  26.132  1.00  0.00     0.004 A 
ATOM     83  C   UNL A   1      34.403  25.328  25.227  1.00  0.00     0.004 A 
ATOM     84  C   UNL A   1      32.038  25.284  26.681  1.00  0.00     0.000 A 
ATOM     85  C   UNL A   1      33.878  26.511  25.773  1.00  0.00     0.000 A 
ATOM     86  C   UNL A   1      32.671  26.495  26.464  1.00  0.00     0.000 A 
ENDBRANCH  80  81
BRANCH  80  87
ATOM     87  C   UNL A   1      33.172  22.212  23.512  1.00  0.00     0.110 C 
BRANCH  87  88
ATOM     88  C   UNL A   1      32.834  20.777  23.957  1.00  0.00    -0.036 A 
ATOM     89  C   UNL A   1      32.990  20.346  25.275  1.00  0.00     0.004 A 
ATOM     90  C   UNL A   1      32.413  19.824  23.000  1.00  0.00     0.004 A 
ATOM     91  C   UNL A   1      32.891  18.989  25.586  1.00  0.00     0.000 A 
ATOM     92  C   UNL A   1      32.363  18.468  23.299  1.00  0.00     0.000 A 
ATOM     93  C   UNL A   1      32.626  18.048  24.592  1.00  0.00     0.000 A 
ENDBRANCH  87  88
BRANCH  87  94
ATOM     94  C   UNL A   1      31.954  23.085  22.996  1.00  0.00     0.171 C 
ATOM     95  O   UNL A   1      30.828  22.575  22.918  1.00  0.00    -0.293 OA
BRANCH  94  96
ATOM     96  C   UNL A   1      31.997  24.562  22.676  1.00  0.00     0.018 A 
ATOM     97  C   UNL A   1      30.965  25.375  23.158  1.00  0.00     0.012 A 
ATOM     98  C   UNL A   1      32.980  25.182  21.901  1.00  0.00     0.012 A 
ATOM     99  C   UNL A   1      30.989  26.765  22.957  1.00  0.00     0.001 A 
ATOM    100  C   UNL A   1      33.019  26.566  21.699  1.00  0.00     0.001 A 
ATOM    101  C   UNL A   1      32.029  27.363  22.246  1.00  0.00     0.000 A 
ENDBRANCH  94  96
ENDBRANCH  87  94
ENDBRANCH  80  87
ENDBRANCH  78  80
ENDBRANCH  77  78
ENDBRANCH  76  77
ENDBRANCH  75  76
ENDBRANCH   1  75
TORSDOF 22
ENDMDL
MODEL 3
REMARK VINA RESULT:     -10.7      0.776      8.061
REMARK SMILES O=C(OCCOCCOC(=O)[C@@H](c1ccccc1)[C@H](C(=O)c1ccccc1)c1ccccc1)c1ccc(-c2c3nc(c(-c4c(F)cc(S(=O)(=O)[O-])cc4F)c4ccc([nH]4)c(-c4c(F)cc(S(=O)(=O)[O-])cc4F)c4nc(c(-c5c(F)cc(S(=O)(=O)[O-])cc5F)c5ccc2[nH]5)C=C4)C=C3)cc1
REMARK SMILES IDX 6 1 5 2 4 3 3 4 2 5 1 6 34 7 35 8 99 9 36 10 98 11 37 12
REMARK SMILES IDX 38 13 39 14 92 15 40 16 97 17 91 18 93 19 41 20 96 21 90 22
REMARK SMILES IDX 89 23 42 25 76 26 55 27 75 28 56 29 59 30 74 31 94 32 57 33
REMARK SMILES IDX 58 34 73 36 95 37 60 38 43 39 44 40 53 41 45 42 46 43 52 44
REMARK SMILES IDX 54 45 47 46 48 47 49 48 50 49 51 50 77 51 78 52 87 53 79 54
REMARK SMILES IDX 80 55 86 56 88 57 81 58 82 59 83 60 84 61 85 62 61 63 62 64
REMARK SMILES IDX 71 65 63 66 64 67 70 68 72 69 65 70 66 71 67 72 68 73 69 74
REMARK SMILES IDX 7 75 8 76 9 77 10 78 11 79 12 80 13 81 14 82 18 83 15 84
REMARK SMILES IDX 17 85 16 86 19 87 28 88 29 89 33 90 30 91 32 92 31 93 20 94
REMARK SMILES IDX 21 95 22 96 23 97 27 98 24 99 26 100 25 101
REMARK H PARENT 93 24 59 35
REMARK Flexibility Score: inf
ROOT
ATOM      1  O   UNL A   1      38.228  23.107  26.595  1.00  0.00    -0.374 OA
ENDROOT
BRANCH   1   2
ATOM      2  C   UNL A   1      39.531  22.535  26.638  1.00  0.00     0.202 C 
BRANCH   2   3
ATOM      3  C   UNL A   1      40.660  23.271  27.371  1.00  0.00     0.261 C 
BRANCH   3   4
ATOM      4  O   UNL A   1      41.415  24.132  26.477  1.00  0.00    -0.460 OA
BRANCH   4   5
ATOM      5  C   UNL A   1      41.242  25.481  26.316  1.00  0.00     0.338 C 
ATOM      6  O   UNL A   1      40.941  25.962  25.240  1.00  0.00    -0.246 OA
BRANCH   5   7
ATOM      7  C   UNL A   1      41.451  26.344  27.500  1.00  0.00     0.060 A 
ATOM      8  C   UNL A   1      40.627  26.139  28.577  1.00  0.00     0.016 A 
ATOM      9  C   UNL A   1      42.410  27.335  27.605  1.00  0.00     0.016 A 
ATOM     10  C   UNL A   1      40.397  27.082  29.524  1.00  0.00     0.010 A 
ATOM     11  C   UNL A   1      42.419  28.133  28.761  1.00  0.00     0.010 A 
ATOM     12  C   UNL A   1      41.379  28.023  29.706  1.00  0.00    -0.014 A 
BRANCH  12  13
ATOM     13  C   UNL A   1      41.187  28.865  30.891  1.00  0.00     0.031 A 
ATOM     14  C   UNL A   1      40.039  29.810  30.874  1.00  0.00     0.074 A 
ATOM     15  C   UNL A   1      41.903  28.598  32.006  1.00  0.00     0.049 A 
ATOM     16  N   UNL A   1      39.736  30.738  31.732  1.00  0.00    -0.248 NA
ATOM     17  C   UNL A   1      39.103  29.702  29.738  1.00  0.00     0.031 C 
ATOM     18  C   UNL A   1      42.917  27.535  32.141  1.00  0.00     0.029 A 
ATOM     19  N   UNL A   1      41.852  29.140  33.260  1.00  0.00    -0.354 N 
ATOM     20  C   UNL A   1      38.617  31.366  31.211  1.00  0.00     0.074 A 
ATOM     21  C   UNL A   1      38.289  30.720  29.963  1.00  0.00     0.031 C 
ATOM     22  C   UNL A   1      43.339  27.470  33.410  1.00  0.00     0.029 A 
ATOM     23  C   UNL A   1      42.752  28.578  34.138  1.00  0.00     0.049 A 
ATOM     24  H   UNL A   1      41.233  29.862  33.511  1.00  0.00     0.167 HD
ATOM     25  C   UNL A   1      37.946  32.406  31.748  1.00  0.00     0.037 A 
ATOM     26  C   UNL A   1      43.117  28.976  35.369  1.00  0.00     0.037 A 
ATOM     27  C   UNL A   1      38.324  32.986  33.006  1.00  0.00     0.049 A 
ATOM     28  C   UNL A   1      42.435  30.208  35.890  1.00  0.00     0.074 A 
ATOM     29  C   UNL A   1      37.825  34.109  33.630  1.00  0.00     0.029 A 
ATOM     30  N   UNL A   1      39.305  32.457  33.842  1.00  0.00    -0.354 N 
ATOM     31  N   UNL A   1      41.476  30.912  35.328  1.00  0.00    -0.248 NA
ATOM     32  C   UNL A   1      42.888  30.720  37.184  1.00  0.00     0.031 C 
ATOM     33  C   UNL A   1      38.533  34.282  34.826  1.00  0.00     0.029 A 
ATOM     34  C   UNL A   1      39.431  33.234  34.976  1.00  0.00     0.049 A 
ATOM     35  H   UNL A   1      39.831  31.647  33.652  1.00  0.00     0.167 HD
ATOM     36  C   UNL A   1      41.201  31.948  36.205  1.00  0.00     0.074 A 
ATOM     37  C   UNL A   1      42.076  31.756  37.349  1.00  0.00     0.031 C 
ATOM     38  C   UNL A   1      40.321  32.974  36.083  1.00  0.00     0.037 A 
BRANCH  25  39
ATOM     39  C   UNL A   1      36.834  32.992  30.933  1.00  0.00     0.058 A 
ATOM     40  C   UNL A   1      37.074  33.854  29.852  1.00  0.00     0.135 A 
ATOM     41  C   UNL A   1      35.498  32.735  31.282  1.00  0.00     0.135 A 
ATOM     42  F   UNL A   1      38.331  34.179  29.512  1.00  0.00    -0.206 F 
ATOM     43  C   UNL A   1      36.030  34.450  29.152  1.00  0.00     0.059 A 
ATOM     44  C   UNL A   1      34.438  33.299  30.579  1.00  0.00     0.059 A 
ATOM     45  F   UNL A   1      35.213  31.947  32.330  1.00  0.00    -0.206 F 
ATOM     46  C   UNL A   1      34.715  34.162  29.522  1.00  0.00     0.060 A 
BRANCH  46  47
ATOM     47  S   UNL A   1      33.371  34.932  28.594  1.00  0.00     0.124 S 
ATOM     48  O   UNL A   1      32.549  35.481  29.668  1.00  0.00    -0.237 OA
ATOM     49  O   UNL A   1      34.083  35.912  27.777  1.00  0.00    -0.237 OA
ATOM     50  O   UNL A   1      32.782  33.817  27.859  1.00  0.00    -0.744 OA
ENDBRANCH  46  47
ENDBRANCH  25  39
BRANCH  26  51
ATOM     51  C   UNL A   1      44.227  28.302  36.102  1.00  0.00     0.058 A 
ATOM     52  C   UNL A   1      45.566  28.680  35.927  1.00  0.00     0.135 A 
ATOM     53  C   UNL A   1      43.972  27.240  36.991  1.00  0.00     0.135 A 
ATOM     54  F   UNL A   1      45.874  29.686  35.094  1.00  0.00    -0.206 F 
ATOM     55  C   UNL A   1      46.607  28.014  36.571  1.00  0.00     0.059 A 
ATOM     56  C   UNL A   1      44.990  26.584  37.674  1.00  0.00     0.059 A 
ATOM     57  F   UNL A   1      42.711  26.837  37.217  1.00  0.00    -0.206 F 
ATOM     58  C   UNL A   1      46.308  26.962  37.440  1.00  0.00     0.060 A 
BRANCH  58  59
ATOM     59  S   UNL A   1      47.663  26.096  38.263  1.00  0.00     0.124 S 
ATOM     60  O   UNL A   1      47.883  24.972  37.359  1.00  0.00    -0.237 OA
ATOM     61  O   UNL A   1      48.711  27.113  38.283  1.00  0.00    -0.237 OA
ATOM     62  O   UNL A   1      47.103  25.756  39.567  1.00  0.00    -0.744 OA
ENDBRANCH  58  59
ENDBRANCH  26  51
BRANCH  38  63
ATOM     63  C   UNL A   1      40.246  33.918  37.242  1.00  0.00     0.058 A 
ATOM     64  C   UNL A   1      41.065  35.053  37.321  1.00  0.00     0.135 A 
ATOM     65  C   UNL A   1      39.311  33.696  38.264  1.00  0.00     0.135 A 
ATOM     66  F   UNL A   1      41.979  35.297  36.368  1.00  0.00    -0.206 F 
ATOM     67  C   UNL A   1      40.983  35.924  38.397  1.00  0.00     0.059 A 
ATOM     68  C   UNL A   1      39.185  34.573  39.330  1.00  0.00     0.059 A 
ATOM     69  F   UNL A   1      38.499  32.627  38.220  1.00  0.00    -0.206 F 
ATOM     70  C   UNL A   1      40.037  35.675  39.396  1.00  0.00     0.060 A 
BRANCH  70  71
ATOM     71  S   UNL A   1      39.920  36.829  40.774  1.00  0.00     0.124 S 
ATOM     72  O   UNL A   1      38.632  36.462  41.353  1.00  0.00    -0.237 OA
ATOM     73  O   UNL A   1      41.095  36.484  41.570  1.00  0.00    -0.237 OA
ATOM     74  O   UNL A   1      39.969  38.136  40.128  1.00  0.00    -0.744 OA
ENDBRANCH  70  71
ENDBRANCH  38  63
ENDBRANCH  12  13
ENDBRANCH   5   7
ENDBRANCH   4   5
ENDBRANCH   3   4
ENDBRANCH   2   3
ENDBRANCH   1   2
BRANCH   1  75
ATOM     75  C   UNL A   1      37.747  23.586  25.333  1.00  0.00     0.202 C 
BRANCH  75  76
ATOM     76  C   UNL A   1      36.238  23.448  25.286  1.00  0.00     0.261 C 
BRANCH  76  77
ATOM     77  O   UNL A   1      35.644  24.598  25.899  1.00  0.00    -0.463 OA
BRANCH  77  78
ATOM     78  C   UNL A   1      34.294  24.649  26.055  1.00  0.00     0.314 C 
ATOM     79  O   UNL A   1      33.613  23.810  26.627  1.00  0.00    -0.252 OA
BRANCH  78  80
ATOM     80  C   UNL A   1      33.715  25.872  25.360  1.00  0.00     0.144 C 
BRANCH  80  81
ATOM     81  C   UNL A   1      33.365  25.867  23.862  1.00  0.00    -0.033 A 
ATOM     82  C   UNL A   1      33.654  26.965  23.032  1.00  0.00     0.004 A 
ATOM     83  C   UNL A   1      32.825  24.746  23.220  1.00  0.00     0.004 A 
ATOM     84  C   UNL A   1      33.200  27.049  21.715  1.00  0.00     0.000 A 
ATOM     85  C   UNL A   1      32.361  24.817  21.897  1.00  0.00     0.000 A 
ATOM     86  C   UNL A   1      32.511  25.987  21.158  1.00  0.00     0.000 A 
ENDBRANCH  80  81
BRANCH  80  87
ATOM     87  C   UNL A   1      32.674  26.474  26.354  1.00  0.00     0.110 C 
BRANCH  87  88
ATOM     88  C   UNL A   1      33.143  27.869  26.807  1.00  0.00    -0.036 A 
ATOM     89  C   UNL A   1      32.260  28.834  27.293  1.00  0.00     0.004 A 
ATOM     90  C   UNL A   1      34.504  28.233  26.670  1.00  0.00     0.004 A 
ATOM     91  C   UNL A   1      32.689  30.150  27.474  1.00  0.00     0.000 A 
ATOM     92  C   UNL A   1      34.920  29.552  26.803  1.00  0.00     0.000 A 
ATOM     93  C   UNL A   1      34.002  30.517  27.184  1.00  0.00     0.000 A 
ENDBRANCH  87  88
BRANCH  87  94
ATOM     94  C   UNL A   1      31.136  26.342  25.993  1.00  0.00     0.171 C 
ATOM     95  O   UNL A   1      30.400  25.644  26.703  1.00  0.00    -0.293 OA
BRANCH  94  96
ATOM     96  C   UNL A   1      30.419  27.090  24.893  1.00  0.00     0.018 A 
ATOM     97  C   UNL A   1      29.311  26.483  24.290  1.00  0.00     0.012 A 
ATOM     98  C   UNL A   1      30.796  28.343  24.403  1.00  0.00     0.012 A 
ATOM     99  C   UNL A   1      28.560  27.160  23.315  1.00  0.00     0.001 A 
ATOM    100  C   UNL A   1      30.053  29.030  23.438  1.00  0.00     0.001 A 
ATOM    101  C   UNL A   1      28.919  28.444  22.905  1.00  0.00     0.000 A 
ENDBRANCH  94  96
ENDBRANCH  87  94
ENDBRANCH  80  87
ENDBRANCH  78  80
ENDBRANCH  77  78
ENDBRANCH  76  77
ENDBRANCH  75  76
ENDBRANCH   1  75
TORSDOF 22
ENDMDL
