MODEL 1
REMARK VINA RESULT:      -9.2      0.000      0.000
REMARK SMILES O=C(CCNC(=O)C1CCCC1)OCCOCCOC(=O)c1ccc(-c2c3nc(c(-c4c(F)cc(S(=O)(=O)[O-])cc4F)c4ccc([nH]4)c(-c4c(F)cc(S(=O)(=O)[O-])cc4F)c4nc(c(-c5c(F)cc(S(=O)(=O)[O-])cc5F)c5ccc2[nH]5)C=C4)C=C3)cc1
REMARK SMILES IDX 16 1 15 2 14 3 13 4 2 5 1 6 3 7 4 8 5 9 6 10 7 12 8 13 9 14
REMARK SMILES IDX 12 15 10 16 11 17 17 18 18 19 19 20 20 21 21 22 22 23 23 24
REMARK SMILES IDX 87 25 24 26 86 27 25 28 26 29 27 30 80 31 28 32 85 33 79 34
REMARK SMILES IDX 81 35 29 36 84 37 78 38 77 39 30 41 64 42 43 43 63 44 44 45
REMARK SMILES IDX 47 46 62 47 82 48 45 49 46 50 61 52 83 53 48 54 31 55 32 56
REMARK SMILES IDX 41 57 33 58 34 59 40 60 42 61 35 62 36 63 37 64 38 65 39 66
REMARK SMILES IDX 65 67 66 68 75 69 67 70 68 71 74 72 76 73 69 74 70 75 71 76
REMARK SMILES IDX 72 77 73 78 49 79 50 80 59 81 51 82 52 83 58 84 60 85 53 86
REMARK SMILES IDX 54 87 55 88 56 89 57 90
REMARK H PARENT 5 11 81 40 47 51
REMARK Flexibility Score: inf
ROOT
ATOM      1  O   UNL A   1      35.724  33.677  33.928  1.00  0.00    -0.374 OA
ENDROOT
BRANCH   1   2
ATOM      2  C   UNL A   1      34.506  34.310  33.570  1.00  0.00     0.202 C 
BRANCH   2   3
ATOM      3  C   UNL A   1      34.418  35.836  33.551  1.00  0.00     0.261 C 
BRANCH   3   4
ATOM      4  O   UNL A   1      34.162  36.527  32.308  1.00  0.00    -0.463 OA
BRANCH   4   5
ATOM      5  C   UNL A   1      33.091  36.576  31.502  1.00  0.00     0.307 C 
ATOM      6  O   UNL A   1      31.976  36.356  31.976  1.00  0.00    -0.252 OA
BRANCH   5   7
ATOM      7  C   UNL A   1      33.224  36.885  30.041  1.00  0.00     0.144 C 
BRANCH   7   8
ATOM      8  C   UNL A   1      33.220  35.654  29.160  1.00  0.00     0.127 C 
BRANCH   8   9
ATOM      9  N   UNL A   1      33.395  34.428  29.915  1.00  0.00    -0.355 N 
ATOM     10  C   UNL A   1      34.480  33.614  30.053  1.00  0.00     0.223 C 
ATOM     11  H   UNL A   1      32.598  34.134  30.410  1.00  0.00     0.163 HD
ATOM     12  O   UNL A   1      34.303  32.523  30.598  1.00  0.00    -0.275 OA
BRANCH  10  13
ATOM     13  C   UNL A   1      35.836  34.049  29.526  1.00  0.00     0.078 C 
ATOM     14  C   UNL A   1      36.846  34.199  30.664  1.00  0.00     0.013 C 
ATOM     15  C   UNL A   1      36.535  33.016  28.643  1.00  0.00     0.013 C 
ATOM     16  C   UNL A   1      38.181  34.274  29.940  1.00  0.00     0.001 C 
ATOM     17  C   UNL A   1      38.017  33.395  28.700  1.00  0.00     0.001 C 
ENDBRANCH  10  13
ENDBRANCH   8   9
ENDBRANCH   7   8
ENDBRANCH   5   7
ENDBRANCH   4   5
ENDBRANCH   3   4
ENDBRANCH   2   3
ENDBRANCH   1   2
BRANCH   1  18
ATOM     18  C   UNL A   1      35.916  32.310  33.593  1.00  0.00     0.202 C 
BRANCH  18  19
ATOM     19  C   UNL A   1      37.360  31.917  33.306  1.00  0.00     0.261 C 
BRANCH  19  20
ATOM     20  O   UNL A   1      37.493  30.490  33.271  1.00  0.00    -0.460 OA
BRANCH  20  21
ATOM     21  C   UNL A   1      37.284  29.910  32.067  1.00  0.00     0.338 C 
ATOM     22  O   UNL A   1      36.216  29.611  31.559  1.00  0.00    -0.246 OA
BRANCH  21  23
ATOM     23  C   UNL A   1      38.572  29.874  31.357  1.00  0.00     0.060 A 
ATOM     24  C   UNL A   1      38.591  30.153  29.983  1.00  0.00     0.016 A 
ATOM     25  C   UNL A   1      39.747  29.564  32.041  1.00  0.00     0.016 A 
ATOM     26  C   UNL A   1      39.793  30.104  29.283  1.00  0.00     0.010 A 
ATOM     27  C   UNL A   1      40.946  29.499  31.336  1.00  0.00     0.010 A 
ATOM     28  C   UNL A   1      40.968  29.745  29.951  1.00  0.00    -0.014 A 
BRANCH  28  29
ATOM     29  C   UNL A   1      42.209  29.473  29.199  1.00  0.00     0.031 A 
ATOM     30  C   UNL A   1      42.409  28.097  28.632  1.00  0.00     0.074 A 
ATOM     31  C   UNL A   1      43.156  30.420  29.077  1.00  0.00     0.049 A 
ATOM     32  N   UNL A   1      43.471  27.574  28.084  1.00  0.00    -0.248 NA
ATOM     33  C   UNL A   1      41.257  27.181  28.712  1.00  0.00     0.031 C 
ATOM     34  C   UNL A   1      43.045  31.794  29.564  1.00  0.00     0.029 A 
ATOM     35  N   UNL A   1      44.414  30.354  28.534  1.00  0.00    -0.354 N 
ATOM     36  C   UNL A   1      43.128  26.262  27.777  1.00  0.00     0.074 A 
ATOM     37  C   UNL A   1      41.764  26.064  28.212  1.00  0.00     0.031 C 
ATOM     38  C   UNL A   1      44.203  32.434  29.330  1.00  0.00     0.029 A 
ATOM     39  C   UNL A   1      45.148  31.503  28.718  1.00  0.00     0.049 A 
ATOM     40  H   UNL A   1      44.758  29.564  28.059  1.00  0.00     0.167 HD
ATOM     41  C   UNL A   1      43.892  25.314  27.188  1.00  0.00     0.037 A 
ATOM     42  C   UNL A   1      46.449  31.750  28.464  1.00  0.00     0.037 A 
ATOM     43  C   UNL A   1      45.245  25.539  26.753  1.00  0.00     0.049 A 
ATOM     44  C   UNL A   1      47.294  30.658  27.859  1.00  0.00     0.074 A 
ATOM     45  C   UNL A   1      46.089  24.665  26.092  1.00  0.00     0.029 A 
ATOM     46  N   UNL A   1      45.954  26.715  26.949  1.00  0.00    -0.354 N 
ATOM     47  N   UNL A   1      46.947  29.437  27.522  1.00  0.00    -0.248 NA
ATOM     48  C   UNL A   1      48.708  30.971  27.604  1.00  0.00     0.031 C 
ATOM     49  C   UNL A   1      47.331  25.289  25.950  1.00  0.00     0.029 A 
ATOM     50  C   UNL A   1      47.242  26.575  26.461  1.00  0.00     0.049 A 
ATOM     51  H   UNL A   1      45.595  27.528  27.372  1.00  0.00     0.167 HD
ATOM     52  C   UNL A   1      48.091  28.848  26.992  1.00  0.00     0.074 A 
ATOM     53  C   UNL A   1      49.136  29.849  27.041  1.00  0.00     0.031 C 
ATOM     54  C   UNL A   1      48.263  27.592  26.510  1.00  0.00     0.037 A 
BRANCH  41  55
ATOM     55  C   UNL A   1      43.306  23.942  27.011  1.00  0.00     0.058 A 
ATOM     56  C   UNL A   1      42.766  23.514  25.788  1.00  0.00     0.135 A 
ATOM     57  C   UNL A   1      43.343  23.019  28.069  1.00  0.00     0.135 A 
ATOM     58  F   UNL A   1      42.685  24.361  24.750  1.00  0.00    -0.206 F 
ATOM     59  C   UNL A   1      42.274  22.222  25.624  1.00  0.00     0.059 A 
ATOM     60  C   UNL A   1      42.884  21.714  27.920  1.00  0.00     0.059 A 
ATOM     61  F   UNL A   1      43.840  23.379  29.263  1.00  0.00    -0.206 F 
ATOM     62  C   UNL A   1      42.345  21.328  26.694  1.00  0.00     0.060 A 
BRANCH  62  63
ATOM     63  S   UNL A   1      41.736  19.646  26.451  1.00  0.00     0.124 S 
ATOM     64  O   UNL A   1      42.459  19.243  25.249  1.00  0.00    -0.237 OA
ATOM     65  O   UNL A   1      42.147  18.986  27.687  1.00  0.00    -0.237 OA
ATOM     66  O   UNL A   1      40.297  19.823  26.287  1.00  0.00    -0.744 OA
ENDBRANCH  62  63
ENDBRANCH  41  55
BRANCH  42  67
ATOM     67  C   UNL A   1      47.042  33.068  28.818  1.00  0.00     0.058 A 
ATOM     68  C   UNL A   1      47.725  33.256  30.030  1.00  0.00     0.135 A 
ATOM     69  C   UNL A   1      46.927  34.173  27.958  1.00  0.00     0.135 A 
ATOM     70  F   UNL A   1      47.854  32.236  30.891  1.00  0.00    -0.206 F 
ATOM     71  C   UNL A   1      48.251  34.494  30.387  1.00  0.00     0.059 A 
ATOM     72  C   UNL A   1      47.472  35.412  28.279  1.00  0.00     0.059 A 
ATOM     73  F   UNL A   1      46.295  34.047  26.781  1.00  0.00    -0.206 F 
ATOM     74  C   UNL A   1      48.119  35.567  29.503  1.00  0.00     0.060 A 
BRANCH  74  75
ATOM     75  S   UNL A   1      48.829  37.162  29.966  1.00  0.00     0.124 S 
ATOM     76  O   UNL A   1      50.135  36.764  30.479  1.00  0.00    -0.237 OA
ATOM     77  O   UNL A   1      48.833  37.876  28.693  1.00  0.00    -0.237 OA
ATOM     78  O   UNL A   1      47.888  37.672  30.959  1.00  0.00    -0.744 OA
ENDBRANCH  74  75
ENDBRANCH  42  67
BRANCH  54  79
ATOM     79  C   UNL A   1      49.620  27.230  25.968  1.00  0.00     0.058 A 
ATOM     80  C   UNL A   1      50.629  26.712  26.792  1.00  0.00     0.135 A 
ATOM     81  C   UNL A   1      49.877  27.317  24.589  1.00  0.00     0.135 A 
ATOM     82  F   UNL A   1      50.437  26.616  28.117  1.00  0.00    -0.206 F 
ATOM     83  C   UNL A   1      51.852  26.301  26.270  1.00  0.00     0.059 A 
ATOM     84  C   UNL A   1      51.080  26.883  24.042  1.00  0.00     0.059 A 
ATOM     85  F   UNL A   1      48.940  27.797  23.755  1.00  0.00    -0.206 F 
ATOM     86  C   UNL A   1      52.063  26.381  24.892  1.00  0.00     0.060 A 
BRANCH  86  87
ATOM     87  S   UNL A   1      53.629  25.780  24.224  1.00  0.00     0.124 S 
ATOM     88  O   UNL A   1      53.619  24.387  24.656  1.00  0.00    -0.237 OA
ATOM     89  O   UNL A   1      53.461  26.002  22.792  1.00  0.00    -0.237 OA
ATOM     90  O   UNL A   1      54.624  26.630  24.873  1.00  0.00    -0.744 OA
ENDBRANCH  86  87
ENDBRANCH  54  79
ENDBRANCH  28  29
ENDBRANCH  21  23
ENDBRANCH  20  21
ENDBRANCH  19  20
ENDBRANCH  18  19
ENDBRANCH   1  18
TORSDOF 20
ENDMDL
MODEL 2
REMARK VINA RESULT:      -9.1      7.075     13.718
REMARK SMILES O=C(CCNC(=O)C1CCCC1)OCCOCCOC(=O)c1ccc(-c2c3nc(c(-c4c(F)cc(S(=O)(=O)[O-])cc4F)c4ccc([nH]4)c(-c4c(F)cc(S(=O)(=O)[O-])cc4F)c4nc(c(-c5c(F)cc(S(=O)(=O)[O-])cc5F)c5ccc2[nH]5)C=C4)C=C3)cc1
REMARK SMILES IDX 16 1 15 2 14 3 13 4 2 5 1 6 3 7 4 8 5 9 6 10 7 12 8 13 9 14
REMARK SMILES IDX 12 15 10 16 11 17 17 18 18 19 19 20 20 21 21 22 22 23 23 24
REMARK SMILES IDX 87 25 24 26 86 27 25 28 26 29 27 30 80 31 28 32 85 33 79 34
REMARK SMILES IDX 81 35 29 36 84 37 78 38 77 39 30 41 64 42 43 43 63 44 44 45
REMARK SMILES IDX 47 46 62 47 82 48 45 49 46 50 61 52 83 53 48 54 31 55 32 56
REMARK SMILES IDX 41 57 33 58 34 59 40 60 42 61 35 62 36 63 37 64 38 65 39 66
REMARK SMILES IDX 65 67 66 68 75 69 67 70 68 71 74 72 76 73 69 74 70 75 71 76
REMARK SMILES IDX 72 77 73 78 49 79 50 80 59 81 51 82 52 83 58 84 60 85 53 86
REMARK SMILES IDX 54 87 55 88 56 89 57 90
REMARK H PARENT 5 11 81 40 47 51
REMARK Flexibility Score: inf
ROOT
ATOM      1  O   UNL A   1      37.638  23.332  25.226  1.00  0.00    -0.374 OA
ENDROOT
BRANCH   1   2
ATOM      2  C   UNL A   1      36.338  23.729  25.636  1.00  0.00     0.202 C 
BRANCH   2   3
ATOM      3  C   UNL A   1      35.335  22.677  26.109  1.00  0.00     0.261 C 
BRANCH   3   4
ATOM      4  O   UNL A   1      34.123  22.448  25.357  1.00  0.00    -0.463 OA
BRANCH   4   5
ATOM      5  C   UNL A   1      32.911  21.994  25.707  1.00  0.00     0.307 C 
ATOM      6  O   UNL A   1      32.490  22.227  26.841  1.00  0.00    -0.252 OA
BRANCH   5   7
ATOM      7  C   UNL A   1      32.065  21.204  24.754  1.00  0.00     0.144 C 
BRANCH   7   8
ATOM      8  C   UNL A   1      32.730  20.957  23.417  1.00  0.00     0.127 C 
BRANCH   8   9
ATOM      9  N   UNL A   1      32.121  19.864  22.684  1.00  0.00    -0.355 N 
ATOM     10  C   UNL A   1      32.369  18.524  22.713  1.00  0.00     0.223 C 
ATOM     11  H   UNL A   1      31.409  20.135  22.061  1.00  0.00     0.163 HD
ATOM     12  O   UNL A   1      31.841  17.832  21.842  1.00  0.00    -0.275 OA
BRANCH  10  13
ATOM     13  C   UNL A   1      33.284  17.937  23.774  1.00  0.00     0.078 C 
ATOM     14  C   UNL A   1      32.476  17.303  24.907  1.00  0.00     0.013 C 
ATOM     15  C   UNL A   1      34.121  16.748  23.304  1.00  0.00     0.013 C 
ATOM     16  C   UNL A   1      33.510  16.478  25.655  1.00  0.00     0.001 C 
ATOM     17  C   UNL A   1      34.499  16.008  24.589  1.00  0.00     0.001 C 
ENDBRANCH  10  13
ENDBRANCH   8   9
ENDBRANCH   7   8
ENDBRANCH   5   7
ENDBRANCH   4   5
ENDBRANCH   3   4
ENDBRANCH   2   3
ENDBRANCH   1   2
BRANCH   1  18
ATOM     18  C   UNL A   1      38.201  22.146  25.769  1.00  0.00     0.202 C 
BRANCH  18  19
ATOM     19  C   UNL A   1      39.495  22.348  26.546  1.00  0.00     0.261 C 
BRANCH  19  20
ATOM     20  O   UNL A   1      39.562  23.681  27.069  1.00  0.00    -0.460 OA
BRANCH  20  21
ATOM     21  C   UNL A   1      40.807  24.177  27.256  1.00  0.00     0.338 C 
ATOM     22  O   UNL A   1      41.841  23.810  26.724  1.00  0.00    -0.246 OA
BRANCH  21  23
ATOM     23  C   UNL A   1      40.689  25.392  28.076  1.00  0.00     0.060 A 
ATOM     24  C   UNL A   1      41.786  26.262  28.153  1.00  0.00     0.016 A 
ATOM     25  C   UNL A   1      39.507  25.668  28.764  1.00  0.00     0.016 A 
ATOM     26  C   UNL A   1      41.708  27.407  28.940  1.00  0.00     0.010 A 
ATOM     27  C   UNL A   1      39.436  26.806  29.563  1.00  0.00     0.010 A 
ATOM     28  C   UNL A   1      40.544  27.665  29.672  1.00  0.00    -0.014 A 
BRANCH  28  29
ATOM     29  C   UNL A   1      40.512  28.746  30.678  1.00  0.00     0.031 A 
ATOM     30  C   UNL A   1      41.384  28.613  31.892  1.00  0.00     0.074 A 
ATOM     31  C   UNL A   1      39.678  29.791  30.531  1.00  0.00     0.049 A 
ATOM     32  N   UNL A   1      41.409  29.338  32.977  1.00  0.00    -0.248 NA
ATOM     33  C   UNL A   1      42.348  27.498  31.888  1.00  0.00     0.031 C 
ATOM     34  C   UNL A   1      38.815  30.027  29.374  1.00  0.00     0.029 A 
ATOM     35  N   UNL A   1      39.399  30.832  31.380  1.00  0.00    -0.354 N 
ATOM     36  C   UNL A   1      42.368  28.755  33.797  1.00  0.00     0.074 A 
ATOM     37  C   UNL A   1      42.894  27.609  33.091  1.00  0.00     0.031 C 
ATOM     38  C   UNL A   1      38.074  31.125  29.602  1.00  0.00     0.029 A 
ATOM     39  C   UNL A   1      38.379  31.640  30.934  1.00  0.00     0.049 A 
ATOM     40  H   UNL A   1      39.880  30.985  32.224  1.00  0.00     0.167 HD
ATOM     41  C   UNL A   1      42.765  29.146  35.029  1.00  0.00     0.037 A 
ATOM     42  C   UNL A   1      37.737  32.648  31.558  1.00  0.00     0.037 A 
ATOM     43  C   UNL A   1      42.234  30.299  35.707  1.00  0.00     0.049 A 
ATOM     44  C   UNL A   1      38.161  33.029  32.954  1.00  0.00     0.074 A 
ATOM     45  C   UNL A   1      42.606  30.819  36.933  1.00  0.00     0.029 A 
ATOM     46  N   UNL A   1      41.208  31.098  35.225  1.00  0.00    -0.354 N 
ATOM     47  N   UNL A   1      39.106  32.508  33.700  1.00  0.00    -0.248 NA
ATOM     48  C   UNL A   1      37.430  34.131  33.596  1.00  0.00     0.031 C 
ATOM     49  C   UNL A   1      41.759  31.892  37.223  1.00  0.00     0.029 A 
ATOM     50  C   UNL A   1      40.903  32.083  36.149  1.00  0.00     0.049 A 
ATOM     51  H   UNL A   1      40.762  30.983  34.354  1.00  0.00     0.167 HD
ATOM     52  C   UNL A   1      39.100  33.234  34.888  1.00  0.00     0.074 A 
ATOM     53  C   UNL A   1      38.066  34.240  34.755  1.00  0.00     0.031 C 
ATOM     54  C   UNL A   1      39.876  33.083  35.989  1.00  0.00     0.037 A 
BRANCH  41  55
ATOM     55  C   UNL A   1      43.792  28.311  35.741  1.00  0.00     0.058 A 
ATOM     56  C   UNL A   1      45.168  28.537  35.594  1.00  0.00     0.135 A 
ATOM     57  C   UNL A   1      43.384  27.307  36.635  1.00  0.00     0.135 A 
ATOM     58  F   UNL A   1      45.614  29.469  34.737  1.00  0.00    -0.206 F 
ATOM     59  C   UNL A   1      46.106  27.789  36.300  1.00  0.00     0.059 A 
ATOM     60  C   UNL A   1      44.302  26.568  37.373  1.00  0.00     0.059 A 
ATOM     61  F   UNL A   1      42.079  27.043  36.805  1.00  0.00    -0.206 F 
ATOM     62  C   UNL A   1      45.662  26.812  37.193  1.00  0.00     0.060 A 
BRANCH  62  63
ATOM     63  S   UNL A   1      46.892  25.879  38.129  1.00  0.00     0.124 S 
ATOM     64  O   UNL A   1      46.847  24.582  37.459  1.00  0.00    -0.237 OA
ATOM     65  O   UNL A   1      48.106  26.661  37.913  1.00  0.00    -0.237 OA
ATOM     66  O   UNL A   1      46.371  25.898  39.492  1.00  0.00    -0.744 OA
ENDBRANCH  62  63
ENDBRANCH  41  55
BRANCH  42  67
ATOM     67  C   UNL A   1      36.602  33.339  30.888  1.00  0.00     0.058 A 
ATOM     68  C   UNL A   1      35.278  33.140  31.309  1.00  0.00     0.135 A 
ATOM     69  C   UNL A   1      36.815  34.205  29.802  1.00  0.00     0.135 A 
ATOM     70  F   UNL A   1      35.020  32.315  32.335  1.00  0.00    -0.206 F 
ATOM     71  C   UNL A   1      34.208  33.752  30.666  1.00  0.00     0.059 A 
ATOM     72  C   UNL A   1      35.764  34.853  29.163  1.00  0.00     0.059 A 
ATOM     73  F   UNL A   1      38.062  34.442  29.364  1.00  0.00    -0.206 F 
ATOM     74  C   UNL A   1      34.461  34.608  29.592  1.00  0.00     0.060 A 
BRANCH  74  75
ATOM     75  S   UNL A   1      33.064  35.418  28.782  1.00  0.00     0.124 S 
ATOM     76  O   UNL A   1      32.295  35.891  29.928  1.00  0.00    -0.237 OA
ATOM     77  O   UNL A   1      33.726  36.448  27.988  1.00  0.00    -0.237 OA
ATOM     78  O   UNL A   1      32.453  34.340  28.012  1.00  0.00    -0.744 OA
ENDBRANCH  74  75
ENDBRANCH  42  67
BRANCH  54  79
ATOM     79  C   UNL A   1      39.666  34.040  37.131  1.00  0.00     0.058 A 
ATOM     80  C   UNL A   1      38.870  33.706  38.236  1.00  0.00     0.135 A 
ATOM     81  C   UNL A   1      40.346  35.269  37.159  1.00  0.00     0.135 A 
ATOM     82  F   UNL A   1      38.192  32.547  38.256  1.00  0.00    -0.206 F 
ATOM     83  C   UNL A   1      38.747  34.562  39.326  1.00  0.00     0.059 A 
ATOM     84  C   UNL A   1      40.263  36.125  38.251  1.00  0.00     0.059 A 
ATOM     85  F   UNL A   1      41.129  35.632  36.130  1.00  0.00    -0.206 F 
ATOM     86  C   UNL A   1      39.457  35.764  39.329  1.00  0.00     0.060 A 
BRANCH  86  87
ATOM     87  S   UNL A   1      39.339  36.831  40.781  1.00  0.00     0.124 S 
ATOM     88  O   UNL A   1      38.541  36.011  41.686  1.00  0.00    -0.237 OA
ATOM     89  O   UNL A   1      40.740  37.006  41.151  1.00  0.00    -0.237 OA
ATOM     90  O   UNL A   1      38.676  38.028  40.271  1.00  0.00    -0.744 OA
ENDBRANCH  86  87
ENDBRANCH  54  79
ENDBRANCH  28  29
ENDBRANCH  21  23
ENDBRANCH  20  21
ENDBRANCH  19  20
ENDBRANCH  18  19
ENDBRANCH   1  18
TORSDOF 20
ENDMDL
MODEL 3
REMARK VINA RESULT:      -8.9      5.129     11.236
REMARK SMILES O=C(CCNC(=O)C1CCCC1)OCCOCCOC(=O)c1ccc(-c2c3nc(c(-c4c(F)cc(S(=O)(=O)[O-])cc4F)c4ccc([nH]4)c(-c4c(F)cc(S(=O)(=O)[O-])cc4F)c4nc(c(-c5c(F)cc(S(=O)(=O)[O-])cc5F)c5ccc2[nH]5)C=C4)C=C3)cc1
REMARK SMILES IDX 16 1 15 2 14 3 13 4 2 5 1 6 3 7 4 8 5 9 6 10 7 12 8 13 9 14
REMARK SMILES IDX 12 15 10 16 11 17 17 18 18 19 19 20 20 21 21 22 22 23 23 24
REMARK SMILES IDX 87 25 24 26 86 27 25 28 26 29 27 30 80 31 28 32 85 33 79 34
REMARK SMILES IDX 81 35 29 36 84 37 78 38 77 39 30 41 64 42 43 43 63 44 44 45
REMARK SMILES IDX 47 46 62 47 82 48 45 49 46 50 61 52 83 53 48 54 31 55 32 56
REMARK SMILES IDX 41 57 33 58 34 59 40 60 42 61 35 62 36 63 37 64 38 65 39 66
REMARK SMILES IDX 65 67 66 68 75 69 67 70 68 71 74 72 76 73 69 74 70 75 71 76
REMARK SMILES IDX 72 77 73 78 49 79 50 80 59 81 51 82 52 83 58 84 60 85 53 86
REMARK SMILES IDX 54 87 55 88 56 89 57 90
REMARK H PARENT 5 11 81 40 47 51
REMARK Flexibility Score: inf
ROOT
ATOM      1  O   UNL A   1      31.291  28.082  25.845  1.00  0.00    -0.374 OA
ENDROOT
BRANCH   1   2
ATOM      2  C   UNL A   1      31.253  27.067  24.855  1.00  0.00     0.202 C 
BRANCH   2   3
ATOM      3  C   UNL A   1      30.662  25.697  25.191  1.00  0.00     0.261 C 
BRANCH   3   4
ATOM      4  O   UNL A   1      31.245  24.503  24.624  1.00  0.00    -0.463 OA
BRANCH   4   5
ATOM      5  C   UNL A   1      31.497  23.288  25.132  1.00  0.00     0.307 C 
ATOM      6  O   UNL A   1      30.596  22.688  25.720  1.00  0.00    -0.252 OA
BRANCH   5   7
ATOM      7  C   UNL A   1      32.849  22.651  25.006  1.00  0.00     0.144 C 
BRANCH   7   8
ATOM      8  C   UNL A   1      32.838  21.157  25.250  1.00  0.00     0.127 C 
BRANCH   8   9
ATOM      9  N   UNL A   1      32.310  20.412  24.124  1.00  0.00    -0.355 N 
ATOM     10  C   UNL A   1      32.577  19.149  23.687  1.00  0.00     0.223 C 
ATOM     11  H   UNL A   1      31.647  20.900  23.584  1.00  0.00     0.163 HD
ATOM     12  O   UNL A   1      32.134  18.826  22.584  1.00  0.00    -0.275 OA
BRANCH  10  13
ATOM     13  C   UNL A   1      33.410  18.205  24.536  1.00  0.00     0.078 C 
ATOM     14  C   UNL A   1      32.524  17.205  25.280  1.00  0.00     0.013 C 
ATOM     15  C   UNL A   1      34.315  17.265  23.740  1.00  0.00     0.013 C 
ATOM     16  C   UNL A   1      33.509  16.154  25.763  1.00  0.00     0.001 C 
ATOM     17  C   UNL A   1      34.599  16.101  24.692  1.00  0.00     0.001 C 
ENDBRANCH  10  13
ENDBRANCH   8   9
ENDBRANCH   7   8
ENDBRANCH   5   7
ENDBRANCH   4   5
ENDBRANCH   3   4
ENDBRANCH   2   3
ENDBRANCH   1   2
BRANCH   1  18
ATOM     18  C   UNL A   1      32.329  29.051  25.803  1.00  0.00     0.202 C 
BRANCH  18  19
ATOM     19  C   UNL A   1      33.715  28.521  26.147  1.00  0.00     0.261 C 
BRANCH  19  20
ATOM     20  O   UNL A   1      34.014  28.762  27.529  1.00  0.00    -0.460 OA
BRANCH  20  21
ATOM     21  C   UNL A   1      34.519  29.984  27.815  1.00  0.00     0.338 C 
ATOM     22  O   UNL A   1      33.910  31.036  27.914  1.00  0.00    -0.246 OA
BRANCH  21  23
ATOM     23  C   UNL A   1      35.929  29.809  28.194  1.00  0.00     0.060 A 
ATOM     24  C   UNL A   1      36.916  29.975  27.212  1.00  0.00     0.016 A 
ATOM     25  C   UNL A   1      36.273  29.482  29.506  1.00  0.00     0.016 A 
ATOM     26  C   UNL A   1      38.256  29.794  27.539  1.00  0.00     0.010 A 
ATOM     27  C   UNL A   1      37.613  29.285  29.827  1.00  0.00     0.010 A 
ATOM     28  C   UNL A   1      38.605  29.416  28.840  1.00  0.00    -0.014 A 
BRANCH  28  29
ATOM     29  C   UNL A   1      39.988  29.006  29.159  1.00  0.00     0.031 A 
ATOM     30  C   UNL A   1      40.933  30.046  29.688  1.00  0.00     0.074 A 
ATOM     31  C   UNL A   1      40.398  27.747  28.927  1.00  0.00     0.049 A 
ATOM     32  N   UNL A   1      42.221  29.971  29.883  1.00  0.00    -0.248 NA
ATOM     33  C   UNL A   1      40.346  31.355  30.025  1.00  0.00     0.031 C 
ATOM     34  C   UNL A   1      39.550  26.657  28.445  1.00  0.00     0.029 A 
ATOM     35  N   UNL A   1      41.645  27.184  29.034  1.00  0.00    -0.354 N 
ATOM     36  C   UNL A   1      42.605  31.226  30.340  1.00  0.00     0.074 A 
ATOM     37  C   UNL A   1      41.417  32.049  30.381  1.00  0.00     0.031 C 
ATOM     38  C   UNL A   1      40.309  25.563  28.263  1.00  0.00     0.029 A 
ATOM     39  C   UNL A   1      41.699  25.889  28.573  1.00  0.00     0.049 A 
ATOM     40  H   UNL A   1      42.423  27.659  29.404  1.00  0.00     0.167 HD
ATOM     41  C   UNL A   1      43.842  31.647  30.689  1.00  0.00     0.037 A 
ATOM     42  C   UNL A   1      42.762  25.083  28.380  1.00  0.00     0.037 A 
ATOM     43  C   UNL A   1      45.009  30.806  30.651  1.00  0.00     0.049 A 
ATOM     44  C   UNL A   1      44.138  25.595  28.723  1.00  0.00     0.074 A 
ATOM     45  C   UNL A   1      46.300  31.113  31.037  1.00  0.00     0.029 A 
ATOM     46  N   UNL A   1      45.028  29.498  30.185  1.00  0.00    -0.354 N 
ATOM     47  N   UNL A   1      44.486  26.765  29.206  1.00  0.00    -0.248 NA
ATOM     48  C   UNL A   1      45.267  24.682  28.492  1.00  0.00     0.031 C 
ATOM     49  C   UNL A   1      47.113  30.015  30.742  1.00  0.00     0.029 A 
ATOM     50  C   UNL A   1      46.318  29.000  30.234  1.00  0.00     0.049 A 
ATOM     51  H   UNL A   1      44.240  29.000  29.868  1.00  0.00     0.167 HD
ATOM     52  C   UNL A   1      45.869  26.719  29.360  1.00  0.00     0.074 A 
ATOM     53  C   UNL A   1      46.291  25.401  28.932  1.00  0.00     0.031 C 
ATOM     54  C   UNL A   1      46.713  27.678  29.813  1.00  0.00     0.037 A 
BRANCH  41  55
ATOM     55  C   UNL A   1      44.012  33.081  31.105  1.00  0.00     0.058 A 
ATOM     56  C   UNL A   1      44.147  34.117  30.169  1.00  0.00     0.135 A 
ATOM     57  C   UNL A   1      43.976  33.427  32.466  1.00  0.00     0.135 A 
ATOM     58  F   UNL A   1      44.210  33.842  28.857  1.00  0.00    -0.206 F 
ATOM     59  C   UNL A   1      44.251  35.447  30.569  1.00  0.00     0.059 A 
ATOM     60  C   UNL A   1      44.049  34.751  32.887  1.00  0.00     0.059 A 
ATOM     61  F   UNL A   1      43.858  32.473  33.403  1.00  0.00    -0.206 F 
ATOM     62  C   UNL A   1      44.193  35.754  31.929  1.00  0.00     0.060 A 
BRANCH  62  63
ATOM     63  S   UNL A   1      44.291  37.486  32.427  1.00  0.00     0.124 S 
ATOM     64  O   UNL A   1      44.082  38.169  31.154  1.00  0.00    -0.237 OA
ATOM     65  O   UNL A   1      43.200  37.595  33.391  1.00  0.00    -0.237 OA
ATOM     66  O   UNL A   1      45.634  37.605  32.988  1.00  0.00    -0.744 OA
ENDBRANCH  62  63
ENDBRANCH  41  55
BRANCH  42  67
ATOM     67  C   UNL A   1      42.575  23.726  27.797  1.00  0.00     0.058 A 
ATOM     68  C   UNL A   1      42.494  22.588  28.613  1.00  0.00     0.135 A 
ATOM     69  C   UNL A   1      42.487  23.537  26.407  1.00  0.00     0.135 A 
ATOM     70  F   UNL A   1      42.583  22.713  29.946  1.00  0.00    -0.206 F 
ATOM     71  C   UNL A   1      42.357  21.312  28.076  1.00  0.00     0.059 A 
ATOM     72  C   UNL A   1      42.319  22.275  25.847  1.00  0.00     0.059 A 
ATOM     73  F   UNL A   1      42.547  24.592  25.579  1.00  0.00    -0.206 F 
ATOM     74  C   UNL A   1      42.270  21.166  26.690  1.00  0.00     0.060 A 
BRANCH  74  75
ATOM     75  S   UNL A   1      42.066  19.507  26.005  1.00  0.00     0.124 S 
ATOM     76  O   UNL A   1      42.543  18.676  27.105  1.00  0.00    -0.237 OA
ATOM     77  O   UNL A   1      40.631  19.459  25.744  1.00  0.00    -0.237 OA
ATOM     78  O   UNL A   1      42.912  19.528  24.816  1.00  0.00    -0.744 OA
ENDBRANCH  74  75
ENDBRANCH  42  67
BRANCH  54  79
ATOM     79  C   UNL A   1      48.177  27.338  29.900  1.00  0.00     0.058 A 
ATOM     80  C   UNL A   1      49.067  27.642  28.861  1.00  0.00     0.135 A 
ATOM     81  C   UNL A   1      48.706  26.787  31.079  1.00  0.00     0.135 A 
ATOM     82  F   UNL A   1      48.612  28.164  27.710  1.00  0.00    -0.206 F 
ATOM     83  C   UNL A   1      50.432  27.402  28.982  1.00  0.00     0.059 A 
ATOM     84  C   UNL A   1      50.071  26.567  31.234  1.00  0.00     0.059 A 
ATOM     85  F   UNL A   1      47.897  26.486  32.108  1.00  0.00    -0.206 F 
ATOM     86  C   UNL A   1      50.926  26.875  30.177  1.00  0.00     0.060 A 
BRANCH  86  87
ATOM     87  S   UNL A   1      52.707  26.632  30.342  1.00  0.00     0.124 S 
ATOM     88  O   UNL A   1      53.077  26.236  28.988  1.00  0.00    -0.237 OA
ATOM     89  O   UNL A   1      53.162  27.953  30.764  1.00  0.00    -0.237 OA
ATOM     90  O   UNL A   1      52.816  25.584  31.352  1.00  0.00    -0.744 OA
ENDBRANCH  86  87
ENDBRANCH  54  79
ENDBRANCH  28  29
ENDBRANCH  21  23
ENDBRANCH  20  21
ENDBRANCH  19  20
ENDBRANCH  18  19
ENDBRANCH   1  18
TORSDOF 20
ENDMDL
