MODEL 1
REMARK VINA RESULT:      -9.5      0.000      0.000
REMARK SMILES O=C(OCCOCCOC(=O)[C@H](O)Cc1ccc(O)cc1)c1ccc(-c2c3nc(c(-c4c(F)cc(S(=O)(=O)[O-])cc4F)c4ccc([nH]4)c(-c4c(F)cc(S(=O)(=O)[O-])cc4F)c4nc(c(-c5c(F)cc(S(=O)(=O)[O-])cc5F)c5ccc2[nH]5)C=C4)C=C3)cc1
REMARK SMILES IDX 6 1 5 2 4 3 3 4 2 5 1 6 22 7 23 8 87 9 24 10 86 11 25 12
REMARK SMILES IDX 26 13 27 14 80 15 28 16 85 17 79 18 81 19 29 20 84 21 78 22
REMARK SMILES IDX 77 23 30 25 64 26 43 27 63 28 44 29 47 30 62 31 82 32 45 33
REMARK SMILES IDX 46 34 61 36 83 37 48 38 31 39 32 40 41 41 33 42 34 43 40 44
REMARK SMILES IDX 42 45 35 46 36 47 37 48 38 49 39 50 65 51 66 52 75 53 67 54
REMARK SMILES IDX 68 55 74 56 76 57 69 58 70 59 71 60 72 61 73 62 49 63 50 64
REMARK SMILES IDX 59 65 51 66 52 67 58 68 60 69 53 70 54 71 55 72 56 73 57 74
REMARK SMILES IDX 7 75 8 76 9 77 10 78 11 79 12 80 14 81 15 82 16 83 21 84
REMARK SMILES IDX 17 85 20 86 18 87 19 88 13 90
REMARK H PARENT 81 24 47 35 19 89 13 91
REMARK Flexibility Score: inf
ROOT
ATOM      1  O   UNL A   1      32.229  26.726  24.855  1.00  0.00    -0.374 OA
ENDROOT
BRANCH   1   2
ATOM      2  C   UNL A   1      32.174  27.692  25.901  1.00  0.00     0.202 C 
BRANCH   2   3
ATOM      3  C   UNL A   1      33.449  27.909  26.722  1.00  0.00     0.261 C 
BRANCH   3   4
ATOM      4  O   UNL A   1      33.957  29.251  26.570  1.00  0.00    -0.460 OA
BRANCH   4   5
ATOM      5  C   UNL A   1      34.446  30.023  27.580  1.00  0.00     0.338 C 
ATOM      6  O   UNL A   1      33.731  30.822  28.171  1.00  0.00    -0.246 OA
BRANCH   5   7
ATOM      7  C   UNL A   1      35.866  29.870  27.970  1.00  0.00     0.060 A 
ATOM      8  C   UNL A   1      36.875  30.180  27.066  1.00  0.00     0.016 A 
ATOM      9  C   UNL A   1      36.208  29.405  29.239  1.00  0.00     0.016 A 
ATOM     10  C   UNL A   1      38.176  29.805  27.303  1.00  0.00     0.010 A 
ATOM     11  C   UNL A   1      37.556  29.190  29.552  1.00  0.00     0.010 A 
ATOM     12  C   UNL A   1      38.544  29.352  28.566  1.00  0.00    -0.014 A 
BRANCH  12  13
ATOM     13  C   UNL A   1      39.971  29.036  28.790  1.00  0.00     0.031 A 
ATOM     14  C   UNL A   1      40.841  30.043  29.479  1.00  0.00     0.074 A 
ATOM     15  C   UNL A   1      40.428  27.805  28.479  1.00  0.00     0.049 A 
ATOM     16  N   UNL A   1      42.133  30.030  29.652  1.00  0.00    -0.248 NA
ATOM     17  C   UNL A   1      40.169  31.228  30.041  1.00  0.00     0.031 C 
ATOM     18  C   UNL A   1      39.618  26.719  27.911  1.00  0.00     0.029 A 
ATOM     19  N   UNL A   1      41.662  27.237  28.636  1.00  0.00    -0.354 N 
ATOM     20  C   UNL A   1      42.439  31.232  30.279  1.00  0.00     0.074 A 
ATOM     21  C   UNL A   1      41.198  31.946  30.469  1.00  0.00     0.031 C 
ATOM     22  C   UNL A   1      40.354  25.601  27.845  1.00  0.00     0.029 A 
ATOM     23  C   UNL A   1      41.718  25.923  28.231  1.00  0.00     0.049 A 
ATOM     24  H   UNL A   1      42.437  27.721  29.004  1.00  0.00     0.167 HD
ATOM     25  C   UNL A   1      43.661  31.691  30.641  1.00  0.00     0.037 A 
ATOM     26  C   UNL A   1      42.770  25.090  28.125  1.00  0.00     0.037 A 
ATOM     27  C   UNL A   1      44.866  30.926  30.458  1.00  0.00     0.049 A 
ATOM     28  C   UNL A   1      44.120  25.644  28.475  1.00  0.00     0.074 A 
ATOM     29  C   UNL A   1      46.173  31.291  30.715  1.00  0.00     0.029 A 
ATOM     30  N   UNL A   1      44.897  29.620  29.981  1.00  0.00    -0.354 N 
ATOM     31  N   UNL A   1      44.422  26.830  28.952  1.00  0.00    -0.248 NA
ATOM     32  C   UNL A   1      45.275  24.773  28.240  1.00  0.00     0.031 C 
ATOM     33  C   UNL A   1      46.998  30.217  30.360  1.00  0.00     0.029 A 
ATOM     34  C   UNL A   1      46.201  29.165  29.929  1.00  0.00     0.049 A 
ATOM     35  H   UNL A   1      44.107  29.096  29.719  1.00  0.00     0.167 HD
ATOM     36  C   UNL A   1      45.802  26.848  29.083  1.00  0.00     0.074 A 
ATOM     37  C   UNL A   1      46.272  25.542  28.655  1.00  0.00     0.031 C 
ATOM     38  C   UNL A   1      46.613  27.849  29.505  1.00  0.00     0.037 A 
BRANCH  25  39
ATOM     39  C   UNL A   1      43.736  33.094  31.175  1.00  0.00     0.058 A 
ATOM     40  C   UNL A   1      43.855  34.214  30.338  1.00  0.00     0.135 A 
ATOM     41  C   UNL A   1      43.741  33.316  32.563  1.00  0.00     0.135 A 
ATOM     42  F   UNL A   1      43.887  34.060  29.005  1.00  0.00    -0.206 F 
ATOM     43  C   UNL A   1      44.018  35.497  30.856  1.00  0.00     0.059 A 
ATOM     44  C   UNL A   1      43.878  34.592  33.103  1.00  0.00     0.059 A 
ATOM     45  F   UNL A   1      43.641  32.281  33.413  1.00  0.00    -0.206 F 
ATOM     46  C   UNL A   1      44.038  35.674  32.241  1.00  0.00     0.060 A 
BRANCH  46  47
ATOM     47  S   UNL A   1      44.297  37.335  32.900  1.00  0.00     0.124 S 
ATOM     48  O   UNL A   1      45.481  37.137  33.731  1.00  0.00    -0.237 OA
ATOM     49  O   UNL A   1      44.499  38.124  31.690  1.00  0.00    -0.237 OA
ATOM     50  O   UNL A   1      43.060  37.610  33.625  1.00  0.00    -0.744 OA
ENDBRANCH  46  47
ENDBRANCH  25  39
BRANCH  26  51
ATOM     51  C   UNL A   1      42.593  23.706  27.603  1.00  0.00     0.058 A 
ATOM     52  C   UNL A   1      42.628  23.438  26.227  1.00  0.00     0.135 A 
ATOM     53  C   UNL A   1      42.402  22.617  28.470  1.00  0.00     0.135 A 
ATOM     54  F   UNL A   1      42.803  24.441  25.352  1.00  0.00    -0.206 F 
ATOM     55  C   UNL A   1      42.468  22.146  25.729  1.00  0.00     0.059 A 
ATOM     56  C   UNL A   1      42.272  21.314  28.000  1.00  0.00     0.059 A 
ATOM     57  F   UNL A   1      42.371  22.810  29.799  1.00  0.00    -0.206 F 
ATOM     58  C   UNL A   1      42.292  21.090  26.625  1.00  0.00     0.060 A 
BRANCH  58  59
ATOM     59  S   UNL A   1      42.116  19.414  25.975  1.00  0.00     0.124 S 
ATOM     60  O   UNL A   1      42.891  19.495  24.742  1.00  0.00    -0.237 OA
ATOM     61  O   UNL A   1      42.697  18.607  27.043  1.00  0.00    -0.237 OA
ATOM     62  O   UNL A   1      40.673  19.269  25.806  1.00  0.00    -0.744 OA
ENDBRANCH  58  59
ENDBRANCH  26  51
BRANCH  38  63
ATOM     63  C   UNL A   1      48.079  27.542  29.560  1.00  0.00     0.058 A 
ATOM     64  C   UNL A   1      48.943  27.891  28.511  1.00  0.00     0.135 A 
ATOM     65  C   UNL A   1      48.627  26.931  30.698  1.00  0.00     0.135 A 
ATOM     66  F   UNL A   1      48.459  28.466  27.399  1.00  0.00    -0.206 F 
ATOM     67  C   UNL A   1      50.303  27.625  28.581  1.00  0.00     0.059 A 
ATOM     68  C   UNL A   1      49.989  26.680  30.799  1.00  0.00     0.059 A 
ATOM     69  F   UNL A   1      47.837  26.586  31.727  1.00  0.00    -0.206 F 
ATOM     70  C   UNL A   1      50.817  27.021  29.731  1.00  0.00     0.060 A 
BRANCH  70  71
ATOM     71  S   UNL A   1      52.593  26.718  29.829  1.00  0.00     0.124 S 
ATOM     72  O   UNL A   1      52.865  26.150  28.513  1.00  0.00    -0.237 OA
ATOM     73  O   UNL A   1      53.126  28.055  30.067  1.00  0.00    -0.237 OA
ATOM     74  O   UNL A   1      52.715  25.792  30.951  1.00  0.00    -0.744 OA
ENDBRANCH  70  71
ENDBRANCH  38  63
ENDBRANCH  12  13
ENDBRANCH   5   7
ENDBRANCH   4   5
ENDBRANCH   3   4
ENDBRANCH   2   3
ENDBRANCH   1   2
BRANCH   1  75
ATOM     75  C   UNL A   1      30.986  26.447  24.195  1.00  0.00     0.202 C 
BRANCH  75  76
ATOM     76  C   UNL A   1      30.261  25.322  24.930  1.00  0.00     0.261 C 
BRANCH  76  77
ATOM     77  O   UNL A   1      31.227  24.292  25.192  1.00  0.00    -0.461 OA
BRANCH  77  78
ATOM     78  C   UNL A   1      31.161  23.728  26.430  1.00  0.00     0.335 C 
ATOM     79  O   UNL A   1      30.199  23.788  27.186  1.00  0.00    -0.249 OA
BRANCH  78  80
ATOM     80  C   UNL A   1      32.449  22.943  26.735  1.00  0.00     0.228 C 
BRANCH  80  81
ATOM     81  C   UNL A   1      33.654  23.849  26.387  1.00  0.00     0.079 C 
BRANCH  81  82
ATOM     82  C   UNL A   1      34.968  23.173  26.061  1.00  0.00    -0.045 A 
ATOM     83  C   UNL A   1      36.175  23.882  26.006  1.00  0.00     0.007 A 
ATOM     84  C   UNL A   1      34.994  21.784  25.845  1.00  0.00     0.007 A 
ATOM     85  C   UNL A   1      37.374  23.230  25.711  1.00  0.00     0.046 A 
ATOM     86  C   UNL A   1      36.193  21.130  25.558  1.00  0.00     0.046 A 
ATOM     87  C   UNL A   1      37.374  21.858  25.494  1.00  0.00     0.115 A 
BRANCH  87  88
ATOM     88  O   UNL A   1      38.526  21.185  25.220  1.00  0.00    -0.508 OA
ATOM     89  H   UNL A   1      38.936  20.668  25.885  1.00  0.00     0.293 HD
ENDBRANCH  87  88
ENDBRANCH  81  82
ENDBRANCH  80  81
BRANCH  80  90
ATOM     90  O   UNL A   1      32.516  22.463  28.082  1.00  0.00    -0.381 OA
ATOM     91  H   UNL A   1      31.819  22.883  28.610  1.00  0.00     0.211 HD
ENDBRANCH  80  90
ENDBRANCH  78  80
ENDBRANCH  77  78
ENDBRANCH  76  77
ENDBRANCH  75  76
ENDBRANCH   1  75
TORSDOF 21
ENDMDL
MODEL 2
REMARK VINA RESULT:      -9.4      1.570      2.233
REMARK SMILES O=C(OCCOCCOC(=O)[C@H](O)Cc1ccc(O)cc1)c1ccc(-c2c3nc(c(-c4c(F)cc(S(=O)(=O)[O-])cc4F)c4ccc([nH]4)c(-c4c(F)cc(S(=O)(=O)[O-])cc4F)c4nc(c(-c5c(F)cc(S(=O)(=O)[O-])cc5F)c5ccc2[nH]5)C=C4)C=C3)cc1
REMARK SMILES IDX 6 1 5 2 4 3 3 4 2 5 1 6 22 7 23 8 87 9 24 10 86 11 25 12
REMARK SMILES IDX 26 13 27 14 80 15 28 16 85 17 79 18 81 19 29 20 84 21 78 22
REMARK SMILES IDX 77 23 30 25 64 26 43 27 63 28 44 29 47 30 62 31 82 32 45 33
REMARK SMILES IDX 46 34 61 36 83 37 48 38 31 39 32 40 41 41 33 42 34 43 40 44
REMARK SMILES IDX 42 45 35 46 36 47 37 48 38 49 39 50 65 51 66 52 75 53 67 54
REMARK SMILES IDX 68 55 74 56 76 57 69 58 70 59 71 60 72 61 73 62 49 63 50 64
REMARK SMILES IDX 59 65 51 66 52 67 58 68 60 69 53 70 54 71 55 72 56 73 57 74
REMARK SMILES IDX 7 75 8 76 9 77 10 78 11 79 12 80 14 81 15 82 16 83 21 84
REMARK SMILES IDX 17 85 20 86 18 87 19 88 13 90
REMARK H PARENT 81 24 47 35 19 89 13 91
REMARK Flexibility Score: inf
ROOT
ATOM      1  O   UNL A   1      30.737  26.774  26.768  1.00  0.00    -0.374 OA
ENDROOT
BRANCH   1   2
ATOM      2  C   UNL A   1      31.398  27.834  27.454  1.00  0.00     0.202 C 
BRANCH   2   3
ATOM      3  C   UNL A   1      32.632  28.442  26.781  1.00  0.00     0.261 C 
BRANCH   3   4
ATOM      4  O   UNL A   1      33.675  28.722  27.738  1.00  0.00    -0.460 OA
BRANCH   4   5
ATOM      5  C   UNL A   1      34.446  29.845  27.751  1.00  0.00     0.338 C 
ATOM      6  O   UNL A   1      33.972  30.943  27.490  1.00  0.00    -0.246 OA
BRANCH   5   7
ATOM      7  C   UNL A   1      35.878  29.721  28.104  1.00  0.00     0.060 A 
ATOM      8  C   UNL A   1      36.857  30.039  27.171  1.00  0.00     0.016 A 
ATOM      9  C   UNL A   1      36.262  29.277  29.369  1.00  0.00     0.016 A 
ATOM     10  C   UNL A   1      38.171  29.689  27.378  1.00  0.00     0.010 A 
ATOM     11  C   UNL A   1      37.621  29.089  29.648  1.00  0.00     0.010 A 
ATOM     12  C   UNL A   1      38.580  29.257  28.635  1.00  0.00    -0.014 A 
BRANCH  12  13
ATOM     13  C   UNL A   1      40.018  28.969  28.825  1.00  0.00     0.031 A 
ATOM     14  C   UNL A   1      40.886  29.996  29.485  1.00  0.00     0.074 A 
ATOM     15  C   UNL A   1      40.490  27.745  28.509  1.00  0.00     0.049 A 
ATOM     16  N   UNL A   1      42.182  30.008  29.626  1.00  0.00    -0.248 NA
ATOM     17  C   UNL A   1      40.207  31.172  30.057  1.00  0.00     0.031 C 
ATOM     18  C   UNL A   1      39.686  26.640  27.968  1.00  0.00     0.029 A 
ATOM     19  N   UNL A   1      41.738  27.200  28.639  1.00  0.00    -0.354 N 
ATOM     20  C   UNL A   1      42.482  31.219  30.237  1.00  0.00     0.074 A 
ATOM     21  C   UNL A   1      41.233  31.911  30.455  1.00  0.00     0.031 C 
ATOM     22  C   UNL A   1      40.440  25.535  27.891  1.00  0.00     0.029 A 
ATOM     23  C   UNL A   1      41.808  25.885  28.240  1.00  0.00     0.049 A 
ATOM     24  H   UNL A   1      42.512  27.701  28.984  1.00  0.00     0.167 HD
ATOM     25  C   UNL A   1      43.703  31.703  30.565  1.00  0.00     0.037 A 
ATOM     26  C   UNL A   1      42.871  25.071  28.112  1.00  0.00     0.037 A 
ATOM     27  C   UNL A   1      44.917  30.959  30.357  1.00  0.00     0.049 A 
ATOM     28  C   UNL A   1      44.219  25.652  28.425  1.00  0.00     0.074 A 
ATOM     29  C   UNL A   1      46.224  31.350  30.577  1.00  0.00     0.029 A 
ATOM     30  N   UNL A   1      44.961  29.651  29.886  1.00  0.00    -0.354 N 
ATOM     31  N   UNL A   1      44.511  26.846  28.886  1.00  0.00    -0.248 NA
ATOM     32  C   UNL A   1      45.384  24.800  28.165  1.00  0.00     0.031 C 
ATOM     33  C   UNL A   1      47.059  30.288  30.209  1.00  0.00     0.029 A 
ATOM     34  C   UNL A   1      46.271  29.220  29.803  1.00  0.00     0.049 A 
ATOM     35  H   UNL A   1      44.174  29.111  29.647  1.00  0.00     0.167 HD
ATOM     36  C   UNL A   1      45.894  26.890  28.982  1.00  0.00     0.074 A 
ATOM     37  C   UNL A   1      46.377  25.590  28.550  1.00  0.00     0.031 C 
ATOM     38  C   UNL A   1      46.697  27.908  29.377  1.00  0.00     0.037 A 
BRANCH  25  39
ATOM     39  C   UNL A   1      43.767  33.111  31.089  1.00  0.00     0.058 A 
ATOM     40  C   UNL A   1      43.939  34.220  30.248  1.00  0.00     0.135 A 
ATOM     41  C   UNL A   1      43.704  33.346  32.473  1.00  0.00     0.135 A 
ATOM     42  F   UNL A   1      44.037  34.053  28.919  1.00  0.00    -0.206 F 
ATOM     43  C   UNL A   1      44.089  35.508  30.761  1.00  0.00     0.059 A 
ATOM     44  C   UNL A   1      43.827  34.627  33.007  1.00  0.00     0.059 A 
ATOM     45  F   UNL A   1      43.550  32.321  33.326  1.00  0.00    -0.206 F 
ATOM     46  C   UNL A   1      44.041  35.698  32.143  1.00  0.00     0.060 A 
BRANCH  46  47
ATOM     47  S   UNL A   1      44.284  37.363  32.799  1.00  0.00     0.124 S 
ATOM     48  O   UNL A   1      44.109  38.176  31.598  1.00  0.00    -0.237 OA
ATOM     49  O   UNL A   1      43.221  37.467  33.793  1.00  0.00    -0.237 OA
ATOM     50  O   UNL A   1      45.640  37.322  33.337  1.00  0.00    -0.744 OA
ENDBRANCH  46  47
ENDBRANCH  25  39
BRANCH  26  51
ATOM     51  C   UNL A   1      42.707  23.681  27.603  1.00  0.00     0.058 A 
ATOM     52  C   UNL A   1      42.505  22.604  28.479  1.00  0.00     0.135 A 
ATOM     53  C   UNL A   1      42.729  23.399  26.226  1.00  0.00     0.135 A 
ATOM     54  F   UNL A   1      42.480  22.813  29.804  1.00  0.00    -0.206 F 
ATOM     55  C   UNL A   1      42.346  21.301  28.011  1.00  0.00     0.059 A 
ATOM     56  C   UNL A   1      42.539  22.112  25.733  1.00  0.00     0.059 A 
ATOM     57  F   UNL A   1      42.905  24.391  25.338  1.00  0.00    -0.206 F 
ATOM     58  C   UNL A   1      42.363  21.066  26.635  1.00  0.00     0.060 A 
BRANCH  58  59
ATOM     59  S   UNL A   1      42.124  19.380  26.034  1.00  0.00     0.124 S 
ATOM     60  O   UNL A   1      40.689  19.361  25.775  1.00  0.00    -0.237 OA
ATOM     61  O   UNL A   1      42.986  19.346  24.857  1.00  0.00    -0.237 OA
ATOM     62  O   UNL A   1      42.574  18.557  27.154  1.00  0.00    -0.744 OA
ENDBRANCH  58  59
ENDBRANCH  26  51
BRANCH  38  63
ATOM     63  C   UNL A   1      48.169  27.629  29.396  1.00  0.00     0.058 A 
ATOM     64  C   UNL A   1      48.984  27.906  28.289  1.00  0.00     0.135 A 
ATOM     65  C   UNL A   1      48.772  27.118  30.556  1.00  0.00     0.135 A 
ATOM     66  F   UNL A   1      48.447  28.384  27.156  1.00  0.00    -0.206 F 
ATOM     67  C   UNL A   1      50.351  27.667  28.325  1.00  0.00     0.059 A 
ATOM     68  C   UNL A   1      50.141  26.897  30.622  1.00  0.00     0.059 A 
ATOM     69  F   UNL A   1      48.030  26.845  31.640  1.00  0.00    -0.206 F 
ATOM     70  C   UNL A   1      50.920  27.164  29.497  1.00  0.00     0.060 A 
BRANCH  70  71
ATOM     71  S   UNL A   1      52.704  26.896  29.547  1.00  0.00     0.124 S 
ATOM     72  O   UNL A   1      52.936  26.238  28.265  1.00  0.00    -0.237 OA
ATOM     73  O   UNL A   1      53.221  28.255  29.666  1.00  0.00    -0.237 OA
ATOM     74  O   UNL A   1      52.886  26.057  30.727  1.00  0.00    -0.744 OA
ENDBRANCH  70  71
ENDBRANCH  38  63
ENDBRANCH  12  13
ENDBRANCH   5   7
ENDBRANCH   4   5
ENDBRANCH   3   4
ENDBRANCH   2   3
ENDBRANCH   1   2
BRANCH   1  75
ATOM     75  C   UNL A   1      31.590  25.831  26.102  1.00  0.00     0.202 C 
BRANCH  75  76
ATOM     76  C   UNL A   1      31.458  24.465  26.770  1.00  0.00     0.261 C 
BRANCH  76  77
ATOM     77  O   UNL A   1      31.851  23.478  25.802  1.00  0.00    -0.461 OA
BRANCH  77  78
ATOM     78  C   UNL A   1      33.152  23.079  25.867  1.00  0.00     0.335 C 
ATOM     79  O   UNL A   1      33.904  23.267  26.815  1.00  0.00    -0.249 OA
BRANCH  78  80
ATOM     80  C   UNL A   1      33.540  22.298  24.599  1.00  0.00     0.228 C 
BRANCH  80  81
ATOM     81  C   UNL A   1      32.430  21.257  24.321  1.00  0.00     0.079 C 
BRANCH  81  82
ATOM     82  C   UNL A   1      32.861  19.846  23.983  1.00  0.00    -0.045 A 
ATOM     83  C   UNL A   1      32.225  19.093  22.988  1.00  0.00     0.007 A 
ATOM     84  C   UNL A   1      33.958  19.281  24.656  1.00  0.00     0.007 A 
ATOM     85  C   UNL A   1      32.649  17.797  22.692  1.00  0.00     0.046 A 
ATOM     86  C   UNL A   1      34.388  17.988  24.355  1.00  0.00     0.046 A 
ATOM     87  C   UNL A   1      33.731  17.256  23.375  1.00  0.00     0.115 A 
BRANCH  87  88
ATOM     88  O   UNL A   1      34.185  16.001  23.101  1.00  0.00    -0.508 OA
ATOM     89  H   UNL A   1      35.078  15.776  23.276  1.00  0.00     0.293 HD
ENDBRANCH  87  88
ENDBRANCH  81  82
ENDBRANCH  80  81
BRANCH  80  90
ATOM     90  O   UNL A   1      33.778  23.138  23.465  1.00  0.00    -0.381 OA
ATOM     91  H   UNL A   1      34.395  22.698  22.860  1.00  0.00     0.211 HD
ENDBRANCH  80  90
ENDBRANCH  78  80
ENDBRANCH  77  78
ENDBRANCH  76  77
ENDBRANCH  75  76
ENDBRANCH   1  75
TORSDOF 21
ENDMDL
MODEL 3
REMARK VINA RESULT:      -9.0      2.995      5.178
REMARK SMILES O=C(OCCOCCOC(=O)[C@H](O)Cc1ccc(O)cc1)c1ccc(-c2c3nc(c(-c4c(F)cc(S(=O)(=O)[O-])cc4F)c4ccc([nH]4)c(-c4c(F)cc(S(=O)(=O)[O-])cc4F)c4nc(c(-c5c(F)cc(S(=O)(=O)[O-])cc5F)c5ccc2[nH]5)C=C4)C=C3)cc1
REMARK SMILES IDX 6 1 5 2 4 3 3 4 2 5 1 6 22 7 23 8 87 9 24 10 86 11 25 12
REMARK SMILES IDX 26 13 27 14 80 15 28 16 85 17 79 18 81 19 29 20 84 21 78 22
REMARK SMILES IDX 77 23 30 25 64 26 43 27 63 28 44 29 47 30 62 31 82 32 45 33
REMARK SMILES IDX 46 34 61 36 83 37 48 38 31 39 32 40 41 41 33 42 34 43 40 44
REMARK SMILES IDX 42 45 35 46 36 47 37 48 38 49 39 50 65 51 66 52 75 53 67 54
REMARK SMILES IDX 68 55 74 56 76 57 69 58 70 59 71 60 72 61 73 62 49 63 50 64
REMARK SMILES IDX 59 65 51 66 52 67 58 68 60 69 53 70 54 71 55 72 56 73 57 74
REMARK SMILES IDX 7 75 8 76 9 77 10 78 11 79 12 80 14 81 15 82 16 83 21 84
REMARK SMILES IDX 17 85 20 86 18 87 19 88 13 90
REMARK H PARENT 81 24 47 35 19 89 13 91
REMARK Flexibility Score: inf
ROOT
ATOM      1  O   UNL A   1      33.723  28.423  27.570  1.00  0.00    -0.374 OA
ENDROOT
BRANCH   1   2
ATOM      2  C   UNL A   1      34.872  29.265  27.552  1.00  0.00     0.202 C 
BRANCH   2   3
ATOM      3  C   UNL A   1      34.640  30.770  27.715  1.00  0.00     0.261 C 
BRANCH   3   4
ATOM      4  O   UNL A   1      35.766  31.417  28.346  1.00  0.00    -0.460 OA
BRANCH   4   5
ATOM      5  C   UNL A   1      36.494  30.897  29.373  1.00  0.00     0.338 C 
ATOM      6  O   UNL A   1      36.079  30.931  30.525  1.00  0.00    -0.246 OA
BRANCH   5   7
ATOM      7  C   UNL A   1      37.800  30.270  29.074  1.00  0.00     0.060 A 
ATOM      8  C   UNL A   1      38.701  30.010  30.100  1.00  0.00     0.016 A 
ATOM      9  C   UNL A   1      38.147  29.941  27.764  1.00  0.00     0.016 A 
ATOM     10  C   UNL A   1      40.007  29.676  29.826  1.00  0.00     0.010 A 
ATOM     11  C   UNL A   1      39.422  29.426  27.500  1.00  0.00     0.010 A 
ATOM     12  C   UNL A   1      40.373  29.331  28.530  1.00  0.00    -0.014 A 
BRANCH  12  13
ATOM     13  C   UNL A   1      41.771  28.903  28.305  1.00  0.00     0.031 A 
ATOM     14  C   UNL A   1      42.880  29.885  28.532  1.00  0.00     0.074 A 
ATOM     15  C   UNL A   1      42.023  27.609  28.019  1.00  0.00     0.049 A 
ATOM     16  N   UNL A   1      44.150  29.764  28.267  1.00  0.00    -0.248 NA
ATOM     17  C   UNL A   1      42.509  31.179  29.131  1.00  0.00     0.031 C 
ATOM     18  C   UNL A   1      41.007  26.554  27.894  1.00  0.00     0.029 A 
ATOM     19  N   UNL A   1      43.202  26.942  27.828  1.00  0.00    -0.354 N 
ATOM     20  C   UNL A   1      44.720  30.987  28.598  1.00  0.00     0.074 A 
ATOM     21  C   UNL A   1      43.661  31.833  29.098  1.00  0.00     0.031 C 
ATOM     22  C   UNL A   1      41.610  25.369  27.730  1.00  0.00     0.029 A 
ATOM     23  C   UNL A   1      43.041  25.595  27.597  1.00  0.00     0.049 A 
ATOM     24  H   UNL A   1      44.082  27.383  27.853  1.00  0.00     0.167 HD
ATOM     25  C   UNL A   1      46.016  31.360  28.472  1.00  0.00     0.037 A 
ATOM     26  C   UNL A   1      43.944  24.658  27.254  1.00  0.00     0.037 A 
ATOM     27  C   UNL A   1      47.040  30.467  27.999  1.00  0.00     0.049 A 
ATOM     28  C   UNL A   1      45.362  25.111  27.062  1.00  0.00     0.074 A 
ATOM     29  C   UNL A   1      48.376  30.728  27.758  1.00  0.00     0.029 A 
ATOM     30  N   UNL A   1      46.832  29.123  27.707  1.00  0.00    -0.354 N 
ATOM     31  N   UNL A   1      45.875  26.304  27.257  1.00  0.00    -0.248 NA
ATOM     32  C   UNL A   1      46.315  24.113  26.569  1.00  0.00     0.031 C 
ATOM     33  C   UNL A   1      48.967  29.549  27.288  1.00  0.00     0.029 A 
ATOM     34  C   UNL A   1      48.012  28.542  27.283  1.00  0.00     0.049 A 
ATOM     35  H   UNL A   1      45.971  28.655  27.791  1.00  0.00     0.167 HD
ATOM     36  C   UNL A   1      47.216  26.201  26.918  1.00  0.00     0.074 A 
ATOM     37  C   UNL A   1      47.436  24.819  26.528  1.00  0.00     0.031 C 
ATOM     38  C   UNL A   1      48.178  27.156  26.917  1.00  0.00     0.037 A 
BRANCH  25  39
ATOM     39  C   UNL A   1      46.350  32.795  28.769  1.00  0.00     0.058 A 
ATOM     40  C   UNL A   1      46.297  33.799  27.789  1.00  0.00     0.135 A 
ATOM     41  C   UNL A   1      46.782  33.163  30.055  1.00  0.00     0.135 A 
ATOM     42  F   UNL A   1      45.921  33.500  26.536  1.00  0.00    -0.206 F 
ATOM     43  C   UNL A   1      46.700  35.105  28.062  1.00  0.00     0.059 A 
ATOM     44  C   UNL A   1      47.166  34.467  30.356  1.00  0.00     0.059 A 
ATOM     45  F   UNL A   1      46.861  32.243  31.029  1.00  0.00    -0.206 F 
ATOM     46  C   UNL A   1      47.142  35.425  29.347  1.00  0.00     0.060 A 
BRANCH  46  47
ATOM     47  S   UNL A   1      47.707  37.109  29.675  1.00  0.00     0.124 S 
ATOM     48  O   UNL A   1      49.151  36.919  29.771  1.00  0.00    -0.237 OA
ATOM     49  O   UNL A   1      47.242  37.831  28.495  1.00  0.00    -0.237 OA
ATOM     50  O   UNL A   1      47.035  37.456  30.924  1.00  0.00    -0.744 OA
ENDBRANCH  46  47
ENDBRANCH  25  39
BRANCH  26  51
ATOM     51  C   UNL A   1      43.520  23.252  27.000  1.00  0.00     0.058 A 
ATOM     52  C   UNL A   1      43.294  22.358  28.057  1.00  0.00     0.135 A 
ATOM     53  C   UNL A   1      43.314  22.776  25.694  1.00  0.00     0.135 A 
ATOM     54  F   UNL A   1      43.479  22.758  29.324  1.00  0.00    -0.206 F 
ATOM     55  C   UNL A   1      42.893  21.044  27.829  1.00  0.00     0.059 A 
ATOM     56  C   UNL A   1      42.882  21.477  25.442  1.00  0.00     0.059 A 
ATOM     57  F   UNL A   1      43.502  23.589  24.642  1.00  0.00    -0.206 F 
ATOM     58  C   UNL A   1      42.688  20.613  26.517  1.00  0.00     0.060 A 
BRANCH  58  59
ATOM     59  S   UNL A   1      42.139  18.917  26.230  1.00  0.00     0.124 S 
ATOM     60  O   UNL A   1      43.052  18.487  25.178  1.00  0.00    -0.237 OA
ATOM     61  O   UNL A   1      42.338  18.302  27.538  1.00  0.00    -0.237 OA
ATOM     62  O   UNL A   1      40.745  19.078  25.828  1.00  0.00    -0.744 OA
ENDBRANCH  58  59
ENDBRANCH  26  51
BRANCH  38  63
ATOM     63  C   UNL A   1      49.555  26.715  26.520  1.00  0.00     0.058 A 
ATOM     64  C   UNL A   1      50.485  26.266  27.468  1.00  0.00     0.135 A 
ATOM     65  C   UNL A   1      49.926  26.704  25.166  1.00  0.00     0.135 A 
ATOM     66  F   UNL A   1      50.176  26.271  28.774  1.00  0.00    -0.206 F 
ATOM     67  C   UNL A   1      51.749  25.836  27.088  1.00  0.00     0.059 A 
ATOM     68  C   UNL A   1      51.175  26.253  24.763  1.00  0.00     0.059 A 
ATOM     69  F   UNL A   1      49.064  27.119  24.225  1.00  0.00    -0.206 F 
ATOM     70  C   UNL A   1      52.083  25.831  25.732  1.00  0.00     0.060 A 
BRANCH  70  71
ATOM     71  S   UNL A   1      53.714  25.232  25.246  1.00  0.00     0.124 S 
ATOM     72  O   UNL A   1      53.757  25.610  23.837  1.00  0.00    -0.237 OA
ATOM     73  O   UNL A   1      54.599  25.980  26.132  1.00  0.00    -0.237 OA
ATOM     74  O   UNL A   1      53.639  23.798  25.510  1.00  0.00    -0.744 OA
ENDBRANCH  70  71
ENDBRANCH  38  63
ENDBRANCH  12  13
ENDBRANCH   5   7
ENDBRANCH   4   5
ENDBRANCH   3   4
ENDBRANCH   2   3
ENDBRANCH   1   2
BRANCH   1  75
ATOM     75  C   UNL A   1      33.133  28.142  26.292  1.00  0.00     0.202 C 
BRANCH  75  76
ATOM     76  C   UNL A   1      31.673  28.588  26.296  1.00  0.00     0.261 C 
BRANCH  76  77
ATOM     77  O   UNL A   1      31.005  27.870  25.246  1.00  0.00    -0.461 OA
BRANCH  77  78
ATOM     78  C   UNL A   1      31.014  28.474  24.025  1.00  0.00     0.335 C 
ATOM     79  O   UNL A   1      31.674  29.463  23.728  1.00  0.00    -0.249 OA
BRANCH  78  80
ATOM     80  C   UNL A   1      30.119  27.707  23.037  1.00  0.00     0.228 C 
BRANCH  80  81
ATOM     81  C   UNL A   1      28.685  28.277  23.149  1.00  0.00     0.079 C 
BRANCH  81  82
ATOM     82  C   UNL A   1      28.454  29.693  22.667  1.00  0.00    -0.045 A 
ATOM     83  C   UNL A   1      28.546  30.042  21.313  1.00  0.00     0.007 A 
ATOM     84  C   UNL A   1      28.096  30.687  23.594  1.00  0.00     0.007 A 
ATOM     85  C   UNL A   1      28.320  31.355  20.897  1.00  0.00     0.046 A 
ATOM     86  C   UNL A   1      27.861  31.998  23.178  1.00  0.00     0.046 A 
ATOM     87  C   UNL A   1      27.974  32.322  21.832  1.00  0.00     0.115 A 
BRANCH  87  88
ATOM     88  O   UNL A   1      27.728  33.609  21.461  1.00  0.00    -0.508 OA
ATOM     89  H   UNL A   1      27.028  33.801  20.868  1.00  0.00     0.293 HD
ENDBRANCH  87  88
ENDBRANCH  81  82
ENDBRANCH  80  81
BRANCH  80  90
ATOM     90  O   UNL A   1      30.601  27.742  21.689  1.00  0.00    -0.381 OA
ATOM     91  H   UNL A   1      30.085  28.386  21.178  1.00  0.00     0.211 HD
ENDBRANCH  80  90
ENDBRANCH  78  80
ENDBRANCH  77  78
ENDBRANCH  76  77
ENDBRANCH  75  76
ENDBRANCH   1  75
TORSDOF 21
ENDMDL
