MODEL 1
REMARK VINA RESULT:     -10.6      0.000      0.000
REMARK SMILES O=C(CC1(Nc2ccc(C(F)(F)F)cc2)CCC1)OCCOCCOC(=O)c1ccc(-c2c3nc(c(-c4c(F)cc(S(=O)(=O)[O-])cc4F)c4ccc([nH]4)c(-c4c(F)cc(S(=O)(=O)[O-])cc4F)c4nc(c(-c5c(F)cc(S(=O)(=O)[O-])cc5F)c5ccc2[nH]5)C=C4)C=C3)cc1
REMARK SMILES IDX 21 1 20 2 19 3 2 4 1 5 3 6 4 7 16 8 18 9 17 10 5 11 6 13
REMARK SMILES IDX 7 14 15 15 8 16 14 17 9 18 10 19 11 20 12 21 13 22 22 23
REMARK SMILES IDX 23 24 24 25 25 26 26 27 27 28 28 29 29 30 93 31 30 32 92 33
REMARK SMILES IDX 31 34 32 35 33 36 86 37 34 38 91 39 85 40 87 41 35 42 90 43
REMARK SMILES IDX 84 44 83 45 36 47 70 48 49 49 69 50 50 51 53 52 68 53 88 54
REMARK SMILES IDX 51 55 52 56 67 58 89 59 54 60 37 61 38 62 47 63 39 64 40 65
REMARK SMILES IDX 46 66 48 67 41 68 42 69 43 70 44 71 45 72 71 73 72 74 81 75
REMARK SMILES IDX 73 76 74 77 80 78 82 79 75 80 76 81 77 82 78 83 79 84 55 85
REMARK SMILES IDX 56 86 65 87 57 88 58 89 64 90 66 91 59 92 60 93 61 94 62 95
REMARK SMILES IDX 63 96
REMARK H PARENT 5 12 87 46 53 57
REMARK Flexibility Score: inf
ROOT
ATOM      1  C   UNL A   1      33.513  27.445  24.467  1.00  0.00     0.202 C 
ENDROOT
BRANCH   1   2
ATOM      2  C   UNL A   1      32.081  27.011  24.216  1.00  0.00     0.261 C 
BRANCH   2   3
ATOM      3  O   UNL A   1      31.604  26.098  25.213  1.00  0.00    -0.463 OA
BRANCH   3   4
ATOM      4  C   UNL A   1      31.686  24.758  25.129  1.00  0.00     0.308 C 
ATOM      5  O   UNL A   1      31.084  24.182  24.220  1.00  0.00    -0.252 OA
BRANCH   4   6
ATOM      6  C   UNL A   1      32.470  23.942  26.124  1.00  0.00     0.151 C 
BRANCH   6   7
ATOM      7  C   UNL A   1      33.749  23.199  25.712  1.00  0.00     0.048 C 
ATOM      8  C   UNL A   1      34.930  24.119  25.274  1.00  0.00     0.029 C 
ATOM      9  C   UNL A   1      34.660  22.724  26.894  1.00  0.00     0.029 C 
ATOM     10  C   UNL A   1      35.873  23.360  26.218  1.00  0.00     0.005 C 
BRANCH   7  11
ATOM     11  N   UNL A   1      33.567  22.129  24.739  1.00  0.00    -0.379 N 
ATOM     12  H   UNL A   1      33.298  22.437  23.843  1.00  0.00     0.161 HD
BRANCH  11  13
ATOM     13  C   UNL A   1      33.709  20.729  24.857  1.00  0.00     0.034 A 
ATOM     14  C   UNL A   1      32.548  19.941  24.927  1.00  0.00     0.026 A 
ATOM     15  C   UNL A   1      34.934  20.071  24.731  1.00  0.00     0.026 A 
ATOM     16  C   UNL A   1      32.605  18.547  24.786  1.00  0.00     0.015 A 
ATOM     17  C   UNL A   1      34.998  18.676  24.589  1.00  0.00     0.015 A 
ATOM     18  C   UNL A   1      33.831  17.899  24.591  1.00  0.00     0.056 A 
BRANCH  18  19
ATOM     19  C   UNL A   1      33.899  16.412  24.330  1.00  0.00     0.416 C 
ATOM     20  F   UNL A   1      32.710  15.770  24.499  1.00  0.00    -0.166 F 
ATOM     21  F   UNL A   1      34.336  16.094  23.081  1.00  0.00    -0.166 F 
ATOM     22  F   UNL A   1      34.772  15.780  25.174  1.00  0.00    -0.166 F 
ENDBRANCH  18  19
ENDBRANCH  11  13
ENDBRANCH   7  11
ENDBRANCH   6   7
ENDBRANCH   4   6
ENDBRANCH   3   4
ENDBRANCH   2   3
ENDBRANCH   1   2
BRANCH   1  23
ATOM     23  O   UNL A   1      33.605  28.789  24.925  1.00  0.00    -0.374 OA
BRANCH  23  24
ATOM     24  C   UNL A   1      32.447  29.271  25.603  1.00  0.00     0.202 C 
BRANCH  24  25
ATOM     25  C   UNL A   1      32.568  29.195  27.128  1.00  0.00     0.261 C 
BRANCH  25  26
ATOM     26  O   UNL A   1      33.937  29.043  27.530  1.00  0.00    -0.460 OA
BRANCH  26  27
ATOM     27  C   UNL A   1      34.550  30.171  27.969  1.00  0.00     0.338 C 
ATOM     28  O   UNL A   1      34.034  31.238  28.255  1.00  0.00    -0.246 OA
BRANCH  27  29
ATOM     29  C   UNL A   1      35.955  29.847  28.291  1.00  0.00     0.060 A 
ATOM     30  C   UNL A   1      36.908  29.971  27.268  1.00  0.00     0.016 A 
ATOM     31  C   UNL A   1      36.347  29.502  29.587  1.00  0.00     0.016 A 
ATOM     32  C   UNL A   1      38.256  29.761  27.537  1.00  0.00     0.010 A 
ATOM     33  C   UNL A   1      37.693  29.273  29.852  1.00  0.00     0.010 A 
ATOM     34  C   UNL A   1      38.648  29.391  28.828  1.00  0.00    -0.014 A 
BRANCH  34  35
ATOM     35  C   UNL A   1      40.042  28.994  29.106  1.00  0.00     0.031 A 
ATOM     36  C   UNL A   1      40.996  30.055  29.567  1.00  0.00     0.074 A 
ATOM     37  C   UNL A   1      40.444  27.730  28.886  1.00  0.00     0.049 A 
ATOM     38  N   UNL A   1      42.293  30.002  29.688  1.00  0.00    -0.248 NA
ATOM     39  C   UNL A   1      40.408  31.359  29.922  1.00  0.00     0.031 C 
ATOM     40  C   UNL A   1      39.577  26.627  28.470  1.00  0.00     0.029 A 
ATOM     41  N   UNL A   1      41.695  27.172  28.943  1.00  0.00    -0.354 N 
ATOM     42  C   UNL A   1      42.682  31.268  30.105  1.00  0.00     0.074 A 
ATOM     43  C   UNL A   1      41.486  32.072  30.214  1.00  0.00     0.031 C 
ATOM     44  C   UNL A   1      40.331  25.532  28.268  1.00  0.00     0.029 A 
ATOM     45  C   UNL A   1      41.733  25.872  28.494  1.00  0.00     0.049 A 
ATOM     46  H   UNL A   1      42.487  27.654  29.273  1.00  0.00     0.167 HD
ATOM     47  C   UNL A   1      43.932  31.712  30.365  1.00  0.00     0.037 A 
ATOM     48  C   UNL A   1      42.789  25.074  28.243  1.00  0.00     0.037 A 
ATOM     49  C   UNL A   1      45.104  30.885  30.258  1.00  0.00     0.049 A 
ATOM     50  C   UNL A   1      44.177  25.616  28.486  1.00  0.00     0.074 A 
ATOM     51  C   UNL A   1      46.414  31.213  30.550  1.00  0.00     0.029 A 
ATOM     52  N   UNL A   1      45.106  29.571  29.812  1.00  0.00    -0.354 N 
ATOM     53  N   UNL A   1      44.534  26.798  28.933  1.00  0.00    -0.248 NA
ATOM     54  C   UNL A   1      45.304  24.722  28.187  1.00  0.00     0.031 C 
ATOM     55  C   UNL A   1      47.218  30.118  30.221  1.00  0.00     0.029 A 
ATOM     56  C   UNL A   1      46.401  29.087  29.782  1.00  0.00     0.049 A 
ATOM     57  H   UNL A   1      44.306  29.060  29.556  1.00  0.00     0.167 HD
ATOM     58  C   UNL A   1      45.924  26.782  28.983  1.00  0.00     0.074 A 
ATOM     59  C   UNL A   1      46.341  25.465  28.545  1.00  0.00     0.031 C 
ATOM     60  C   UNL A   1      46.782  27.766  29.348  1.00  0.00     0.037 A 
BRANCH  47  61
ATOM     61  C   UNL A   1      44.110  33.149  30.760  1.00  0.00     0.058 A 
ATOM     62  C   UNL A   1      44.217  34.172  29.805  1.00  0.00     0.135 A 
ATOM     63  C   UNL A   1      44.087  33.516  32.115  1.00  0.00     0.135 A 
ATOM     64  F   UNL A   1      44.271  33.876  28.498  1.00  0.00    -0.206 F 
ATOM     65  C   UNL A   1      44.287  35.509  30.182  1.00  0.00     0.059 A 
ATOM     66  C   UNL A   1      44.130  34.847  32.514  1.00  0.00     0.059 A 
ATOM     67  F   UNL A   1      44.001  32.573  33.067  1.00  0.00    -0.206 F 
ATOM     68  C   UNL A   1      44.229  35.838  31.538  1.00  0.00     0.060 A 
BRANCH  68  69
ATOM     69  S   UNL A   1      44.249  37.582  32.003  1.00  0.00     0.124 S 
ATOM     70  O   UNL A   1      45.657  37.779  32.339  1.00  0.00    -0.237 OA
ATOM     71  O   UNL A   1      43.793  38.233  30.780  1.00  0.00    -0.237 OA
ATOM     72  O   UNL A   1      43.323  37.646  33.128  1.00  0.00    -0.744 OA
ENDBRANCH  68  69
ENDBRANCH  47  61
BRANCH  48  73
ATOM     73  C   UNL A   1      42.592  23.711  27.679  1.00  0.00     0.058 A 
ATOM     74  C   UNL A   1      42.444  22.593  28.515  1.00  0.00     0.135 A 
ATOM     75  C   UNL A   1      42.583  23.490  26.292  1.00  0.00     0.135 A 
ATOM     76  F   UNL A   1      42.453  22.747  29.847  1.00  0.00    -0.206 F 
ATOM     77  C   UNL A   1      42.327  21.306  27.999  1.00  0.00     0.059 A 
ATOM     78  C   UNL A   1      42.436  22.217  25.751  1.00  0.00     0.059 A 
ATOM     79  F   UNL A   1      42.709  24.525  25.445  1.00  0.00    -0.206 F 
ATOM     80  C   UNL A   1      42.328  21.128  26.614  1.00  0.00     0.060 A 
BRANCH  80  81
ATOM     81  S   UNL A   1      42.167  19.455  25.955  1.00  0.00     0.124 S 
ATOM     82  O   UNL A   1      40.732  19.373  25.711  1.00  0.00    -0.237 OA
ATOM     83  O   UNL A   1      43.015  19.511  24.768  1.00  0.00    -0.237 OA
ATOM     84  O   UNL A   1      42.673  18.617  27.039  1.00  0.00    -0.744 OA
ENDBRANCH  80  81
ENDBRANCH  48  73
BRANCH  60  85
ATOM     85  C   UNL A   1      48.251  27.452  29.312  1.00  0.00     0.058 A 
ATOM     86  C   UNL A   1      49.044  27.776  28.200  1.00  0.00     0.135 A 
ATOM     87  C   UNL A   1      48.887  26.888  30.430  1.00  0.00     0.135 A 
ATOM     88  F   UNL A   1      48.482  28.308  27.103  1.00  0.00    -0.206 F 
ATOM     89  C   UNL A   1      50.413  27.537  28.192  1.00  0.00     0.059 A 
ATOM     90  C   UNL A   1      50.260  26.671  30.457  1.00  0.00     0.059 A 
ATOM     91  F   UNL A   1      48.175  26.572  31.524  1.00  0.00    -0.206 F 
ATOM     92  C   UNL A   1      51.013  26.991  29.328  1.00  0.00     0.060 A 
BRANCH  92  93
ATOM     93  S   UNL A   1      52.799  26.734  29.319  1.00  0.00     0.124 S 
ATOM     94  O   UNL A   1      52.993  26.052  28.045  1.00  0.00    -0.237 OA
ATOM     95  O   UNL A   1      53.310  28.099  29.393  1.00  0.00    -0.237 OA
ATOM     96  O   UNL A   1      53.031  25.919  30.509  1.00  0.00    -0.744 OA
ENDBRANCH  92  93
ENDBRANCH  60  85
ENDBRANCH  34  35
ENDBRANCH  27  29
ENDBRANCH  26  27
ENDBRANCH  25  26
ENDBRANCH  24  25
ENDBRANCH  23  24
ENDBRANCH   1  23
TORSDOF 21
ENDMDL
MODEL 2
REMARK VINA RESULT:     -10.4      5.091     10.439
REMARK SMILES O=C(CC1(Nc2ccc(C(F)(F)F)cc2)CCC1)OCCOCCOC(=O)c1ccc(-c2c3nc(c(-c4c(F)cc(S(=O)(=O)[O-])cc4F)c4ccc([nH]4)c(-c4c(F)cc(S(=O)(=O)[O-])cc4F)c4nc(c(-c5c(F)cc(S(=O)(=O)[O-])cc5F)c5ccc2[nH]5)C=C4)C=C3)cc1
REMARK SMILES IDX 21 1 20 2 19 3 2 4 1 5 3 6 4 7 16 8 18 9 17 10 5 11 6 13
REMARK SMILES IDX 7 14 15 15 8 16 14 17 9 18 10 19 11 20 12 21 13 22 22 23
REMARK SMILES IDX 23 24 24 25 25 26 26 27 27 28 28 29 29 30 93 31 30 32 92 33
REMARK SMILES IDX 31 34 32 35 33 36 86 37 34 38 91 39 85 40 87 41 35 42 90 43
REMARK SMILES IDX 84 44 83 45 36 47 70 48 49 49 69 50 50 51 53 52 68 53 88 54
REMARK SMILES IDX 51 55 52 56 67 58 89 59 54 60 37 61 38 62 47 63 39 64 40 65
REMARK SMILES IDX 46 66 48 67 41 68 42 69 43 70 44 71 45 72 71 73 72 74 81 75
REMARK SMILES IDX 73 76 74 77 80 78 82 79 75 80 76 81 77 82 78 83 79 84 55 85
REMARK SMILES IDX 56 86 65 87 57 88 58 89 64 90 66 91 59 92 60 93 61 94 62 95
REMARK SMILES IDX 63 96
REMARK H PARENT 5 12 87 46 53 57
REMARK Flexibility Score: inf
ROOT
ATOM      1  C   UNL A   1      38.986  22.035  26.165  1.00  0.00     0.202 C 
ENDROOT
BRANCH   1   2
ATOM      2  C   UNL A   1      37.726  21.726  25.377  1.00  0.00     0.261 C 
BRANCH   2   3
ATOM      3  O   UNL A   1      37.464  22.701  24.361  1.00  0.00    -0.463 OA
BRANCH   3   4
ATOM      4  C   UNL A   1      36.273  23.289  24.149  1.00  0.00     0.308 C 
ATOM      5  O   UNL A   1      35.887  23.450  22.989  1.00  0.00    -0.252 OA
BRANCH   4   6
ATOM      6  C   UNL A   1      35.409  23.775  25.284  1.00  0.00     0.151 C 
BRANCH   6   7
ATOM      7  C   UNL A   1      34.096  23.066  25.645  1.00  0.00     0.048 C 
ATOM      8  C   UNL A   1      33.993  22.592  27.128  1.00  0.00     0.029 C 
ATOM      9  C   UNL A   1      32.883  24.011  25.945  1.00  0.00     0.029 C 
ATOM     10  C   UNL A   1      32.614  23.257  27.246  1.00  0.00     0.005 C 
BRANCH   7  11
ATOM     11  N   UNL A   1      33.700  21.985  24.751  1.00  0.00    -0.379 N 
ATOM     12  H   UNL A   1      33.283  22.285  23.911  1.00  0.00     0.161 HD
BRANCH  11  13
ATOM     13  C   UNL A   1      33.808  20.583  24.880  1.00  0.00     0.034 A 
ATOM     14  C   UNL A   1      32.630  19.826  24.986  1.00  0.00     0.026 A 
ATOM     15  C   UNL A   1      35.013  19.892  24.729  1.00  0.00     0.026 A 
ATOM     16  C   UNL A   1      32.648  18.429  24.858  1.00  0.00     0.015 A 
ATOM     17  C   UNL A   1      35.037  18.495  24.600  1.00  0.00     0.015 A 
ATOM     18  C   UNL A   1      33.852  17.748  24.639  1.00  0.00     0.056 A 
BRANCH  18  19
ATOM     19  C   UNL A   1      33.875  16.257  24.391  1.00  0.00     0.416 C 
ATOM     20  F   UNL A   1      34.142  15.921  23.098  1.00  0.00    -0.166 F 
ATOM     21  F   UNL A   1      34.777  15.588  25.159  1.00  0.00    -0.166 F 
ATOM     22  F   UNL A   1      32.672  15.670  24.675  1.00  0.00    -0.166 F 
ENDBRANCH  18  19
ENDBRANCH  11  13
ENDBRANCH   7  11
ENDBRANCH   6   7
ENDBRANCH   4   6
ENDBRANCH   3   4
ENDBRANCH   2   3
ENDBRANCH   1   2
BRANCH   1  23
ATOM     23  O   UNL A   1      39.853  20.912  26.274  1.00  0.00    -0.374 OA
BRANCH  23  24
ATOM     24  C   UNL A   1      40.947  21.084  27.172  1.00  0.00     0.202 C 
BRANCH  24  25
ATOM     25  C   UNL A   1      42.055  21.975  26.605  1.00  0.00     0.261 C 
BRANCH  25  26
ATOM     26  O   UNL A   1      42.227  23.156  27.404  1.00  0.00    -0.460 OA
BRANCH  26  27
ATOM     27  C   UNL A   1      42.130  24.335  26.739  1.00  0.00     0.338 C 
ATOM     28  O   UNL A   1      42.030  24.508  25.536  1.00  0.00    -0.246 OA
BRANCH  27  29
ATOM     29  C   UNL A   1      41.918  25.414  27.726  1.00  0.00     0.060 A 
ATOM     30  C   UNL A   1      42.871  26.444  27.787  1.00  0.00     0.016 A 
ATOM     31  C   UNL A   1      40.772  25.461  28.522  1.00  0.00     0.016 A 
ATOM     32  C   UNL A   1      42.677  27.528  28.636  1.00  0.00     0.010 A 
ATOM     33  C   UNL A   1      40.588  26.535  29.387  1.00  0.00     0.010 A 
ATOM     34  C   UNL A   1      41.543  27.564  29.453  1.00  0.00    -0.014 A 
BRANCH  34  35
ATOM     35  C   UNL A   1      41.393  28.607  30.487  1.00  0.00     0.031 A 
ATOM     36  C   UNL A   1      42.235  28.498  31.723  1.00  0.00     0.074 A 
ATOM     37  C   UNL A   1      40.478  29.581  30.339  1.00  0.00     0.049 A 
ATOM     38  N   UNL A   1      42.152  29.165  32.839  1.00  0.00    -0.248 NA
ATOM     39  C   UNL A   1      43.307  27.486  31.701  1.00  0.00     0.031 C 
ATOM     40  C   UNL A   1      39.640  29.783  29.157  1.00  0.00     0.029 A 
ATOM     41  N   UNL A   1      40.074  30.561  31.209  1.00  0.00    -0.354 N 
ATOM     42  C   UNL A   1      43.137  28.638  33.664  1.00  0.00     0.074 A 
ATOM     43  C   UNL A   1      43.806  27.593  32.923  1.00  0.00     0.031 C 
ATOM     44  C   UNL A   1      38.789  30.797  29.393  1.00  0.00     0.029 A 
ATOM     45  C   UNL A   1      38.993  31.281  30.756  1.00  0.00     0.049 A 
ATOM     46  H   UNL A   1      40.513  30.731  32.073  1.00  0.00     0.167 HD
ATOM     47  C   UNL A   1      43.443  28.999  34.930  1.00  0.00     0.037 A 
ATOM     48  C   UNL A   1      38.226  32.185  31.396  1.00  0.00     0.037 A 
ATOM     49  C   UNL A   1      42.766  30.051  35.640  1.00  0.00     0.049 A 
ATOM     50  C   UNL A   1      38.554  32.525  32.829  1.00  0.00     0.074 A 
ATOM     51  C   UNL A   1      43.029  30.538  36.906  1.00  0.00     0.029 A 
ATOM     52  N   UNL A   1      41.684  30.767  35.148  1.00  0.00    -0.354 N 
ATOM     53  N   UNL A   1      39.522  32.060  33.585  1.00  0.00    -0.248 NA
ATOM     54  C   UNL A   1      37.686  33.504  33.498  1.00  0.00     0.031 C 
ATOM     55  C   UNL A   1      42.067  31.507  37.205  1.00  0.00     0.029 A 
ATOM     56  C   UNL A   1      41.242  31.665  36.102  1.00  0.00     0.049 A 
ATOM     57  H   UNL A   1      41.291  30.653  34.254  1.00  0.00     0.167 HD
ATOM     58  C   UNL A   1      39.388  32.703  34.812  1.00  0.00     0.074 A 
ATOM     59  C   UNL A   1      38.261  33.606  34.688  1.00  0.00     0.031 C 
ATOM     60  C   UNL A   1      40.121  32.557  35.943  1.00  0.00     0.037 A 
BRANCH  47  61
ATOM     61  C   UNL A   1      44.527  28.244  35.644  1.00  0.00     0.058 A 
ATOM     62  C   UNL A   1      44.261  27.073  36.369  1.00  0.00     0.135 A 
ATOM     63  C   UNL A   1      45.865  28.654  35.526  1.00  0.00     0.135 A 
ATOM     64  F   UNL A   1      42.998  26.651  36.535  1.00  0.00    -0.206 F 
ATOM     65  C   UNL A   1      45.286  26.330  36.946  1.00  0.00     0.059 A 
ATOM     66  C   UNL A   1      46.908  27.915  36.074  1.00  0.00     0.059 A 
ATOM     67  F   UNL A   1      46.170  29.777  34.856  1.00  0.00    -0.206 F 
ATOM     68  C   UNL A   1      46.607  26.752  36.782  1.00  0.00     0.060 A 
BRANCH  68  69
ATOM     69  S   UNL A   1      47.927  25.737  37.478  1.00  0.00     0.124 S 
ATOM     70  O   UNL A   1      48.606  25.273  36.272  1.00  0.00    -0.237 OA
ATOM     71  O   UNL A   1      48.664  26.702  38.287  1.00  0.00    -0.237 OA
ATOM     72  O   UNL A   1      47.211  24.711  38.227  1.00  0.00    -0.744 OA
ENDBRANCH  68  69
ENDBRANCH  47  61
BRANCH  48  73
ATOM     73  C   UNL A   1      37.042  32.787  30.722  1.00  0.00     0.058 A 
ATOM     74  C   UNL A   1      37.180  33.877  29.849  1.00  0.00     0.135 A 
ATOM     75  C   UNL A   1      35.744  32.308  30.965  1.00  0.00     0.135 A 
ATOM     76  F   UNL A   1      38.397  34.377  29.589  1.00  0.00    -0.206 F 
ATOM     77  C   UNL A   1      36.075  34.490  29.267  1.00  0.00     0.059 A 
ATOM     78  C   UNL A   1      34.626  32.885  30.370  1.00  0.00     0.059 A 
ATOM     79  F   UNL A   1      35.554  31.260  31.782  1.00  0.00    -0.206 F 
ATOM     80  C   UNL A   1      34.800  33.988  29.537  1.00  0.00     0.060 A 
BRANCH  80  81
ATOM     81  S   UNL A   1      33.374  34.787  28.770  1.00  0.00     0.124 S 
ATOM     82  O   UNL A   1      33.977  35.992  28.215  1.00  0.00    -0.237 OA
ATOM     83  O   UNL A   1      32.947  33.782  27.801  1.00  0.00    -0.237 OA
ATOM     84  O   UNL A   1      32.462  34.994  29.890  1.00  0.00    -0.744 OA
ENDBRANCH  80  81
ENDBRANCH  48  73
BRANCH  60  85
ATOM     85  C   UNL A   1      39.744  33.405  37.126  1.00  0.00     0.058 A 
ATOM     86  C   UNL A   1      38.761  32.994  38.039  1.00  0.00     0.135 A 
ATOM     87  C   UNL A   1      40.426  34.604  37.388  1.00  0.00     0.135 A 
ATOM     88  F   UNL A   1      38.075  31.860  37.828  1.00  0.00    -0.206 F 
ATOM     89  C   UNL A   1      38.456  33.752  39.163  1.00  0.00     0.059 A 
ATOM     90  C   UNL A   1      40.160  35.362  38.524  1.00  0.00     0.059 A 
ATOM     91  F   UNL A   1      41.384  35.035  36.551  1.00  0.00    -0.206 F 
ATOM     92  C   UNL A   1      39.165  34.930  39.401  1.00  0.00     0.060 A 
BRANCH  92  93
ATOM     93  S   UNL A   1      38.791  35.876  40.891  1.00  0.00     0.124 S 
ATOM     94  O   UNL A   1      40.045  35.771  41.630  1.00  0.00    -0.237 OA
ATOM     95  O   UNL A   1      38.481  37.196  40.352  1.00  0.00    -0.237 OA
ATOM     96  O   UNL A   1      37.659  35.160  41.473  1.00  0.00    -0.744 OA
ENDBRANCH  92  93
ENDBRANCH  60  85
ENDBRANCH  34  35
ENDBRANCH  27  29
ENDBRANCH  26  27
ENDBRANCH  25  26
ENDBRANCH  24  25
ENDBRANCH  23  24
ENDBRANCH   1  23
TORSDOF 21
ENDMDL
MODEL 3
REMARK VINA RESULT:     -10.3      4.502      8.739
REMARK SMILES O=C(CC1(Nc2ccc(C(F)(F)F)cc2)CCC1)OCCOCCOC(=O)c1ccc(-c2c3nc(c(-c4c(F)cc(S(=O)(=O)[O-])cc4F)c4ccc([nH]4)c(-c4c(F)cc(S(=O)(=O)[O-])cc4F)c4nc(c(-c5c(F)cc(S(=O)(=O)[O-])cc5F)c5ccc2[nH]5)C=C4)C=C3)cc1
REMARK SMILES IDX 21 1 20 2 19 3 2 4 1 5 3 6 4 7 16 8 18 9 17 10 5 11 6 13
REMARK SMILES IDX 7 14 15 15 8 16 14 17 9 18 10 19 11 20 12 21 13 22 22 23
REMARK SMILES IDX 23 24 24 25 25 26 26 27 27 28 28 29 29 30 93 31 30 32 92 33
REMARK SMILES IDX 31 34 32 35 33 36 86 37 34 38 91 39 85 40 87 41 35 42 90 43
REMARK SMILES IDX 84 44 83 45 36 47 70 48 49 49 69 50 50 51 53 52 68 53 88 54
REMARK SMILES IDX 51 55 52 56 67 58 89 59 54 60 37 61 38 62 47 63 39 64 40 65
REMARK SMILES IDX 46 66 48 67 41 68 42 69 43 70 44 71 45 72 71 73 72 74 81 75
REMARK SMILES IDX 73 76 74 77 80 78 82 79 75 80 76 81 77 82 78 83 79 84 55 85
REMARK SMILES IDX 56 86 65 87 57 88 58 89 64 90 66 91 59 92 60 93 61 94 62 95
REMARK SMILES IDX 63 96
REMARK H PARENT 5 12 87 46 53 57
REMARK Flexibility Score: inf
ROOT
ATOM      1  C   UNL A   1      33.000  27.414  25.394  1.00  0.00     0.202 C 
ENDROOT
BRANCH   1   2
ATOM      2  C   UNL A   1      31.556  26.995  25.596  1.00  0.00     0.261 C 
BRANCH   2   3
ATOM      3  O   UNL A   1      31.419  25.966  26.584  1.00  0.00    -0.463 OA
BRANCH   3   4
ATOM      4  C   UNL A   1      31.519  24.647  26.339  1.00  0.00     0.308 C 
ATOM      5  O   UNL A   1      31.277  23.853  27.251  1.00  0.00    -0.252 OA
BRANCH   4   6
ATOM      6  C   UNL A   1      31.938  24.114  24.993  1.00  0.00     0.151 C 
BRANCH   6   7
ATOM      7  C   UNL A   1      33.259  23.353  24.815  1.00  0.00     0.048 C 
ATOM      8  C   UNL A   1      33.779  23.277  23.346  1.00  0.00     0.029 C 
ATOM      9  C   UNL A   1      34.554  24.166  25.149  1.00  0.00     0.029 C 
ATOM     10  C   UNL A   1      35.163  23.753  23.811  1.00  0.00     0.005 C 
BRANCH   7  11
ATOM     11  N   UNL A   1      33.308  22.030  25.426  1.00  0.00    -0.379 N 
ATOM     12  H   UNL A   1      33.197  22.030  26.404  1.00  0.00     0.161 HD
BRANCH  11  13
ATOM     13  C   UNL A   1      33.488  20.748  24.859  1.00  0.00     0.034 A 
ATOM     14  C   UNL A   1      34.758  20.154  24.936  1.00  0.00     0.026 A 
ATOM     15  C   UNL A   1      32.432  19.967  24.386  1.00  0.00     0.026 A 
ATOM     16  C   UNL A   1      34.947  18.798  24.631  1.00  0.00     0.015 A 
ATOM     17  C   UNL A   1      32.614  18.610  24.080  1.00  0.00     0.015 A 
ATOM     18  C   UNL A   1      33.869  18.002  24.222  1.00  0.00     0.056 A 
BRANCH  18  19
ATOM     19  C   UNL A   1      34.034  16.517  23.995  1.00  0.00     0.416 C 
ATOM     20  F   UNL A   1      32.913  15.792  24.270  1.00  0.00    -0.166 F 
ATOM     21  F   UNL A   1      34.402  16.193  22.726  1.00  0.00    -0.166 F 
ATOM     22  F   UNL A   1      35.012  15.981  24.788  1.00  0.00    -0.166 F 
ENDBRANCH  18  19
ENDBRANCH  11  13
ENDBRANCH   7  11
ENDBRANCH   6   7
ENDBRANCH   4   6
ENDBRANCH   3   4
ENDBRANCH   2   3
ENDBRANCH   1   2
BRANCH   1  23
ATOM     23  O   UNL A   1      33.135  28.810  25.147  1.00  0.00    -0.374 OA
BRANCH  23  24
ATOM     24  C   UNL A   1      31.993  29.591  25.490  1.00  0.00     0.202 C 
BRANCH  24  25
ATOM     25  C   UNL A   1      32.290  30.660  26.546  1.00  0.00     0.261 C 
BRANCH  25  26
ATOM     26  O   UNL A   1      33.645  30.563  27.010  1.00  0.00    -0.460 OA
BRANCH  26  27
ATOM     27  C   UNL A   1      34.172  31.700  27.531  1.00  0.00     0.338 C 
ATOM     28  O   UNL A   1      33.653  32.802  27.594  1.00  0.00    -0.246 OA
BRANCH  27  29
ATOM     29  C   UNL A   1      35.414  31.355  28.252  1.00  0.00     0.060 A 
ATOM     30  C   UNL A   1      35.479  30.105  28.886  1.00  0.00     0.016 A 
ATOM     31  C   UNL A   1      36.523  32.204  28.244  1.00  0.00     0.016 A 
ATOM     32  C   UNL A   1      36.654  29.694  29.506  1.00  0.00     0.010 A 
ATOM     33  C   UNL A   1      37.693  31.802  28.881  1.00  0.00     0.010 A 
ATOM     34  C   UNL A   1      37.757  30.552  29.521  1.00  0.00    -0.014 A 
BRANCH  34  35
ATOM     35  C   UNL A   1      38.957  30.222  30.315  1.00  0.00     0.031 A 
ATOM     36  C   UNL A   1      39.924  29.228  29.746  1.00  0.00     0.074 A 
ATOM     37  C   UNL A   1      39.129  30.755  31.537  1.00  0.00     0.049 A 
ATOM     38  N   UNL A   1      40.933  28.636  30.321  1.00  0.00    -0.248 NA
ATOM     39  C   UNL A   1      39.713  28.835  28.341  1.00  0.00     0.031 C 
ATOM     40  C   UNL A   1      38.257  31.754  32.156  1.00  0.00     0.029 A 
ATOM     41  N   UNL A   1      40.077  30.498  32.495  1.00  0.00    -0.354 N 
ATOM     42  C   UNL A   1      41.462  27.781  29.362  1.00  0.00     0.074 A 
ATOM     43  C   UNL A   1      40.661  27.926  28.168  1.00  0.00     0.031 C 
ATOM     44  C   UNL A   1      38.686  31.993  33.407  1.00  0.00     0.029 A 
ATOM     45  C   UNL A   1      39.831  31.132  33.690  1.00  0.00     0.049 A 
ATOM     46  H   UNL A   1      40.856  29.916  32.341  1.00  0.00     0.167 HD
ATOM     47  C   UNL A   1      42.518  26.947  29.482  1.00  0.00     0.037 A 
ATOM     48  C   UNL A   1      40.432  30.984  34.887  1.00  0.00     0.037 A 
ATOM     49  C   UNL A   1      43.304  26.831  30.682  1.00  0.00     0.049 A 
ATOM     50  C   UNL A   1      41.571  30.002  35.007  1.00  0.00     0.074 A 
ATOM     51  C   UNL A   1      44.430  26.059  30.898  1.00  0.00     0.029 A 
ATOM     52  N   UNL A   1      43.034  27.495  31.870  1.00  0.00    -0.354 N 
ATOM     53  N   UNL A   1      42.100  29.236  34.081  1.00  0.00    -0.248 NA
ATOM     54  C   UNL A   1      42.192  29.858  36.331  1.00  0.00     0.031 C 
ATOM     55  C   UNL A   1      44.806  26.209  32.236  1.00  0.00     0.029 A 
ATOM     56  C   UNL A   1      43.950  27.120  32.836  1.00  0.00     0.049 A 
ATOM     57  H   UNL A   1      42.302  28.138  32.004  1.00  0.00     0.167 HD
ATOM     58  C   UNL A   1      43.124  28.533  34.707  1.00  0.00     0.074 A 
ATOM     59  C   UNL A   1      43.156  28.983  36.084  1.00  0.00     0.031 C 
ATOM     60  C   UNL A   1      43.959  27.594  34.198  1.00  0.00     0.037 A 
BRANCH  47  61
ATOM     61  C   UNL A   1      42.876  26.077  28.312  1.00  0.00     0.058 A 
ATOM     62  C   UNL A   1      43.783  26.494  27.327  1.00  0.00     0.135 A 
ATOM     63  C   UNL A   1      42.367  24.770  28.226  1.00  0.00     0.135 A 
ATOM     64  F   UNL A   1      44.278  27.742  27.347  1.00  0.00    -0.206 F 
ATOM     65  C   UNL A   1      44.179  25.644  26.300  1.00  0.00     0.059 A 
ATOM     66  C   UNL A   1      42.768  23.895  27.223  1.00  0.00     0.059 A 
ATOM     67  F   UNL A   1      41.484  24.329  29.136  1.00  0.00    -0.206 F 
ATOM     68  C   UNL A   1      43.676  24.342  26.264  1.00  0.00     0.060 A 
BRANCH  68  69
ATOM     69  S   UNL A   1      44.256  23.231  24.965  1.00  0.00     0.124 S 
ATOM     70  O   UNL A   1      44.790  22.120  25.747  1.00  0.00    -0.237 OA
ATOM     71  O   UNL A   1      43.029  22.953  24.226  1.00  0.00    -0.237 OA
ATOM     72  O   UNL A   1      45.248  24.028  24.251  1.00  0.00    -0.744 OA
ENDBRANCH  68  69
ENDBRANCH  47  61
BRANCH  48  73
ATOM     73  C   UNL A   1      39.939  31.729  36.079  1.00  0.00     0.058 A 
ATOM     74  C   UNL A   1      40.667  32.802  36.616  1.00  0.00     0.135 A 
ATOM     75  C   UNL A   1      38.749  31.360  36.728  1.00  0.00     0.135 A 
ATOM     76  F   UNL A   1      41.814  33.190  36.040  1.00  0.00    -0.206 F 
ATOM     77  C   UNL A   1      40.251  33.461  37.769  1.00  0.00     0.059 A 
ATOM     78  C   UNL A   1      38.296  32.024  37.863  1.00  0.00     0.059 A 
ATOM     79  F   UNL A   1      38.007  30.349  36.250  1.00  0.00    -0.206 F 
ATOM     80  C   UNL A   1      39.065  33.061  38.388  1.00  0.00     0.060 A 
BRANCH  80  81
ATOM     81  S   UNL A   1      38.530  33.929  39.879  1.00  0.00     0.124 S 
ATOM     82  O   UNL A   1      39.486  33.436  40.863  1.00  0.00    -0.237 OA
ATOM     83  O   UNL A   1      38.680  35.327  39.488  1.00  0.00    -0.237 OA
ATOM     84  O   UNL A   1      37.153  33.479  40.054  1.00  0.00    -0.744 OA
ENDBRANCH  80  81
ENDBRANCH  48  73
BRANCH  60  85
ATOM     85  C   UNL A   1      44.988  27.008  35.122  1.00  0.00     0.058 A 
ATOM     86  C   UNL A   1      46.230  27.629  35.326  1.00  0.00     0.135 A 
ATOM     87  C   UNL A   1      44.700  25.854  35.869  1.00  0.00     0.135 A 
ATOM     88  F   UNL A   1      46.557  28.729  34.630  1.00  0.00    -0.206 F 
ATOM     89  C   UNL A   1      47.157  27.116  36.225  1.00  0.00     0.059 A 
ATOM     90  C   UNL A   1      45.599  25.342  36.798  1.00  0.00     0.059 A 
ATOM     91  F   UNL A   1      43.520  25.229  35.720  1.00  0.00    -0.206 F 
ATOM     92  C   UNL A   1      46.829  25.977  36.962  1.00  0.00     0.060 A 
BRANCH  92  93
ATOM     93  S   UNL A   1      48.024  25.353  38.162  1.00  0.00     0.124 S 
ATOM     94  O   UNL A   1      48.431  26.580  38.837  1.00  0.00    -0.237 OA
ATOM     95  O   UNL A   1      47.217  24.431  38.954  1.00  0.00    -0.237 OA
ATOM     96  O   UNL A   1      49.047  24.727  37.330  1.00  0.00    -0.744 OA
ENDBRANCH  92  93
ENDBRANCH  60  85
ENDBRANCH  34  35
ENDBRANCH  27  29
ENDBRANCH  26  27
ENDBRANCH  25  26
ENDBRANCH  24  25
ENDBRANCH  23  24
ENDBRANCH   1  23
TORSDOF 21
ENDMDL
