MODEL 1
REMARK VINA RESULT:     -10.6      0.000      0.000
REMARK SMILES Cc1onc2c(=O)n(C)nc(C(=O)OCCOCCOC(=O)c3ccc(-c4c5nc(c(-c6c(F)cc(S(=O)(=O)[O-])cc6F)c6ccc([nH]6)c(-c6c(F)cc(S(=O)(=O)[O-])cc6F)c6nc(c(-c7c(F)cc(S(=O)(=O)[O-])cc7F)c7ccc4[nH]7)C=C6)C=C5)cc3)c12
REMARK SMILES IDX 18 1 17 2 16 3 15 4 14 5 12 6 13 7 11 8 1 9 2 10 3 11 89 12
REMARK SMILES IDX 4 13 5 14 6 15 10 16 7 17 8 18 9 19 19 20 20 21 21 22 22 23
REMARK SMILES IDX 23 24 24 25 88 26 25 27 87 28 26 29 27 30 28 31 81 32 29 33
REMARK SMILES IDX 86 34 80 35 82 36 30 37 85 38 79 39 78 40 31 42 65 43 44 44
REMARK SMILES IDX 64 45 45 46 48 47 63 48 83 49 46 50 47 51 62 53 84 54 49 55
REMARK SMILES IDX 32 56 33 57 42 58 34 59 35 60 41 61 43 62 36 63 37 64 38 65
REMARK SMILES IDX 39 66 40 67 66 68 67 69 76 70 68 71 69 72 75 73 77 74 70 75
REMARK SMILES IDX 71 76 72 77 73 78 74 79 50 80 51 81 60 82 52 83 53 84 59 85
REMARK SMILES IDX 61 86 54 87 55 88 56 89 57 90 58 91
REMARK H PARENT 82 41 48 52
REMARK Flexibility Score: inf
ROOT
ATOM      1  C   UNL A   1      38.278  21.032  25.359  1.00  0.00     0.202 C 
ENDROOT
BRANCH   1   2
ATOM      2  O   UNL A   1      36.953  21.304  24.911  1.00  0.00    -0.374 OA
BRANCH   2   3
ATOM      3  C   UNL A   1      36.370  22.548  25.314  1.00  0.00     0.202 C 
BRANCH   3   4
ATOM      4  C   UNL A   1      35.086  22.391  26.130  1.00  0.00     0.261 C 
BRANCH   4   5
ATOM      5  O   UNL A   1      34.624  23.685  26.546  1.00  0.00    -0.458 OA
BRANCH   5   6
ATOM      6  C   UNL A   1      33.384  24.023  26.149  1.00  0.00     0.359 C 
ATOM      7  O   UNL A   1      32.320  23.539  26.495  1.00  0.00    -0.244 OA
BRANCH   6   8
ATOM      8  C   UNL A   1      33.455  25.231  25.234  1.00  0.00     0.182 A 
ATOM      9  C   UNL A   1      32.982  22.637  23.015  1.00  0.00     0.091 C 
ATOM     10  C   UNL A   1      33.309  24.073  22.921  1.00  0.00     0.144 A 
ATOM     11  O   UNL A   1      33.453  24.562  21.652  1.00  0.00    -0.360 OA
ATOM     12  C   UNL A   1      33.477  25.112  23.804  1.00  0.00     0.085 A 
ATOM     13  N   UNL A   1      33.684  25.929  21.697  1.00  0.00    -0.074 NA
ATOM     14  C   UNL A   1      33.664  26.244  22.997  1.00  0.00     0.183 A 
ATOM     15  C   UNL A   1      33.775  27.572  23.567  1.00  0.00     0.296 A 
ATOM     16  N   UNL A   1      33.511  26.421  25.775  1.00  0.00    -0.162 NA
ATOM     17  O   UNL A   1      33.973  28.587  22.903  1.00  0.00    -0.265 OA
ATOM     18  N   UNL A   1      33.610  27.569  24.970  1.00  0.00    -0.230 N 
ATOM     19  C   UNL A   1      33.595  28.839  25.671  1.00  0.00     0.178 C 
ENDBRANCH   6   8
ENDBRANCH   5   6
ENDBRANCH   4   5
ENDBRANCH   3   4
ENDBRANCH   2   3
ENDBRANCH   1   2
BRANCH   1  20
ATOM     20  C   UNL A   1      39.082  22.145  26.048  1.00  0.00     0.261 C 
BRANCH  20  21
ATOM     21  O   UNL A   1      39.720  21.788  27.270  1.00  0.00    -0.460 OA
BRANCH  21  22
ATOM     22  C   UNL A   1      41.067  21.686  27.162  1.00  0.00     0.338 C 
ATOM     23  O   UNL A   1      41.722  20.672  26.984  1.00  0.00    -0.246 OA
BRANCH  22  24
ATOM     24  C   UNL A   1      41.649  23.029  27.227  1.00  0.00     0.060 A 
ATOM     25  C   UNL A   1      41.334  23.852  28.311  1.00  0.00     0.016 A 
ATOM     26  C   UNL A   1      42.417  23.500  26.163  1.00  0.00     0.016 A 
ATOM     27  C   UNL A   1      41.782  25.172  28.320  1.00  0.00     0.010 A 
ATOM     28  C   UNL A   1      42.832  24.828  26.164  1.00  0.00     0.010 A 
ATOM     29  C   UNL A   1      42.507  25.682  27.231  1.00  0.00    -0.014 A 
BRANCH  29  30
ATOM     30  C   UNL A   1      42.866  27.120  27.201  1.00  0.00     0.031 A 
ATOM     31  C   UNL A   1      41.747  28.104  27.239  1.00  0.00     0.074 A 
ATOM     32  C   UNL A   1      44.065  27.545  27.658  1.00  0.00     0.049 A 
ATOM     33  N   UNL A   1      41.064  28.318  28.324  1.00  0.00    -0.248 NA
ATOM     34  C   UNL A   1      41.210  28.782  26.062  1.00  0.00     0.031 C 
ATOM     35  C   UNL A   1      44.967  26.733  28.486  1.00  0.00     0.029 A 
ATOM     36  N   UNL A   1      44.622  28.803  27.691  1.00  0.00    -0.354 N 
ATOM     37  C   UNL A   1      39.983  29.098  27.987  1.00  0.00     0.074 A 
ATOM     38  C   UNL A   1      40.124  29.386  26.576  1.00  0.00     0.031 C 
ATOM     39  C   UNL A   1      45.856  27.546  29.089  1.00  0.00     0.029 A 
ATOM     40  C   UNL A   1      45.683  28.904  28.589  1.00  0.00     0.049 A 
ATOM     41  H   UNL A   1      44.303  29.553  27.138  1.00  0.00     0.167 HD
ATOM     42  C   UNL A   1      39.032  29.445  28.893  1.00  0.00     0.037 A 
ATOM     43  C   UNL A   1      46.026  30.007  29.308  1.00  0.00     0.037 A 
ATOM     44  C   UNL A   1      39.233  28.947  30.222  1.00  0.00     0.049 A 
ATOM     45  C   UNL A   1      44.775  30.259  30.116  1.00  0.00     0.074 A 
ATOM     46  C   UNL A   1      38.936  27.788  30.910  1.00  0.00     0.029 A 
ATOM     47  N   UNL A   1      40.037  29.666  31.077  1.00  0.00    -0.354 N 
ATOM     48  N   UNL A   1      44.413  29.623  31.199  1.00  0.00    -0.248 NA
ATOM     49  C   UNL A   1      43.718  31.064  29.501  1.00  0.00     0.031 C 
ATOM     50  C   UNL A   1      39.941  27.678  31.923  1.00  0.00     0.029 A 
ATOM     51  C   UNL A   1      40.813  28.751  31.745  1.00  0.00     0.049 A 
ATOM     52  H   UNL A   1      40.052  30.644  31.187  1.00  0.00     0.167 HD
ATOM     53  C   UNL A   1      43.022  29.740  31.254  1.00  0.00     0.074 A 
ATOM     54  C   UNL A   1      42.663  30.665  30.197  1.00  0.00     0.031 C 
ATOM     55  C   UNL A   1      42.220  28.953  32.026  1.00  0.00     0.037 A 
BRANCH  42  56
ATOM     56  C   UNL A   1      37.918  30.363  28.605  1.00  0.00     0.058 A 
ATOM     57  C   UNL A   1      38.047  31.712  28.963  1.00  0.00     0.135 A 
ATOM     58  C   UNL A   1      36.675  29.905  28.158  1.00  0.00     0.135 A 
ATOM     59  F   UNL A   1      39.227  32.178  29.407  1.00  0.00    -0.206 F 
ATOM     60  C   UNL A   1      36.964  32.577  28.921  1.00  0.00     0.059 A 
ATOM     61  C   UNL A   1      35.574  30.754  28.107  1.00  0.00     0.059 A 
ATOM     62  F   UNL A   1      36.512  28.618  27.812  1.00  0.00    -0.206 F 
ATOM     63  C   UNL A   1      35.725  32.082  28.512  1.00  0.00     0.060 A 
BRANCH  63  64
ATOM     64  S   UNL A   1      34.307  33.198  28.569  1.00  0.00     0.124 S 
ATOM     65  O   UNL A   1      33.323  32.469  27.775  1.00  0.00    -0.237 OA
ATOM     66  O   UNL A   1      34.041  33.272  30.001  1.00  0.00    -0.237 OA
ATOM     67  O   UNL A   1      34.816  34.425  27.964  1.00  0.00    -0.744 OA
ENDBRANCH  63  64
ENDBRANCH  42  56
BRANCH  43  68
ATOM     68  C   UNL A   1      46.720  31.088  28.530  1.00  0.00     0.058 A 
ATOM     69  C   UNL A   1      47.940  31.615  29.008  1.00  0.00     0.135 A 
ATOM     70  C   UNL A   1      46.238  31.645  27.333  1.00  0.00     0.135 A 
ATOM     71  F   UNL A   1      48.415  31.252  30.212  1.00  0.00    -0.206 F 
ATOM     72  C   UNL A   1      48.707  32.512  28.271  1.00  0.00     0.059 A 
ATOM     73  C   UNL A   1      47.000  32.526  26.563  1.00  0.00     0.059 A 
ATOM     74  F   UNL A   1      45.023  31.329  26.867  1.00  0.00    -0.206 F 
ATOM     75  C   UNL A   1      48.248  32.929  27.026  1.00  0.00     0.060 A 
BRANCH  75  76
ATOM     76  S   UNL A   1      49.330  33.952  26.009  1.00  0.00     0.124 S 
ATOM     77  O   UNL A   1      50.244  32.961  25.452  1.00  0.00    -0.237 OA
ATOM     78  O   UNL A   1      48.385  34.545  25.067  1.00  0.00    -0.237 OA
ATOM     79  O   UNL A   1      49.916  34.882  26.968  1.00  0.00    -0.744 OA
ENDBRANCH  75  76
ENDBRANCH  43  68
BRANCH  55  80
ATOM     80  C   UNL A   1      42.898  28.085  33.033  1.00  0.00     0.058 A 
ATOM     81  C   UNL A   1      42.872  28.437  34.390  1.00  0.00     0.135 A 
ATOM     82  C   UNL A   1      43.475  26.853  32.686  1.00  0.00     0.135 A 
ATOM     83  F   UNL A   1      42.323  29.600  34.778  1.00  0.00    -0.206 F 
ATOM     84  C   UNL A   1      43.353  27.577  35.373  1.00  0.00     0.059 A 
ATOM     85  C   UNL A   1      43.947  25.969  33.654  1.00  0.00     0.059 A 
ATOM     86  F   UNL A   1      43.534  26.463  31.402  1.00  0.00    -0.206 F 
ATOM     87  C   UNL A   1      43.869  26.335  34.997  1.00  0.00     0.060 A 
BRANCH  87  88
ATOM     88  S   UNL A   1      44.339  25.169  36.294  1.00  0.00     0.124 S 
ATOM     89  O   UNL A   1      43.046  24.798  36.857  1.00  0.00    -0.237 OA
ATOM     90  O   UNL A   1      45.024  24.123  35.538  1.00  0.00    -0.237 OA
ATOM     91  O   UNL A   1      45.202  25.958  37.171  1.00  0.00    -0.744 OA
ENDBRANCH  87  88
ENDBRANCH  55  80
ENDBRANCH  29  30
ENDBRANCH  22  24
ENDBRANCH  21  22
ENDBRANCH  20  21
ENDBRANCH   1  20
TORSDOF 17
ENDMDL
MODEL 2
REMARK VINA RESULT:     -10.4      1.272      1.795
REMARK SMILES Cc1onc2c(=O)n(C)nc(C(=O)OCCOCCOC(=O)c3ccc(-c4c5nc(c(-c6c(F)cc(S(=O)(=O)[O-])cc6F)c6ccc([nH]6)c(-c6c(F)cc(S(=O)(=O)[O-])cc6F)c6nc(c(-c7c(F)cc(S(=O)(=O)[O-])cc7F)c7ccc4[nH]7)C=C6)C=C5)cc3)c12
REMARK SMILES IDX 18 1 17 2 16 3 15 4 14 5 12 6 13 7 11 8 1 9 2 10 3 11 89 12
REMARK SMILES IDX 4 13 5 14 6 15 10 16 7 17 8 18 9 19 19 20 20 21 21 22 22 23
REMARK SMILES IDX 23 24 24 25 88 26 25 27 87 28 26 29 27 30 28 31 81 32 29 33
REMARK SMILES IDX 86 34 80 35 82 36 30 37 85 38 79 39 78 40 31 42 65 43 44 44
REMARK SMILES IDX 64 45 45 46 48 47 63 48 83 49 46 50 47 51 62 53 84 54 49 55
REMARK SMILES IDX 32 56 33 57 42 58 34 59 35 60 41 61 43 62 36 63 37 64 38 65
REMARK SMILES IDX 39 66 40 67 66 68 67 69 76 70 68 71 69 72 75 73 77 74 70 75
REMARK SMILES IDX 71 76 72 77 73 78 74 79 50 80 51 81 60 82 52 83 53 84 59 85
REMARK SMILES IDX 61 86 54 87 55 88 56 89 57 90 58 91
REMARK H PARENT 82 41 48 52
REMARK Flexibility Score: inf
ROOT
ATOM      1  C   UNL A   1      37.588  21.653  25.337  1.00  0.00     0.202 C 
ENDROOT
BRANCH   1   2
ATOM      2  O   UNL A   1      36.260  21.622  25.852  1.00  0.00    -0.374 OA
BRANCH   2   3
ATOM      3  C   UNL A   1      35.279  20.918  25.085  1.00  0.00     0.202 C 
BRANCH   3   4
ATOM      4  C   UNL A   1      33.916  21.612  25.041  1.00  0.00     0.261 C 
BRANCH   4   5
ATOM      5  O   UNL A   1      33.866  22.495  23.911  1.00  0.00    -0.458 OA
BRANCH   5   6
ATOM      6  C   UNL A   1      32.638  22.858  23.502  1.00  0.00     0.359 C 
ATOM      7  O   UNL A   1      31.787  22.174  22.959  1.00  0.00    -0.244 OA
BRANCH   6   8
ATOM      8  C   UNL A   1      32.368  24.293  23.915  1.00  0.00     0.182 A 
ATOM      9  C   UNL A   1      30.744  22.489  26.361  1.00  0.00     0.091 C 
ATOM     10  C   UNL A   1      30.818  23.906  25.954  1.00  0.00     0.144 A 
ATOM     11  O   UNL A   1      30.094  24.777  26.721  1.00  0.00    -0.360 OA
ATOM     12  C   UNL A   1      31.482  24.628  24.992  1.00  0.00     0.085 A 
ATOM     13  N   UNL A   1      30.305  26.077  26.284  1.00  0.00    -0.074 NA
ATOM     14  C   UNL A   1      31.165  25.967  25.265  1.00  0.00     0.183 A 
ATOM     15  C   UNL A   1      31.765  27.056  24.520  1.00  0.00     0.296 A 
ATOM     16  N   UNL A   1      32.957  25.255  23.252  1.00  0.00    -0.162 NA
ATOM     17  O   UNL A   1      31.493  28.240  24.700  1.00  0.00    -0.265 OA
ATOM     18  N   UNL A   1      32.713  26.601  23.576  1.00  0.00    -0.230 N 
ATOM     19  C   UNL A   1      33.471  27.582  22.823  1.00  0.00     0.178 C 
ENDBRANCH   6   8
ENDBRANCH   5   6
ENDBRANCH   4   5
ENDBRANCH   3   4
ENDBRANCH   2   3
ENDBRANCH   1   2
BRANCH   1  20
ATOM     20  C   UNL A   1      38.703  22.306  26.169  1.00  0.00     0.261 C 
BRANCH  20  21
ATOM     21  O   UNL A   1      39.981  21.680  26.099  1.00  0.00    -0.460 OA
BRANCH  21  22
ATOM     22  C   UNL A   1      40.675  21.750  27.260  1.00  0.00     0.338 C 
ATOM     23  O   UNL A   1      40.848  20.859  28.076  1.00  0.00    -0.246 OA
BRANCH  22  24
ATOM     24  C   UNL A   1      41.271  23.084  27.375  1.00  0.00     0.060 A 
ATOM     25  C   UNL A   1      40.796  23.955  28.357  1.00  0.00     0.016 A 
ATOM     26  C   UNL A   1      42.222  23.497  26.443  1.00  0.00     0.016 A 
ATOM     27  C   UNL A   1      41.268  25.266  28.394  1.00  0.00     0.010 A 
ATOM     28  C   UNL A   1      42.663  24.816  26.466  1.00  0.00     0.010 A 
ATOM     29  C   UNL A   1      42.182  25.718  27.429  1.00  0.00    -0.014 A 
BRANCH  29  30
ATOM     30  C   UNL A   1      42.575  27.147  27.407  1.00  0.00     0.031 A 
ATOM     31  C   UNL A   1      41.480  28.157  27.386  1.00  0.00     0.074 A 
ATOM     32  C   UNL A   1      43.761  27.547  27.920  1.00  0.00     0.049 A 
ATOM     33  N   UNL A   1      40.751  28.396  28.435  1.00  0.00    -0.248 NA
ATOM     34  C   UNL A   1      41.017  28.840  26.180  1.00  0.00     0.031 C 
ATOM     35  C   UNL A   1      44.602  26.720  28.795  1.00  0.00     0.029 A 
ATOM     36  N   UNL A   1      44.345  28.792  27.972  1.00  0.00    -0.354 N 
ATOM     37  C   UNL A   1      39.706  29.199  28.041  1.00  0.00     0.074 A 
ATOM     38  C   UNL A   1      39.922  29.474  26.637  1.00  0.00     0.031 C 
ATOM     39  C   UNL A   1      45.480  27.515  29.436  1.00  0.00     0.029 A 
ATOM     40  C   UNL A   1      45.365  28.873  28.920  1.00  0.00     0.049 A 
ATOM     41  H   UNL A   1      44.072  29.545  27.400  1.00  0.00     0.167 HD
ATOM     42  C   UNL A   1      38.721  29.574  28.898  1.00  0.00     0.037 A 
ATOM     43  C   UNL A   1      45.698  29.974  29.649  1.00  0.00     0.037 A 
ATOM     44  C   UNL A   1      38.846  29.080  30.239  1.00  0.00     0.049 A 
ATOM     45  C   UNL A   1      44.416  30.260  30.394  1.00  0.00     0.074 A 
ATOM     46  C   UNL A   1      38.489  27.934  30.918  1.00  0.00     0.029 A 
ATOM     47  N   UNL A   1      39.625  29.787  31.127  1.00  0.00    -0.354 N 
ATOM     48  N   UNL A   1      43.987  29.641  31.462  1.00  0.00    -0.248 NA
ATOM     49  C   UNL A   1      43.410  31.086  29.723  1.00  0.00     0.031 C 
ATOM     50  C   UNL A   1      39.439  27.807  31.979  1.00  0.00     0.029 A 
ATOM     51  C   UNL A   1      40.345  28.857  31.837  1.00  0.00     0.049 A 
ATOM     52  H   UNL A   1      39.658  30.765  31.232  1.00  0.00     0.167 HD
ATOM     53  C   UNL A   1      42.599  29.791  31.448  1.00  0.00     0.074 A 
ATOM     54  C   UNL A   1      42.313  30.717  30.370  1.00  0.00     0.031 C 
ATOM     55  C   UNL A   1      41.742  29.028  32.185  1.00  0.00     0.037 A 
BRANCH  42  56
ATOM     56  C   UNL A   1      37.645  30.517  28.551  1.00  0.00     0.058 A 
ATOM     57  C   UNL A   1      37.811  31.873  28.862  1.00  0.00     0.135 A 
ATOM     58  C   UNL A   1      36.398  30.082  28.093  1.00  0.00     0.135 A 
ATOM     59  F   UNL A   1      38.995  32.317  29.316  1.00  0.00    -0.206 F 
ATOM     60  C   UNL A   1      36.758  32.770  28.763  1.00  0.00     0.059 A 
ATOM     61  C   UNL A   1      35.326  30.964  27.985  1.00  0.00     0.059 A 
ATOM     62  F   UNL A   1      36.199  28.789  27.790  1.00  0.00    -0.206 F 
ATOM     63  C   UNL A   1      35.513  32.301  28.345  1.00  0.00     0.060 A 
BRANCH  63  64
ATOM     64  S   UNL A   1      34.132  33.463  28.328  1.00  0.00     0.124 S 
ATOM     65  O   UNL A   1      34.699  34.590  27.594  1.00  0.00    -0.237 OA
ATOM     66  O   UNL A   1      33.105  32.699  27.628  1.00  0.00    -0.237 OA
ATOM     67  O   UNL A   1      33.874  33.704  29.745  1.00  0.00    -0.744 OA
ENDBRANCH  63  64
ENDBRANCH  42  56
BRANCH  43  68
ATOM     68  C   UNL A   1      46.455  31.032  28.899  1.00  0.00     0.058 A 
ATOM     69  C   UNL A   1      47.126  30.691  27.703  1.00  0.00     0.135 A 
ATOM     70  C   UNL A   1      46.565  32.372  29.303  1.00  0.00     0.135 A 
ATOM     71  F   UNL A   1      47.199  29.410  27.304  1.00  0.00    -0.206 F 
ATOM     72  C   UNL A   1      47.724  31.644  26.884  1.00  0.00     0.059 A 
ATOM     73  C   UNL A   1      47.137  33.351  28.487  1.00  0.00     0.059 A 
ATOM     74  F   UNL A   1      46.096  32.774  30.492  1.00  0.00    -0.206 F 
ATOM     75  C   UNL A   1      47.687  32.980  27.265  1.00  0.00     0.060 A 
BRANCH  75  76
ATOM     76  S   UNL A   1      48.311  34.220  26.113  1.00  0.00     0.124 S 
ATOM     77  O   UNL A   1      49.440  33.525  25.506  1.00  0.00    -0.237 OA
ATOM     78  O   UNL A   1      47.156  34.434  25.246  1.00  0.00    -0.237 OA
ATOM     79  O   UNL A   1      48.652  35.344  26.979  1.00  0.00    -0.744 OA
ENDBRANCH  75  76
ENDBRANCH  43  68
BRANCH  55  80
ATOM     80  C   UNL A   1      42.348  28.152  33.229  1.00  0.00     0.058 A 
ATOM     81  C   UNL A   1      42.154  28.443  34.586  1.00  0.00     0.135 A 
ATOM     82  C   UNL A   1      43.025  26.965  32.903  1.00  0.00     0.135 A 
ATOM     83  F   UNL A   1      41.504  29.560  34.953  1.00  0.00    -0.206 F 
ATOM     84  C   UNL A   1      42.568  27.566  35.584  1.00  0.00     0.059 A 
ATOM     85  C   UNL A   1      43.434  26.064  33.884  1.00  0.00     0.059 A 
ATOM     86  F   UNL A   1      43.247  26.634  31.620  1.00  0.00    -0.206 F 
ATOM     87  C   UNL A   1      43.188  26.367  35.223  1.00  0.00     0.060 A 
BRANCH  87  88
ATOM     88  S   UNL A   1      43.573  25.170  36.520  1.00  0.00     0.124 S 
ATOM     89  O   UNL A   1      42.385  25.239  37.363  1.00  0.00    -0.237 OA
ATOM     90  O   UNL A   1      43.740  23.933  35.761  1.00  0.00    -0.237 OA
ATOM     91  O   UNL A   1      44.799  25.694  37.118  1.00  0.00    -0.744 OA
ENDBRANCH  87  88
ENDBRANCH  55  80
ENDBRANCH  29  30
ENDBRANCH  22  24
ENDBRANCH  21  22
ENDBRANCH  20  21
ENDBRANCH   1  20
TORSDOF 17
ENDMDL
MODEL 3
REMARK VINA RESULT:     -10.1      4.841      7.813
REMARK SMILES Cc1onc2c(=O)n(C)nc(C(=O)OCCOCCOC(=O)c3ccc(-c4c5nc(c(-c6c(F)cc(S(=O)(=O)[O-])cc6F)c6ccc([nH]6)c(-c6c(F)cc(S(=O)(=O)[O-])cc6F)c6nc(c(-c7c(F)cc(S(=O)(=O)[O-])cc7F)c7ccc4[nH]7)C=C6)C=C5)cc3)c12
REMARK SMILES IDX 18 1 17 2 16 3 15 4 14 5 12 6 13 7 11 8 1 9 2 10 3 11 89 12
REMARK SMILES IDX 4 13 5 14 6 15 10 16 7 17 8 18 9 19 19 20 20 21 21 22 22 23
REMARK SMILES IDX 23 24 24 25 88 26 25 27 87 28 26 29 27 30 28 31 81 32 29 33
REMARK SMILES IDX 86 34 80 35 82 36 30 37 85 38 79 39 78 40 31 42 65 43 44 44
REMARK SMILES IDX 64 45 45 46 48 47 63 48 83 49 46 50 47 51 62 53 84 54 49 55
REMARK SMILES IDX 32 56 33 57 42 58 34 59 35 60 41 61 43 62 36 63 37 64 38 65
REMARK SMILES IDX 39 66 40 67 66 68 67 69 76 70 68 71 69 72 75 73 77 74 70 75
REMARK SMILES IDX 71 76 72 77 73 78 74 79 50 80 51 81 60 82 52 83 53 84 59 85
REMARK SMILES IDX 61 86 54 87 55 88 56 89 57 90 58 91
REMARK H PARENT 82 41 48 52
REMARK Flexibility Score: inf
ROOT
ATOM      1  C   UNL A   1      45.548  26.485  26.860  1.00  0.00     0.202 C 
ENDROOT
BRANCH   1   2
ATOM      2  O   UNL A   1      44.850  26.673  28.088  1.00  0.00    -0.374 OA
BRANCH   2   3
ATOM      3  C   UNL A   1      44.561  25.502  28.859  1.00  0.00     0.202 C 
BRANCH   3   4
ATOM      4  C   UNL A   1      43.306  24.757  28.401  1.00  0.00     0.261 C 
BRANCH   4   5
ATOM      5  O   UNL A   1      43.686  23.543  27.737  1.00  0.00    -0.458 OA
BRANCH   5   6
ATOM      6  C   UNL A   1      43.231  23.391  26.482  1.00  0.00     0.359 C 
ATOM      7  O   UNL A   1      42.749  24.234  25.743  1.00  0.00    -0.244 OA
BRANCH   6   8
ATOM      8  C   UNL A   1      43.498  21.974  26.011  1.00  0.00     0.182 A 
ATOM      9  C   UNL A   1      40.111  21.928  26.641  1.00  0.00     0.091 C 
ATOM     10  C   UNL A   1      41.149  20.929  26.323  1.00  0.00     0.144 A 
ATOM     11  O   UNL A   1      40.709  19.638  26.218  1.00  0.00    -0.360 OA
ATOM     12  C   UNL A   1      42.495  20.949  26.052  1.00  0.00     0.085 A 
ATOM     13  N   UNL A   1      41.760  18.812  25.845  1.00  0.00    -0.074 NA
ATOM     14  C   UNL A   1      42.815  19.624  25.721  1.00  0.00     0.183 A 
ATOM     15  C   UNL A   1      44.142  19.255  25.268  1.00  0.00     0.296 A 
ATOM     16  N   UNL A   1      44.693  21.679  25.566  1.00  0.00    -0.162 NA
ATOM     17  O   UNL A   1      44.477  18.103  25.000  1.00  0.00    -0.265 OA
ATOM     18  N   UNL A   1      44.999  20.372  25.150  1.00  0.00    -0.230 N 
ATOM     19  C   UNL A   1      46.330  20.173  24.610  1.00  0.00     0.178 C 
ENDBRANCH   6   8
ENDBRANCH   5   6
ENDBRANCH   4   5
ENDBRANCH   3   4
ENDBRANCH   2   3
ENDBRANCH   1   2
BRANCH   1  20
ATOM     20  C   UNL A   1      45.438  27.555  25.762  1.00  0.00     0.261 C 
BRANCH  20  21
ATOM     21  O   UNL A   1      44.642  28.694  26.079  1.00  0.00    -0.460 OA
BRANCH  21  22
ATOM     22  C   UNL A   1      45.354  29.844  26.143  1.00  0.00     0.338 C 
ATOM     23  O   UNL A   1      46.382  30.115  25.542  1.00  0.00    -0.246 OA
BRANCH  22  24
ATOM     24  C   UNL A   1      44.655  30.785  27.022  1.00  0.00     0.060 A 
ATOM     25  C   UNL A   1      44.897  32.153  26.880  1.00  0.00     0.016 A 
ATOM     26  C   UNL A   1      43.847  30.299  28.050  1.00  0.00     0.016 A 
ATOM     27  C   UNL A   1      44.335  33.046  27.790  1.00  0.00     0.010 A 
ATOM     28  C   UNL A   1      43.317  31.193  28.974  1.00  0.00     0.010 A 
ATOM     29  C   UNL A   1      43.566  32.571  28.865  1.00  0.00    -0.014 A 
BRANCH  29  30
ATOM     30  C   UNL A   1      43.083  33.523  29.894  1.00  0.00     0.031 A 
ATOM     31  C   UNL A   1      41.615  33.779  29.952  1.00  0.00     0.074 A 
ATOM     32  C   UNL A   1      43.780  33.724  31.034  1.00  0.00     0.049 A 
ATOM     33  N   UNL A   1      40.786  32.891  30.413  1.00  0.00    -0.248 NA
ATOM     34  C   UNL A   1      40.962  34.944  29.362  1.00  0.00     0.031 C 
ATOM     35  C   UNL A   1      44.856  32.844  31.510  1.00  0.00     0.029 A 
ATOM     36  N   UNL A   1      43.550  34.574  32.093  1.00  0.00    -0.354 N 
ATOM     37  C   UNL A   1      39.512  33.328  30.134  1.00  0.00     0.074 A 
ATOM     38  C   UNL A   1      39.664  34.621  29.502  1.00  0.00     0.031 C 
ATOM     39  C   UNL A   1      45.066  33.079  32.819  1.00  0.00     0.029 A 
ATOM     40  C   UNL A   1      44.251  34.211  33.242  1.00  0.00     0.049 A 
ATOM     41  H   UNL A   1      42.953  35.355  32.043  1.00  0.00     0.167 HD
ATOM     42  C   UNL A   1      38.413  32.587  30.429  1.00  0.00     0.037 A 
ATOM     43  C   UNL A   1      43.835  34.385  34.526  1.00  0.00     0.037 A 
ATOM     44  C   UNL A   1      38.670  31.322  31.055  1.00  0.00     0.049 A 
ATOM     45  C   UNL A   1      42.553  33.587  34.553  1.00  0.00     0.074 A 
ATOM     46  C   UNL A   1      38.963  30.041  30.634  1.00  0.00     0.029 A 
ATOM     47  N   UNL A   1      38.826  31.286  32.422  1.00  0.00    -0.354 N 
ATOM     48  N   UNL A   1      42.453  32.288  34.661  1.00  0.00    -0.248 NA
ATOM     49  C   UNL A   1      41.323  34.260  34.129  1.00  0.00     0.031 C 
ATOM     50  C   UNL A   1      39.715  29.452  31.698  1.00  0.00     0.029 A 
ATOM     51  C   UNL A   1      39.877  30.437  32.672  1.00  0.00     0.049 A 
ATOM     52  H   UNL A   1      38.290  31.774  33.088  1.00  0.00     0.167 HD
ATOM     53  C   UNL A   1      41.231  31.958  34.070  1.00  0.00     0.074 A 
ATOM     54  C   UNL A   1      40.574  33.219  33.792  1.00  0.00     0.031 C 
ATOM     55  C   UNL A   1      40.892  30.698  33.672  1.00  0.00     0.037 A 
BRANCH  42  56
ATOM     56  C   UNL A   1      37.030  33.058  30.248  1.00  0.00     0.058 A 
ATOM     57  C   UNL A   1      36.446  32.961  28.978  1.00  0.00     0.135 A 
ATOM     58  C   UNL A   1      36.350  33.761  31.247  1.00  0.00     0.135 A 
ATOM     59  F   UNL A   1      37.083  32.301  27.996  1.00  0.00    -0.206 F 
ATOM     60  C   UNL A   1      35.239  33.579  28.690  1.00  0.00     0.059 A 
ATOM     61  C   UNL A   1      35.137  34.390  30.981  1.00  0.00     0.059 A 
ATOM     62  F   UNL A   1      36.881  33.880  32.474  1.00  0.00    -0.206 F 
ATOM     63  C   UNL A   1      34.603  34.310  29.693  1.00  0.00     0.060 A 
BRANCH  63  64
ATOM     64  S   UNL A   1      33.090  35.196  29.265  1.00  0.00     0.124 S 
ATOM     65  O   UNL A   1      33.617  36.462  28.763  1.00  0.00    -0.237 OA
ATOM     66  O   UNL A   1      32.497  34.314  28.267  1.00  0.00    -0.237 OA
ATOM     67  O   UNL A   1      32.372  35.276  30.534  1.00  0.00    -0.744 OA
ENDBRANCH  63  64
ENDBRANCH  42  56
BRANCH  43  68
ATOM     68  C   UNL A   1      43.925  35.792  35.042  1.00  0.00     0.058 A 
ATOM     69  C   UNL A   1      44.554  36.038  36.283  1.00  0.00     0.135 A 
ATOM     70  C   UNL A   1      43.413  36.920  34.380  1.00  0.00     0.135 A 
ATOM     71  F   UNL A   1      44.953  35.017  37.060  1.00  0.00    -0.206 F 
ATOM     72  C   UNL A   1      44.800  37.324  36.754  1.00  0.00     0.059 A 
ATOM     73  C   UNL A   1      43.668  38.221  34.819  1.00  0.00     0.059 A 
ATOM     74  F   UNL A   1      42.669  36.790  33.274  1.00  0.00    -0.206 F 
ATOM     75  C   UNL A   1      44.391  38.413  35.992  1.00  0.00     0.060 A 
BRANCH  75  76
ATOM     76  S   UNL A   1      44.869  40.067  36.528  1.00  0.00     0.124 S 
ATOM     77  O   UNL A   1      44.263  40.904  35.499  1.00  0.00    -0.237 OA
ATOM     78  O   UNL A   1      44.256  40.143  37.852  1.00  0.00    -0.237 OA
ATOM     79  O   UNL A   1      46.327  40.015  36.523  1.00  0.00    -0.744 OA
ENDBRANCH  75  76
ENDBRANCH  43  68
BRANCH  55  80
ATOM     80  C   UNL A   1      41.788  29.589  34.113  1.00  0.00     0.058 A 
ATOM     81  C   UNL A   1      41.516  28.901  35.303  1.00  0.00     0.135 A 
ATOM     82  C   UNL A   1      42.847  29.127  33.316  1.00  0.00     0.135 A 
ATOM     83  F   UNL A   1      40.507  29.295  36.098  1.00  0.00    -0.206 F 
ATOM     84  C   UNL A   1      42.232  27.764  35.665  1.00  0.00     0.059 A 
ATOM     85  C   UNL A   1      43.567  27.982  33.649  1.00  0.00     0.059 A 
ATOM     86  F   UNL A   1      43.160  29.749  32.166  1.00  0.00    -0.206 F 
ATOM     87  C   UNL A   1      43.242  27.298  34.820  1.00  0.00     0.060 A 
BRANCH  87  88
ATOM     88  S   UNL A   1      44.051  25.734  35.223  1.00  0.00     0.124 S 
ATOM     89  O   UNL A   1      43.351  24.794  34.356  1.00  0.00    -0.237 OA
ATOM     90  O   UNL A   1      45.443  26.005  34.871  1.00  0.00    -0.237 OA
ATOM     91  O   UNL A   1      43.799  25.575  36.654  1.00  0.00    -0.744 OA
ENDBRANCH  87  88
ENDBRANCH  55  80
ENDBRANCH  29  30
ENDBRANCH  22  24
ENDBRANCH  21  22
ENDBRANCH  20  21
ENDBRANCH   1  20
TORSDOF 17
ENDMDL
