MODEL 1
REMARK VINA RESULT:     -11.8      0.000      0.000
REMARK SMILES CN1C(=O)C[C@@H](C(=O)OCCOCCOC(=O)c2ccc(-c3c4nc(c(-c5c(F)cc(S(=O)(=O)[O-])cc5F)c5ccc([nH]5)c(-c5c(F)cc(S(=O)(=O)[O-])cc5F)c5nc(c(-c6c(F)cc(S(=O)(=O)[O-])cc6F)c6ccc3[nH]6)C=C5)C=C4)cc2)C12CCN(c1ccc(Cl)cn1)CC2
REMARK SMILES IDX 13 1 12 2 11 3 10 4 9 5 7 6 8 7 6 8 1 9 2 10 3 11 84 12 4 13
REMARK SMILES IDX 5 14 85 15 96 16 86 17 95 18 87 19 88 20 89 21 94 22 90 23
REMARK SMILES IDX 93 24 91 25 92 26 14 27 15 28 16 29 17 30 18 31 19 32 83 33
REMARK SMILES IDX 20 34 82 35 21 36 22 37 23 38 76 39 24 40 81 41 75 42 77 43
REMARK SMILES IDX 25 44 80 45 74 46 73 47 26 49 60 50 39 51 59 52 40 53 43 54
REMARK SMILES IDX 58 55 78 56 41 57 42 58 57 60 79 61 44 62 27 63 28 64 37 65
REMARK SMILES IDX 29 66 30 67 36 68 38 69 31 70 32 71 33 72 34 73 35 74 61 75
REMARK SMILES IDX 62 76 71 77 63 78 64 79 70 80 72 81 65 82 66 83 67 84 68 85
REMARK SMILES IDX 69 86 45 87 46 88 55 89 47 90 48 91 54 92 56 93 49 94 50 95
REMARK SMILES IDX 51 96 52 97 53 98
REMARK H PARENT 77 48 43 59
REMARK Flexibility Score: inf
ROOT
ATOM      1  C   UNL A   1      31.738  29.624  26.333  1.00  0.00     0.202 C 
ENDROOT
BRANCH   1   2
ATOM      2  O   UNL A   1      32.001  28.577  25.406  1.00  0.00    -0.374 OA
BRANCH   2   3
ATOM      3  C   UNL A   1      30.933  27.694  25.070  1.00  0.00     0.202 C 
BRANCH   3   4
ATOM      4  C   UNL A   1      30.753  26.429  25.920  1.00  0.00     0.261 C 
BRANCH   4   5
ATOM      5  O   UNL A   1      31.904  26.018  26.695  1.00  0.00    -0.463 OA
BRANCH   5   6
ATOM      6  C   UNL A   1      32.182  24.695  26.642  1.00  0.00     0.311 C 
ATOM      7  O   UNL A   1      31.591  23.843  27.303  1.00  0.00    -0.252 OA
BRANCH   6   8
ATOM      8  C   UNL A   1      33.370  24.295  25.792  1.00  0.00     0.134 C 
ATOM      9  C   UNL A   1      33.023  24.492  22.057  1.00  0.00     0.147 C 
ATOM     10  N   UNL A   1      33.325  24.643  23.470  1.00  0.00    -0.339 N 
ATOM     11  C   UNL A   1      33.801  25.829  24.002  1.00  0.00     0.223 C 
ATOM     12  C   UNL A   1      33.295  23.537  24.441  1.00  0.00     0.060 C 
ATOM     13  O   UNL A   1      34.002  26.871  23.403  1.00  0.00    -0.275 OA
ATOM     14  C   UNL A   1      34.102  25.606  25.456  1.00  0.00     0.118 C 
ATOM     15  C   UNL A   1      32.082  22.617  24.204  1.00  0.00     0.051 C 
ATOM     16  C   UNL A   1      34.612  22.695  24.278  1.00  0.00     0.051 C 
ATOM     17  C   UNL A   1      32.141  21.323  24.996  1.00  0.00     0.120 C 
ATOM     18  C   UNL A   1      34.597  21.367  25.052  1.00  0.00     0.120 C 
ATOM     19  N   UNL A   1      33.392  20.644  24.679  1.00  0.00    -0.356 N 
BRANCH  19  20
ATOM     20  C   UNL A   1      33.362  19.271  24.896  1.00  0.00     0.128 A 
ATOM     21  C   UNL A   1      34.470  18.510  24.509  1.00  0.00     0.048 A 
ATOM     22  N   UNL A   1      32.261  18.694  25.419  1.00  0.00    -0.238 NA
ATOM     23  C   UNL A   1      34.442  17.122  24.617  1.00  0.00     0.026 A 
ATOM     24  C   UNL A   1      32.249  17.338  25.504  1.00  0.00     0.134 A 
ATOM     25  C   UNL A   1      33.298  16.520  25.112  1.00  0.00     0.059 A 
ATOM     26  Cl  UNL A   1      33.186  14.812  25.225  1.00  0.00    -0.083 Cl
ENDBRANCH  19  20
ENDBRANCH   6   8
ENDBRANCH   5   6
ENDBRANCH   4   5
ENDBRANCH   3   4
ENDBRANCH   2   3
ENDBRANCH   1   2
BRANCH   1  27
ATOM     27  C   UNL A   1      32.917  30.532  26.693  1.00  0.00     0.261 C 
BRANCH  27  28
ATOM     28  O   UNL A   1      33.503  30.170  27.955  1.00  0.00    -0.460 OA
BRANCH  28  29
ATOM     29  C   UNL A   1      34.528  30.978  28.323  1.00  0.00     0.338 C 
ATOM     30  O   UNL A   1      34.446  32.131  28.710  1.00  0.00    -0.246 OA
BRANCH  29  31
ATOM     31  C   UNL A   1      35.791  30.221  28.365  1.00  0.00     0.060 A 
ATOM     32  C   UNL A   1      36.199  29.710  29.603  1.00  0.00     0.016 A 
ATOM     33  C   UNL A   1      36.628  30.144  27.250  1.00  0.00     0.016 A 
ATOM     34  C   UNL A   1      37.479  29.175  29.745  1.00  0.00     0.010 A 
ATOM     35  C   UNL A   1      37.914  29.609  27.398  1.00  0.00     0.010 A 
ATOM     36  C   UNL A   1      38.362  29.166  28.656  1.00  0.00    -0.014 A 
BRANCH  36  37
ATOM     37  C   UNL A   1      39.795  28.853  28.890  1.00  0.00     0.031 A 
ATOM     38  C   UNL A   1      40.670  29.887  29.548  1.00  0.00     0.074 A 
ATOM     39  C   UNL A   1      40.297  27.644  28.580  1.00  0.00     0.049 A 
ATOM     40  N   UNL A   1      41.930  29.812  29.891  1.00  0.00    -0.248 NA
ATOM     41  C   UNL A   1      40.038  31.179  29.861  1.00  0.00     0.031 C 
ATOM     42  C   UNL A   1      39.542  26.550  27.973  1.00  0.00     0.029 A 
ATOM     43  N   UNL A   1      41.559  27.132  28.744  1.00  0.00    -0.354 N 
ATOM     44  C   UNL A   1      42.240  31.040  30.466  1.00  0.00     0.074 A 
ATOM     45  C   UNL A   1      41.048  31.857  30.388  1.00  0.00     0.031 C 
ATOM     46  C   UNL A   1      40.357  25.491  27.820  1.00  0.00     0.029 A 
ATOM     47  C   UNL A   1      41.693  25.839  28.300  1.00  0.00     0.049 A 
ATOM     48  H   UNL A   1      42.300  27.644  29.142  1.00  0.00     0.167 HD
ATOM     49  C   UNL A   1      43.407  31.448  31.022  1.00  0.00     0.037 A 
ATOM     50  C   UNL A   1      42.771  25.030  28.280  1.00  0.00     0.037 A 
ATOM     51  C   UNL A   1      44.595  30.637  31.092  1.00  0.00     0.049 A 
ATOM     52  C   UNL A   1      44.076  25.524  28.847  1.00  0.00     0.074 A 
ATOM     53  C   UNL A   1      45.826  30.956  31.636  1.00  0.00     0.029 A 
ATOM     54  N   UNL A   1      44.700  29.347  30.593  1.00  0.00    -0.354 N 
ATOM     55  N   UNL A   1      44.348  26.680  29.407  1.00  0.00    -0.248 NA
ATOM     56  C   UNL A   1      45.222  24.605  28.783  1.00  0.00     0.031 C 
ATOM     57  C   UNL A   1      46.688  29.873  31.430  1.00  0.00     0.029 A 
ATOM     58  C   UNL A   1      45.981  28.863  30.798  1.00  0.00     0.049 A 
ATOM     59  H   UNL A   1      43.972  28.848  30.157  1.00  0.00     0.167 HD
ATOM     60  C   UNL A   1      45.684  26.615  29.788  1.00  0.00     0.074 A 
ATOM     61  C   UNL A   1      46.165  25.305  29.397  1.00  0.00     0.031 C 
ATOM     62  C   UNL A   1      46.443  27.553  30.408  1.00  0.00     0.037 A 
BRANCH  49  63
ATOM     63  C   UNL A   1      43.454  32.845  31.576  1.00  0.00     0.058 A 
ATOM     64  C   UNL A   1      43.873  33.935  30.795  1.00  0.00     0.135 A 
ATOM     65  C   UNL A   1      43.079  33.099  32.905  1.00  0.00     0.135 A 
ATOM     66  F   UNL A   1      44.257  33.745  29.523  1.00  0.00    -0.206 F 
ATOM     67  C   UNL A   1      43.961  35.219  31.323  1.00  0.00     0.059 A 
ATOM     68  C   UNL A   1      43.135  34.380  33.447  1.00  0.00     0.059 A 
ATOM     69  F   UNL A   1      42.669  32.095  33.696  1.00  0.00    -0.206 F 
ATOM     70  C   UNL A   1      43.597  35.430  32.655  1.00  0.00     0.060 A 
BRANCH  70  71
ATOM     71  S   UNL A   1      43.748  37.094  33.340  1.00  0.00     0.124 S 
ATOM     72  O   UNL A   1      42.558  37.169  34.182  1.00  0.00    -0.237 OA
ATOM     73  O   UNL A   1      45.022  37.028  34.049  1.00  0.00    -0.237 OA
ATOM     74  O   UNL A   1      43.736  37.949  32.158  1.00  0.00    -0.744 OA
ENDBRANCH  70  71
ENDBRANCH  49  63
BRANCH  50  75
ATOM     75  C   UNL A   1      42.655  23.658  27.718  1.00  0.00     0.058 A 
ATOM     76  C   UNL A   1      42.476  22.546  28.552  1.00  0.00     0.135 A 
ATOM     77  C   UNL A   1      42.700  23.437  26.332  1.00  0.00     0.135 A 
ATOM     78  F   UNL A   1      42.437  22.706  29.883  1.00  0.00    -0.206 F 
ATOM     79  C   UNL A   1      42.347  21.261  28.035  1.00  0.00     0.059 A 
ATOM     80  C   UNL A   1      42.552  22.164  25.790  1.00  0.00     0.059 A 
ATOM     81  F   UNL A   1      42.862  24.469  25.491  1.00  0.00    -0.206 F 
ATOM     82  C   UNL A   1      42.381  21.081  26.651  1.00  0.00     0.060 A 
BRANCH  82  83
ATOM     83  S   UNL A   1      42.146  19.417  25.987  1.00  0.00     0.124 S 
ATOM     84  O   UNL A   1      40.704  19.385  25.779  1.00  0.00    -0.237 OA
ATOM     85  O   UNL A   1      42.966  19.450  24.780  1.00  0.00    -0.237 OA
ATOM     86  O   UNL A   1      42.650  18.557  27.054  1.00  0.00    -0.744 OA
ENDBRANCH  82  83
ENDBRANCH  50  75
BRANCH  62  87
ATOM     87  C   UNL A   1      47.865  27.190  30.735  1.00  0.00     0.058 A 
ATOM     88  C   UNL A   1      48.213  26.595  31.956  1.00  0.00     0.135 A 
ATOM     89  C   UNL A   1      48.883  27.383  29.785  1.00  0.00     0.135 A 
ATOM     90  F   UNL A   1      47.279  26.392  32.900  1.00  0.00    -0.206 F 
ATOM     91  C   UNL A   1      49.523  26.218  32.234  1.00  0.00     0.059 A 
ATOM     92  C   UNL A   1      50.195  26.993  30.033  1.00  0.00     0.059 A 
ATOM     93  F   UNL A   1      48.600  27.939  28.596  1.00  0.00    -0.206 F 
ATOM     94  C   UNL A   1      50.507  26.420  31.264  1.00  0.00     0.060 A 
BRANCH  94  95
ATOM     95  S   UNL A   1      52.197  25.890  31.618  1.00  0.00     0.124 S 
ATOM     96  O   UNL A   1      52.574  26.805  32.691  1.00  0.00    -0.237 OA
ATOM     97  O   UNL A   1      52.014  24.496  32.009  1.00  0.00    -0.237 OA
ATOM     98  O   UNL A   1      52.889  26.091  30.349  1.00  0.00    -0.744 OA
ENDBRANCH  94  95
ENDBRANCH  62  87
ENDBRANCH  36  37
ENDBRANCH  29  31
ENDBRANCH  28  29
ENDBRANCH  27  28
ENDBRANCH   1  27
TORSDOF 18
ENDMDL
MODEL 2
REMARK VINA RESULT:     -11.7      0.514      8.097
REMARK SMILES CN1C(=O)C[C@@H](C(=O)OCCOCCOC(=O)c2ccc(-c3c4nc(c(-c5c(F)cc(S(=O)(=O)[O-])cc5F)c5ccc([nH]5)c(-c5c(F)cc(S(=O)(=O)[O-])cc5F)c5nc(c(-c6c(F)cc(S(=O)(=O)[O-])cc6F)c6ccc3[nH]6)C=C5)C=C4)cc2)C12CCN(c1ccc(Cl)cn1)CC2
REMARK SMILES IDX 13 1 12 2 11 3 10 4 9 5 7 6 8 7 6 8 1 9 2 10 3 11 84 12 4 13
REMARK SMILES IDX 5 14 85 15 96 16 86 17 95 18 87 19 88 20 89 21 94 22 90 23
REMARK SMILES IDX 93 24 91 25 92 26 14 27 15 28 16 29 17 30 18 31 19 32 83 33
REMARK SMILES IDX 20 34 82 35 21 36 22 37 23 38 76 39 24 40 81 41 75 42 77 43
REMARK SMILES IDX 25 44 80 45 74 46 73 47 26 49 60 50 39 51 59 52 40 53 43 54
REMARK SMILES IDX 58 55 78 56 41 57 42 58 57 60 79 61 44 62 27 63 28 64 37 65
REMARK SMILES IDX 29 66 30 67 36 68 38 69 31 70 32 71 33 72 34 73 35 74 61 75
REMARK SMILES IDX 62 76 71 77 63 78 64 79 70 80 72 81 65 82 66 83 67 84 68 85
REMARK SMILES IDX 69 86 45 87 46 88 55 89 47 90 48 91 54 92 56 93 49 94 50 95
REMARK SMILES IDX 51 96 52 97 53 98
REMARK H PARENT 77 48 43 59
REMARK Flexibility Score: inf
ROOT
ATOM      1  C   UNL A   1      31.865  29.343  26.064  1.00  0.00     0.202 C 
ENDROOT
BRANCH   1   2
ATOM      2  O   UNL A   1      31.748  28.464  24.950  1.00  0.00    -0.374 OA
BRANCH   2   3
ATOM      3  C   UNL A   1      30.592  27.634  24.868  1.00  0.00     0.202 C 
BRANCH   3   4
ATOM      4  C   UNL A   1      30.635  26.272  25.575  1.00  0.00     0.261 C 
BRANCH   4   5
ATOM      5  O   UNL A   1      31.786  26.033  26.418  1.00  0.00    -0.463 OA
BRANCH   5   6
ATOM      6  C   UNL A   1      32.169  24.738  26.503  1.00  0.00     0.311 C 
ATOM      7  O   UNL A   1      31.679  23.928  27.289  1.00  0.00    -0.252 OA
BRANCH   6   8
ATOM      8  C   UNL A   1      33.347  24.331  25.643  1.00  0.00     0.134 C 
ATOM      9  C   UNL A   1      32.947  24.466  21.911  1.00  0.00     0.147 C 
ATOM     10  N   UNL A   1      33.268  24.642  23.317  1.00  0.00    -0.339 N 
ATOM     11  C   UNL A   1      33.744  25.839  23.823  1.00  0.00     0.223 C 
ATOM     12  C   UNL A   1      33.257  23.551  24.305  1.00  0.00     0.060 C 
ATOM     13  O   UNL A   1      33.931  26.872  23.205  1.00  0.00    -0.275 OA
ATOM     14  C   UNL A   1      34.067  25.640  25.277  1.00  0.00     0.118 C 
ATOM     15  C   UNL A   1      32.046  22.621  24.100  1.00  0.00     0.051 C 
ATOM     16  C   UNL A   1      34.577  22.714  24.137  1.00  0.00     0.051 C 
ATOM     17  C   UNL A   1      32.124  21.340  24.911  1.00  0.00     0.120 C 
ATOM     18  C   UNL A   1      34.580  21.399  24.932  1.00  0.00     0.120 C 
ATOM     19  N   UNL A   1      33.374  20.663  24.588  1.00  0.00    -0.356 N 
BRANCH  19  20
ATOM     20  C   UNL A   1      33.355  19.294  24.827  1.00  0.00     0.128 A 
ATOM     21  C   UNL A   1      34.500  18.548  24.527  1.00  0.00     0.048 A 
ATOM     22  N   UNL A   1      32.233  18.704  25.287  1.00  0.00    -0.238 NA
ATOM     23  C   UNL A   1      34.491  17.162  24.658  1.00  0.00     0.026 A 
ATOM     24  C   UNL A   1      32.241  17.349  25.396  1.00  0.00     0.134 A 
ATOM     25  C   UNL A   1      33.328  16.546  25.088  1.00  0.00     0.059 A 
ATOM     26  Cl  UNL A   1      33.239  14.838  25.224  1.00  0.00    -0.083 Cl
ENDBRANCH  19  20
ENDBRANCH   6   8
ENDBRANCH   5   6
ENDBRANCH   4   5
ENDBRANCH   3   4
ENDBRANCH   2   3
ENDBRANCH   1   2
BRANCH   1  27
ATOM     27  C   UNL A   1      33.271  29.855  26.388  1.00  0.00     0.261 C 
BRANCH  27  28
ATOM     28  O   UNL A   1      33.545  29.801  27.798  1.00  0.00    -0.460 OA
BRANCH  28  29
ATOM     29  C   UNL A   1      34.492  30.689  28.196  1.00  0.00     0.338 C 
ATOM     30  O   UNL A   1      34.310  31.840  28.550  1.00  0.00    -0.246 OA
BRANCH  29  31
ATOM     31  C   UNL A   1      35.801  30.025  28.317  1.00  0.00     0.060 A 
ATOM     32  C   UNL A   1      36.195  29.596  29.591  1.00  0.00     0.016 A 
ATOM     33  C   UNL A   1      36.684  29.959  27.238  1.00  0.00     0.016 A 
ATOM     34  C   UNL A   1      37.502  29.159  29.803  1.00  0.00     0.010 A 
ATOM     35  C   UNL A   1      37.997  29.522  27.455  1.00  0.00     0.010 A 
ATOM     36  C   UNL A   1      38.425  29.166  28.748  1.00  0.00    -0.014 A 
BRANCH  36  37
ATOM     37  C   UNL A   1      39.866  28.965  29.047  1.00  0.00     0.031 A 
ATOM     38  C   UNL A   1      40.504  27.642  28.714  1.00  0.00     0.074 A 
ATOM     39  C   UNL A   1      40.612  29.966  29.549  1.00  0.00     0.049 A 
ATOM     40  N   UNL A   1      41.750  27.265  28.842  1.00  0.00    -0.248 NA
ATOM     41  C   UNL A   1      39.616  26.607  28.160  1.00  0.00     0.031 C 
ATOM     42  C   UNL A   1      40.117  31.301  29.880  1.00  0.00     0.029 A 
ATOM     43  N   UNL A   1      41.948  30.015  29.858  1.00  0.00    -0.354 N 
ATOM     44  C   UNL A   1      41.798  25.954  28.379  1.00  0.00     0.074 A 
ATOM     45  C   UNL A   1      40.449  25.587  28.007  1.00  0.00     0.031 C 
ATOM     46  C   UNL A   1      41.140  32.042  30.342  1.00  0.00     0.029 A 
ATOM     47  C   UNL A   1      42.355  31.229  30.358  1.00  0.00     0.049 A 
ATOM     48  H   UNL A   1      42.558  29.252  29.734  1.00  0.00     0.167 HD
ATOM     49  C   UNL A   1      42.870  25.134  28.263  1.00  0.00     0.037 A 
ATOM     50  C   UNL A   1      43.568  31.636  30.781  1.00  0.00     0.037 A 
ATOM     51  C   UNL A   1      44.211  25.497  28.642  1.00  0.00     0.049 A 
ATOM     52  C   UNL A   1      44.736  30.687  30.701  1.00  0.00     0.074 A 
ATOM     53  C   UNL A   1      45.366  24.740  28.561  1.00  0.00     0.029 A 
ATOM     54  N   UNL A   1      44.573  26.723  29.182  1.00  0.00    -0.354 N 
ATOM     55  N   UNL A   1      44.771  29.458  30.241  1.00  0.00    -0.248 NA
ATOM     56  C   UNL A   1      46.030  31.180  31.194  1.00  0.00     0.031 C 
ATOM     57  C   UNL A   1      46.420  25.493  29.090  1.00  0.00     0.029 A 
ATOM     58  C   UNL A   1      45.930  26.736  29.459  1.00  0.00     0.049 A 
ATOM     59  H   UNL A   1      43.957  27.473  29.345  1.00  0.00     0.167 HD
ATOM     60  C   UNL A   1      46.092  29.042  30.361  1.00  0.00     0.074 A 
ATOM     61  C   UNL A   1      46.827  30.152  30.934  1.00  0.00     0.031 C 
ATOM     62  C   UNL A   1      46.648  27.852  30.024  1.00  0.00     0.037 A 
BRANCH  49  63
ATOM     63  C   UNL A   1      42.623  23.752  27.722  1.00  0.00     0.058 A 
ATOM     64  C   UNL A   1      42.463  22.645  28.571  1.00  0.00     0.135 A 
ATOM     65  C   UNL A   1      42.550  23.530  26.337  1.00  0.00     0.135 A 
ATOM     66  F   UNL A   1      42.540  22.799  29.903  1.00  0.00    -0.206 F 
ATOM     67  C   UNL A   1      42.282  21.361  28.068  1.00  0.00     0.059 A 
ATOM     68  C   UNL A   1      42.344  22.258  25.812  1.00  0.00     0.059 A 
ATOM     69  F   UNL A   1      42.694  24.552  25.480  1.00  0.00    -0.206 F 
ATOM     70  C   UNL A   1      42.232  21.176  26.684  1.00  0.00     0.060 A 
BRANCH  70  71
ATOM     71  S   UNL A   1      42.032  19.500  26.042  1.00  0.00     0.124 S 
ATOM     72  O   UNL A   1      42.882  19.542  24.856  1.00  0.00    -0.237 OA
ATOM     73  O   UNL A   1      42.522  18.680  27.144  1.00  0.00    -0.237 OA
ATOM     74  O   UNL A   1      40.599  19.406  25.783  1.00  0.00    -0.744 OA
ENDBRANCH  70  71
ENDBRANCH  49  63
BRANCH  50  75
ATOM     75  C   UNL A   1      43.743  33.017  31.305  1.00  0.00     0.058 A 
ATOM     76  C   UNL A   1      44.086  34.075  30.453  1.00  0.00     0.135 A 
ATOM     77  C   UNL A   1      43.548  33.307  32.665  1.00  0.00     0.135 A 
ATOM     78  F   UNL A   1      44.293  33.846  29.148  1.00  0.00    -0.206 F 
ATOM     79  C   UNL A   1      44.233  35.375  30.930  1.00  0.00     0.059 A 
ATOM     80  C   UNL A   1      43.668  34.601  33.160  1.00  0.00     0.059 A 
ATOM     81  F   UNL A   1      43.210  32.329  33.519  1.00  0.00    -0.206 F 
ATOM     82  C   UNL A   1      44.017  35.628  32.285  1.00  0.00     0.060 A 
BRANCH  82  83
ATOM     83  S   UNL A   1      44.145  37.329  32.880  1.00  0.00     0.124 S 
ATOM     84  O   UNL A   1      45.466  37.325  33.499  1.00  0.00    -0.237 OA
ATOM     85  O   UNL A   1      44.021  38.096  31.645  1.00  0.00    -0.237 OA
ATOM     86  O   UNL A   1      43.017  37.448  33.799  1.00  0.00    -0.744 OA
ENDBRANCH  82  83
ENDBRANCH  50  75
BRANCH  62  87
ATOM     87  C   UNL A   1      48.129  27.693  30.234  1.00  0.00     0.058 A 
ATOM     88  C   UNL A   1      48.652  27.160  31.421  1.00  0.00     0.135 A 
ATOM     89  C   UNL A   1      49.030  28.019  29.206  1.00  0.00     0.135 A 
ATOM     90  F   UNL A   1      47.834  26.836  32.435  1.00  0.00    -0.206 F 
ATOM     91  C   UNL A   1      50.020  26.972  31.591  1.00  0.00     0.059 A 
ATOM     92  C   UNL A   1      50.399  27.817  29.346  1.00  0.00     0.059 A 
ATOM     93  F   UNL A   1      48.578  28.522  28.046  1.00  0.00    -0.206 F 
ATOM     94  C   UNL A   1      50.886  27.302  30.547  1.00  0.00     0.060 A 
BRANCH  94  95
ATOM     95  S   UNL A   1      52.656  27.016  30.762  1.00  0.00     0.124 S 
ATOM     96  O   UNL A   1      53.152  28.373  30.964  1.00  0.00    -0.237 OA
ATOM     97  O   UNL A   1      52.693  26.146  31.934  1.00  0.00    -0.237 OA
ATOM     98  O   UNL A   1      53.052  26.382  29.509  1.00  0.00    -0.744 OA
ENDBRANCH  94  95
ENDBRANCH  62  87
ENDBRANCH  36  37
ENDBRANCH  29  31
ENDBRANCH  28  29
ENDBRANCH  27  28
ENDBRANCH   1  27
TORSDOF 18
ENDMDL
MODEL 3
REMARK VINA RESULT:     -11.6      2.395      2.999
REMARK SMILES CN1C(=O)C[C@@H](C(=O)OCCOCCOC(=O)c2ccc(-c3c4nc(c(-c5c(F)cc(S(=O)(=O)[O-])cc5F)c5ccc([nH]5)c(-c5c(F)cc(S(=O)(=O)[O-])cc5F)c5nc(c(-c6c(F)cc(S(=O)(=O)[O-])cc6F)c6ccc3[nH]6)C=C5)C=C4)cc2)C12CCN(c1ccc(Cl)cn1)CC2
REMARK SMILES IDX 13 1 12 2 11 3 10 4 9 5 7 6 8 7 6 8 1 9 2 10 3 11 84 12 4 13
REMARK SMILES IDX 5 14 85 15 96 16 86 17 95 18 87 19 88 20 89 21 94 22 90 23
REMARK SMILES IDX 93 24 91 25 92 26 14 27 15 28 16 29 17 30 18 31 19 32 83 33
REMARK SMILES IDX 20 34 82 35 21 36 22 37 23 38 76 39 24 40 81 41 75 42 77 43
REMARK SMILES IDX 25 44 80 45 74 46 73 47 26 49 60 50 39 51 59 52 40 53 43 54
REMARK SMILES IDX 58 55 78 56 41 57 42 58 57 60 79 61 44 62 27 63 28 64 37 65
REMARK SMILES IDX 29 66 30 67 36 68 38 69 31 70 32 71 33 72 34 73 35 74 61 75
REMARK SMILES IDX 62 76 71 77 63 78 64 79 70 80 72 81 65 82 66 83 67 84 68 85
REMARK SMILES IDX 69 86 45 87 46 88 55 89 47 90 48 91 54 92 56 93 49 94 50 95
REMARK SMILES IDX 51 96 52 97 53 98
REMARK H PARENT 77 48 43 59
REMARK Flexibility Score: inf
ROOT
ATOM      1  C   UNL A   1      31.789  28.988  26.320  1.00  0.00     0.202 C 
ENDROOT
BRANCH   1   2
ATOM      2  O   UNL A   1      31.861  28.073  25.231  1.00  0.00    -0.374 OA
BRANCH   2   3
ATOM      3  C   UNL A   1      30.773  27.171  25.041  1.00  0.00     0.202 C 
BRANCH   3   4
ATOM      4  C   UNL A   1      30.605  26.027  26.051  1.00  0.00     0.261 C 
BRANCH   4   5
ATOM      5  O   UNL A   1      31.802  25.619  26.752  1.00  0.00    -0.463 OA
BRANCH   5   6
ATOM      6  C   UNL A   1      32.075  24.296  26.689  1.00  0.00     0.311 C 
ATOM      7  O   UNL A   1      31.447  23.436  27.306  1.00  0.00    -0.252 OA
BRANCH   6   8
ATOM      8  C   UNL A   1      33.301  23.901  25.891  1.00  0.00     0.134 C 
ATOM      9  C   UNL A   1      33.117  24.108  22.145  1.00  0.00     0.147 C 
ATOM     10  N   UNL A   1      33.356  24.257  23.571  1.00  0.00    -0.339 N 
ATOM     11  C   UNL A   1      33.804  25.442  24.126  1.00  0.00     0.223 C 
ATOM     12  C   UNL A   1      33.287  23.147  24.536  1.00  0.00     0.060 C 
ATOM     13  O   UNL A   1      34.028  26.487  23.540  1.00  0.00    -0.275 OA
ATOM     14  C   UNL A   1      34.042  25.216  25.591  1.00  0.00     0.118 C 
ATOM     15  C   UNL A   1      32.088  22.225  24.243  1.00  0.00     0.051 C 
ATOM     16  C   UNL A   1      34.612  22.310  24.428  1.00  0.00     0.051 C 
ATOM     17  C   UNL A   1      32.117  20.928  25.033  1.00  0.00     0.120 C 
ATOM     18  C   UNL A   1      34.568  20.980  25.197  1.00  0.00     0.120 C 
ATOM     19  N   UNL A   1      33.383  20.255  24.770  1.00  0.00    -0.356 N 
BRANCH  19  20
ATOM     20  C   UNL A   1      33.348  18.881  24.982  1.00  0.00     0.128 A 
ATOM     21  C   UNL A   1      34.274  18.078  24.306  1.00  0.00     0.048 A 
ATOM     22  N   UNL A   1      32.403  18.344  25.780  1.00  0.00    -0.238 NA
ATOM     23  C   UNL A   1      34.211  16.691  24.412  1.00  0.00     0.026 A 
ATOM     24  C   UNL A   1      32.351  16.988  25.860  1.00  0.00     0.134 A 
ATOM     25  C   UNL A   1      33.215  16.132  25.196  1.00  0.00     0.059 A 
ATOM     26  Cl  UNL A   1      33.057  14.429  25.328  1.00  0.00    -0.083 Cl
ENDBRANCH  19  20
ENDBRANCH   6   8
ENDBRANCH   5   6
ENDBRANCH   4   5
ENDBRANCH   3   4
ENDBRANCH   2   3
ENDBRANCH   1   2
BRANCH   1  27
ATOM     27  C   UNL A   1      32.808  30.132  26.320  1.00  0.00     0.261 C 
BRANCH  27  28
ATOM     28  O   UNL A   1      33.401  30.316  27.617  1.00  0.00    -0.460 OA
BRANCH  28  29
ATOM     29  C   UNL A   1      34.484  31.133  27.602  1.00  0.00     0.338 C 
ATOM     30  O   UNL A   1      34.483  32.342  27.449  1.00  0.00    -0.246 OA
BRANCH  29  31
ATOM     31  C   UNL A   1      35.698  30.387  27.975  1.00  0.00     0.060 A 
ATOM     32  C   UNL A   1      35.693  29.715  29.203  1.00  0.00     0.016 A 
ATOM     33  C   UNL A   1      36.863  30.469  27.210  1.00  0.00     0.016 A 
ATOM     34  C   UNL A   1      36.877  29.175  29.704  1.00  0.00     0.010 A 
ATOM     35  C   UNL A   1      38.052  29.928  27.718  1.00  0.00     0.010 A 
ATOM     36  C   UNL A   1      38.074  29.321  28.987  1.00  0.00    -0.014 A 
BRANCH  36  37
ATOM     37  C   UNL A   1      39.360  28.991  29.653  1.00  0.00     0.031 A 
ATOM     38  C   UNL A   1      39.748  29.735  30.903  1.00  0.00     0.074 A 
ATOM     39  C   UNL A   1      40.141  27.998  29.189  1.00  0.00     0.049 A 
ATOM     40  N   UNL A   1      40.795  29.579  31.672  1.00  0.00    -0.248 NA
ATOM     41  C   UNL A   1      38.832  30.800  31.344  1.00  0.00     0.031 C 
ATOM     42  C   UNL A   1      39.856  27.182  28.011  1.00  0.00     0.029 A 
ATOM     43  N   UNL A   1      41.330  27.503  29.663  1.00  0.00    -0.354 N 
ATOM     44  C   UNL A   1      40.660  30.517  32.690  1.00  0.00     0.074 A 
ATOM     45  C   UNL A   1      39.452  31.266  32.418  1.00  0.00     0.031 C 
ATOM     46  C   UNL A   1      40.843  26.282  27.855  1.00  0.00     0.029 A 
ATOM     47  C   UNL A   1      41.837  26.470  28.910  1.00  0.00     0.049 A 
ATOM     48  H   UNL A   1      41.779  27.855  30.465  1.00  0.00     0.167 HD
ATOM     49  C   UNL A   1      41.462  30.727  33.762  1.00  0.00     0.037 A 
ATOM     50  C   UNL A   1      42.974  25.761  29.055  1.00  0.00     0.037 A 
ATOM     51  C   UNL A   1      42.668  29.987  34.027  1.00  0.00     0.049 A 
ATOM     52  C   UNL A   1      43.883  26.052  30.220  1.00  0.00     0.074 A 
ATOM     53  C   UNL A   1      43.548  30.121  35.086  1.00  0.00     0.029 A 
ATOM     54  N   UNL A   1      43.167  28.977  33.218  1.00  0.00    -0.354 N 
ATOM     55  N   UNL A   1      43.732  26.927  31.187  1.00  0.00    -0.248 NA
ATOM     56  C   UNL A   1      45.117  25.259  30.317  1.00  0.00     0.031 C 
ATOM     57  C   UNL A   1      44.601  29.219  34.896  1.00  0.00     0.029 A 
ATOM     58  C   UNL A   1      44.354  28.492  33.743  1.00  0.00     0.049 A 
ATOM     59  H   UNL A   1      42.741  28.651  32.392  1.00  0.00     0.167 HD
ATOM     60  C   UNL A   1      44.833  26.769  32.022  1.00  0.00     0.074 A 
ATOM     61  C   UNL A   1      45.642  25.713  31.447  1.00  0.00     0.031 C 
ATOM     62  C   UNL A   1      45.144  27.435  33.162  1.00  0.00     0.037 A 
BRANCH  49  63
ATOM     63  C   UNL A   1      41.064  31.822  34.714  1.00  0.00     0.058 A 
ATOM     64  C   UNL A   1      41.515  33.142  34.551  1.00  0.00     0.135 A 
ATOM     65  C   UNL A   1      40.224  31.548  35.806  1.00  0.00     0.135 A 
ATOM     66  F   UNL A   1      42.332  33.455  33.533  1.00  0.00    -0.206 F 
ATOM     67  C   UNL A   1      41.184  34.142  35.459  1.00  0.00     0.059 A 
ATOM     68  C   UNL A   1      39.860  32.539  36.713  1.00  0.00     0.059 A 
ATOM     69  F   UNL A   1      39.763  30.304  36.009  1.00  0.00    -0.206 F 
ATOM     70  C   UNL A   1      40.362  33.828  36.544  1.00  0.00     0.060 A 
BRANCH  70  71
ATOM     71  S   UNL A   1      39.967  35.126  37.735  1.00  0.00     0.124 S 
ATOM     72  O   UNL A   1      38.687  34.660  38.258  1.00  0.00    -0.237 OA
ATOM     73  O   UNL A   1      41.093  35.056  38.661  1.00  0.00    -0.237 OA
ATOM     74  O   UNL A   1      39.909  36.332  36.915  1.00  0.00    -0.744 OA
ENDBRANCH  70  71
ENDBRANCH  49  63
BRANCH  50  75
ATOM     75  C   UNL A   1      43.307  24.692  28.077  1.00  0.00     0.058 A 
ATOM     76  C   UNL A   1      44.034  24.976  26.913  1.00  0.00     0.135 A 
ATOM     77  C   UNL A   1      42.921  23.360  28.299  1.00  0.00     0.135 A 
ATOM     78  F   UNL A   1      44.416  26.235  26.652  1.00  0.00    -0.206 F 
ATOM     79  C   UNL A   1      44.368  23.979  26.001  1.00  0.00     0.059 A 
ATOM     80  C   UNL A   1      43.261  22.344  27.413  1.00  0.00     0.059 A 
ATOM     81  F   UNL A   1      42.230  23.035  29.402  1.00  0.00    -0.206 F 
ATOM     82  C   UNL A   1      43.980  22.664  26.262  1.00  0.00     0.060 A 
BRANCH  82  83
ATOM     83  S   UNL A   1      44.476  21.368  25.105  1.00  0.00     0.124 S 
ATOM     84  O   UNL A   1      45.838  21.088  25.543  1.00  0.00    -0.237 OA
ATOM     85  O   UNL A   1      43.491  20.325  25.374  1.00  0.00    -0.237 OA
ATOM     86  O   UNL A   1      44.350  22.016  23.803  1.00  0.00    -0.744 OA
ENDBRANCH  82  83
ENDBRANCH  50  75
BRANCH  62  87
ATOM     87  C   UNL A   1      46.396  27.023  33.886  1.00  0.00     0.058 A 
ATOM     88  C   UNL A   1      46.395  25.984  34.828  1.00  0.00     0.135 A 
ATOM     89  C   UNL A   1      47.624  27.635  33.585  1.00  0.00     0.135 A 
ATOM     90  F   UNL A   1      45.247  25.369  35.155  1.00  0.00    -0.206 F 
ATOM     91  C   UNL A   1      47.565  25.575  35.460  1.00  0.00     0.059 A 
ATOM     92  C   UNL A   1      48.810  27.227  34.188  1.00  0.00     0.059 A 
ATOM     93  F   UNL A   1      47.681  28.628  32.683  1.00  0.00    -0.206 F 
ATOM     94  C   UNL A   1      48.769  26.203  35.132  1.00  0.00     0.060 A 
BRANCH  94  95
ATOM     95  S   UNL A   1      50.288  25.638  35.928  1.00  0.00     0.124 S 
ATOM     96  O   UNL A   1      50.765  24.639  34.977  1.00  0.00    -0.237 OA
ATOM     97  O   UNL A   1      51.076  26.864  36.008  1.00  0.00    -0.237 OA
ATOM     98  O   UNL A   1      49.826  25.115  37.210  1.00  0.00    -0.744 OA
ENDBRANCH  94  95
ENDBRANCH  62  87
ENDBRANCH  36  37
ENDBRANCH  29  31
ENDBRANCH  28  29
ENDBRANCH  27  28
ENDBRANCH   1  27
TORSDOF 18
ENDMDL
