MODEL 1
REMARK VINA RESULT:     -12.6      0.000      0.000
REMARK SMILES Cc1cnn(C2(C(=O)OCCOCCOC(=O)c3ccc(-c4c5nc(c(-c6c(F)cc(S(=O)(=O)[O-])cc6F)c6ccc([nH]6)c(-c6c(F)cc(S(=O)(=O)[O-])cc6F)c6nc(c(-c7c(F)cc(S(=O)(=O)[O-])cc7F)c7ccc4[nH]7)C=C6)C=C5)cc3)CCN(C(=O)c3cc4ccccc4[nH]3)CC2)c1
REMARK SMILES IDX 13 1 12 2 11 3 10 4 9 5 7 6 8 7 6 8 84 9 99 10 85 11 98 12
REMARK SMILES IDX 86 13 87 14 88 15 5 16 1 17 2 18 3 19 100 20 4 21 89 22
REMARK SMILES IDX 90 23 97 24 91 25 96 26 92 28 95 29 93 30 94 31 14 32 15 33
REMARK SMILES IDX 16 34 17 35 18 36 19 37 83 38 20 39 82 40 21 41 22 42 23 43
REMARK SMILES IDX 76 44 24 45 81 46 75 47 77 48 25 49 80 50 74 51 73 52 26 54
REMARK SMILES IDX 60 55 39 56 59 57 40 58 43 59 58 60 78 61 41 62 42 63 57 65
REMARK SMILES IDX 79 66 44 67 27 68 28 69 37 70 29 71 30 72 36 73 38 74 31 75
REMARK SMILES IDX 32 76 33 77 34 78 35 79 61 80 62 81 71 82 63 83 64 84 70 85
REMARK SMILES IDX 72 86 65 87 66 88 67 89 68 90 69 91 45 92 46 93 55 94 47 95
REMARK SMILES IDX 48 96 54 97 56 98 49 99 50 100 51 101 52 102 53 103
REMARK H PARENT 97 27 77 53 43 64
REMARK Flexibility Score: inf
ROOT
ATOM      1  C   UNL A   1      32.771  29.283  27.072  1.00  0.00     0.202 C 
ENDROOT
BRANCH   1   2
ATOM      2  O   UNL A   1      32.212  29.054  25.782  1.00  0.00    -0.374 OA
BRANCH   2   3
ATOM      3  C   UNL A   1      33.044  29.164  24.630  1.00  0.00     0.202 C 
BRANCH   3   4
ATOM      4  C   UNL A   1      32.915  28.088  23.551  1.00  0.00     0.261 C 
BRANCH   4   5
ATOM      5  O   UNL A   1      33.743  26.951  23.829  1.00  0.00    -0.461 OA
BRANCH   5   6
ATOM      6  C   UNL A   1      33.337  25.772  23.272  1.00  0.00     0.334 C 
ATOM      7  O   UNL A   1      32.765  25.701  22.188  1.00  0.00    -0.249 OA
BRANCH   6   8
ATOM      8  C   UNL A   1      33.523  24.568  24.228  1.00  0.00     0.163 C 
ATOM      9  C   UNL A   1      33.905  23.246  23.509  1.00  0.00     0.064 C 
ATOM     10  C   UNL A   1      34.700  25.089  25.078  1.00  0.00     0.064 C 
ATOM     11  C   UNL A   1      34.616  22.240  24.413  1.00  0.00     0.123 C 
ATOM     12  C   UNL A   1      35.376  24.052  25.937  1.00  0.00     0.123 C 
ATOM     13  N   UNL A   1      35.703  22.861  25.162  1.00  0.00    -0.337 N 
ATOM     14  C   UNL A   1      36.989  22.324  25.079  1.00  0.00     0.270 C 
ATOM     15  O   UNL A   1      37.294  21.476  24.247  1.00  0.00    -0.267 OA
BRANCH   8  16
ATOM     16  N   UNL A   1      32.292  24.364  25.025  1.00  0.00    -0.255 N 
ATOM     17  C   UNL A   1      29.746  22.563  26.942  1.00  0.00     0.048 C 
ATOM     18  C   UNL A   1      30.623  23.492  26.199  1.00  0.00    -0.013 A 
ATOM     19  C   UNL A   1      30.462  24.871  25.983  1.00  0.00     0.138 A 
ATOM     20  C   UNL A   1      31.785  23.191  25.526  1.00  0.00     0.113 A 
ATOM     21  N   UNL A   1      31.425  25.382  25.217  1.00  0.00    -0.180 NA
ENDBRANCH   8  16
BRANCH  14  22
ATOM     22  C   UNL A   1      37.966  22.873  25.987  1.00  0.00     0.105 A 
ATOM     23  C   UNL A   1      38.089  24.153  26.501  1.00  0.00     0.042 A 
ATOM     24  N   UNL A   1      39.008  22.136  26.495  1.00  0.00    -0.351 N 
ATOM     25  C   UNL A   1      39.309  24.221  27.223  1.00  0.00     0.000 A 
ATOM     26  C   UNL A   1      39.884  22.952  27.171  1.00  0.00     0.046 A 
ATOM     27  H   UNL A   1      39.113  21.163  26.389  1.00  0.00     0.167 HD
ATOM     28  C   UNL A   1      39.986  25.251  27.902  1.00  0.00     0.010 A 
ATOM     29  C   UNL A   1      41.125  22.664  27.748  1.00  0.00     0.026 A 
ATOM     30  C   UNL A   1      41.215  24.973  28.506  1.00  0.00     0.001 A 
ATOM     31  C   UNL A   1      41.778  23.701  28.423  1.00  0.00     0.002 A 
ENDBRANCH  14  22
ENDBRANCH   6   8
ENDBRANCH   5   6
ENDBRANCH   4   5
ENDBRANCH   3   4
ENDBRANCH   2   3
ENDBRANCH   1   2
BRANCH   1  32
ATOM     32  C   UNL A   1      33.303  30.671  27.401  1.00  0.00     0.261 C 
BRANCH  32  33
ATOM     33  O   UNL A   1      34.655  30.862  26.995  1.00  0.00    -0.460 OA
BRANCH  33  34
ATOM     34  C   UNL A   1      35.359  31.673  27.816  1.00  0.00     0.338 C 
ATOM     35  O   UNL A   1      35.221  32.887  27.940  1.00  0.00    -0.246 OA
BRANCH  34  36
ATOM     36  C   UNL A   1      36.449  30.919  28.438  1.00  0.00     0.060 A 
ATOM     37  C   UNL A   1      37.479  31.662  29.014  1.00  0.00     0.016 A 
ATOM     38  C   UNL A   1      36.576  29.539  28.212  1.00  0.00     0.016 A 
ATOM     39  C   UNL A   1      38.716  31.066  29.155  1.00  0.00     0.010 A 
ATOM     40  C   UNL A   1      37.811  28.946  28.361  1.00  0.00     0.010 A 
ATOM     41  C   UNL A   1      38.891  29.736  28.739  1.00  0.00    -0.014 A 
BRANCH  41  42
ATOM     42  C   UNL A   1      40.192  29.116  28.927  1.00  0.00     0.031 A 
ATOM     43  C   UNL A   1      40.435  28.886  30.371  1.00  0.00     0.074 A 
ATOM     44  C   UNL A   1      41.022  28.746  27.924  1.00  0.00     0.049 A 
ATOM     45  N   UNL A   1      41.155  29.628  31.144  1.00  0.00    -0.248 NA
ATOM     46  C   UNL A   1      39.580  27.934  31.103  1.00  0.00     0.031 C 
ATOM     47  C   UNL A   1      40.760  28.763  26.480  1.00  0.00     0.029 A 
ATOM     48  N   UNL A   1      42.284  28.216  27.988  1.00  0.00    -0.354 N 
ATOM     49  C   UNL A   1      41.099  29.021  32.393  1.00  0.00     0.074 A 
ATOM     50  C   UNL A   1      39.945  28.168  32.367  1.00  0.00     0.031 C 
ATOM     51  C   UNL A   1      41.721  28.060  25.830  1.00  0.00     0.029 A 
ATOM     52  C   UNL A   1      42.752  27.675  26.780  1.00  0.00     0.049 A 
ATOM     53  H   UNL A   1      42.819  28.213  28.813  1.00  0.00     0.167 HD
ATOM     54  C   UNL A   1      42.208  29.017  33.182  1.00  0.00     0.037 A 
ATOM     55  C   UNL A   1      43.915  26.988  26.590  1.00  0.00     0.037 A 
ATOM     56  C   UNL A   1      43.176  29.959  32.674  1.00  0.00     0.049 A 
ATOM     57  C   UNL A   1      44.824  27.406  27.681  1.00  0.00     0.074 A 
ATOM     58  C   UNL A   1      43.331  31.327  32.664  1.00  0.00     0.029 A 
ATOM     59  N   UNL A   1      43.938  29.450  31.655  1.00  0.00    -0.354 N 
ATOM     60  N   UNL A   1      45.302  28.617  27.775  1.00  0.00    -0.248 NA
ATOM     61  C   UNL A   1      44.877  26.613  28.902  1.00  0.00     0.031 C 
ATOM     62  C   UNL A   1      44.102  31.631  31.502  1.00  0.00     0.029 A 
ATOM     63  C   UNL A   1      44.465  30.441  30.876  1.00  0.00     0.049 A 
ATOM     64  H   UNL A   1      44.087  28.488  31.502  1.00  0.00     0.167 HD
ATOM     65  C   UNL A   1      45.293  28.880  29.131  1.00  0.00     0.074 A 
ATOM     66  C   UNL A   1      45.181  27.575  29.778  1.00  0.00     0.031 C 
ATOM     67  C   UNL A   1      45.042  30.141  29.586  1.00  0.00     0.037 A 
BRANCH  54  68
ATOM     68  C   UNL A   1      42.651  27.848  34.037  1.00  0.00     0.058 A 
ATOM     69  C   UNL A   1      42.726  28.019  35.436  1.00  0.00     0.135 A 
ATOM     70  C   UNL A   1      43.281  26.687  33.535  1.00  0.00     0.135 A 
ATOM     71  F   UNL A   1      42.178  29.095  36.022  1.00  0.00    -0.206 F 
ATOM     72  C   UNL A   1      43.415  27.131  36.264  1.00  0.00     0.059 A 
ATOM     73  C   UNL A   1      43.933  25.766  34.347  1.00  0.00     0.059 A 
ATOM     74  F   UNL A   1      43.378  26.430  32.227  1.00  0.00    -0.206 F 
ATOM     75  C   UNL A   1      44.019  26.008  35.708  1.00  0.00     0.060 A 
BRANCH  75  76
ATOM     76  S   UNL A   1      44.929  24.874  36.770  1.00  0.00     0.124 S 
ATOM     77  O   UNL A   1      44.756  23.607  36.069  1.00  0.00    -0.237 OA
ATOM     78  O   UNL A   1      46.271  25.448  36.736  1.00  0.00    -0.237 OA
ATOM     79  O   UNL A   1      44.240  24.988  38.052  1.00  0.00    -0.744 OA
ENDBRANCH  75  76
ENDBRANCH  54  68
BRANCH  55  80
ATOM     80  C   UNL A   1      44.235  25.804  25.738  1.00  0.00     0.058 A 
ATOM     81  C   UNL A   1      45.550  25.305  25.610  1.00  0.00     0.135 A 
ATOM     82  C   UNL A   1      43.211  24.935  25.320  1.00  0.00     0.135 A 
ATOM     83  F   UNL A   1      46.595  26.054  25.996  1.00  0.00    -0.206 F 
ATOM     84  C   UNL A   1      45.827  24.004  25.159  1.00  0.00     0.059 A 
ATOM     85  C   UNL A   1      43.461  23.634  24.871  1.00  0.00     0.059 A 
ATOM     86  F   UNL A   1      41.924  25.297  25.435  1.00  0.00    -0.206 F 
ATOM     87  C   UNL A   1      44.769  23.163  24.817  1.00  0.00     0.060 A 
BRANCH  87  88
ATOM     88  S   UNL A   1      45.096  21.422  24.421  1.00  0.00     0.124 S 
ATOM     89  O   UNL A   1      46.549  21.353  24.518  1.00  0.00    -0.237 OA
ATOM     90  O   UNL A   1      44.355  20.719  25.464  1.00  0.00    -0.237 OA
ATOM     91  O   UNL A   1      44.553  21.275  23.073  1.00  0.00    -0.744 OA
ENDBRANCH  87  88
ENDBRANCH  55  80
BRANCH  67  92
ATOM     92  C   UNL A   1      45.298  31.280  28.647  1.00  0.00     0.058 A 
ATOM     93  C   UNL A   1      46.554  31.842  28.365  1.00  0.00     0.135 A 
ATOM     94  C   UNL A   1      44.195  31.770  27.934  1.00  0.00     0.135 A 
ATOM     95  F   UNL A   1      47.666  31.374  28.952  1.00  0.00    -0.206 F 
ATOM     96  C   UNL A   1      46.698  32.873  27.432  1.00  0.00     0.059 A 
ATOM     97  C   UNL A   1      44.318  32.773  26.983  1.00  0.00     0.059 A 
ATOM     98  F   UNL A   1      42.978  31.237  28.131  1.00  0.00    -0.206 F 
ATOM     99  C   UNL A   1      45.570  33.332  26.747  1.00  0.00     0.060 A 
BRANCH  99 100
ATOM    100  S   UNL A   1      45.749  34.634  25.510  1.00  0.00     0.124 S 
ATOM    101  O   UNL A   1      45.303  35.815  26.240  1.00  0.00    -0.237 OA
ATOM    102  O   UNL A   1      47.174  34.579  25.197  1.00  0.00    -0.237 OA
ATOM    103  O   UNL A   1      44.867  34.199  24.428  1.00  0.00    -0.744 OA
ENDBRANCH  99 100
ENDBRANCH  67  92
ENDBRANCH  41  42
ENDBRANCH  34  36
ENDBRANCH  33  34
ENDBRANCH  32  33
ENDBRANCH   1  32
TORSDOF 19
ENDMDL
MODEL 2
REMARK VINA RESULT:     -12.3      2.538      9.592
REMARK SMILES Cc1cnn(C2(C(=O)OCCOCCOC(=O)c3ccc(-c4c5nc(c(-c6c(F)cc(S(=O)(=O)[O-])cc6F)c6ccc([nH]6)c(-c6c(F)cc(S(=O)(=O)[O-])cc6F)c6nc(c(-c7c(F)cc(S(=O)(=O)[O-])cc7F)c7ccc4[nH]7)C=C6)C=C5)cc3)CCN(C(=O)c3cc4ccccc4[nH]3)CC2)c1
REMARK SMILES IDX 13 1 12 2 11 3 10 4 9 5 7 6 8 7 6 8 84 9 99 10 85 11 98 12
REMARK SMILES IDX 86 13 87 14 88 15 5 16 1 17 2 18 3 19 100 20 4 21 89 22
REMARK SMILES IDX 90 23 97 24 91 25 96 26 92 28 95 29 93 30 94 31 14 32 15 33
REMARK SMILES IDX 16 34 17 35 18 36 19 37 83 38 20 39 82 40 21 41 22 42 23 43
REMARK SMILES IDX 76 44 24 45 81 46 75 47 77 48 25 49 80 50 74 51 73 52 26 54
REMARK SMILES IDX 60 55 39 56 59 57 40 58 43 59 58 60 78 61 41 62 42 63 57 65
REMARK SMILES IDX 79 66 44 67 27 68 28 69 37 70 29 71 30 72 36 73 38 74 31 75
REMARK SMILES IDX 32 76 33 77 34 78 35 79 61 80 62 81 71 82 63 83 64 84 70 85
REMARK SMILES IDX 72 86 65 87 66 88 67 89 68 90 69 91 45 92 46 93 55 94 47 95
REMARK SMILES IDX 48 96 54 97 56 98 49 99 50 100 51 101 52 102 53 103
REMARK H PARENT 97 27 77 53 43 64
REMARK Flexibility Score: inf
ROOT
ATOM      1  C   UNL A   1      41.455  20.495  26.584  1.00  0.00     0.202 C 
ENDROOT
BRANCH   1   2
ATOM      2  O   UNL A   1      40.151  20.072  26.197  1.00  0.00    -0.374 OA
BRANCH   2   3
ATOM      3  C   UNL A   1      39.148  21.050  25.935  1.00  0.00     0.202 C 
BRANCH   3   4
ATOM      4  C   UNL A   1      37.935  20.625  25.107  1.00  0.00     0.261 C 
BRANCH   4   5
ATOM      5  O   UNL A   1      36.738  21.290  25.533  1.00  0.00    -0.461 OA
BRANCH   5   6
ATOM      6  C   UNL A   1      35.910  21.718  24.534  1.00  0.00     0.334 C 
ATOM      7  O   UNL A   1      36.311  22.302  23.531  1.00  0.00    -0.249 OA
BRANCH   6   8
ATOM      8  C   UNL A   1      34.413  21.537  24.885  1.00  0.00     0.163 C 
ATOM      9  C   UNL A   1      34.095  21.710  26.396  1.00  0.00     0.064 C 
ATOM     10  C   UNL A   1      33.810  22.693  24.063  1.00  0.00     0.064 C 
ATOM     11  C   UNL A   1      32.641  22.087  26.676  1.00  0.00     0.123 C 
ATOM     12  C   UNL A   1      32.379  23.034  24.392  1.00  0.00     0.123 C 
ATOM     13  N   UNL A   1      32.195  23.189  25.830  1.00  0.00    -0.337 N 
ATOM     14  C   UNL A   1      31.657  24.334  26.421  1.00  0.00     0.270 C 
ATOM     15  O   UNL A   1      31.726  24.546  27.626  1.00  0.00    -0.267 OA
BRANCH   8  16
ATOM     16  N   UNL A   1      33.947  20.208  24.428  1.00  0.00    -0.255 N 
ATOM     17  C   UNL A   1      33.956  16.576  23.974  1.00  0.00     0.048 C 
ATOM     18  C   UNL A   1      33.747  18.039  24.008  1.00  0.00    -0.013 A 
ATOM     19  C   UNL A   1      32.717  18.794  23.423  1.00  0.00     0.138 A 
ATOM     20  C   UNL A   1      34.547  18.987  24.605  1.00  0.00     0.113 A 
ATOM     21  N   UNL A   1      32.875  20.104  23.612  1.00  0.00    -0.180 NA
ENDBRANCH   8  16
BRANCH  14  22
ATOM     22  C   UNL A   1      31.070  25.296  25.520  1.00  0.00     0.105 A 
ATOM     23  C   UNL A   1      31.604  26.450  24.972  1.00  0.00     0.042 A 
ATOM     24  N   UNL A   1      29.780  25.194  25.059  1.00  0.00    -0.351 N 
ATOM     25  C   UNL A   1      30.567  27.126  24.278  1.00  0.00     0.000 A 
ATOM     26  C   UNL A   1      29.424  26.335  24.380  1.00  0.00     0.046 A 
ATOM     27  H   UNL A   1      29.194  24.415  25.197  1.00  0.00     0.167 HD
ATOM     28  C   UNL A   1      30.493  28.349  23.585  1.00  0.00     0.010 A 
ATOM     29  C   UNL A   1      28.192  26.720  23.842  1.00  0.00     0.026 A 
ATOM     30  C   UNL A   1      29.274  28.736  23.018  1.00  0.00     0.001 A 
ATOM     31  C   UNL A   1      28.141  27.935  23.153  1.00  0.00     0.002 A 
ENDBRANCH  14  22
ENDBRANCH   6   8
ENDBRANCH   5   6
ENDBRANCH   4   5
ENDBRANCH   3   4
ENDBRANCH   2   3
ENDBRANCH   1   2
BRANCH   1  32
ATOM     32  C   UNL A   1      42.651  19.658  26.154  1.00  0.00     0.261 C 
BRANCH  32  33
ATOM     33  O   UNL A   1      43.197  20.065  24.902  1.00  0.00    -0.460 OA
BRANCH  33  34
ATOM     34  C   UNL A   1      44.487  20.460  24.976  1.00  0.00     0.338 C 
ATOM     35  O   UNL A   1      45.477  19.735  24.952  1.00  0.00    -0.246 OA
BRANCH  34  36
ATOM     36  C   UNL A   1      44.547  21.896  25.260  1.00  0.00     0.060 A 
ATOM     37  C   UNL A   1      45.258  22.283  26.395  1.00  0.00     0.016 A 
ATOM     38  C   UNL A   1      43.701  22.788  24.582  1.00  0.00     0.016 A 
ATOM     39  C   UNL A   1      44.947  23.493  26.980  1.00  0.00     0.010 A 
ATOM     40  C   UNL A   1      43.399  23.999  25.166  1.00  0.00     0.010 A 
ATOM     41  C   UNL A   1      43.951  24.300  26.407  1.00  0.00    -0.014 A 
BRANCH  41  42
ATOM     42  C   UNL A   1      43.662  25.587  27.019  1.00  0.00     0.031 A 
ATOM     43  C   UNL A   1      44.762  26.538  26.730  1.00  0.00     0.074 A 
ATOM     44  C   UNL A   1      42.527  25.883  27.692  1.00  0.00     0.049 A 
ATOM     45  N   UNL A   1      45.720  26.853  27.536  1.00  0.00    -0.248 NA
ATOM     46  C   UNL A   1      45.006  26.956  25.338  1.00  0.00     0.031 C 
ATOM     47  C   UNL A   1      41.323  25.057  27.843  1.00  0.00     0.029 A 
ATOM     48  N   UNL A   1      42.180  27.031  28.355  1.00  0.00    -0.354 N 
ATOM     49  C   UNL A   1      46.495  27.775  26.843  1.00  0.00     0.074 A 
ATOM     50  C   UNL A   1      46.170  27.603  25.455  1.00  0.00     0.031 C 
ATOM     51  C   UNL A   1      40.309  25.808  28.342  1.00  0.00     0.029 A 
ATOM     52  C   UNL A   1      40.822  27.121  28.696  1.00  0.00     0.049 A 
ATOM     53  H   UNL A   1      42.831  27.736  28.573  1.00  0.00     0.167 HD
ATOM     54  C   UNL A   1      47.052  28.818  27.518  1.00  0.00     0.037 A 
ATOM     55  C   UNL A   1      40.190  28.195  29.252  1.00  0.00     0.037 A 
ATOM     56  C   UNL A   1      46.983  28.577  28.939  1.00  0.00     0.049 A 
ATOM     57  C   UNL A   1      41.239  28.979  29.942  1.00  0.00     0.074 A 
ATOM     58  C   UNL A   1      47.642  27.787  29.853  1.00  0.00     0.029 A 
ATOM     59  N   UNL A   1      45.771  28.914  29.482  1.00  0.00    -0.354 N 
ATOM     60  N   UNL A   1      41.874  28.535  30.992  1.00  0.00    -0.248 NA
ATOM     61  C   UNL A   1      41.885  30.075  29.233  1.00  0.00     0.031 C 
ATOM     62  C   UNL A   1      46.713  27.540  30.907  1.00  0.00     0.029 A 
ATOM     63  C   UNL A   1      45.541  28.248  30.653  1.00  0.00     0.049 A 
ATOM     64  H   UNL A   1      45.142  29.556  29.079  1.00  0.00     0.167 HD
ATOM     65  C   UNL A   1      43.171  28.974  30.814  1.00  0.00     0.074 A 
ATOM     66  C   UNL A   1      43.086  30.039  29.817  1.00  0.00     0.031 C 
ATOM     67  C   UNL A   1      44.220  28.213  31.238  1.00  0.00     0.037 A 
BRANCH  54  68
ATOM     68  C   UNL A   1      47.154  30.231  26.983  1.00  0.00     0.058 A 
ATOM     69  C   UNL A   1      48.388  30.908  27.081  1.00  0.00     0.135 A 
ATOM     70  C   UNL A   1      46.043  31.043  26.660  1.00  0.00     0.135 A 
ATOM     71  F   UNL A   1      49.509  30.240  27.400  1.00  0.00    -0.206 F 
ATOM     72  C   UNL A   1      48.501  32.289  26.919  1.00  0.00     0.059 A 
ATOM     73  C   UNL A   1      46.141  32.414  26.450  1.00  0.00     0.059 A 
ATOM     74  F   UNL A   1      44.793  30.571  26.621  1.00  0.00    -0.206 F 
ATOM     75  C   UNL A   1      47.369  33.035  26.607  1.00  0.00     0.060 A 
BRANCH  75  76
ATOM     76  S   UNL A   1      47.507  34.821  26.423  1.00  0.00     0.124 S 
ATOM     77  O   UNL A   1      46.175  35.264  26.820  1.00  0.00    -0.237 OA
ATOM     78  O   UNL A   1      48.589  35.133  27.350  1.00  0.00    -0.237 OA
ATOM     79  O   UNL A   1      47.834  34.989  25.010  1.00  0.00    -0.744 OA
ENDBRANCH  75  76
ENDBRANCH  54  68
BRANCH  55  80
ATOM     80  C   UNL A   1      38.831  28.770  29.021  1.00  0.00     0.058 A 
ATOM     81  C   UNL A   1      37.902  28.944  30.070  1.00  0.00     0.135 A 
ATOM     82  C   UNL A   1      38.554  29.479  27.838  1.00  0.00     0.135 A 
ATOM     83  F   UNL A   1      38.086  28.321  31.244  1.00  0.00    -0.206 F 
ATOM     84  C   UNL A   1      36.806  29.817  29.975  1.00  0.00     0.059 A 
ATOM     85  C   UNL A   1      37.471  30.357  27.720  1.00  0.00     0.059 A 
ATOM     86  F   UNL A   1      39.394  29.413  26.794  1.00  0.00    -0.206 F 
ATOM     87  C   UNL A   1      36.614  30.543  28.800  1.00  0.00     0.060 A 
BRANCH  87  88
ATOM     88  S   UNL A   1      35.322  31.817  28.730  1.00  0.00     0.124 S 
ATOM     89  O   UNL A   1      35.073  32.078  30.143  1.00  0.00    -0.237 OA
ATOM     90  O   UNL A   1      35.980  32.890  27.991  1.00  0.00    -0.237 OA
ATOM     91  O   UNL A   1      34.234  31.153  28.017  1.00  0.00    -0.744 OA
ENDBRANCH  87  88
ENDBRANCH  55  80
BRANCH  67  92
ATOM     92  C   UNL A   1      43.956  27.211  32.320  1.00  0.00     0.058 A 
ATOM     93  C   UNL A   1      43.935  25.816  32.155  1.00  0.00     0.135 A 
ATOM     94  C   UNL A   1      43.798  27.712  33.619  1.00  0.00     0.135 A 
ATOM     95  F   UNL A   1      44.155  25.259  30.955  1.00  0.00    -0.206 F 
ATOM     96  C   UNL A   1      43.731  24.958  33.240  1.00  0.00     0.059 A 
ATOM     97  C   UNL A   1      43.622  26.879  34.715  1.00  0.00     0.059 A 
ATOM     98  F   UNL A   1      43.857  29.036  33.840  1.00  0.00    -0.206 F 
ATOM     99  C   UNL A   1      43.574  25.502  34.517  1.00  0.00     0.060 A 
BRANCH  99 100
ATOM    100  S   UNL A   1      43.351  24.404  35.932  1.00  0.00     0.124 S 
ATOM    101  O   UNL A   1      42.009  23.881  35.707  1.00  0.00    -0.237 OA
ATOM    102  O   UNL A   1      44.443  23.448  35.765  1.00  0.00    -0.237 OA
ATOM    103  O   UNL A   1      43.488  25.296  37.081  1.00  0.00    -0.744 OA
ENDBRANCH  99 100
ENDBRANCH  67  92
ENDBRANCH  41  42
ENDBRANCH  34  36
ENDBRANCH  33  34
ENDBRANCH  32  33
ENDBRANCH   1  32
TORSDOF 19
ENDMDL
MODEL 3
REMARK VINA RESULT:     -12.1      3.017     10.003
REMARK SMILES Cc1cnn(C2(C(=O)OCCOCCOC(=O)c3ccc(-c4c5nc(c(-c6c(F)cc(S(=O)(=O)[O-])cc6F)c6ccc([nH]6)c(-c6c(F)cc(S(=O)(=O)[O-])cc6F)c6nc(c(-c7c(F)cc(S(=O)(=O)[O-])cc7F)c7ccc4[nH]7)C=C6)C=C5)cc3)CCN(C(=O)c3cc4ccccc4[nH]3)CC2)c1
REMARK SMILES IDX 13 1 12 2 11 3 10 4 9 5 7 6 8 7 6 8 84 9 99 10 85 11 98 12
REMARK SMILES IDX 86 13 87 14 88 15 5 16 1 17 2 18 3 19 100 20 4 21 89 22
REMARK SMILES IDX 90 23 97 24 91 25 96 26 92 28 95 29 93 30 94 31 14 32 15 33
REMARK SMILES IDX 16 34 17 35 18 36 19 37 83 38 20 39 82 40 21 41 22 42 23 43
REMARK SMILES IDX 76 44 24 45 81 46 75 47 77 48 25 49 80 50 74 51 73 52 26 54
REMARK SMILES IDX 60 55 39 56 59 57 40 58 43 59 58 60 78 61 41 62 42 63 57 65
REMARK SMILES IDX 79 66 44 67 27 68 28 69 37 70 29 71 30 72 36 73 38 74 31 75
REMARK SMILES IDX 32 76 33 77 34 78 35 79 61 80 62 81 71 82 63 83 64 84 70 85
REMARK SMILES IDX 72 86 65 87 66 88 67 89 68 90 69 91 45 92 46 93 55 94 47 95
REMARK SMILES IDX 48 96 54 97 56 98 49 99 50 100 51 101 52 102 53 103
REMARK H PARENT 97 27 77 53 43 64
REMARK Flexibility Score: inf
ROOT
ATOM      1  C   UNL A   1      37.616  20.825  24.969  1.00  0.00     0.202 C 
ENDROOT
BRANCH   1   2
ATOM      2  O   UNL A   1      36.705  21.919  24.934  1.00  0.00    -0.374 OA
BRANCH   2   3
ATOM      3  C   UNL A   1      36.779  22.858  23.864  1.00  0.00     0.202 C 
BRANCH   3   4
ATOM      4  C   UNL A   1      35.473  23.276  23.189  1.00  0.00     0.261 C 
BRANCH   4   5
ATOM      5  O   UNL A   1      34.712  24.174  24.008  1.00  0.00    -0.461 OA
BRANCH   5   6
ATOM      6  C   UNL A   1      33.405  24.342  23.648  1.00  0.00     0.334 C 
ATOM      7  O   UNL A   1      32.963  24.020  22.548  1.00  0.00    -0.249 OA
BRANCH   6   8
ATOM      8  C   UNL A   1      32.594  25.130  24.705  1.00  0.00     0.163 C 
ATOM      9  C   UNL A   1      33.444  26.137  25.528  1.00  0.00     0.064 C 
ATOM     10  C   UNL A   1      31.611  25.874  23.778  1.00  0.00     0.064 C 
ATOM     11  C   UNL A   1      32.625  27.272  26.141  1.00  0.00     0.123 C 
ATOM     12  C   UNL A   1      30.842  26.995  24.430  1.00  0.00     0.123 C 
ATOM     13  N   UNL A   1      31.734  27.886  25.162  1.00  0.00    -0.337 N 
ATOM     14  C   UNL A   1      31.798  29.264  24.945  1.00  0.00     0.270 C 
ATOM     15  O   UNL A   1      32.705  29.957  25.390  1.00  0.00    -0.267 OA
BRANCH   8  16
ATOM     16  N   UNL A   1      31.913  24.188  25.621  1.00  0.00    -0.255 N 
ATOM     17  C   UNL A   1      29.137  22.473  27.282  1.00  0.00     0.048 C 
ATOM     18  C   UNL A   1      30.406  23.032  26.768  1.00  0.00    -0.013 A 
ATOM     19  C   UNL A   1      31.722  22.710  27.138  1.00  0.00     0.138 A 
ATOM     20  C   UNL A   1      30.566  24.022  25.825  1.00  0.00     0.113 A 
ATOM     21  N   UNL A   1      32.626  23.454  26.502  1.00  0.00    -0.180 NA
ENDBRANCH   8  16
BRANCH  14  22
ATOM     22  C   UNL A   1      30.766  29.822  24.105  1.00  0.00     0.105 A 
ATOM     23  C   UNL A   1      30.192  29.328  22.946  1.00  0.00     0.042 A 
ATOM     24  N   UNL A   1      30.175  31.035  24.359  1.00  0.00    -0.351 N 
ATOM     25  C   UNL A   1      29.337  30.330  22.418  1.00  0.00     0.000 A 
ATOM     26  C   UNL A   1      29.374  31.406  23.304  1.00  0.00     0.046 A 
ATOM     27  H   UNL A   1      30.307  31.565  25.178  1.00  0.00     0.167 HD
ATOM     28  C   UNL A   1      28.548  30.427  21.257  1.00  0.00     0.010 A 
ATOM     29  C   UNL A   1      28.675  32.595  23.074  1.00  0.00     0.026 A 
ATOM     30  C   UNL A   1      27.822  31.599  21.026  1.00  0.00     0.001 A 
ATOM     31  C   UNL A   1      27.892  32.668  21.918  1.00  0.00     0.002 A 
ENDBRANCH  14  22
ENDBRANCH   6   8
ENDBRANCH   5   6
ENDBRANCH   4   5
ENDBRANCH   3   4
ENDBRANCH   2   3
ENDBRANCH   1   2
BRANCH   1  32
ATOM     32  C   UNL A   1      38.948  21.007  25.682  1.00  0.00     0.261 C 
BRANCH  32  33
ATOM     33  O   UNL A   1      39.088  22.291  26.284  1.00  0.00    -0.460 OA
BRANCH  33  34
ATOM     34  C   UNL A   1      40.222  22.431  27.008  1.00  0.00     0.338 C 
ATOM     35  O   UNL A   1      40.852  21.534  27.561  1.00  0.00    -0.246 OA
BRANCH  34  36
ATOM     36  C   UNL A   1      40.519  23.853  27.187  1.00  0.00     0.060 A 
ATOM     37  C   UNL A   1      41.643  24.169  27.949  1.00  0.00     0.016 A 
ATOM     38  C   UNL A   1      39.565  24.825  26.845  1.00  0.00     0.016 A 
ATOM     39  C   UNL A   1      41.694  25.407  28.556  1.00  0.00     0.010 A 
ATOM     40  C   UNL A   1      39.624  26.063  27.448  1.00  0.00     0.010 A 
ATOM     41  C   UNL A   1      40.635  26.310  28.372  1.00  0.00    -0.014 A 
BRANCH  41  42
ATOM     42  C   UNL A   1      40.724  27.621  28.993  1.00  0.00     0.031 A 
ATOM     43  C   UNL A   1      41.838  28.389  28.387  1.00  0.00     0.074 A 
ATOM     44  C   UNL A   1      39.871  28.088  29.934  1.00  0.00     0.049 A 
ATOM     45  N   UNL A   1      43.014  28.542  28.897  1.00  0.00    -0.248 NA
ATOM     46  C   UNL A   1      41.760  28.773  26.967  1.00  0.00     0.031 C 
ATOM     47  C   UNL A   1      38.639  27.462  30.430  1.00  0.00     0.029 A 
ATOM     48  N   UNL A   1      39.897  29.271  30.624  1.00  0.00    -0.354 N 
ATOM     49  C   UNL A   1      43.706  29.335  27.990  1.00  0.00     0.074 A 
ATOM     50  C   UNL A   1      42.997  29.227  26.746  1.00  0.00     0.031 C 
ATOM     51  C   UNL A   1      37.926  28.359  31.155  1.00  0.00     0.029 A 
ATOM     52  C   UNL A   1      38.711  29.572  31.313  1.00  0.00     0.049 A 
ATOM     53  H   UNL A   1      40.683  29.863  30.636  1.00  0.00     0.167 HD
ATOM     54  C   UNL A   1      44.578  30.272  28.454  1.00  0.00     0.037 A 
ATOM     55  C   UNL A   1      38.426  30.728  31.979  1.00  0.00     0.037 A 
ATOM     56  C   UNL A   1      44.859  30.034  29.849  1.00  0.00     0.049 A 
ATOM     57  C   UNL A   1      39.730  31.331  32.336  1.00  0.00     0.074 A 
ATOM     58  C   UNL A   1      45.610  29.142  30.581  1.00  0.00     0.029 A 
ATOM     59  N   UNL A   1      43.905  30.554  30.685  1.00  0.00    -0.354 N 
ATOM     60  N   UNL A   1      40.549  30.785  33.193  1.00  0.00    -0.248 NA
ATOM     61  C   UNL A   1      40.323  32.317  31.442  1.00  0.00     0.031 C 
ATOM     62  C   UNL A   1      44.972  29.038  31.854  1.00  0.00     0.029 A 
ATOM     63  C   UNL A   1      43.898  29.924  31.897  1.00  0.00     0.049 A 
ATOM     64  H   UNL A   1      43.298  31.291  30.441  1.00  0.00     0.167 HD
ATOM     65  C   UNL A   1      41.801  31.015  32.659  1.00  0.00     0.074 A 
ATOM     66  C   UNL A   1      41.616  32.087  31.684  1.00  0.00     0.031 C 
ATOM     67  C   UNL A   1      42.795  30.094  32.814  1.00  0.00     0.037 A 
BRANCH  54  68
ATOM     68  C   UNL A   1      44.750  31.655  27.861  1.00  0.00     0.058 A 
ATOM     69  C   UNL A   1      45.958  31.969  27.204  1.00  0.00     0.135 A 
ATOM     70  C   UNL A   1      43.922  32.760  28.166  1.00  0.00     0.135 A 
ATOM     71  F   UNL A   1      46.831  31.000  26.882  1.00  0.00    -0.206 F 
ATOM     72  C   UNL A   1      46.337  33.281  26.916  1.00  0.00     0.059 A 
ATOM     73  C   UNL A   1      44.259  34.071  27.846  1.00  0.00     0.059 A 
ATOM     74  F   UNL A   1      42.791  32.640  28.867  1.00  0.00    -0.206 F 
ATOM     75  C   UNL A   1      45.480  34.327  27.245  1.00  0.00     0.060 A 
BRANCH  75  76
ATOM     76  S   UNL A   1      45.977  36.022  26.897  1.00  0.00     0.124 S 
ATOM     77  O   UNL A   1      44.686  36.692  26.787  1.00  0.00    -0.237 OA
ATOM     78  O   UNL A   1      46.769  36.348  28.079  1.00  0.00    -0.237 OA
ATOM     79  O   UNL A   1      46.736  35.902  25.656  1.00  0.00    -0.744 OA
ENDBRANCH  75  76
ENDBRANCH  54  68
BRANCH  55  80
ATOM     80  C   UNL A   1      37.161  31.512  32.099  1.00  0.00     0.058 A 
ATOM     81  C   UNL A   1      36.726  32.051  33.330  1.00  0.00     0.135 A 
ATOM     82  C   UNL A   1      36.545  32.043  30.951  1.00  0.00     0.135 A 
ATOM     83  F   UNL A   1      37.264  31.620  34.482  1.00  0.00    -0.206 F 
ATOM     84  C   UNL A   1      35.789  33.094  33.413  1.00  0.00     0.059 A 
ATOM     85  C   UNL A   1      35.612  33.084  31.007  1.00  0.00     0.059 A 
ATOM     86  F   UNL A   1      36.913  31.628  29.730  1.00  0.00    -0.206 F 
ATOM     87  C   UNL A   1      35.257  33.625  32.239  1.00  0.00     0.060 A 
BRANCH  87  88
ATOM     88  S   UNL A   1      34.198  35.098  32.316  1.00  0.00     0.124 S 
ATOM     89  O   UNL A   1      34.992  36.002  33.141  1.00  0.00    -0.237 OA
ATOM     90  O   UNL A   1      34.071  35.466  30.910  1.00  0.00    -0.237 OA
ATOM     91  O   UNL A   1      32.974  34.600  32.938  1.00  0.00    -0.744 OA
ENDBRANCH  87  88
ENDBRANCH  55  80
BRANCH  67  92
ATOM     92  C   UNL A   1      42.681  29.138  33.962  1.00  0.00     0.058 A 
ATOM     93  C   UNL A   1      42.991  29.427  35.302  1.00  0.00     0.135 A 
ATOM     94  C   UNL A   1      42.144  27.874  33.681  1.00  0.00     0.135 A 
ATOM     95  F   UNL A   1      43.437  30.641  35.660  1.00  0.00    -0.206 F 
ATOM     96  C   UNL A   1      42.802  28.481  36.314  1.00  0.00     0.059 A 
ATOM     97  C   UNL A   1      41.922  26.930  34.672  1.00  0.00     0.059 A 
ATOM     98  F   UNL A   1      41.788  27.561  32.424  1.00  0.00    -0.206 F 
ATOM     99  C   UNL A   1      42.267  27.233  35.986  1.00  0.00     0.060 A 
BRANCH  99 100
ATOM    100  S   UNL A   1      41.980  26.018  37.289  1.00  0.00     0.124 S 
ATOM    101  O   UNL A   1      42.932  26.433  38.312  1.00  0.00    -0.237 OA
ATOM    102  O   UNL A   1      40.570  26.226  37.610  1.00  0.00    -0.237 OA
ATOM    103  O   UNL A   1      42.279  24.743  36.638  1.00  0.00    -0.744 OA
ENDBRANCH  99 100
ENDBRANCH  67  92
ENDBRANCH  41  42
ENDBRANCH  34  36
ENDBRANCH  33  34
ENDBRANCH  32  33
ENDBRANCH   1  32
TORSDOF 19
ENDMDL
