MODEL 1
REMARK VINA RESULT:     -12.4      0.000      0.000
REMARK SMILES Cc1cc(C)c2c(CCCC(=O)OCCOCCOC(=O)c3ccc(-c4c5nc(c(-c6c(F)cc(S(=O)(=O)[O-])cc6F)c6ccc([nH]6)c(-c6c(F)cc(S(=O)(=O)[O-])cc6F)c6nc(c(-c7c(F)cc(S(=O)(=O)[O-])cc7F)c7ccc4[nH]7)C=C6)C=C5)cc3)c(-c3ccccn3)[nH]c2c1
REMARK SMILES IDX 15 1 14 2 13 3 11 4 12 5 10 6 9 7 8 8 7 9 1 10 2 11 3 12
REMARK SMILES IDX 97 13 4 14 96 15 5 16 6 17 95 18 88 19 89 21 90 22 94 23
REMARK SMILES IDX 91 24 93 25 92 26 16 27 17 28 18 29 19 30 20 31 21 32 22 33
REMARK SMILES IDX 23 34 87 35 24 36 86 37 25 38 26 39 27 40 80 41 28 42 85 43
REMARK SMILES IDX 79 44 81 45 29 46 84 47 78 48 77 49 30 51 64 52 43 53 63 54
REMARK SMILES IDX 44 55 47 56 62 57 82 58 45 59 46 60 61 62 83 63 48 64 31 65
REMARK SMILES IDX 32 66 41 67 33 68 34 69 40 70 42 71 35 72 36 73 37 74 38 75
REMARK SMILES IDX 39 76 65 77 66 78 75 79 67 80 68 81 74 82 76 83 69 84 70 85
REMARK SMILES IDX 71 86 72 87 73 88 49 89 50 90 59 91 51 92 52 93 58 94 60 95
REMARK SMILES IDX 53 96 54 97 55 98 56 99 57 100
REMARK H PARENT 95 20 81 50 47 61
REMARK Flexibility Score: inf
ROOT
ATOM      1  C   UNL A   1      41.791  21.206  27.014  1.00  0.00     0.202 C 
ENDROOT
BRANCH   1   2
ATOM      2  C   UNL A   1      40.323  21.501  27.288  1.00  0.00     0.261 C 
BRANCH   2   3
ATOM      3  O   UNL A   1      39.514  21.254  26.130  1.00  0.00    -0.463 OA
BRANCH   3   4
ATOM      4  C   UNL A   1      38.551  22.155  25.823  1.00  0.00     0.305 C 
ATOM      5  O   UNL A   1      38.474  23.280  26.309  1.00  0.00    -0.252 OA
BRANCH   4   6
ATOM      6  C   UNL A   1      37.616  21.673  24.730  1.00  0.00     0.123 C 
BRANCH   6   7
ATOM      7  C   UNL A   1      36.578  20.602  25.056  1.00  0.00     0.017 C 
BRANCH   7   8
ATOM      8  C   UNL A   1      35.293  20.992  25.790  1.00  0.00     0.039 C 
BRANCH   8   9
ATOM      9  C   UNL A   1      34.049  21.192  24.970  1.00  0.00    -0.013 A 
ATOM     10  C   UNL A   1      31.349  25.611  22.476  1.00  0.00     0.044 C 
ATOM     11  C   UNL A   1      32.132  24.523  23.149  1.00  0.00    -0.049 A 
ATOM     12  C   UNL A   1      33.247  24.829  23.929  1.00  0.00     0.007 A 
ATOM     13  C   UNL A   1      31.713  23.198  23.035  1.00  0.00     0.030 A 
ATOM     14  C   UNL A   1      33.995  23.837  24.607  1.00  0.00    -0.041 A 
ATOM     15  C   UNL A   1      32.446  22.214  23.704  1.00  0.00     0.047 A 
ATOM     16  C   UNL A   1      35.189  24.308  25.399  1.00  0.00     0.045 C 
ATOM     17  C   UNL A   1      33.572  22.478  24.484  1.00  0.00     0.006 A 
ATOM     18  N   UNL A   1      32.229  20.864  23.734  1.00  0.00    -0.353 N 
ATOM     19  C   UNL A   1      33.205  20.212  24.437  1.00  0.00     0.068 A 
ATOM     20  H   UNL A   1      31.463  20.416  23.305  1.00  0.00     0.167 HD
BRANCH  19  21
ATOM     21  C   UNL A   1      33.168  18.757  24.491  1.00  0.00     0.087 A 
ATOM     22  C   UNL A   1      33.731  17.960  23.505  1.00  0.00     0.030 A 
ATOM     23  N   UNL A   1      32.513  18.253  25.559  1.00  0.00    -0.255 NA
ATOM     24  C   UNL A   1      33.703  16.575  23.677  1.00  0.00     0.004 A 
ATOM     25  C   UNL A   1      32.534  16.910  25.720  1.00  0.00     0.112 A 
ATOM     26  C   UNL A   1      33.125  16.039  24.822  1.00  0.00     0.020 A 
ENDBRANCH  19  21
ENDBRANCH   8   9
ENDBRANCH   7   8
ENDBRANCH   6   7
ENDBRANCH   4   6
ENDBRANCH   3   4
ENDBRANCH   2   3
ENDBRANCH   1   2
BRANCH   1  27
ATOM     27  O   UNL A   1      42.226  19.860  27.186  1.00  0.00    -0.374 OA
BRANCH  27  28
ATOM     28  C   UNL A   1      42.268  18.981  26.068  1.00  0.00     0.202 C 
BRANCH  28  29
ATOM     29  C   UNL A   1      43.561  18.864  25.279  1.00  0.00     0.261 C 
BRANCH  29  30
ATOM     30  O   UNL A   1      43.879  20.049  24.561  1.00  0.00    -0.460 OA
BRANCH  30  31
ATOM     31  C   UNL A   1      45.117  20.519  24.849  1.00  0.00     0.338 C 
ATOM     32  O   UNL A   1      46.101  19.862  25.122  1.00  0.00    -0.246 OA
BRANCH  31  33
ATOM     33  C   UNL A   1      45.052  21.978  24.975  1.00  0.00     0.060 A 
ATOM     34  C   UNL A   1      45.868  22.518  25.965  1.00  0.00     0.016 A 
ATOM     35  C   UNL A   1      44.015  22.714  24.379  1.00  0.00     0.016 A 
ATOM     36  C   UNL A   1      45.483  23.706  26.534  1.00  0.00     0.010 A 
ATOM     37  C   UNL A   1      43.645  23.918  24.939  1.00  0.00     0.010 A 
ATOM     38  C   UNL A   1      44.325  24.349  26.070  1.00  0.00    -0.014 A 
BRANCH  38  39
ATOM     39  C   UNL A   1      43.960  25.586  26.730  1.00  0.00     0.031 A 
ATOM     40  C   UNL A   1      44.977  26.628  26.487  1.00  0.00     0.074 A 
ATOM     41  C   UNL A   1      42.856  25.761  27.480  1.00  0.00     0.049 A 
ATOM     42  N   UNL A   1      45.917  26.973  27.299  1.00  0.00    -0.248 NA
ATOM     43  C   UNL A   1      45.150  27.131  25.117  1.00  0.00     0.031 C 
ATOM     44  C   UNL A   1      41.696  24.882  27.630  1.00  0.00     0.029 A 
ATOM     45  N   UNL A   1      42.524  26.832  28.254  1.00  0.00    -0.354 N 
ATOM     46  C   UNL A   1      46.642  27.947  26.631  1.00  0.00     0.074 A 
ATOM     47  C   UNL A   1      46.277  27.833  25.244  1.00  0.00     0.031 C 
ATOM     48  C   UNL A   1      40.701  25.555  28.259  1.00  0.00     0.029 A 
ATOM     49  C   UNL A   1      41.201  26.850  28.687  1.00  0.00     0.049 A 
ATOM     50  H   UNL A   1      43.170  27.536  28.489  1.00  0.00     0.167 HD
ATOM     51  C   UNL A   1      47.236  28.946  27.337  1.00  0.00     0.037 A 
ATOM     52  C   UNL A   1      40.574  27.875  29.326  1.00  0.00     0.037 A 
ATOM     53  C   UNL A   1      47.374  28.571  28.727  1.00  0.00     0.049 A 
ATOM     54  C   UNL A   1      41.641  28.684  29.976  1.00  0.00     0.074 A 
ATOM     55  C   UNL A   1      48.029  27.566  29.412  1.00  0.00     0.029 A 
ATOM     56  N   UNL A   1      46.439  29.076  29.599  1.00  0.00    -0.354 N 
ATOM     57  N   UNL A   1      42.381  28.244  30.958  1.00  0.00    -0.248 NA
ATOM     58  C   UNL A   1      42.204  29.792  29.221  1.00  0.00     0.031 C 
ATOM     59  C   UNL A   1      47.168  27.227  30.497  1.00  0.00     0.029 A 
ATOM     60  C   UNL A   1      46.068  28.086  30.468  1.00  0.00     0.049 A 
ATOM     61  H   UNL A   1      46.092  29.998  29.598  1.00  0.00     0.167 HD
ATOM     62  C   UNL A   1      43.659  28.699  30.670  1.00  0.00     0.074 A 
ATOM     63  C   UNL A   1      43.471  29.715  29.634  1.00  0.00     0.031 C 
ATOM     64  C   UNL A   1      44.762  28.010  31.090  1.00  0.00     0.037 A 
BRANCH  51  65
ATOM     65  C   UNL A   1      47.233  30.393  26.892  1.00  0.00     0.058 A 
ATOM     66  C   UNL A   1      48.432  31.128  27.004  1.00  0.00     0.135 A 
ATOM     67  C   UNL A   1      46.069  31.165  26.674  1.00  0.00     0.135 A 
ATOM     68  F   UNL A   1      49.605  30.501  27.195  1.00  0.00    -0.206 F 
ATOM     69  C   UNL A   1      48.456  32.521  27.015  1.00  0.00     0.059 A 
ATOM     70  C   UNL A   1      46.078  32.553  26.634  1.00  0.00     0.059 A 
ATOM     71  F   UNL A   1      44.847  30.632  26.575  1.00  0.00    -0.206 F 
ATOM     72  C   UNL A   1      47.267  33.223  26.850  1.00  0.00     0.060 A 
BRANCH  72  73
ATOM     73  S   UNL A   1      47.278  35.017  26.964  1.00  0.00     0.124 S 
ATOM     74  O   UNL A   1      48.502  35.252  27.721  1.00  0.00    -0.237 OA
ATOM     75  O   UNL A   1      47.309  35.402  25.556  1.00  0.00    -0.237 OA
ATOM     76  O   UNL A   1      46.032  35.317  27.663  1.00  0.00    -0.744 OA
ENDBRANCH  72  73
ENDBRANCH  51  65
BRANCH  52  77
ATOM     77  C   UNL A   1      39.212  28.427  29.058  1.00  0.00     0.058 A 
ATOM     78  C   UNL A   1      38.252  28.540  30.085  1.00  0.00     0.135 A 
ATOM     79  C   UNL A   1      38.922  29.127  27.870  1.00  0.00     0.135 A 
ATOM     80  F   UNL A   1      38.447  27.925  31.261  1.00  0.00    -0.206 F 
ATOM     81  C   UNL A   1      37.108  29.343  29.963  1.00  0.00     0.059 A 
ATOM     82  C   UNL A   1      37.787  29.927  27.724  1.00  0.00     0.059 A 
ATOM     83  F   UNL A   1      39.781  29.129  26.842  1.00  0.00    -0.206 F 
ATOM     84  C   UNL A   1      36.896  30.052  28.782  1.00  0.00     0.060 A 
BRANCH  84  85
ATOM     85  S   UNL A   1      35.513  31.216  28.671  1.00  0.00     0.124 S 
ATOM     86  O   UNL A   1      34.474  30.395  28.059  1.00  0.00    -0.237 OA
ATOM     87  O   UNL A   1      35.300  31.578  30.068  1.00  0.00    -0.237 OA
ATOM     88  O   UNL A   1      36.037  32.287  27.826  1.00  0.00    -0.744 OA
ENDBRANCH  84  85
ENDBRANCH  52  77
BRANCH  64  89
ATOM     89  C   UNL A   1      44.590  26.961  32.159  1.00  0.00     0.058 A 
ATOM     90  C   UNL A   1      44.475  27.219  33.537  1.00  0.00     0.135 A 
ATOM     91  C   UNL A   1      44.370  25.641  31.734  1.00  0.00     0.135 A 
ATOM     92  F   UNL A   1      44.583  28.465  34.018  1.00  0.00    -0.206 F 
ATOM     93  C   UNL A   1      44.179  26.201  34.450  1.00  0.00     0.059 A 
ATOM     94  C   UNL A   1      44.043  24.621  32.620  1.00  0.00     0.059 A 
ATOM     95  F   UNL A   1      44.414  25.342  30.425  1.00  0.00    -0.206 F 
ATOM     96  C   UNL A   1      43.958  24.905  33.980  1.00  0.00     0.060 A 
BRANCH  96  97
ATOM     97  S   UNL A   1      43.500  23.603  35.146  1.00  0.00     0.124 S 
ATOM     98  O   UNL A   1      42.046  23.712  35.175  1.00  0.00    -0.237 OA
ATOM     99  O   UNL A   1      44.036  22.405  34.509  1.00  0.00    -0.237 OA
ATOM    100  O   UNL A   1      44.177  23.997  36.381  1.00  0.00    -0.744 OA
ENDBRANCH  96  97
ENDBRANCH  64  89
ENDBRANCH  38  39
ENDBRANCH  31  33
ENDBRANCH  30  31
ENDBRANCH  29  30
ENDBRANCH  28  29
ENDBRANCH  27  28
ENDBRANCH   1  27
TORSDOF 21
ENDMDL
MODEL 2
REMARK VINA RESULT:     -12.0      2.552      9.167
REMARK SMILES Cc1cc(C)c2c(CCCC(=O)OCCOCCOC(=O)c3ccc(-c4c5nc(c(-c6c(F)cc(S(=O)(=O)[O-])cc6F)c6ccc([nH]6)c(-c6c(F)cc(S(=O)(=O)[O-])cc6F)c6nc(c(-c7c(F)cc(S(=O)(=O)[O-])cc7F)c7ccc4[nH]7)C=C6)C=C5)cc3)c(-c3ccccn3)[nH]c2c1
REMARK SMILES IDX 15 1 14 2 13 3 11 4 12 5 10 6 9 7 8 8 7 9 1 10 2 11 3 12
REMARK SMILES IDX 97 13 4 14 96 15 5 16 6 17 95 18 88 19 89 21 90 22 94 23
REMARK SMILES IDX 91 24 93 25 92 26 16 27 17 28 18 29 19 30 20 31 21 32 22 33
REMARK SMILES IDX 23 34 87 35 24 36 86 37 25 38 26 39 27 40 80 41 28 42 85 43
REMARK SMILES IDX 79 44 81 45 29 46 84 47 78 48 77 49 30 51 64 52 43 53 63 54
REMARK SMILES IDX 44 55 47 56 62 57 82 58 45 59 46 60 61 62 83 63 48 64 31 65
REMARK SMILES IDX 32 66 41 67 33 68 34 69 40 70 42 71 35 72 36 73 37 74 38 75
REMARK SMILES IDX 39 76 65 77 66 78 75 79 67 80 68 81 74 82 76 83 69 84 70 85
REMARK SMILES IDX 71 86 72 87 73 88 49 89 50 90 59 91 51 92 52 93 58 94 60 95
REMARK SMILES IDX 53 96 54 97 55 98 56 99 57 100
REMARK H PARENT 95 20 81 50 47 61
REMARK Flexibility Score: inf
ROOT
ATOM      1  C   UNL A   1      31.902  27.243  26.501  1.00  0.00     0.202 C 
ENDROOT
BRANCH   1   2
ATOM      2  C   UNL A   1      31.056  26.354  25.599  1.00  0.00     0.261 C 
BRANCH   2   3
ATOM      3  O   UNL A   1      30.343  25.367  26.356  1.00  0.00    -0.463 OA
BRANCH   3   4
ATOM      4  C   UNL A   1      30.912  24.147  26.503  1.00  0.00     0.305 C 
ATOM      5  O   UNL A   1      31.200  23.641  27.584  1.00  0.00    -0.252 OA
BRANCH   4   6
ATOM      6  C   UNL A   1      31.071  23.406  25.189  1.00  0.00     0.123 C 
BRANCH   6   7
ATOM      7  C   UNL A   1      31.715  22.022  25.187  1.00  0.00     0.017 C 
BRANCH   7   8
ATOM      8  C   UNL A   1      32.738  21.665  24.106  1.00  0.00     0.039 C 
BRANCH   8   9
ATOM      9  C   UNL A   1      34.110  21.242  24.549  1.00  0.00    -0.013 A 
ATOM     10  C   UNL A   1      38.924  23.842  26.311  1.00  0.00     0.044 C 
ATOM     11  C   UNL A   1      37.621  23.256  25.853  1.00  0.00    -0.049 A 
ATOM     12  C   UNL A   1      36.582  24.083  25.427  1.00  0.00     0.007 A 
ATOM     13  C   UNL A   1      37.463  21.872  25.807  1.00  0.00     0.030 A 
ATOM     14  C   UNL A   1      35.349  23.572  24.958  1.00  0.00    -0.041 A 
ATOM     15  C   UNL A   1      36.248  21.360  25.344  1.00  0.00     0.047 A 
ATOM     16  C   UNL A   1      34.306  24.582  24.546  1.00  0.00     0.045 C 
ATOM     17  C   UNL A   1      35.182  22.154  24.919  1.00  0.00     0.006 A 
ATOM     18  N   UNL A   1      35.869  20.053  25.215  1.00  0.00    -0.353 N 
ATOM     19  C   UNL A   1      34.571  19.944  24.796  1.00  0.00     0.068 A 
ATOM     20  H   UNL A   1      36.457  19.285  25.399  1.00  0.00     0.167 HD
BRANCH  19  21
ATOM     21  C   UNL A   1      33.984  18.615  24.692  1.00  0.00     0.087 A 
ATOM     22  C   UNL A   1      34.336  17.720  23.692  1.00  0.00     0.030 A 
ATOM     23  N   UNL A   1      33.048  18.343  25.627  1.00  0.00    -0.255 NA
ATOM     24  C   UNL A   1      33.768  16.445  23.714  1.00  0.00     0.004 A 
ATOM     25  C   UNL A   1      32.542  17.088  25.647  1.00  0.00     0.112 A 
ATOM     26  C   UNL A   1      32.879  16.109  24.730  1.00  0.00     0.020 A 
ENDBRANCH  19  21
ENDBRANCH   8   9
ENDBRANCH   7   8
ENDBRANCH   6   7
ENDBRANCH   4   6
ENDBRANCH   3   4
ENDBRANCH   2   3
ENDBRANCH   1   2
BRANCH   1  27
ATOM     27  O   UNL A   1      32.264  28.525  25.996  1.00  0.00    -0.374 OA
BRANCH  27  28
ATOM     28  C   UNL A   1      32.368  29.632  26.884  1.00  0.00     0.202 C 
BRANCH  28  29
ATOM     29  C   UNL A   1      33.645  30.455  26.880  1.00  0.00     0.261 C 
BRANCH  29  30
ATOM     30  O   UNL A   1      34.155  30.690  28.185  1.00  0.00    -0.460 OA
BRANCH  30  31
ATOM     31  C   UNL A   1      35.185  31.571  28.194  1.00  0.00     0.338 C 
ATOM     32  O   UNL A   1      35.259  32.612  27.572  1.00  0.00    -0.246 OA
BRANCH  31  33
ATOM     33  C   UNL A   1      36.308  30.981  28.930  1.00  0.00     0.060 A 
ATOM     34  C   UNL A   1      37.515  31.662  28.801  1.00  0.00     0.016 A 
ATOM     35  C   UNL A   1      36.238  29.674  29.437  1.00  0.00     0.016 A 
ATOM     36  C   UNL A   1      38.675  30.940  28.943  1.00  0.00     0.010 A 
ATOM     37  C   UNL A   1      37.404  28.958  29.600  1.00  0.00     0.010 A 
ATOM     38  C   UNL A   1      38.601  29.573  29.256  1.00  0.00    -0.014 A 
BRANCH  38  39
ATOM     39  C   UNL A   1      39.859  28.864  29.367  1.00  0.00     0.031 A 
ATOM     40  C   UNL A   1      40.267  28.740  30.781  1.00  0.00     0.074 A 
ATOM     41  C   UNL A   1      40.574  28.399  28.326  1.00  0.00     0.049 A 
ATOM     42  N   UNL A   1      41.125  29.484  31.390  1.00  0.00    -0.248 NA
ATOM     43  C   UNL A   1      39.446  27.910  31.675  1.00  0.00     0.031 C 
ATOM     44  C   UNL A   1      40.187  28.289  26.919  1.00  0.00     0.029 A 
ATOM     45  N   UNL A   1      41.828  27.867  28.335  1.00  0.00    -0.354 N 
ATOM     46  C   UNL A   1      41.148  29.025  32.698  1.00  0.00     0.074 A 
ATOM     47  C   UNL A   1      39.956  28.237  32.864  1.00  0.00     0.031 C 
ATOM     48  C   UNL A   1      41.093  27.523  26.262  1.00  0.00     0.029 A 
ATOM     49  C   UNL A   1      42.195  27.218  27.160  1.00  0.00     0.049 A 
ATOM     50  H   UNL A   1      42.428  27.938  29.112  1.00  0.00     0.167 HD
ATOM     51  C   UNL A   1      42.302  29.092  33.414  1.00  0.00     0.037 A 
ATOM     52  C   UNL A   1      43.314  26.468  26.966  1.00  0.00     0.037 A 
ATOM     53  C   UNL A   1      43.212  30.046  32.819  1.00  0.00     0.049 A 
ATOM     54  C   UNL A   1      44.310  26.926  27.971  1.00  0.00     0.074 A 
ATOM     55  C   UNL A   1      43.180  31.402  32.561  1.00  0.00     0.029 A 
ATOM     56  N   UNL A   1      44.218  29.534  32.034  1.00  0.00    -0.354 N 
ATOM     57  N   UNL A   1      44.849  28.116  27.960  1.00  0.00    -0.248 NA
ATOM     58  C   UNL A   1      44.341  26.241  29.254  1.00  0.00     0.031 C 
ATOM     59  C   UNL A   1      43.867  31.566  31.322  1.00  0.00     0.029 A 
ATOM     60  C   UNL A   1      44.347  30.318  30.920  1.00  0.00     0.049 A 
ATOM     61  H   UNL A   1      44.755  28.735  32.239  1.00  0.00     0.167 HD
ATOM     62  C   UNL A   1      44.877  28.505  29.291  1.00  0.00     0.074 A 
ATOM     63  C   UNL A   1      44.628  27.277  30.046  1.00  0.00     0.031 C 
ATOM     64  C   UNL A   1      44.813  29.824  29.640  1.00  0.00     0.037 A 
BRANCH  51  65
ATOM     65  C   UNL A   1      42.785  27.978  34.318  1.00  0.00     0.058 A 
ATOM     66  C   UNL A   1      42.956  28.258  35.689  1.00  0.00     0.135 A 
ATOM     67  C   UNL A   1      43.381  26.778  33.867  1.00  0.00     0.135 A 
ATOM     68  F   UNL A   1      42.421  29.362  36.236  1.00  0.00    -0.206 F 
ATOM     69  C   UNL A   1      43.754  27.471  36.518  1.00  0.00     0.059 A 
ATOM     70  C   UNL A   1      44.139  25.954  34.688  1.00  0.00     0.059 A 
ATOM     71  F   UNL A   1      43.340  26.376  32.592  1.00  0.00    -0.206 F 
ATOM     72  C   UNL A   1      44.357  26.331  36.000  1.00  0.00     0.060 A 
BRANCH  72  73
ATOM     73  S   UNL A   1      45.465  25.368  37.037  1.00  0.00     0.124 S 
ATOM     74  O   UNL A   1      44.570  24.957  38.113  1.00  0.00    -0.237 OA
ATOM     75  O   UNL A   1      45.891  24.317  36.119  1.00  0.00    -0.237 OA
ATOM     76  O   UNL A   1      46.500  26.330  37.406  1.00  0.00    -0.744 OA
ENDBRANCH  72  73
ENDBRANCH  51  65
BRANCH  52  77
ATOM     77  C   UNL A   1      43.422  25.139  26.290  1.00  0.00     0.058 A 
ATOM     78  C   UNL A   1      44.362  24.914  25.264  1.00  0.00     0.135 A 
ATOM     79  C   UNL A   1      42.820  23.987  26.832  1.00  0.00     0.135 A 
ATOM     80  F   UNL A   1      45.002  25.948  24.696  1.00  0.00    -0.206 F 
ATOM     81  C   UNL A   1      44.725  23.626  24.843  1.00  0.00     0.059 A 
ATOM     82  C   UNL A   1      43.161  22.695  26.425  1.00  0.00     0.059 A 
ATOM     83  F   UNL A   1      41.944  24.074  27.842  1.00  0.00    -0.206 F 
ATOM     84  C   UNL A   1      44.133  22.519  25.449  1.00  0.00     0.060 A 
BRANCH  84  85
ATOM     85  S   UNL A   1      44.709  20.854  25.032  1.00  0.00     0.124 S 
ATOM     86  O   UNL A   1      46.077  20.870  25.538  1.00  0.00    -0.237 OA
ATOM     87  O   UNL A   1      43.769  20.010  25.763  1.00  0.00    -0.237 OA
ATOM     88  O   UNL A   1      44.584  20.804  23.577  1.00  0.00    -0.744 OA
ENDBRANCH  84  85
ENDBRANCH  52  77
BRANCH  64  89
ATOM     89  C   UNL A   1      45.070  30.861  28.576  1.00  0.00     0.058 A 
ATOM     90  C   UNL A   1      44.124  31.311  27.636  1.00  0.00     0.135 A 
ATOM     91  C   UNL A   1      46.297  31.543  28.626  1.00  0.00     0.135 A 
ATOM     92  F   UNL A   1      42.897  30.775  27.581  1.00  0.00    -0.206 F 
ATOM     93  C   UNL A   1      44.401  32.374  26.770  1.00  0.00     0.059 A 
ATOM     94  C   UNL A   1      46.580  32.622  27.797  1.00  0.00     0.059 A 
ATOM     95  F   UNL A   1      47.221  31.194  29.536  1.00  0.00    -0.206 F 
ATOM     96  C   UNL A   1      45.631  33.029  26.864  1.00  0.00     0.060 A 
BRANCH  96  97
ATOM     97  S   UNL A   1      45.962  34.451  25.801  1.00  0.00     0.124 S 
ATOM     98  O   UNL A   1      45.061  34.215  24.679  1.00  0.00    -0.237 OA
ATOM     99  O   UNL A   1      45.621  35.578  26.664  1.00  0.00    -0.237 OA
ATOM    100  O   UNL A   1      47.386  34.323  25.492  1.00  0.00    -0.744 OA
ENDBRANCH  96  97
ENDBRANCH  64  89
ENDBRANCH  38  39
ENDBRANCH  31  33
ENDBRANCH  30  31
ENDBRANCH  29  30
ENDBRANCH  28  29
ENDBRANCH  27  28
ENDBRANCH   1  27
TORSDOF 21
ENDMDL
MODEL 3
REMARK VINA RESULT:     -11.5      4.542     11.086
REMARK SMILES Cc1cc(C)c2c(CCCC(=O)OCCOCCOC(=O)c3ccc(-c4c5nc(c(-c6c(F)cc(S(=O)(=O)[O-])cc6F)c6ccc([nH]6)c(-c6c(F)cc(S(=O)(=O)[O-])cc6F)c6nc(c(-c7c(F)cc(S(=O)(=O)[O-])cc7F)c7ccc4[nH]7)C=C6)C=C5)cc3)c(-c3ccccn3)[nH]c2c1
REMARK SMILES IDX 15 1 14 2 13 3 11 4 12 5 10 6 9 7 8 8 7 9 1 10 2 11 3 12
REMARK SMILES IDX 97 13 4 14 96 15 5 16 6 17 95 18 88 19 89 21 90 22 94 23
REMARK SMILES IDX 91 24 93 25 92 26 16 27 17 28 18 29 19 30 20 31 21 32 22 33
REMARK SMILES IDX 23 34 87 35 24 36 86 37 25 38 26 39 27 40 80 41 28 42 85 43
REMARK SMILES IDX 79 44 81 45 29 46 84 47 78 48 77 49 30 51 64 52 43 53 63 54
REMARK SMILES IDX 44 55 47 56 62 57 82 58 45 59 46 60 61 62 83 63 48 64 31 65
REMARK SMILES IDX 32 66 41 67 33 68 34 69 40 70 42 71 35 72 36 73 37 74 38 75
REMARK SMILES IDX 39 76 65 77 66 78 75 79 67 80 68 81 74 82 76 83 69 84 70 85
REMARK SMILES IDX 71 86 72 87 73 88 49 89 50 90 59 91 51 92 52 93 58 94 60 95
REMARK SMILES IDX 53 96 54 97 55 98 56 99 57 100
REMARK H PARENT 95 20 81 50 47 61
REMARK Flexibility Score: inf
ROOT
ATOM      1  C   UNL A   1      33.592  33.486  28.027  1.00  0.00     0.202 C 
ENDROOT
BRANCH   1   2
ATOM      2  C   UNL A   1      34.265  32.122  27.989  1.00  0.00     0.261 C 
BRANCH   2   3
ATOM      3  O   UNL A   1      33.360  31.104  27.541  1.00  0.00    -0.463 OA
BRANCH   3   4
ATOM      4  C   UNL A   1      33.858  29.865  27.316  1.00  0.00     0.305 C 
ATOM      5  O   UNL A   1      35.053  29.611  27.184  1.00  0.00    -0.252 OA
BRANCH   4   6
ATOM      6  C   UNL A   1      32.794  28.786  27.341  1.00  0.00     0.123 C 
BRANCH   6   7
ATOM      7  C   UNL A   1      31.789  28.703  26.194  1.00  0.00     0.017 C 
BRANCH   7   8
ATOM      8  C   UNL A   1      32.272  28.332  24.790  1.00  0.00     0.039 C 
BRANCH   8   9
ATOM      9  C   UNL A   1      31.618  27.163  24.109  1.00  0.00    -0.013 A 
ATOM     10  C   UNL A   1      32.325  21.460  23.987  1.00  0.00     0.044 C 
ATOM     11  C   UNL A   1      32.212  22.952  24.094  1.00  0.00    -0.049 A 
ATOM     12  C   UNL A   1      33.154  23.685  24.816  1.00  0.00     0.007 A 
ATOM     13  C   UNL A   1      31.184  23.617  23.428  1.00  0.00     0.030 A 
ATOM     14  C   UNL A   1      33.103  25.096  24.916  1.00  0.00    -0.041 A 
ATOM     15  C   UNL A   1      31.129  25.011  23.521  1.00  0.00     0.047 A 
ATOM     16  C   UNL A   1      34.176  25.758  25.744  1.00  0.00     0.045 C 
ATOM     17  C   UNL A   1      32.045  25.778  24.241  1.00  0.00     0.006 A 
ATOM     18  N   UNL A   1      30.221  25.866  22.961  1.00  0.00    -0.353 N 
ATOM     19  C   UNL A   1      30.449  27.161  23.340  1.00  0.00     0.068 A 
ATOM     20  H   UNL A   1      29.494  25.585  22.359  1.00  0.00     0.167 HD
BRANCH  19  21
ATOM     21  C   UNL A   1      29.515  28.188  22.899  1.00  0.00     0.087 A 
ATOM     22  C   UNL A   1      28.172  28.175  23.249  1.00  0.00     0.030 A 
ATOM     23  N   UNL A   1      30.057  29.129  22.096  1.00  0.00    -0.255 NA
ATOM     24  C   UNL A   1      27.369  29.238  22.833  1.00  0.00     0.004 A 
ATOM     25  C   UNL A   1      29.265  30.167  21.740  1.00  0.00     0.112 A 
ATOM     26  C   UNL A   1      27.932  30.272  22.093  1.00  0.00     0.020 A 
ENDBRANCH  19  21
ENDBRANCH   8   9
ENDBRANCH   7   8
ENDBRANCH   6   7
ENDBRANCH   4   6
ENDBRANCH   3   4
ENDBRANCH   2   3
ENDBRANCH   1   2
BRANCH   1  27
ATOM     27  O   UNL A   1      33.579  34.170  29.278  1.00  0.00    -0.374 OA
BRANCH  27  28
ATOM     28  C   UNL A   1      33.368  35.577  29.313  1.00  0.00     0.202 C 
BRANCH  28  29
ATOM     29  C   UNL A   1      32.801  36.199  30.578  1.00  0.00     0.261 C 
BRANCH  29  30
ATOM     30  O   UNL A   1      32.703  35.274  31.653  1.00  0.00    -0.460 OA
BRANCH  30  31
ATOM     31  C   UNL A   1      33.298  35.723  32.785  1.00  0.00     0.338 C 
ATOM     32  O   UNL A   1      33.102  36.786  33.338  1.00  0.00    -0.246 OA
BRANCH  31  33
ATOM     33  C   UNL A   1      34.378  34.802  33.151  1.00  0.00     0.060 A 
ATOM     34  C   UNL A   1      35.643  35.379  33.220  1.00  0.00     0.016 A 
ATOM     35  C   UNL A   1      34.194  33.410  33.104  1.00  0.00     0.016 A 
ATOM     36  C   UNL A   1      36.728  34.572  32.987  1.00  0.00     0.010 A 
ATOM     37  C   UNL A   1      35.289  32.600  32.891  1.00  0.00     0.010 A 
ATOM     38  C   UNL A   1      36.530  33.205  32.739  1.00  0.00    -0.014 A 
BRANCH  38  39
ATOM     39  C   UNL A   1      37.714  32.413  32.475  1.00  0.00     0.031 A 
ATOM     40  C   UNL A   1      38.503  32.226  33.709  1.00  0.00     0.074 A 
ATOM     41  C   UNL A   1      38.063  31.931  31.268  1.00  0.00     0.049 A 
ATOM     42  N   UNL A   1      39.550  32.897  34.048  1.00  0.00    -0.248 NA
ATOM     43  C   UNL A   1      37.920  31.427  34.797  1.00  0.00     0.031 C 
ATOM     44  C   UNL A   1      37.279  31.883  30.033  1.00  0.00     0.029 A 
ATOM     45  N   UNL A   1      39.227  31.320  30.910  1.00  0.00    -0.354 N 
ATOM     46  C   UNL A   1      39.918  32.403  35.290  1.00  0.00     0.074 A 
ATOM     47  C   UNL A   1      38.773  31.689  35.789  1.00  0.00     0.031 C 
ATOM     48  C   UNL A   1      37.902  31.079  29.137  1.00  0.00     0.029 A 
ATOM     49  C   UNL A   1      39.192  30.680  29.674  1.00  0.00     0.049 A 
ATOM     50  H   UNL A   1      40.029  31.331  31.480  1.00  0.00     0.167 HD
ATOM     51  C   UNL A   1      41.231  32.376  35.641  1.00  0.00     0.037 A 
ATOM     52  C   UNL A   1      40.153  29.865  29.159  1.00  0.00     0.037 A 
ATOM     53  C   UNL A   1      41.994  33.285  34.814  1.00  0.00     0.049 A 
ATOM     54  C   UNL A   1      41.426  30.232  29.835  1.00  0.00     0.074 A 
ATOM     55  C   UNL A   1      41.983  34.647  34.586  1.00  0.00     0.029 A 
ATOM     56  N   UNL A   1      42.692  32.731  33.768  1.00  0.00    -0.354 N 
ATOM     57  N   UNL A   1      42.020  31.384  29.676  1.00  0.00    -0.248 NA
ATOM     58  C   UNL A   1      41.779  29.512  31.049  1.00  0.00     0.031 C 
ATOM     59  C   UNL A   1      42.292  34.799  33.202  1.00  0.00     0.029 A 
ATOM     60  C   UNL A   1      42.548  33.534  32.669  1.00  0.00     0.049 A 
ATOM     61  H   UNL A   1      43.210  31.894  33.803  1.00  0.00     0.167 HD
ATOM     62  C   UNL A   1      42.458  31.735  30.945  1.00  0.00     0.074 A 
ATOM     63  C   UNL A   1      42.354  30.505  31.731  1.00  0.00     0.031 C 
ATOM     64  C   UNL A   1      42.589  33.046  31.307  1.00  0.00     0.037 A 
BRANCH  51  65
ATOM     65  C   UNL A   1      41.876  31.210  36.358  1.00  0.00     0.058 A 
ATOM     66  C   UNL A   1      42.807  31.487  37.381  1.00  0.00     0.135 A 
ATOM     67  C   UNL A   1      41.873  29.876  35.889  1.00  0.00     0.135 A 
ATOM     68  F   UNL A   1      42.890  32.715  37.917  1.00  0.00    -0.206 F 
ATOM     69  C   UNL A   1      43.738  30.547  37.818  1.00  0.00     0.059 A 
ATOM     70  C   UNL A   1      42.760  28.910  36.346  1.00  0.00     0.059 A 
ATOM     71  F   UNL A   1      41.076  29.450  34.904  1.00  0.00    -0.206 F 
ATOM     72  C   UNL A   1      43.718  29.266  37.277  1.00  0.00     0.060 A 
BRANCH  72  73
ATOM     73  S   UNL A   1      44.979  28.081  37.765  1.00  0.00     0.124 S 
ATOM     74  O   UNL A   1      46.105  28.500  36.939  1.00  0.00    -0.237 OA
ATOM     75  O   UNL A   1      45.096  28.347  39.195  1.00  0.00    -0.237 OA
ATOM     76  O   UNL A   1      44.382  26.795  37.417  1.00  0.00    -0.744 OA
ENDBRANCH  72  73
ENDBRANCH  51  65
BRANCH  52  77
ATOM     77  C   UNL A   1      39.969  28.551  28.472  1.00  0.00     0.058 A 
ATOM     78  C   UNL A   1      40.523  28.306  27.198  1.00  0.00     0.135 A 
ATOM     79  C   UNL A   1      39.507  27.415  29.166  1.00  0.00     0.135 A 
ATOM     80  F   UNL A   1      41.007  29.321  26.467  1.00  0.00    -0.206 F 
ATOM     81  C   UNL A   1      40.664  27.013  26.673  1.00  0.00     0.059 A 
ATOM     82  C   UNL A   1      39.630  26.120  28.660  1.00  0.00     0.059 A 
ATOM     83  F   UNL A   1      39.000  27.520  30.402  1.00  0.00    -0.206 F 
ATOM     84  C   UNL A   1      40.233  25.921  27.425  1.00  0.00     0.060 A 
BRANCH  84  85
ATOM     85  S   UNL A   1      40.556  24.241  26.833  1.00  0.00     0.124 S 
ATOM     86  O   UNL A   1      40.722  23.505  28.082  1.00  0.00    -0.237 OA
ATOM     87  O   UNL A   1      39.345  23.943  26.074  1.00  0.00    -0.237 OA
ATOM     88  O   UNL A   1      41.769  24.389  26.032  1.00  0.00    -0.744 OA
ENDBRANCH  84  85
ENDBRANCH  52  77
BRANCH  64  89
ATOM     89  C   UNL A   1      42.598  34.092  30.221  1.00  0.00     0.058 A 
ATOM     90  C   UNL A   1      41.454  34.675  29.645  1.00  0.00     0.135 A 
ATOM     91  C   UNL A   1      43.843  34.640  29.867  1.00  0.00     0.135 A 
ATOM     92  F   UNL A   1      40.225  34.272  29.995  1.00  0.00    -0.206 F 
ATOM     93  C   UNL A   1      41.550  35.738  28.741  1.00  0.00     0.059 A 
ATOM     94  C   UNL A   1      43.959  35.716  28.994  1.00  0.00     0.059 A 
ATOM     95  F   UNL A   1      44.968  34.161  30.421  1.00  0.00    -0.206 F 
ATOM     96  C   UNL A   1      42.808  36.256  28.427  1.00  0.00     0.060 A 
BRANCH  96  97
ATOM     97  S   UNL A   1      42.931  37.678  27.319  1.00  0.00     0.124 S 
ATOM     98  O   UNL A   1      44.359  37.717  27.024  1.00  0.00    -0.237 OA
ATOM     99  O   UNL A   1      42.064  37.290  26.210  1.00  0.00    -0.237 OA
ATOM    100  O   UNL A   1      42.432  38.788  28.129  1.00  0.00    -0.744 OA
ENDBRANCH  96  97
ENDBRANCH  64  89
ENDBRANCH  38  39
ENDBRANCH  31  33
ENDBRANCH  30  31
ENDBRANCH  29  30
ENDBRANCH  28  29
ENDBRANCH  27  28
ENDBRANCH   1  27
TORSDOF 21
ENDMDL
