MODEL 1
REMARK VINA RESULT:     -10.6      0.000      0.000
REMARK SMILES C[C@@H](C(=O)OCCOCCOC(=O)c1ccc(-c2c3nc(c(-c4c(F)cc(S(=O)(=O)[O-])cc4F)c4ccc([nH]4)c(-c4c(F)cc(S(=O)(=O)[O-])cc4F)c4nc(c(-c5c(F)cc(S(=O)(=O)[O-])cc5F)c5ccc2[nH]5)C=C4)C=C3)cc1)c1ccc(NC2CCCC2)cc1F
REMARK SMILES IDX 8 1 7 2 6 3 5 4 3 5 4 6 2 7 1 8 80 9 81 10 91 11 82 12 90 13
REMARK SMILES IDX 92 14 83 15 84 16 85 18 86 19 89 20 87 21 88 22 9 23 10 24
REMARK SMILES IDX 11 25 12 26 13 27 14 28 15 29 79 30 16 31 78 32 17 33 18 34
REMARK SMILES IDX 19 35 72 36 20 37 77 38 71 39 73 40 21 41 76 42 70 43 69 44
REMARK SMILES IDX 22 46 56 47 35 48 55 49 36 50 39 51 54 52 74 53 37 54 38 55
REMARK SMILES IDX 53 57 75 58 40 59 23 60 24 61 33 62 25 63 26 64 32 65 34 66
REMARK SMILES IDX 27 67 28 68 29 69 30 70 31 71 57 72 58 73 67 74 59 75 60 76
REMARK SMILES IDX 66 77 68 78 61 79 62 80 63 81 64 82 65 83 41 84 42 85 51 86
REMARK SMILES IDX 43 87 44 88 50 89 52 90 45 91 46 92 47 93 48 94 49 95
REMARK H PARENT 84 17 73 45 39 56
REMARK Flexibility Score: inf
ROOT
ATOM      1  O   UNL A   1      38.241  22.790  26.563  1.00  0.00    -0.374 OA
ENDROOT
BRANCH   1   2
ATOM      2  C   UNL A   1      37.737  23.755  25.637  1.00  0.00     0.202 C 
BRANCH   2   3
ATOM      3  C   UNL A   1      36.554  23.310  24.771  1.00  0.00     0.261 C 
BRANCH   3   4
ATOM      4  O   UNL A   1      35.472  24.246  24.875  1.00  0.00    -0.463 OA
BRANCH   4   5
ATOM      5  C   UNL A   1      34.404  23.835  25.611  1.00  0.00     0.313 C 
ATOM      6  O   UNL A   1      34.401  23.756  26.835  1.00  0.00    -0.252 OA
BRANCH   5   7
ATOM      7  C   UNL A   1      33.152  23.642  24.751  1.00  0.00     0.129 C 
ATOM      8  C   UNL A   1      31.963  24.446  25.301  1.00  0.00     0.025 C 
BRANCH   7   9
ATOM      9  C   UNL A   1      32.825  22.172  24.467  1.00  0.00     0.002 A 
ATOM     10  C   UNL A   1      32.862  21.182  25.460  1.00  0.00     0.010 A 
ATOM     11  C   UNL A   1      32.544  21.732  23.172  1.00  0.00     0.129 A 
ATOM     12  C   UNL A   1      32.639  19.827  25.158  1.00  0.00     0.026 A 
ATOM     13  C   UNL A   1      32.320  20.382  22.874  1.00  0.00     0.065 A 
ATOM     14  F   UNL A   1      32.504  22.603  22.153  1.00  0.00    -0.207 F 
ATOM     15  C   UNL A   1      32.384  19.391  23.859  1.00  0.00     0.037 A 
BRANCH  15  16
ATOM     16  N   UNL A   1      32.220  18.072  23.491  1.00  0.00    -0.382 N 
ATOM     17  H   UNL A   1      31.418  17.885  22.951  1.00  0.00     0.160 HD
BRANCH  16  18
ATOM     18  C   UNL A   1      33.052  16.914  23.782  1.00  0.00     0.079 C 
ATOM     19  C   UNL A   1      34.533  17.223  23.970  1.00  0.00     0.025 C 
ATOM     20  C   UNL A   1      32.610  16.115  25.006  1.00  0.00     0.025 C 
ATOM     21  C   UNL A   1      35.048  16.035  24.769  1.00  0.00     0.002 C 
ATOM     22  C   UNL A   1      33.894  15.632  25.680  1.00  0.00     0.002 C 
ENDBRANCH  16  18
ENDBRANCH  15  16
ENDBRANCH   7   9
ENDBRANCH   5   7
ENDBRANCH   4   5
ENDBRANCH   3   4
ENDBRANCH   2   3
ENDBRANCH   1   2
BRANCH   1  23
ATOM     23  C   UNL A   1      39.237  21.877  26.097  1.00  0.00     0.202 C 
BRANCH  23  24
ATOM     24  C   UNL A   1      40.706  22.272  26.301  1.00  0.00     0.261 C 
BRANCH  24  25
ATOM     25  O   UNL A   1      40.889  23.276  27.318  1.00  0.00    -0.460 OA
BRANCH  25  26
ATOM     26  C   UNL A   1      41.517  24.399  26.896  1.00  0.00     0.338 C 
ATOM     27  O   UNL A   1      42.207  24.526  25.889  1.00  0.00    -0.246 OA
BRANCH  26  28
ATOM     28  C   UNL A   1      41.131  25.557  27.723  1.00  0.00     0.060 A 
ATOM     29  C   UNL A   1      42.072  26.582  27.882  1.00  0.00     0.016 A 
ATOM     30  C   UNL A   1      39.920  25.592  28.419  1.00  0.00     0.016 A 
ATOM     31  C   UNL A   1      41.826  27.625  28.773  1.00  0.00     0.010 A 
ATOM     32  C   UNL A   1      39.681  26.636  29.320  1.00  0.00     0.010 A 
ATOM     33  C   UNL A   1      40.645  27.639  29.528  1.00  0.00    -0.014 A 
BRANCH  33  34
ATOM     34  C   UNL A   1      40.493  28.626  30.626  1.00  0.00     0.031 A 
ATOM     35  C   UNL A   1      41.370  28.510  31.844  1.00  0.00     0.074 A 
ATOM     36  C   UNL A   1      39.612  29.639  30.524  1.00  0.00     0.049 A 
ATOM     37  N   UNL A   1      41.393  29.247  32.924  1.00  0.00    -0.248 NA
ATOM     38  C   UNL A   1      42.355  27.416  31.843  1.00  0.00     0.031 C 
ATOM     39  C   UNL A   1      38.734  29.880  29.381  1.00  0.00     0.029 A 
ATOM     40  N   UNL A   1      39.309  30.650  31.401  1.00  0.00    -0.354 N 
ATOM     41  C   UNL A   1      42.389  28.710  33.730  1.00  0.00     0.074 A 
ATOM     42  C   UNL A   1      42.927  27.564  33.029  1.00  0.00     0.031 C 
ATOM     43  C   UNL A   1      37.979  30.964  29.631  1.00  0.00     0.029 A 
ATOM     44  C   UNL A   1      38.302  31.476  30.963  1.00  0.00     0.049 A 
ATOM     45  H   UNL A   1      39.770  30.773  32.262  1.00  0.00     0.167 HD
ATOM     46  C   UNL A   1      42.823  29.137  34.941  1.00  0.00     0.037 A 
ATOM     47  C   UNL A   1      37.694  32.512  31.574  1.00  0.00     0.037 A 
ATOM     48  C   UNL A   1      42.284  30.276  35.638  1.00  0.00     0.049 A 
ATOM     49  C   UNL A   1      38.151  32.933  32.947  1.00  0.00     0.074 A 
ATOM     50  C   UNL A   1      42.661  30.794  36.865  1.00  0.00     0.029 A 
ATOM     51  N   UNL A   1      41.248  31.073  35.171  1.00  0.00    -0.354 N 
ATOM     52  N   UNL A   1      39.105  32.424  33.691  1.00  0.00    -0.248 NA
ATOM     53  C   UNL A   1      37.453  34.071  33.563  1.00  0.00     0.031 C 
ATOM     54  C   UNL A   1      41.827  31.877  37.159  1.00  0.00     0.029 A 
ATOM     55  C   UNL A   1      40.960  32.065  36.094  1.00  0.00     0.049 A 
ATOM     56  H   UNL A   1      40.786  30.952  34.311  1.00  0.00     0.167 HD
ATOM     57  C   UNL A   1      39.137  33.195  34.849  1.00  0.00     0.074 A 
ATOM     58  C   UNL A   1      38.115  34.209  34.704  1.00  0.00     0.031 C 
ATOM     59  C   UNL A   1      39.942  33.073  35.935  1.00  0.00     0.037 A 
BRANCH  46  60
ATOM     60  C   UNL A   1      43.924  28.354  35.600  1.00  0.00     0.058 A 
ATOM     61  C   UNL A   1      43.649  27.308  36.496  1.00  0.00     0.135 A 
ATOM     62  C   UNL A   1      45.269  28.632  35.310  1.00  0.00     0.135 A 
ATOM     63  F   UNL A   1      42.382  27.012  36.822  1.00  0.00    -0.206 F 
ATOM     64  C   UNL A   1      44.671  26.582  37.100  1.00  0.00     0.059 A 
ATOM     65  C   UNL A   1      46.306  27.902  35.883  1.00  0.00     0.059 A 
ATOM     66  F   UNL A   1      45.587  29.622  34.461  1.00  0.00    -0.206 F 
ATOM     67  C   UNL A   1      45.997  26.887  36.788  1.00  0.00     0.060 A 
BRANCH  67  68
ATOM     68  S   UNL A   1      47.312  25.935  37.578  1.00  0.00     0.124 S 
ATOM     69  O   UNL A   1      46.610  24.704  37.928  1.00  0.00    -0.237 OA
ATOM     70  O   UNL A   1      48.300  25.819  36.510  1.00  0.00    -0.237 OA
ATOM     71  O   UNL A   1      47.707  26.773  38.707  1.00  0.00    -0.744 OA
ENDBRANCH  67  68
ENDBRANCH  46  60
BRANCH  47  72
ATOM     72  C   UNL A   1      36.573  33.216  30.898  1.00  0.00     0.058 A 
ATOM     73  C   UNL A   1      35.244  33.025  31.303  1.00  0.00     0.135 A 
ATOM     74  C   UNL A   1      36.812  34.098  29.832  1.00  0.00     0.135 A 
ATOM     75  F   UNL A   1      34.963  32.183  32.309  1.00  0.00    -0.206 F 
ATOM     76  C   UNL A   1      34.189  33.673  30.667  1.00  0.00     0.059 A 
ATOM     77  C   UNL A   1      35.777  34.776  29.197  1.00  0.00     0.059 A 
ATOM     78  F   UNL A   1      38.066  34.323  29.413  1.00  0.00    -0.206 F 
ATOM     79  C   UNL A   1      34.466  34.550  29.616  1.00  0.00     0.060 A 
BRANCH  79  80
ATOM     80  S   UNL A   1      33.096  35.425  28.830  1.00  0.00     0.124 S 
ATOM     81  O   UNL A   1      32.467  34.357  28.061  1.00  0.00    -0.237 OA
ATOM     82  O   UNL A   1      32.342  35.912  29.981  1.00  0.00    -0.237 OA
ATOM     83  O   UNL A   1      33.765  36.459  28.046  1.00  0.00    -0.744 OA
ENDBRANCH  79  80
ENDBRANCH  47  72
BRANCH  59  84
ATOM     84  C   UNL A   1      39.775  34.079  37.040  1.00  0.00     0.058 A 
ATOM     85  C   UNL A   1      38.996  33.806  38.175  1.00  0.00     0.135 A 
ATOM     86  C   UNL A   1      40.448  35.311  36.988  1.00  0.00     0.135 A 
ATOM     87  F   UNL A   1      38.327  32.646  38.272  1.00  0.00    -0.206 F 
ATOM     88  C   UNL A   1      38.873  34.728  39.210  1.00  0.00     0.059 A 
ATOM     89  C   UNL A   1      40.360  36.237  38.022  1.00  0.00     0.059 A 
ATOM     90  F   UNL A   1      41.216  35.617  35.930  1.00  0.00    -0.206 F 
ATOM     91  C   UNL A   1      39.560  35.941  39.125  1.00  0.00     0.060 A 
BRANCH  91  92
ATOM     92  S   UNL A   1      39.421  37.114  40.490  1.00  0.00     0.124 S 
ATOM     93  O   UNL A   1      38.793  38.256  39.834  1.00  0.00    -0.237 OA
ATOM     94  O   UNL A   1      38.584  36.391  41.443  1.00  0.00    -0.237 OA
ATOM     95  O   UNL A   1      40.805  37.314  40.910  1.00  0.00    -0.744 OA
ENDBRANCH  91  92
ENDBRANCH  59  84
ENDBRANCH  33  34
ENDBRANCH  26  28
ENDBRANCH  25  26
ENDBRANCH  24  25
ENDBRANCH  23  24
ENDBRANCH   1  23
TORSDOF 20
ENDMDL
MODEL 2
REMARK VINA RESULT:     -10.5      1.465      3.136
REMARK SMILES C[C@@H](C(=O)OCCOCCOC(=O)c1ccc(-c2c3nc(c(-c4c(F)cc(S(=O)(=O)[O-])cc4F)c4ccc([nH]4)c(-c4c(F)cc(S(=O)(=O)[O-])cc4F)c4nc(c(-c5c(F)cc(S(=O)(=O)[O-])cc5F)c5ccc2[nH]5)C=C4)C=C3)cc1)c1ccc(NC2CCCC2)cc1F
REMARK SMILES IDX 8 1 7 2 6 3 5 4 3 5 4 6 2 7 1 8 80 9 81 10 91 11 82 12 90 13
REMARK SMILES IDX 92 14 83 15 84 16 85 18 86 19 89 20 87 21 88 22 9 23 10 24
REMARK SMILES IDX 11 25 12 26 13 27 14 28 15 29 79 30 16 31 78 32 17 33 18 34
REMARK SMILES IDX 19 35 72 36 20 37 77 38 71 39 73 40 21 41 76 42 70 43 69 44
REMARK SMILES IDX 22 46 56 47 35 48 55 49 36 50 39 51 54 52 74 53 37 54 38 55
REMARK SMILES IDX 53 57 75 58 40 59 23 60 24 61 33 62 25 63 26 64 32 65 34 66
REMARK SMILES IDX 27 67 28 68 29 69 30 70 31 71 57 72 58 73 67 74 59 75 60 76
REMARK SMILES IDX 66 77 68 78 61 79 62 80 63 81 64 82 65 83 41 84 42 85 51 86
REMARK SMILES IDX 43 87 44 88 50 89 52 90 45 91 46 92 47 93 48 94 49 95
REMARK H PARENT 84 17 73 45 39 56
REMARK Flexibility Score: inf
ROOT
ATOM      1  O   UNL A   1      38.561  22.705  26.738  1.00  0.00    -0.374 OA
ENDROOT
BRANCH   1   2
ATOM      2  C   UNL A   1      37.947  23.713  25.933  1.00  0.00     0.202 C 
BRANCH   2   3
ATOM      3  C   UNL A   1      36.523  23.420  25.449  1.00  0.00     0.261 C 
BRANCH   3   4
ATOM      4  O   UNL A   1      35.988  22.271  26.121  1.00  0.00    -0.463 OA
BRANCH   4   5
ATOM      5  C   UNL A   1      35.734  21.191  25.333  1.00  0.00     0.313 C 
ATOM      6  O   UNL A   1      36.597  20.430  24.908  1.00  0.00    -0.252 OA
BRANCH   5   7
ATOM      7  C   UNL A   1      34.232  20.935  25.172  1.00  0.00     0.129 C 
ATOM      8  C   UNL A   1      33.951  19.482  24.756  1.00  0.00     0.025 C 
BRANCH   7   9
ATOM      9  C   UNL A   1      33.524  21.977  24.300  1.00  0.00     0.002 A 
ATOM     10  C   UNL A   1      34.108  22.523  23.147  1.00  0.00     0.010 A 
ATOM     11  C   UNL A   1      32.275  22.490  24.658  1.00  0.00     0.129 A 
ATOM     12  C   UNL A   1      33.471  23.538  22.410  1.00  0.00     0.026 A 
ATOM     13  C   UNL A   1      31.643  23.499  23.921  1.00  0.00     0.065 A 
ATOM     14  F   UNL A   1      31.647  22.042  25.754  1.00  0.00    -0.207 F 
ATOM     15  C   UNL A   1      32.238  24.064  22.788  1.00  0.00     0.037 A 
BRANCH  15  16
ATOM     16  N   UNL A   1      31.595  25.100  22.143  1.00  0.00    -0.382 N 
ATOM     17  H   UNL A   1      30.861  24.829  21.544  1.00  0.00     0.160 HD
BRANCH  16  18
ATOM     18  C   UNL A   1      31.839  26.533  22.212  1.00  0.00     0.079 C 
ATOM     19  C   UNL A   1      31.563  27.163  23.572  1.00  0.00     0.025 C 
ATOM     20  C   UNL A   1      33.253  26.949  21.812  1.00  0.00     0.025 C 
ATOM     21  C   UNL A   1      32.379  28.446  23.544  1.00  0.00     0.002 C 
ATOM     22  C   UNL A   1      33.623  28.115  22.729  1.00  0.00     0.002 C 
ENDBRANCH  16  18
ENDBRANCH  15  16
ENDBRANCH   7   9
ENDBRANCH   5   7
ENDBRANCH   4   5
ENDBRANCH   3   4
ENDBRANCH   2   3
ENDBRANCH   1   2
BRANCH   1  23
ATOM     23  C   UNL A   1      39.549  21.873  26.125  1.00  0.00     0.202 C 
BRANCH  23  24
ATOM     24  C   UNL A   1      41.022  22.238  26.359  1.00  0.00     0.261 C 
BRANCH  24  25
ATOM     25  O   UNL A   1      41.203  23.254  27.363  1.00  0.00    -0.460 OA
BRANCH  25  26
ATOM     26  C   UNL A   1      41.765  24.401  26.912  1.00  0.00     0.338 C 
ATOM     27  O   UNL A   1      42.417  24.548  25.883  1.00  0.00    -0.246 OA
BRANCH  26  28
ATOM     28  C   UNL A   1      41.351  25.548  27.739  1.00  0.00     0.060 A 
ATOM     29  C   UNL A   1      42.260  26.603  27.885  1.00  0.00     0.016 A 
ATOM     30  C   UNL A   1      40.147  25.547  28.446  1.00  0.00     0.016 A 
ATOM     31  C   UNL A   1      41.991  27.640  28.776  1.00  0.00     0.010 A 
ATOM     32  C   UNL A   1      39.883  26.586  29.347  1.00  0.00     0.010 A 
ATOM     33  C   UNL A   1      40.817  27.620  29.542  1.00  0.00    -0.014 A 
BRANCH  33  34
ATOM     34  C   UNL A   1      40.645  28.605  30.639  1.00  0.00     0.031 A 
ATOM     35  C   UNL A   1      41.521  28.506  31.859  1.00  0.00     0.074 A 
ATOM     36  C   UNL A   1      39.746  29.601  30.534  1.00  0.00     0.049 A 
ATOM     37  N   UNL A   1      41.528  29.245  32.938  1.00  0.00    -0.248 NA
ATOM     38  C   UNL A   1      42.526  27.430  31.861  1.00  0.00     0.031 C 
ATOM     39  C   UNL A   1      38.865  29.825  29.389  1.00  0.00     0.029 A 
ATOM     40  N   UNL A   1      39.423  30.607  31.409  1.00  0.00    -0.354 N 
ATOM     41  C   UNL A   1      42.532  28.727  33.747  1.00  0.00     0.074 A 
ATOM     42  C   UNL A   1      43.093  27.590  33.048  1.00  0.00     0.031 C 
ATOM     43  C   UNL A   1      38.091  30.895  29.637  1.00  0.00     0.029 A 
ATOM     44  C   UNL A   1      38.401  31.415  30.968  1.00  0.00     0.049 A 
ATOM     45  H   UNL A   1      39.879  30.740  32.271  1.00  0.00     0.167 HD
ATOM     46  C   UNL A   1      42.956  29.163  34.958  1.00  0.00     0.037 A 
ATOM     47  C   UNL A   1      37.774  32.440  31.577  1.00  0.00     0.037 A 
ATOM     48  C   UNL A   1      42.395  30.293  35.652  1.00  0.00     0.049 A 
ATOM     49  C   UNL A   1      38.220  32.871  32.951  1.00  0.00     0.074 A 
ATOM     50  C   UNL A   1      42.760  30.819  36.880  1.00  0.00     0.029 A 
ATOM     51  N   UNL A   1      41.346  31.070  35.183  1.00  0.00    -0.354 N 
ATOM     52  N   UNL A   1      39.181  32.381  33.697  1.00  0.00    -0.248 NA
ATOM     53  C   UNL A   1      37.499  33.996  33.564  1.00  0.00     0.031 C 
ATOM     54  C   UNL A   1      41.905  31.887  37.171  1.00  0.00     0.029 A 
ATOM     55  C   UNL A   1      41.038  32.057  36.105  1.00  0.00     0.049 A 
ATOM     56  H   UNL A   1      40.887  30.940  34.322  1.00  0.00     0.167 HD
ATOM     57  C   UNL A   1      39.197  33.153  34.855  1.00  0.00     0.074 A 
ATOM     58  C   UNL A   1      38.156  34.148  34.706  1.00  0.00     0.031 C 
ATOM     59  C   UNL A   1      40.002  33.047  35.942  1.00  0.00     0.037 A 
BRANCH  46  60
ATOM     60  C   UNL A   1      44.070  28.402  35.620  1.00  0.00     0.058 A 
ATOM     61  C   UNL A   1      43.813  27.341  36.505  1.00  0.00     0.135 A 
ATOM     62  C   UNL A   1      45.411  28.713  35.344  1.00  0.00     0.135 A 
ATOM     63  F   UNL A   1      42.550  27.013  36.818  1.00  0.00    -0.206 F 
ATOM     64  C   UNL A   1      44.847  26.635  37.112  1.00  0.00     0.059 A 
ATOM     65  C   UNL A   1      46.460  28.003  35.920  1.00  0.00     0.059 A 
ATOM     66  F   UNL A   1      45.711  29.718  34.506  1.00  0.00    -0.206 F 
ATOM     67  C   UNL A   1      46.167  26.974  36.814  1.00  0.00     0.060 A 
BRANCH  67  68
ATOM     68  S   UNL A   1      47.498  26.047  37.608  1.00  0.00     0.124 S 
ATOM     69  O   UNL A   1      46.746  25.133  38.462  1.00  0.00    -0.237 OA
ATOM     70  O   UNL A   1      48.177  25.437  36.469  1.00  0.00    -0.237 OA
ATOM     71  O   UNL A   1      48.258  27.077  38.309  1.00  0.00    -0.744 OA
ENDBRANCH  67  68
ENDBRANCH  46  60
BRANCH  47  72
ATOM     72  C   UNL A   1      36.640  33.123  30.898  1.00  0.00     0.058 A 
ATOM     73  C   UNL A   1      35.314  32.902  31.296  1.00  0.00     0.135 A 
ATOM     74  C   UNL A   1      36.866  34.014  29.837  1.00  0.00     0.135 A 
ATOM     75  F   UNL A   1      35.047  32.051  32.297  1.00  0.00    -0.206 F 
ATOM     76  C   UNL A   1      34.248  33.530  30.657  1.00  0.00     0.059 A 
ATOM     77  C   UNL A   1      35.820  34.672  29.199  1.00  0.00     0.059 A 
ATOM     78  F   UNL A   1      38.118  34.267  29.425  1.00  0.00    -0.206 F 
ATOM     79  C   UNL A   1      34.512  34.416  29.610  1.00  0.00     0.060 A 
BRANCH  79  80
ATOM     80  S   UNL A   1      33.128  35.266  28.821  1.00  0.00     0.124 S 
ATOM     81  O   UNL A   1      32.351  35.698  29.977  1.00  0.00    -0.237 OA
ATOM     82  O   UNL A   1      33.802  36.322  28.072  1.00  0.00    -0.237 OA
ATOM     83  O   UNL A   1      32.517  34.222  28.004  1.00  0.00    -0.744 OA
ENDBRANCH  79  80
ENDBRANCH  47  72
BRANCH  59  84
ATOM     84  C   UNL A   1      39.815  34.051  37.045  1.00  0.00     0.058 A 
ATOM     85  C   UNL A   1      39.044  33.763  38.182  1.00  0.00     0.135 A 
ATOM     86  C   UNL A   1      40.459  35.297  36.990  1.00  0.00     0.135 A 
ATOM     87  F   UNL A   1      38.402  32.588  38.283  1.00  0.00    -0.206 F 
ATOM     88  C   UNL A   1      38.902  34.683  39.216  1.00  0.00     0.059 A 
ATOM     89  C   UNL A   1      40.352  36.223  38.023  1.00  0.00     0.059 A 
ATOM     90  F   UNL A   1      41.218  35.619  35.930  1.00  0.00    -0.206 F 
ATOM     91  C   UNL A   1      39.562  35.911  39.128  1.00  0.00     0.060 A 
BRANCH  91  92
ATOM     92  S   UNL A   1      39.398  37.083  40.491  1.00  0.00     0.124 S 
ATOM     93  O   UNL A   1      40.790  37.277  40.881  1.00  0.00    -0.237 OA
ATOM     94  O   UNL A   1      38.754  38.225  39.850  1.00  0.00    -0.237 OA
ATOM     95  O   UNL A   1      38.569  36.367  41.458  1.00  0.00    -0.744 OA
ENDBRANCH  91  92
ENDBRANCH  59  84
ENDBRANCH  33  34
ENDBRANCH  26  28
ENDBRANCH  25  26
ENDBRANCH  24  25
ENDBRANCH  23  24
ENDBRANCH   1  23
TORSDOF 20
ENDMDL
MODEL 3
REMARK VINA RESULT:     -10.4      1.972      4.025
REMARK SMILES C[C@@H](C(=O)OCCOCCOC(=O)c1ccc(-c2c3nc(c(-c4c(F)cc(S(=O)(=O)[O-])cc4F)c4ccc([nH]4)c(-c4c(F)cc(S(=O)(=O)[O-])cc4F)c4nc(c(-c5c(F)cc(S(=O)(=O)[O-])cc5F)c5ccc2[nH]5)C=C4)C=C3)cc1)c1ccc(NC2CCCC2)cc1F
REMARK SMILES IDX 8 1 7 2 6 3 5 4 3 5 4 6 2 7 1 8 80 9 81 10 91 11 82 12 90 13
REMARK SMILES IDX 92 14 83 15 84 16 85 18 86 19 89 20 87 21 88 22 9 23 10 24
REMARK SMILES IDX 11 25 12 26 13 27 14 28 15 29 79 30 16 31 78 32 17 33 18 34
REMARK SMILES IDX 19 35 72 36 20 37 77 38 71 39 73 40 21 41 76 42 70 43 69 44
REMARK SMILES IDX 22 46 56 47 35 48 55 49 36 50 39 51 54 52 74 53 37 54 38 55
REMARK SMILES IDX 53 57 75 58 40 59 23 60 24 61 33 62 25 63 26 64 32 65 34 66
REMARK SMILES IDX 27 67 28 68 29 69 30 70 31 71 57 72 58 73 67 74 59 75 60 76
REMARK SMILES IDX 66 77 68 78 61 79 62 80 63 81 64 82 65 83 41 84 42 85 51 86
REMARK SMILES IDX 43 87 44 88 50 89 52 90 45 91 46 92 47 93 48 94 49 95
REMARK H PARENT 84 17 73 45 39 56
REMARK Flexibility Score: inf
ROOT
ATOM      1  O   UNL A   1      37.722  21.613  25.776  1.00  0.00    -0.374 OA
ENDROOT
BRANCH   1   2
ATOM      2  C   UNL A   1      36.988  21.048  24.688  1.00  0.00     0.202 C 
BRANCH   2   3
ATOM      3  C   UNL A   1      35.609  20.474  25.026  1.00  0.00     0.261 C 
BRANCH   3   4
ATOM      4  O   UNL A   1      34.589  21.118  24.249  1.00  0.00    -0.463 OA
BRANCH   4   5
ATOM      5  C   UNL A   1      33.520  21.586  24.949  1.00  0.00     0.313 C 
ATOM      6  O   UNL A   1      32.528  20.917  25.221  1.00  0.00    -0.252 OA
BRANCH   5   7
ATOM      7  C   UNL A   1      33.766  22.992  25.505  1.00  0.00     0.129 C 
ATOM      8  C   UNL A   1      33.759  22.998  27.042  1.00  0.00     0.025 C 
BRANCH   7   9
ATOM      9  C   UNL A   1      32.868  24.064  24.878  1.00  0.00     0.002 A 
ATOM     10  C   UNL A   1      31.559  23.799  24.447  1.00  0.00     0.010 A 
ATOM     11  C   UNL A   1      33.344  25.355  24.636  1.00  0.00     0.129 A 
ATOM     12  C   UNL A   1      30.785  24.778  23.799  1.00  0.00     0.026 A 
ATOM     13  C   UNL A   1      32.570  26.328  23.993  1.00  0.00     0.065 A 
ATOM     14  F   UNL A   1      34.589  25.696  24.998  1.00  0.00    -0.207 F 
ATOM     15  C   UNL A   1      31.276  26.055  23.538  1.00  0.00     0.037 A 
BRANCH  15  16
ATOM     16  N   UNL A   1      30.588  27.036  22.854  1.00  0.00    -0.382 N 
ATOM     17  H   UNL A   1      30.786  27.092  21.891  1.00  0.00     0.160 HD
BRANCH  16  18
ATOM     18  C   UNL A   1      29.615  28.002  23.341  1.00  0.00     0.079 C 
ATOM     19  C   UNL A   1      29.454  29.243  22.470  1.00  0.00     0.025 C 
ATOM     20  C   UNL A   1      28.215  27.428  23.553  1.00  0.00     0.025 C 
ATOM     21  C   UNL A   1      28.081  29.773  22.852  1.00  0.00     0.002 C 
ATOM     22  C   UNL A   1      27.241  28.537  23.154  1.00  0.00     0.002 C 
ENDBRANCH  16  18
ENDBRANCH  15  16
ENDBRANCH   7   9
ENDBRANCH   5   7
ENDBRANCH   4   5
ENDBRANCH   3   4
ENDBRANCH   2   3
ENDBRANCH   1   2
BRANCH   1  23
ATOM     23  C   UNL A   1      39.141  21.439  25.783  1.00  0.00     0.202 C 
BRANCH  23  24
ATOM     24  C   UNL A   1      39.941  22.223  26.833  1.00  0.00     0.261 C 
BRANCH  24  25
ATOM     25  O   UNL A   1      39.970  23.641  26.584  1.00  0.00    -0.460 OA
BRANCH  25  26
ATOM     26  C   UNL A   1      41.100  24.265  26.996  1.00  0.00     0.338 C 
ATOM     27  O   UNL A   1      42.251  24.005  26.658  1.00  0.00    -0.246 OA
BRANCH  26  28
ATOM     28  C   UNL A   1      40.777  25.456  27.801  1.00  0.00     0.060 A 
ATOM     29  C   UNL A   1      41.761  26.445  27.919  1.00  0.00     0.016 A 
ATOM     30  C   UNL A   1      39.581  25.557  28.516  1.00  0.00     0.016 A 
ATOM     31  C   UNL A   1      41.575  27.517  28.789  1.00  0.00     0.010 A 
ATOM     32  C   UNL A   1      39.401  26.631  29.396  1.00  0.00     0.010 A 
ATOM     33  C   UNL A   1      40.409  27.598  29.564  1.00  0.00    -0.014 A 
BRANCH  33  34
ATOM     34  C   UNL A   1      40.318  28.616  30.641  1.00  0.00     0.031 A 
ATOM     35  C   UNL A   1      41.231  28.507  31.832  1.00  0.00     0.074 A 
ATOM     36  C   UNL A   1      39.460  29.647  30.541  1.00  0.00     0.049 A 
ATOM     37  N   UNL A   1      41.307  29.270  32.891  1.00  0.00    -0.248 NA
ATOM     38  C   UNL A   1      42.188  27.388  31.828  1.00  0.00     0.031 C 
ATOM     39  C   UNL A   1      38.551  29.883  29.420  1.00  0.00     0.029 A 
ATOM     40  N   UNL A   1      39.211  30.687  31.400  1.00  0.00    -0.354 N 
ATOM     41  C   UNL A   1      42.315  28.727  33.679  1.00  0.00     0.074 A 
ATOM     42  C   UNL A   1      42.802  27.551  32.991  1.00  0.00     0.031 C 
ATOM     43  C   UNL A   1      37.832  30.992  29.667  1.00  0.00     0.029 A 
ATOM     44  C   UNL A   1      38.210  31.528  30.974  1.00  0.00     0.049 A 
ATOM     45  H   UNL A   1      39.702  30.820  32.243  1.00  0.00     0.167 HD
ATOM     46  C   UNL A   1      42.799  29.173  34.864  1.00  0.00     0.037 A 
ATOM     47  C   UNL A   1      37.649  32.594  31.578  1.00  0.00     0.037 A 
ATOM     48  C   UNL A   1      42.312  30.342  35.548  1.00  0.00     0.049 A 
ATOM     49  C   UNL A   1      38.161  33.037  32.924  1.00  0.00     0.074 A 
ATOM     50  C   UNL A   1      42.742  30.881  36.749  1.00  0.00     0.029 A 
ATOM     51  N   UNL A   1      41.282  31.154  35.095  1.00  0.00    -0.354 N 
ATOM     52  N   UNL A   1      39.125  32.523  33.650  1.00  0.00    -0.248 NA
ATOM     53  C   UNL A   1      37.512  34.208  33.533  1.00  0.00     0.031 C 
ATOM     54  C   UNL A   1      41.945  31.992  37.042  1.00  0.00     0.029 A 
ATOM     55  C   UNL A   1      41.049  32.175  36.001  1.00  0.00     0.049 A 
ATOM     56  H   UNL A   1      40.789  31.023  34.253  1.00  0.00     0.167 HD
ATOM     57  C   UNL A   1      39.214  33.321  34.787  1.00  0.00     0.074 A 
ATOM     58  C   UNL A   1      38.214  34.357  34.648  1.00  0.00     0.031 C 
ATOM     59  C   UNL A   1      40.051  33.205  35.848  1.00  0.00     0.037 A 
BRANCH  46  60
ATOM     60  C   UNL A   1      43.901  28.379  35.507  1.00  0.00     0.058 A 
ATOM     61  C   UNL A   1      45.254  28.644  35.238  1.00  0.00     0.135 A 
ATOM     62  C   UNL A   1      43.604  27.362  36.428  1.00  0.00     0.135 A 
ATOM     63  F   UNL A   1      45.594  29.594  34.353  1.00  0.00    -0.206 F 
ATOM     64  C   UNL A   1      46.272  27.910  35.840  1.00  0.00     0.059 A 
ATOM     65  C   UNL A   1      44.607  26.633  37.061  1.00  0.00     0.059 A 
ATOM     66  F   UNL A   1      42.328  27.067  36.721  1.00  0.00    -0.206 F 
ATOM     67  C   UNL A   1      45.939  26.906  36.750  1.00  0.00     0.060 A 
BRANCH  67  68
ATOM     68  S   UNL A   1      47.270  25.964  37.524  1.00  0.00     0.124 S 
ATOM     69  O   UNL A   1      48.096  25.626  36.370  1.00  0.00    -0.237 OA
ATOM     70  O   UNL A   1      47.843  26.935  38.451  1.00  0.00    -0.237 OA
ATOM     71  O   UNL A   1      46.574  24.842  38.147  1.00  0.00    -0.744 OA
ENDBRANCH  67  68
ENDBRANCH  46  60
BRANCH  47  72
ATOM     72  C   UNL A   1      36.524  33.310  30.920  1.00  0.00     0.058 A 
ATOM     73  C   UNL A   1      36.731  34.110  29.787  1.00  0.00     0.135 A 
ATOM     74  C   UNL A   1      35.214  33.205  31.416  1.00  0.00     0.135 A 
ATOM     75  F   UNL A   1      37.967  34.251  29.284  1.00  0.00    -0.206 F 
ATOM     76  C   UNL A   1      35.684  34.790  29.174  1.00  0.00     0.059 A 
ATOM     77  C   UNL A   1      34.147  33.856  30.807  1.00  0.00     0.059 A 
ATOM     78  F   UNL A   1      34.961  32.444  32.492  1.00  0.00    -0.206 F 
ATOM     79  C   UNL A   1      34.393  34.655  29.690  1.00  0.00     0.060 A 
BRANCH  79  80
ATOM     80  S   UNL A   1      33.031  35.501  28.859  1.00  0.00     0.124 S 
ATOM     81  O   UNL A   1      32.235  35.958  29.992  1.00  0.00    -0.237 OA
ATOM     82  O   UNL A   1      33.729  36.540  28.107  1.00  0.00    -0.237 OA
ATOM     83  O   UNL A   1      32.430  34.448  28.046  1.00  0.00    -0.744 OA
ENDBRANCH  79  80
ENDBRANCH  47  72
BRANCH  59  84
ATOM     84  C   UNL A   1      39.946  34.243  36.932  1.00  0.00     0.058 A 
ATOM     85  C   UNL A   1      40.646  35.457  36.861  1.00  0.00     0.135 A 
ATOM     86  C   UNL A   1      39.092  34.041  38.029  1.00  0.00     0.135 A 
ATOM     87  F   UNL A   1      41.480  35.697  35.837  1.00  0.00    -0.206 F 
ATOM     88  C   UNL A   1      40.518  36.427  37.851  1.00  0.00     0.059 A 
ATOM     89  C   UNL A   1      38.929  35.008  39.016  1.00  0.00     0.059 A 
ATOM     90  F   UNL A   1      38.391  32.902  38.139  1.00  0.00    -0.206 F 
ATOM     91  C   UNL A   1      39.656  36.194  38.924  1.00  0.00     0.060 A 
BRANCH  91  92
ATOM     92  S   UNL A   1      39.473  37.475  40.183  1.00  0.00     0.124 S 
ATOM     93  O   UNL A   1      38.959  36.706  41.312  1.00  0.00    -0.237 OA
ATOM     94  O   UNL A   1      40.837  37.975  40.325  1.00  0.00    -0.237 OA
ATOM     95  O   UNL A   1      38.528  38.411  39.581  1.00  0.00    -0.744 OA
ENDBRANCH  91  92
ENDBRANCH  59  84
ENDBRANCH  33  34
ENDBRANCH  26  28
ENDBRANCH  25  26
ENDBRANCH  24  25
ENDBRANCH  23  24
ENDBRANCH   1  23
TORSDOF 20
ENDMDL
