MODEL 1
REMARK VINA RESULT:     -12.4      0.000      0.000
REMARK SMILES O=C(OCCOCCOC(=O)c1ccc(-c2c3nc(c(-c4c(F)cc(S(=O)(=O)[O-])cc4F)c4ccc([nH]4)c(-c4c(F)cc(S(=O)(=O)[O-])cc4F)c4nc(c(-c5c(F)cc(S(=O)(=O)[O-])cc5F)c5ccc2[nH]5)C=C4)C=C3)cc1)C1=Cc2c(Cl)cc(Cl)cc2O[C@@H]1C(F)(F)F
REMARK SMILES IDX 7 1 6 2 5 3 4 4 3 5 2 6 1 7 78 8 79 9 89 10 80 11 88 12
REMARK SMILES IDX 81 13 87 14 82 15 83 16 86 17 84 18 85 19 90 20 91 21 92 22
REMARK SMILES IDX 93 23 8 24 9 25 10 26 11 27 12 28 13 29 77 30 14 31 76 32
REMARK SMILES IDX 15 33 16 34 17 35 70 36 18 37 75 38 69 39 71 40 19 41 74 42
REMARK SMILES IDX 68 43 67 44 20 46 54 47 33 48 53 49 34 50 37 51 52 52 72 53
REMARK SMILES IDX 35 54 36 55 51 57 73 58 38 59 21 60 22 61 31 62 23 63 24 64
REMARK SMILES IDX 30 65 32 66 25 67 26 68 27 69 28 70 29 71 55 72 56 73 65 74
REMARK SMILES IDX 57 75 58 76 64 77 66 78 59 79 60 80 61 81 62 82 63 83 39 84
REMARK SMILES IDX 40 85 49 86 41 87 42 88 48 89 50 90 43 91 44 92 45 93 46 94
REMARK SMILES IDX 47 95
REMARK H PARENT 71 45 37 56
REMARK Flexibility Score: inf
ROOT
ATOM      1  C   UNL A   1      34.315  31.604  27.930  1.00  0.00     0.202 C 
ENDROOT
BRANCH   1   2
ATOM      2  O   UNL A   1      33.886  30.483  27.132  1.00  0.00    -0.374 OA
BRANCH   2   3
ATOM      3  C   UNL A   1      32.424  29.953  26.683  1.00  0.00     0.202 C 
BRANCH   3   4
ATOM      4  C   UNL A   1      31.519  27.971  26.836  1.00  0.00     0.261 C 
BRANCH   4   5
ATOM      5  O   UNL A   1      30.727  27.246  25.741  1.00  0.00    -0.460 OA
BRANCH   5   6
ATOM      6  C   UNL A   1      30.809  25.917  25.836  1.00  0.00     0.338 C 
ATOM      7  O   UNL A   1      31.391  25.238  26.642  1.00  0.00    -0.246 OA
BRANCH   6   8
ATOM      8  C   UNL A   1      30.338  25.640  24.496  1.00  0.00     0.087 C 
ATOM      9  C   UNL A   1      29.046  26.308  24.223  1.00  0.00     0.029 C 
ATOM     10  C   UNL A   1      32.003  26.059  23.606  1.00  0.00     0.316 C 
ATOM     11  C   UNL A   1      28.869  27.798  23.192  1.00  0.00     0.036 A 
ATOM     12  O   UNL A   1      31.864  27.667  22.543  1.00  0.00    -0.475 OA
ATOM     13  C   UNL A   1      27.693  28.507  23.189  1.00  0.00     0.053 A 
ATOM     14  C   UNL A   1      30.250  28.526  22.422  1.00  0.00     0.130 A 
ATOM     15  Cl  UNL A   1      26.234  27.931  23.877  1.00  0.00    -0.083 Cl
ATOM     16  C   UNL A   1      27.757  29.797  22.644  1.00  0.00     0.042 A 
ATOM     17  C   UNL A   1      30.243  29.826  22.002  1.00  0.00     0.067 A 
ATOM     18  C   UNL A   1      28.964  30.427  22.136  1.00  0.00     0.046 A 
ATOM     19  Cl  UNL A   1      28.775  32.108  21.759  1.00  0.00    -0.084 Cl
BRANCH  10  20
ATOM     20  C   UNL A   1      32.396  24.562  23.219  1.00  0.00     0.430 C 
ATOM     21  F   UNL A   1      31.397  23.794  22.753  1.00  0.00    -0.167 F 
ATOM     22  F   UNL A   1      33.286  24.636  22.181  1.00  0.00    -0.167 F 
ATOM     23  F   UNL A   1      33.056  23.877  24.181  1.00  0.00    -0.167 F 
ENDBRANCH  10  20
ENDBRANCH   6   8
ENDBRANCH   5   6
ENDBRANCH   4   5
ENDBRANCH   3   4
ENDBRANCH   2   3
ENDBRANCH   1   2
BRANCH   1  24
ATOM     24  C   UNL A   1      35.430  31.326  28.931  1.00  0.00     0.261 C 
BRANCH  24  25
ATOM     25  O   UNL A   1      35.984  30.032  28.761  1.00  0.00    -0.460 OA
BRANCH  25  26
ATOM     26  C   UNL A   1      36.680  29.591  29.832  1.00  0.00     0.338 C 
ATOM     27  O   UNL A   1      36.257  29.328  30.943  1.00  0.00    -0.246 OA
BRANCH  26  28
ATOM     28  C   UNL A   1      38.087  29.463  29.424  1.00  0.00     0.060 A 
ATOM     29  C   UNL A   1      38.372  29.468  28.058  1.00  0.00     0.016 A 
ATOM     30  C   UNL A   1      39.111  29.369  30.378  1.00  0.00     0.016 A 
ATOM     31  C   UNL A   1      39.695  29.427  27.641  1.00  0.00     0.010 A 
ATOM     32  C   UNL A   1      40.432  29.319  29.959  1.00  0.00     0.010 A 
ATOM     33  C   UNL A   1      40.722  29.355  28.590  1.00  0.00    -0.014 A 
BRANCH  33  34
ATOM     34  C   UNL A   1      42.091  29.067  28.145  1.00  0.00     0.031 A 
ATOM     35  C   UNL A   1      42.397  27.651  27.784  1.00  0.00     0.074 A 
ATOM     36  C   UNL A   1      43.022  30.033  28.100  1.00  0.00     0.049 A 
ATOM     37  N   UNL A   1      43.532  27.113  27.442  1.00  0.00    -0.248 NA
ATOM     38  C   UNL A   1      41.264  26.710  27.828  1.00  0.00     0.031 C 
ATOM     39  C   UNL A   1      42.793  31.443  28.409  1.00  0.00     0.029 A 
ATOM     40  N   UNL A   1      44.356  29.966  27.793  1.00  0.00    -0.354 N 
ATOM     41  C   UNL A   1      43.254  25.771  27.234  1.00  0.00     0.074 A 
ATOM     42  C   UNL A   1      41.850  25.569  27.511  1.00  0.00     0.031 C 
ATOM     43  C   UNL A   1      43.955  32.109  28.291  1.00  0.00     0.029 A 
ATOM     44  C   UNL A   1      45.015  31.160  27.955  1.00  0.00     0.049 A 
ATOM     45  H   UNL A   1      44.798  29.142  27.486  1.00  0.00     0.167 HD
ATOM     46  C   UNL A   1      44.105  24.793  26.856  1.00  0.00     0.037 A 
ATOM     47  C   UNL A   1      46.332  31.434  27.885  1.00  0.00     0.037 A 
ATOM     48  C   UNL A   1      45.507  25.018  26.641  1.00  0.00     0.049 A 
ATOM     49  C   UNL A   1      47.281  30.314  27.542  1.00  0.00     0.074 A 
ATOM     50  C   UNL A   1      46.472  24.109  26.256  1.00  0.00     0.029 A 
ATOM     51  N   UNL A   1      46.149  26.236  26.828  1.00  0.00    -0.354 N 
ATOM     52  N   UNL A   1      47.011  29.049  27.307  1.00  0.00    -0.248 NA
ATOM     53  C   UNL A   1      48.708  30.647  27.454  1.00  0.00     0.031 C 
ATOM     54  C   UNL A   1      47.710  24.757  26.291  1.00  0.00     0.029 A 
ATOM     55  C   UNL A   1      47.506  26.093  26.606  1.00  0.00     0.049 A 
ATOM     56  H   UNL A   1      45.703  27.077  27.082  1.00  0.00     0.167 HD
ATOM     57  C   UNL A   1      48.227  28.444  27.013  1.00  0.00     0.074 A 
ATOM     58  C   UNL A   1      49.236  29.481  27.102  1.00  0.00     0.031 C 
ATOM     59  C   UNL A   1      48.487  27.151  26.692  1.00  0.00     0.037 A 
BRANCH  46  60
ATOM     60  C   UNL A   1      43.546  23.405  26.741  1.00  0.00     0.058 A 
ATOM     61  C   UNL A   1      43.189  22.645  27.868  1.00  0.00     0.135 A 
ATOM     62  C   UNL A   1      43.402  22.809  25.478  1.00  0.00     0.135 A 
ATOM     63  F   UNL A   1      43.336  23.153  29.103  1.00  0.00    -0.206 F 
ATOM     64  C   UNL A   1      42.753  21.330  27.748  1.00  0.00     0.059 A 
ATOM     65  C   UNL A   1      42.930  21.510  25.333  1.00  0.00     0.059 A 
ATOM     66  F   UNL A   1      43.743  23.484  24.369  1.00  0.00    -0.206 F 
ATOM     67  C   UNL A   1      42.628  20.772  26.475  1.00  0.00     0.060 A 
BRANCH  67  68
ATOM     68  S   UNL A   1      42.080  19.059  26.338  1.00  0.00     0.124 S 
ATOM     69  O   UNL A   1      40.689  19.229  25.932  1.00  0.00    -0.237 OA
ATOM     70  O   UNL A   1      42.979  18.528  25.318  1.00  0.00    -0.237 OA
ATOM     71  O   UNL A   1      42.280  18.529  27.683  1.00  0.00    -0.744 OA
ENDBRANCH  67  68
ENDBRANCH  46  60
BRANCH  47  72
ATOM     72  C   UNL A   1      46.819  32.807  28.186  1.00  0.00     0.058 A 
ATOM     73  C   UNL A   1      46.945  33.780  27.185  1.00  0.00     0.135 A 
ATOM     74  C   UNL A   1      47.134  33.186  29.502  1.00  0.00     0.135 A 
ATOM     75  F   UNL A   1      46.671  33.468  25.908  1.00  0.00    -0.206 F 
ATOM     76  C   UNL A   1      47.362  35.076  27.474  1.00  0.00     0.059 A 
ATOM     77  C   UNL A   1      47.525  34.482  29.821  1.00  0.00     0.059 A 
ATOM     78  F   UNL A   1      47.025  32.297  30.502  1.00  0.00    -0.206 F 
ATOM     79  C   UNL A   1      47.638  35.421  28.799  1.00  0.00     0.060 A 
BRANCH  79  80
ATOM     80  S   UNL A   1      48.099  37.127  29.173  1.00  0.00     0.124 S 
ATOM     81  O   UNL A   1      49.472  36.969  29.638  1.00  0.00    -0.237 OA
ATOM     82  O   UNL A   1      47.933  37.777  27.877  1.00  0.00    -0.237 OA
ATOM     83  O   UNL A   1      47.131  37.522  30.192  1.00  0.00    -0.744 OA
ENDBRANCH  79  80
ENDBRANCH  47  72
BRANCH  59  84
ATOM     84  C   UNL A   1      49.905  26.778  26.355  1.00  0.00     0.058 A 
ATOM     85  C   UNL A   1      50.769  26.201  27.296  1.00  0.00     0.135 A 
ATOM     86  C   UNL A   1      50.357  26.889  25.028  1.00  0.00     0.135 A 
ATOM     87  F   UNL A   1      50.389  26.079  28.578  1.00  0.00    -0.206 F 
ATOM     88  C   UNL A   1      52.033  25.745  26.935  1.00  0.00     0.059 A 
ATOM     89  C   UNL A   1      51.601  26.409  24.639  1.00  0.00     0.059 A 
ATOM     90  F   UNL A   1      49.566  27.427  24.086  1.00  0.00    -0.206 F 
ATOM     91  C   UNL A   1      52.433  25.839  25.600  1.00  0.00     0.060 A 
BRANCH  91  92
ATOM     92  S   UNL A   1      54.040  25.165  25.130  1.00  0.00     0.124 S 
ATOM     93  O   UNL A   1      54.293  25.856  23.870  1.00  0.00    -0.237 OA
ATOM     94  O   UNL A   1      54.883  25.563  26.253  1.00  0.00    -0.237 OA
ATOM     95  O   UNL A   1      53.789  23.731  25.020  1.00  0.00    -0.744 OA
ENDBRANCH  91  92
ENDBRANCH  59  84
ENDBRANCH  33  34
ENDBRANCH  26  28
ENDBRANCH  25  26
ENDBRANCH  24  25
ENDBRANCH   1  24
TORSDOF 18
ENDMDL
MODEL 2
REMARK VINA RESULT:     -12.4      0.602      8.211
REMARK SMILES O=C(OCCOCCOC(=O)c1ccc(-c2c3nc(c(-c4c(F)cc(S(=O)(=O)[O-])cc4F)c4ccc([nH]4)c(-c4c(F)cc(S(=O)(=O)[O-])cc4F)c4nc(c(-c5c(F)cc(S(=O)(=O)[O-])cc5F)c5ccc2[nH]5)C=C4)C=C3)cc1)C1=Cc2c(Cl)cc(Cl)cc2O[C@@H]1C(F)(F)F
REMARK SMILES IDX 7 1 6 2 5 3 4 4 3 5 2 6 1 7 78 8 79 9 89 10 80 11 88 12
REMARK SMILES IDX 81 13 87 14 82 15 83 16 86 17 84 18 85 19 90 20 91 21 92 22
REMARK SMILES IDX 93 23 8 24 9 25 10 26 11 27 12 28 13 29 77 30 14 31 76 32
REMARK SMILES IDX 15 33 16 34 17 35 70 36 18 37 75 38 69 39 71 40 19 41 74 42
REMARK SMILES IDX 68 43 67 44 20 46 54 47 33 48 53 49 34 50 37 51 52 52 72 53
REMARK SMILES IDX 35 54 36 55 51 57 73 58 38 59 21 60 22 61 31 62 23 63 24 64
REMARK SMILES IDX 30 65 32 66 25 67 26 68 27 69 28 70 29 71 55 72 56 73 65 74
REMARK SMILES IDX 57 75 58 76 64 77 66 78 59 79 60 80 61 81 62 82 63 83 39 84
REMARK SMILES IDX 40 85 49 86 41 87 42 88 48 89 50 90 43 91 44 92 45 93 46 94
REMARK SMILES IDX 47 95
REMARK H PARENT 71 45 37 56
REMARK Flexibility Score: inf
ROOT
ATOM      1  C   UNL A   1      34.176  32.107  28.026  1.00  0.00     0.202 C 
ENDROOT
BRANCH   1   2
ATOM      2  O   UNL A   1      33.825  30.967  27.216  1.00  0.00    -0.374 OA
BRANCH   2   3
ATOM      3  C   UNL A   1      32.402  30.339  26.766  1.00  0.00     0.202 C 
BRANCH   3   4
ATOM      4  C   UNL A   1      31.666  28.284  26.841  1.00  0.00     0.261 C 
BRANCH   4   5
ATOM      5  O   UNL A   1      30.977  27.523  25.702  1.00  0.00    -0.460 OA
BRANCH   5   6
ATOM      6  C   UNL A   1      30.946  26.204  25.905  1.00  0.00     0.338 C 
ATOM      7  O   UNL A   1      31.439  25.549  26.787  1.00  0.00    -0.246 OA
BRANCH   6   8
ATOM      8  C   UNL A   1      30.503  25.856  24.571  1.00  0.00     0.087 C 
ATOM      9  C   UNL A   1      29.170  26.422  24.274  1.00  0.00     0.029 C 
ATOM     10  C   UNL A   1      32.141  26.366  23.677  1.00  0.00     0.316 C 
ATOM     11  C   UNL A   1      28.893  27.865  23.200  1.00  0.00     0.036 A 
ATOM     12  O   UNL A   1      31.894  27.929  22.567  1.00  0.00    -0.475 OA
ATOM     13  C   UNL A   1      27.670  28.488  23.171  1.00  0.00     0.053 A 
ATOM     14  C   UNL A   1      30.224  28.667  22.415  1.00  0.00     0.130 A 
ATOM     15  Cl  UNL A   1      26.251  27.830  23.869  1.00  0.00    -0.083 Cl
ATOM     16  C   UNL A   1      27.646  29.763  22.590  1.00  0.00     0.042 A 
ATOM     17  C   UNL A   1      30.127  29.951  21.957  1.00  0.00     0.067 A 
ATOM     18  C   UNL A   1      28.807  30.463  22.068  1.00  0.00     0.046 A 
ATOM     19  Cl  UNL A   1      28.502  32.114  21.641  1.00  0.00    -0.084 Cl
BRANCH  10  20
ATOM     20  C   UNL A   1      32.641  24.891  23.335  1.00  0.00     0.430 C 
ATOM     21  F   UNL A   1      31.740  24.086  22.748  1.00  0.00    -0.167 F 
ATOM     22  F   UNL A   1      33.647  25.011  22.414  1.00  0.00    -0.167 F 
ATOM     23  F   UNL A   1      33.207  24.225  24.368  1.00  0.00    -0.167 F 
ENDBRANCH  10  20
ENDBRANCH   6   8
ENDBRANCH   5   6
ENDBRANCH   4   5
ENDBRANCH   3   4
ENDBRANCH   2   3
ENDBRANCH   1   2
BRANCH   1  24
ATOM     24  C   UNL A   1      35.328  31.905  29.002  1.00  0.00     0.261 C 
BRANCH  24  25
ATOM     25  O   UNL A   1      35.884  30.605  28.904  1.00  0.00    -0.460 OA
BRANCH  25  26
ATOM     26  C   UNL A   1      36.418  30.150  30.059  1.00  0.00     0.338 C 
ATOM     27  O   UNL A   1      35.866  30.013  31.136  1.00  0.00    -0.246 OA
BRANCH  26  28
ATOM     28  C   UNL A   1      37.827  29.824  29.799  1.00  0.00     0.060 A 
ATOM     29  C   UNL A   1      38.231  29.697  28.468  1.00  0.00     0.016 A 
ATOM     30  C   UNL A   1      38.742  29.673  30.850  1.00  0.00     0.016 A 
ATOM     31  C   UNL A   1      39.570  29.467  28.185  1.00  0.00     0.010 A 
ATOM     32  C   UNL A   1      40.078  29.433  30.565  1.00  0.00     0.010 A 
ATOM     33  C   UNL A   1      40.490  29.337  29.230  1.00  0.00    -0.014 A 
BRANCH  33  34
ATOM     34  C   UNL A   1      41.846  28.854  28.938  1.00  0.00     0.031 A 
ATOM     35  C   UNL A   1      42.939  29.871  28.958  1.00  0.00     0.074 A 
ATOM     36  C   UNL A   1      42.073  27.566  28.637  1.00  0.00     0.049 A 
ATOM     37  N   UNL A   1      44.199  29.734  28.661  1.00  0.00    -0.248 NA
ATOM     38  C   UNL A   1      42.551  31.235  29.359  1.00  0.00     0.031 C 
ATOM     39  C   UNL A   1      41.063  26.510  28.624  1.00  0.00     0.029 A 
ATOM     40  N   UNL A   1      43.230  26.933  28.264  1.00  0.00    -0.354 N 
ATOM     41  C   UNL A   1      44.756  30.993  28.833  1.00  0.00     0.074 A 
ATOM     42  C   UNL A   1      43.694  31.886  29.238  1.00  0.00     0.031 C 
ATOM     43  C   UNL A   1      41.643  25.358  28.245  1.00  0.00     0.029 A 
ATOM     44  C   UNL A   1      43.049  25.613  27.935  1.00  0.00     0.049 A 
ATOM     45  H   UNL A   1      44.105  27.383  28.235  1.00  0.00     0.167 HD
ATOM     46  C   UNL A   1      46.041  31.365  28.656  1.00  0.00     0.037 A 
ATOM     47  C   UNL A   1      43.915  24.731  27.399  1.00  0.00     0.037 A 
ATOM     48  C   UNL A   1      47.061  30.462  28.201  1.00  0.00     0.049 A 
ATOM     49  C   UNL A   1      45.326  25.186  27.129  1.00  0.00     0.074 A 
ATOM     50  C   UNL A   1      48.400  30.721  27.983  1.00  0.00     0.029 A 
ATOM     51  N   UNL A   1      46.844  29.132  27.860  1.00  0.00    -0.354 N 
ATOM     52  N   UNL A   1      45.863  26.369  27.329  1.00  0.00    -0.248 NA
ATOM     53  C   UNL A   1      46.253  24.197  26.562  1.00  0.00     0.031 C 
ATOM     54  C   UNL A   1      48.974  29.571  27.432  1.00  0.00     0.029 A 
ATOM     55  C   UNL A   1      48.016  28.568  27.395  1.00  0.00     0.049 A 
ATOM     56  H   UNL A   1      45.981  28.662  27.939  1.00  0.00     0.167 HD
ATOM     57  C   UNL A   1      47.194  26.258  26.944  1.00  0.00     0.074 A 
ATOM     58  C   UNL A   1      47.382  24.892  26.496  1.00  0.00     0.031 C 
ATOM     59  C   UNL A   1      48.174  27.197  26.964  1.00  0.00     0.037 A 
BRANCH  46  60
ATOM     60  C   UNL A   1      46.371  32.814  28.876  1.00  0.00     0.058 A 
ATOM     61  C   UNL A   1      46.272  33.768  27.850  1.00  0.00     0.135 A 
ATOM     62  C   UNL A   1      46.833  33.244  30.129  1.00  0.00     0.135 A 
ATOM     63  F   UNL A   1      45.865  33.405  26.622  1.00  0.00    -0.206 F 
ATOM     64  C   UNL A   1      46.662  35.089  28.047  1.00  0.00     0.059 A 
ATOM     65  C   UNL A   1      47.190  34.568  30.360  1.00  0.00     0.059 A 
ATOM     66  F   UNL A   1      46.962  32.371  31.140  1.00  0.00    -0.206 F 
ATOM     67  C   UNL A   1      47.121  35.477  29.306  1.00  0.00     0.060 A 
BRANCH  67  68
ATOM     68  S   UNL A   1      47.642  37.188  29.540  1.00  0.00     0.124 S 
ATOM     69  O   UNL A   1      46.538  37.917  28.923  1.00  0.00    -0.237 OA
ATOM     70  O   UNL A   1      47.734  37.287  30.994  1.00  0.00    -0.237 OA
ATOM     71  O   UNL A   1      48.914  37.257  28.829  1.00  0.00    -0.744 OA
ENDBRANCH  67  68
ENDBRANCH  46  60
BRANCH  47  72
ATOM     72  C   UNL A   1      43.454  23.360  27.049  1.00  0.00     0.058 A 
ATOM     73  C   UNL A   1      43.309  22.949  25.717  1.00  0.00     0.135 A 
ATOM     74  C   UNL A   1      43.183  22.414  28.053  1.00  0.00     0.135 A 
ATOM     75  F   UNL A   1      43.541  23.816  24.719  1.00  0.00    -0.206 F 
ATOM     76  C   UNL A   1      42.916  21.654  25.391  1.00  0.00     0.059 A 
ATOM     77  C   UNL A   1      42.817  21.107  27.753  1.00  0.00     0.059 A 
ATOM     78  F   UNL A   1      43.311  22.752  29.346  1.00  0.00    -0.206 F 
ATOM     79  C   UNL A   1      42.684  20.736  26.417  1.00  0.00     0.060 A 
BRANCH  79  80
ATOM     80  S   UNL A   1      42.255  19.037  25.980  1.00  0.00     0.124 S 
ATOM     81  O   UNL A   1      42.662  18.310  27.177  1.00  0.00    -0.237 OA
ATOM     82  O   UNL A   1      40.817  19.137  25.751  1.00  0.00    -0.237 OA
ATOM     83  O   UNL A   1      43.056  18.783  24.786  1.00  0.00    -0.744 OA
ENDBRANCH  79  80
ENDBRANCH  47  72
BRANCH  59  84
ATOM     84  C   UNL A   1      49.558  26.782  26.546  1.00  0.00     0.058 A 
ATOM     85  C   UNL A   1      50.468  26.207  27.444  1.00  0.00     0.135 A 
ATOM     86  C   UNL A   1      49.925  26.849  25.190  1.00  0.00     0.135 A 
ATOM     87  F   UNL A   1      50.171  26.126  28.750  1.00  0.00    -0.206 F 
ATOM     88  C   UNL A   1      51.695  25.711  27.013  1.00  0.00     0.059 A 
ATOM     89  C   UNL A   1      51.129  26.328  24.733  1.00  0.00     0.059 A 
ATOM     90  F   UNL A   1      49.086  27.382  24.287  1.00  0.00    -0.206 F 
ATOM     91  C   UNL A   1      52.009  25.762  25.652  1.00  0.00     0.060 A 
BRANCH  91  92
ATOM     92  S   UNL A   1      53.566  25.037  25.098  1.00  0.00     0.124 S 
ATOM     93  O   UNL A   1      53.775  25.725  23.827  1.00  0.00    -0.237 OA
ATOM     94  O   UNL A   1      54.479  25.402  26.175  1.00  0.00    -0.237 OA
ATOM     95  O   UNL A   1      53.262  23.613  24.996  1.00  0.00    -0.744 OA
ENDBRANCH  91  92
ENDBRANCH  59  84
ENDBRANCH  33  34
ENDBRANCH  26  28
ENDBRANCH  25  26
ENDBRANCH  24  25
ENDBRANCH   1  24
TORSDOF 18
ENDMDL
MODEL 3
REMARK VINA RESULT:     -12.4      2.324      3.404
REMARK SMILES O=C(OCCOCCOC(=O)c1ccc(-c2c3nc(c(-c4c(F)cc(S(=O)(=O)[O-])cc4F)c4ccc([nH]4)c(-c4c(F)cc(S(=O)(=O)[O-])cc4F)c4nc(c(-c5c(F)cc(S(=O)(=O)[O-])cc5F)c5ccc2[nH]5)C=C4)C=C3)cc1)C1=Cc2c(Cl)cc(Cl)cc2O[C@@H]1C(F)(F)F
REMARK SMILES IDX 7 1 6 2 5 3 4 4 3 5 2 6 1 7 78 8 79 9 89 10 80 11 88 12
REMARK SMILES IDX 81 13 87 14 82 15 83 16 86 17 84 18 85 19 90 20 91 21 92 22
REMARK SMILES IDX 93 23 8 24 9 25 10 26 11 27 12 28 13 29 77 30 14 31 76 32
REMARK SMILES IDX 15 33 16 34 17 35 70 36 18 37 75 38 69 39 71 40 19 41 74 42
REMARK SMILES IDX 68 43 67 44 20 46 54 47 33 48 53 49 34 50 37 51 52 52 72 53
REMARK SMILES IDX 35 54 36 55 51 57 73 58 38 59 21 60 22 61 31 62 23 63 24 64
REMARK SMILES IDX 30 65 32 66 25 67 26 68 27 69 28 70 29 71 55 72 56 73 65 74
REMARK SMILES IDX 57 75 58 76 64 77 66 78 59 79 60 80 61 81 62 82 63 83 39 84
REMARK SMILES IDX 40 85 49 86 41 87 42 88 48 89 50 90 43 91 44 92 45 93 46 94
REMARK SMILES IDX 47 95
REMARK H PARENT 71 45 37 56
REMARK Flexibility Score: inf
ROOT
ATOM      1  C   UNL A   1      34.758  31.686  27.791  1.00  0.00     0.202 C 
ENDROOT
BRANCH   1   2
ATOM      2  O   UNL A   1      33.361  31.438  27.535  1.00  0.00    -0.374 OA
BRANCH   2   3
ATOM      3  C   UNL A   1      32.573  30.185  26.880  1.00  0.00     0.202 C 
BRANCH   3   4
ATOM      4  C   UNL A   1      33.292  28.215  26.267  1.00  0.00     0.261 C 
BRANCH   4   5
ATOM      5  O   UNL A   1      32.890  27.456  24.996  1.00  0.00    -0.460 OA
BRANCH   5   6
ATOM      6  C   UNL A   1      32.648  26.162  25.220  1.00  0.00     0.338 C 
ATOM      7  O   UNL A   1      32.207  25.621  26.201  1.00  0.00    -0.246 OA
BRANCH   6   8
ATOM      8  C   UNL A   1      33.437  25.667  24.112  1.00  0.00     0.087 C 
ATOM      9  C   UNL A   1      34.501  24.746  24.566  1.00  0.00     0.029 C 
ATOM     10  C   UNL A   1      31.932  25.154  23.009  1.00  0.00     0.316 C 
ATOM     11  C   UNL A   1      34.431  22.938  24.375  1.00  0.00     0.036 A 
ATOM     12  O   UNL A   1      31.799  23.234  22.829  1.00  0.00    -0.475 OA
ATOM     13  C   UNL A   1      35.322  22.132  25.040  1.00  0.00     0.053 A 
ATOM     14  C   UNL A   1      33.078  22.170  23.595  1.00  0.00     0.130 A 
ATOM     15  Cl  UNL A   1      36.720  22.717  25.840  1.00  0.00    -0.083 Cl
ATOM     16  C   UNL A   1      34.989  20.771  25.102  1.00  0.00     0.042 A 
ATOM     17  C   UNL A   1      32.784  20.849  23.788  1.00  0.00     0.067 A 
ATOM     18  C   UNL A   1      33.776  20.185  24.558  1.00  0.00     0.046 A 
ATOM     19  Cl  UNL A   1      33.531  18.529  25.006  1.00  0.00    -0.084 Cl
BRANCH  10  20
ATOM     20  C   UNL A   1      32.083  26.314  21.925  1.00  0.00     0.430 C 
ATOM     21  F   UNL A   1      33.339  26.598  21.539  1.00  0.00    -0.167 F 
ATOM     22  F   UNL A   1      31.462  25.880  20.785  1.00  0.00    -0.167 F 
ATOM     23  F   UNL A   1      31.454  27.471  22.233  1.00  0.00    -0.167 F 
ENDBRANCH  10  20
ENDBRANCH   6   8
ENDBRANCH   5   6
ENDBRANCH   4   5
ENDBRANCH   3   4
ENDBRANCH   2   3
ENDBRANCH   1   2
BRANCH   1  24
ATOM     24  C   UNL A   1      35.296  31.171  29.120  1.00  0.00     0.261 C 
BRANCH  24  25
ATOM     25  O   UNL A   1      36.018  29.961  28.967  1.00  0.00    -0.460 OA
BRANCH  25  26
ATOM     26  C   UNL A   1      36.732  29.608  30.059  1.00  0.00     0.338 C 
ATOM     27  O   UNL A   1      36.324  29.417  31.190  1.00  0.00    -0.246 OA
BRANCH  26  28
ATOM     28  C   UNL A   1      38.137  29.476  29.647  1.00  0.00     0.060 A 
ATOM     29  C   UNL A   1      38.418  29.480  28.280  1.00  0.00     0.016 A 
ATOM     30  C   UNL A   1      39.164  29.379  30.597  1.00  0.00     0.016 A 
ATOM     31  C   UNL A   1      39.740  29.436  27.859  1.00  0.00     0.010 A 
ATOM     32  C   UNL A   1      40.483  29.325  30.175  1.00  0.00     0.010 A 
ATOM     33  C   UNL A   1      40.769  29.360  28.804  1.00  0.00    -0.014 A 
BRANCH  33  34
ATOM     34  C   UNL A   1      42.136  29.068  28.355  1.00  0.00     0.031 A 
ATOM     35  C   UNL A   1      42.428  27.657  27.962  1.00  0.00     0.074 A 
ATOM     36  C   UNL A   1      43.077  30.025  28.333  1.00  0.00     0.049 A 
ATOM     37  N   UNL A   1      43.558  27.116  27.609  1.00  0.00    -0.248 NA
ATOM     38  C   UNL A   1      41.284  26.727  27.983  1.00  0.00     0.031 C 
ATOM     39  C   UNL A   1      42.863  31.430  28.675  1.00  0.00     0.029 A 
ATOM     40  N   UNL A   1      44.410  29.951  28.027  1.00  0.00    -0.354 N 
ATOM     41  C   UNL A   1      43.265  25.781  27.370  1.00  0.00     0.074 A 
ATOM     42  C   UNL A   1      41.859  25.589  27.640  1.00  0.00     0.031 C 
ATOM     43  C   UNL A   1      44.031  32.086  28.574  1.00  0.00     0.029 A 
ATOM     44  C   UNL A   1      45.081  31.134  28.217  1.00  0.00     0.049 A 
ATOM     45  H   UNL A   1      44.844  29.129  27.702  1.00  0.00     0.167 HD
ATOM     46  C   UNL A   1      44.107  24.804  26.971  1.00  0.00     0.037 A 
ATOM     47  C   UNL A   1      46.402  31.396  28.155  1.00  0.00     0.037 A 
ATOM     48  C   UNL A   1      45.512  25.019  26.763  1.00  0.00     0.049 A 
ATOM     49  C   UNL A   1      47.339  30.273  27.788  1.00  0.00     0.074 A 
ATOM     50  C   UNL A   1      46.468  24.108  26.358  1.00  0.00     0.029 A 
ATOM     51  N   UNL A   1      46.166  26.226  26.979  1.00  0.00    -0.354 N 
ATOM     52  N   UNL A   1      47.056  29.017  27.524  1.00  0.00    -0.248 NA
ATOM     53  C   UNL A   1      48.770  30.594  27.710  1.00  0.00     0.031 C 
ATOM     54  C   UNL A   1      47.712  24.743  26.410  1.00  0.00     0.029 A 
ATOM     55  C   UNL A   1      47.522  26.073  26.755  1.00  0.00     0.049 A 
ATOM     56  H   UNL A   1      45.729  27.065  27.252  1.00  0.00     0.167 HD
ATOM     57  C   UNL A   1      48.267  28.406  27.218  1.00  0.00     0.074 A 
ATOM     58  C   UNL A   1      49.286  29.430  27.332  1.00  0.00     0.031 C 
ATOM     59  C   UNL A   1      48.514  27.118  26.868  1.00  0.00     0.037 A 
BRANCH  46  60
ATOM     60  C   UNL A   1      43.533  23.424  26.823  1.00  0.00     0.058 A 
ATOM     61  C   UNL A   1      43.275  22.598  27.929  1.00  0.00     0.135 A 
ATOM     62  C   UNL A   1      43.275  22.906  25.544  1.00  0.00     0.135 A 
ATOM     63  F   UNL A   1      43.534  23.031  29.175  1.00  0.00    -0.206 F 
ATOM     64  C   UNL A   1      42.824  21.292  27.771  1.00  0.00     0.059 A 
ATOM     65  C   UNL A   1      42.785  21.618  25.364  1.00  0.00     0.059 A 
ATOM     66  F   UNL A   1      43.518  23.647  24.452  1.00  0.00    -0.206 F 
ATOM     67  C   UNL A   1      42.584  20.812  26.483  1.00  0.00     0.060 A 
BRANCH  67  68
ATOM     68  S   UNL A   1      42.018  19.110  26.292  1.00  0.00     0.124 S 
ATOM     69  O   UNL A   1      40.656  19.307  25.804  1.00  0.00    -0.237 OA
ATOM     70  O   UNL A   1      42.968  18.575  25.322  1.00  0.00    -0.237 OA
ATOM     71  O   UNL A   1      42.127  18.562  27.640  1.00  0.00    -0.744 OA
ENDBRANCH  67  68
ENDBRANCH  46  60
BRANCH  47  72
ATOM     72  C   UNL A   1      46.902  32.756  28.489  1.00  0.00     0.058 A 
ATOM     73  C   UNL A   1      47.025  33.755  27.513  1.00  0.00     0.135 A 
ATOM     74  C   UNL A   1      47.234  33.097  29.811  1.00  0.00     0.135 A 
ATOM     75  F   UNL A   1      46.736  33.481  26.232  1.00  0.00    -0.206 F 
ATOM     76  C   UNL A   1      47.456  35.040  27.833  1.00  0.00     0.059 A 
ATOM     77  C   UNL A   1      47.639  34.380  30.162  1.00  0.00     0.059 A 
ATOM     78  F   UNL A   1      47.129  32.181  30.787  1.00  0.00    -0.206 F 
ATOM     79  C   UNL A   1      47.749  35.346  29.164  1.00  0.00     0.060 A 
BRANCH  79  80
ATOM     80  S   UNL A   1      48.227  37.038  29.580  1.00  0.00     0.124 S 
ATOM     81  O   UNL A   1      49.612  36.860  30.000  1.00  0.00    -0.237 OA
ATOM     82  O   UNL A   1      48.026  37.729  28.311  1.00  0.00    -0.237 OA
ATOM     83  O   UNL A   1      47.290  37.402  30.639  1.00  0.00    -0.744 OA
ENDBRANCH  79  80
ENDBRANCH  47  72
BRANCH  59  84
ATOM     84  C   UNL A   1      49.928  26.739  26.524  1.00  0.00     0.058 A 
ATOM     85  C   UNL A   1      50.781  26.122  27.450  1.00  0.00     0.135 A 
ATOM     86  C   UNL A   1      50.387  26.885  25.203  1.00  0.00     0.135 A 
ATOM     87  F   UNL A   1      50.395  25.965  28.726  1.00  0.00    -0.206 F 
ATOM     88  C   UNL A   1      52.041  25.661  27.080  1.00  0.00     0.059 A 
ATOM     89  C   UNL A   1      51.626  26.401  24.803  1.00  0.00     0.059 A 
ATOM     90  F   UNL A   1      49.606  27.461  24.275  1.00  0.00    -0.206 F 
ATOM     91  C   UNL A   1      52.447  25.792  25.749  1.00  0.00     0.060 A 
BRANCH  91  92
ATOM     92  S   UNL A   1      54.047  25.112  25.264  1.00  0.00     0.124 S 
ATOM     93  O   UNL A   1      54.797  25.204  26.514  1.00  0.00    -0.237 OA
ATOM     94  O   UNL A   1      53.694  23.764  24.834  1.00  0.00    -0.237 OA
ATOM     95  O   UNL A   1      54.491  26.008  24.200  1.00  0.00    -0.744 OA
ENDBRANCH  91  92
ENDBRANCH  59  84
ENDBRANCH  33  34
ENDBRANCH  26  28
ENDBRANCH  25  26
ENDBRANCH  24  25
ENDBRANCH   1  24
TORSDOF 18
ENDMDL
