MODEL 1
REMARK VINA RESULT:      -9.6      0.000      0.000
REMARK SMILES CCOc1cccc(OCC)c1-c1ccc([C@@H](C)C(=O)OCCOCCOC(=O)c2ccc(-c3c4nc(c(-c5c(F)cc(S(=O)(=O)[O-])cc5F)c5ccc([nH]5)c(-c5c(F)cc(S(=O)(=O)[O-])cc5F)c5nc(c(-c6c(F)cc(S(=O)(=O)[O-])cc6F)c6ccc3[nH]6)C=C5)C=C4)cc2)cc1F
REMARK SMILES IDX 23 1 22 2 21 3 19 4 20 5 17 6 18 7 16 8 13 9 14 10 97 11
REMARK SMILES IDX 15 12 96 13 98 14 12 15 4 16 5 17 6 18 8 19 7 20 3 21 2 22
REMARK SMILES IDX 1 23 9 24 10 25 11 26 24 27 25 28 26 29 27 30 28 31 29 32
REMARK SMILES IDX 30 33 31 34 95 35 32 36 94 37 33 38 34 39 35 40 88 41 36 42
REMARK SMILES IDX 93 43 87 44 89 45 37 46 92 47 86 48 85 49 38 51 72 52 51 53
REMARK SMILES IDX 71 54 52 55 55 56 70 57 90 58 53 59 54 60 69 62 91 63 56 64
REMARK SMILES IDX 39 65 40 66 49 67 41 68 42 69 48 70 50 71 43 72 44 73 45 74
REMARK SMILES IDX 46 75 47 76 73 77 74 78 83 79 75 80 76 81 82 82 84 83 77 84
REMARK SMILES IDX 78 85 79 86 80 87 81 88 57 89 58 90 67 91 59 92 60 93 66 94
REMARK SMILES IDX 68 95 61 96 62 97 63 98 64 99 65 100
REMARK H PARENT 89 50 55 61
REMARK Flexibility Score: inf
ROOT
ATOM      1  C   UNL A   1      34.723  32.432  29.650  1.00  0.00     0.202 C 
ENDROOT
BRANCH   1   2
ATOM      2  C   UNL A   1      35.085  32.673  28.179  1.00  0.00     0.261 C 
BRANCH   2   3
ATOM      3  O   UNL A   1      35.558  31.491  27.496  1.00  0.00    -0.463 OA
BRANCH   3   4
ATOM      4  C   UNL A   1      34.763  30.394  27.592  1.00  0.00     0.313 C 
ATOM      5  O   UNL A   1      34.938  29.493  28.413  1.00  0.00    -0.252 OA
BRANCH   4   6
ATOM      6  C   UNL A   1      33.646  30.293  26.567  1.00  0.00     0.126 C 
ATOM      7  C   UNL A   1      32.394  30.943  27.160  1.00  0.00     0.025 C 
BRANCH   6   8
ATOM      8  C   UNL A   1      33.285  28.972  25.895  1.00  0.00    -0.031 A 
ATOM      9  C   UNL A   1      32.685  26.301  25.043  1.00  0.00     0.025 A 
ATOM     10  C   UNL A   1      33.784  27.014  24.531  1.00  0.00     0.012 A 
ATOM     11  C   UNL A   1      31.854  26.982  25.937  1.00  0.00     0.131 A 
ATOM     12  C   UNL A   1      34.098  28.313  24.970  1.00  0.00     0.005 A 
ATOM     13  C   UNL A   1      32.139  28.287  26.351  1.00  0.00     0.044 A 
ATOM     14  F   UNL A   1      30.778  26.375  26.460  1.00  0.00    -0.206 F 
BRANCH   9  15
ATOM     15  C   UNL A   1      32.420  24.907  24.628  1.00  0.00     0.069 A 
ATOM     16  C   UNL A   1      32.914  23.861  25.457  1.00  0.00     0.130 A 
ATOM     17  C   UNL A   1      32.645  22.509  25.215  1.00  0.00     0.047 A 
ATOM     18  C   UNL A   1      31.854  22.154  24.138  1.00  0.00     0.008 A 
ATOM     19  C   UNL A   1      31.672  24.517  23.495  1.00  0.00     0.130 A 
ATOM     20  C   UNL A   1      31.391  23.149  23.284  1.00  0.00     0.047 A 
BRANCH  16  21
ATOM     21  O   UNL A   1      33.777  24.180  26.478  1.00  0.00    -0.493 OA
BRANCH  21  22
ATOM     22  C   UNL A   1      35.005  23.449  26.433  1.00  0.00     0.226 C 
ATOM     23  C   UNL A   1      35.775  23.963  25.239  1.00  0.00     0.049 C 
ENDBRANCH  21  22
ENDBRANCH  16  21
BRANCH  19  24
ATOM     24  O   UNL A   1      31.145  25.242  22.462  1.00  0.00    -0.493 OA
BRANCH  24  25
ATOM     25  C   UNL A   1      31.865  26.178  21.681  1.00  0.00     0.226 C 
ATOM     26  C   UNL A   1      32.591  25.444  20.568  1.00  0.00     0.049 C 
ENDBRANCH  24  25
ENDBRANCH  19  24
ENDBRANCH   9  15
ENDBRANCH   6   8
ENDBRANCH   4   6
ENDBRANCH   3   4
ENDBRANCH   2   3
ENDBRANCH   1   2
BRANCH   1  27
ATOM     27  O   UNL A   1      35.340  33.287  30.612  1.00  0.00    -0.374 OA
BRANCH  27  28
ATOM     28  C   UNL A   1      36.469  32.778  31.310  1.00  0.00     0.202 C 
BRANCH  28  29
ATOM     29  C   UNL A   1      36.212  31.609  32.262  1.00  0.00     0.261 C 
BRANCH  29  30
ATOM     30  O   UNL A   1      36.433  30.325  31.655  1.00  0.00    -0.460 OA
BRANCH  30  31
ATOM     31  C   UNL A   1      37.283  29.522  32.336  1.00  0.00     0.338 C 
ATOM     32  O   UNL A   1      37.013  28.789  33.280  1.00  0.00    -0.246 OA
BRANCH  31  33
ATOM     33  C   UNL A   1      38.621  29.558  31.724  1.00  0.00     0.060 A 
ATOM     34  C   UNL A   1      38.723  29.759  30.344  1.00  0.00     0.016 A 
ATOM     35  C   UNL A   1      39.753  29.251  32.481  1.00  0.00     0.016 A 
ATOM     36  C   UNL A   1      39.961  29.626  29.712  1.00  0.00     0.010 A 
ATOM     37  C   UNL A   1      40.996  29.128  31.845  1.00  0.00     0.010 A 
ATOM     38  C   UNL A   1      41.104  29.285  30.451  1.00  0.00    -0.014 A 
BRANCH  38  39
ATOM     39  C   UNL A   1      42.385  29.011  29.745  1.00  0.00     0.031 A 
ATOM     40  C   UNL A   1      42.620  27.671  29.099  1.00  0.00     0.074 A 
ATOM     41  C   UNL A   1      43.326  29.967  29.645  1.00  0.00     0.049 A 
ATOM     42  N   UNL A   1      43.643  27.260  28.393  1.00  0.00    -0.248 NA
ATOM     43  C   UNL A   1      41.563  26.662  29.268  1.00  0.00     0.031 C 
ATOM     44  C   UNL A   1      43.226  31.311  30.214  1.00  0.00     0.029 A 
ATOM     45  N   UNL A   1      44.552  29.956  29.025  1.00  0.00    -0.354 N 
ATOM     46  C   UNL A   1      43.356  25.950  28.029  1.00  0.00     0.074 A 
ATOM     47  C   UNL A   1      42.076  25.623  28.624  1.00  0.00     0.031 C 
ATOM     48  C   UNL A   1      44.341  31.997  29.909  1.00  0.00     0.029 A 
ATOM     49  C   UNL A   1      45.242  31.137  29.143  1.00  0.00     0.049 A 
ATOM     50  H   UNL A   1      44.903  29.172  28.542  1.00  0.00     0.167 HD
ATOM     51  C   UNL A   1      44.079  25.101  27.259  1.00  0.00     0.037 A 
ATOM     52  C   UNL A   1      46.462  31.490  28.690  1.00  0.00     0.037 A 
ATOM     53  C   UNL A   1      45.354  25.417  26.666  1.00  0.00     0.049 A 
ATOM     54  C   UNL A   1      47.273  30.513  27.883  1.00  0.00     0.074 A 
ATOM     55  C   UNL A   1      46.138  24.631  25.840  1.00  0.00     0.029 A 
ATOM     56  N   UNL A   1      46.039  26.610  26.847  1.00  0.00    -0.354 N 
ATOM     57  N   UNL A   1      46.962  29.295  27.506  1.00  0.00    -0.248 NA
ATOM     58  C   UNL A   1      48.601  30.960  27.435  1.00  0.00     0.031 C 
ATOM     59  C   UNL A   1      47.319  25.331  25.556  1.00  0.00     0.029 A 
ATOM     60  C   UNL A   1      47.250  26.569  26.172  1.00  0.00     0.049 A 
ATOM     61  H   UNL A   1      45.714  27.373  27.376  1.00  0.00     0.167 HD
ATOM     62  C   UNL A   1      48.046  28.839  26.762  1.00  0.00     0.074 A 
ATOM     63  C   UNL A   1      49.016  29.915  26.733  1.00  0.00     0.031 C 
ATOM     64  C   UNL A   1      48.218  27.638  26.156  1.00  0.00     0.037 A 
BRANCH  51  65
ATOM     65  C   UNL A   1      43.509  23.729  27.026  1.00  0.00     0.058 A 
ATOM     66  C   UNL A   1      43.661  22.700  27.970  1.00  0.00     0.135 A 
ATOM     67  C   UNL A   1      42.789  23.445  25.855  1.00  0.00     0.135 A 
ATOM     68  F   UNL A   1      44.350  22.917  29.101  1.00  0.00    -0.206 F 
ATOM     69  C   UNL A   1      43.150  21.426  27.744  1.00  0.00     0.059 A 
ATOM     70  C   UNL A   1      42.249  22.185  25.619  1.00  0.00     0.059 A 
ATOM     71  F   UNL A   1      42.612  24.395  24.923  1.00  0.00    -0.206 F 
ATOM     72  C   UNL A   1      42.453  21.175  26.560  1.00  0.00     0.060 A 
BRANCH  72  73
ATOM     73  S   UNL A   1      41.816  19.512  26.266  1.00  0.00     0.124 S 
ATOM     74  O   UNL A   1      42.229  18.825  27.486  1.00  0.00    -0.237 OA
ATOM     75  O   UNL A   1      40.382  19.743  26.125  1.00  0.00    -0.237 OA
ATOM     76  O   UNL A   1      42.503  19.097  25.047  1.00  0.00    -0.744 OA
ENDBRANCH  72  73
ENDBRANCH  51  65
BRANCH  52  77
ATOM     77  C   UNL A   1      46.987  32.849  28.982  1.00  0.00     0.058 A 
ATOM     78  C   UNL A   1      46.681  33.936  28.152  1.00  0.00     0.135 A 
ATOM     79  C   UNL A   1      47.783  33.088  30.112  1.00  0.00     0.135 A 
ATOM     80  F   UNL A   1      45.933  33.750  27.053  1.00  0.00    -0.206 F 
ATOM     81  C   UNL A   1      47.144  35.217  28.431  1.00  0.00     0.059 A 
ATOM     82  C   UNL A   1      48.242  34.364  30.425  1.00  0.00     0.059 A 
ATOM     83  F   UNL A   1      48.094  32.081  30.942  1.00  0.00    -0.206 F 
ATOM     84  C   UNL A   1      47.918  35.421  29.574  1.00  0.00     0.060 A 
BRANCH  84  85
ATOM     85  S   UNL A   1      48.447  37.102  29.976  1.00  0.00     0.124 S 
ATOM     86  O   UNL A   1      47.650  37.891  29.044  1.00  0.00    -0.237 OA
ATOM     87  O   UNL A   1      48.079  37.211  31.384  1.00  0.00    -0.237 OA
ATOM     88  O   UNL A   1      49.883  37.071  29.713  1.00  0.00    -0.744 OA
ENDBRANCH  84  85
ENDBRANCH  52  77
BRANCH  64  89
ATOM     89  C   UNL A   1      49.498  27.423  25.395  1.00  0.00     0.058 A 
ATOM     90  C   UNL A   1      50.697  27.100  26.051  1.00  0.00     0.135 A 
ATOM     91  C   UNL A   1      49.520  27.502  23.993  1.00  0.00     0.135 A 
ATOM     92  F   UNL A   1      50.733  27.018  27.390  1.00  0.00    -0.206 F 
ATOM     93  C   UNL A   1      51.878  26.889  25.345  1.00  0.00     0.059 A 
ATOM     94  C   UNL A   1      50.684  27.273  23.266  1.00  0.00     0.059 A 
ATOM     95  F   UNL A   1      48.398  27.797  23.316  1.00  0.00    -0.206 F 
ATOM     96  C   UNL A   1      51.862  26.979  23.952  1.00  0.00     0.060 A 
BRANCH  96  97
ATOM     97  S   UNL A   1      53.395  26.682  23.043  1.00  0.00     0.124 S 
ATOM     98  O   UNL A   1      54.072  25.729  23.915  1.00  0.00    -0.237 OA
ATOM     99  O   UNL A   1      52.910  26.147  21.774  1.00  0.00    -0.237 OA
ATOM    100  O   UNL A   1      54.005  28.006  22.965  1.00  0.00    -0.744 OA
ENDBRANCH  96  97
ENDBRANCH  64  89
ENDBRANCH  38  39
ENDBRANCH  31  33
ENDBRANCH  30  31
ENDBRANCH  29  30
ENDBRANCH  28  29
ENDBRANCH  27  28
ENDBRANCH   1  27
TORSDOF 23
ENDMDL
MODEL 2
REMARK VINA RESULT:      -9.3      0.445      7.977
REMARK SMILES CCOc1cccc(OCC)c1-c1ccc([C@@H](C)C(=O)OCCOCCOC(=O)c2ccc(-c3c4nc(c(-c5c(F)cc(S(=O)(=O)[O-])cc5F)c5ccc([nH]5)c(-c5c(F)cc(S(=O)(=O)[O-])cc5F)c5nc(c(-c6c(F)cc(S(=O)(=O)[O-])cc6F)c6ccc3[nH]6)C=C5)C=C4)cc2)cc1F
REMARK SMILES IDX 23 1 22 2 21 3 19 4 20 5 17 6 18 7 16 8 13 9 14 10 97 11
REMARK SMILES IDX 15 12 96 13 98 14 12 15 4 16 5 17 6 18 8 19 7 20 3 21 2 22
REMARK SMILES IDX 1 23 9 24 10 25 11 26 24 27 25 28 26 29 27 30 28 31 29 32
REMARK SMILES IDX 30 33 31 34 95 35 32 36 94 37 33 38 34 39 35 40 88 41 36 42
REMARK SMILES IDX 93 43 87 44 89 45 37 46 92 47 86 48 85 49 38 51 72 52 51 53
REMARK SMILES IDX 71 54 52 55 55 56 70 57 90 58 53 59 54 60 69 62 91 63 56 64
REMARK SMILES IDX 39 65 40 66 49 67 41 68 42 69 48 70 50 71 43 72 44 73 45 74
REMARK SMILES IDX 46 75 47 76 73 77 74 78 83 79 75 80 76 81 82 82 84 83 77 84
REMARK SMILES IDX 78 85 79 86 80 87 81 88 57 89 58 90 67 91 59 92 60 93 66 94
REMARK SMILES IDX 68 95 61 96 62 97 63 98 64 99 65 100
REMARK H PARENT 89 50 55 61
REMARK Flexibility Score: inf
ROOT
ATOM      1  C   UNL A   1      34.719  32.406  29.719  1.00  0.00     0.202 C 
ENDROOT
BRANCH   1   2
ATOM      2  C   UNL A   1      35.176  32.676  28.280  1.00  0.00     0.261 C 
BRANCH   2   3
ATOM      3  O   UNL A   1      35.630  31.494  27.584  1.00  0.00    -0.463 OA
BRANCH   3   4
ATOM      4  C   UNL A   1      34.807  30.416  27.649  1.00  0.00     0.313 C 
ATOM      5  O   UNL A   1      34.965  29.482  28.436  1.00  0.00    -0.252 OA
BRANCH   4   6
ATOM      6  C   UNL A   1      33.679  30.380  26.633  1.00  0.00     0.126 C 
ATOM      7  C   UNL A   1      32.453  31.053  27.255  1.00  0.00     0.025 C 
BRANCH   6   8
ATOM      8  C   UNL A   1      33.268  29.092  25.927  1.00  0.00    -0.031 A 
ATOM      9  C   UNL A   1      32.550  26.471  25.012  1.00  0.00     0.025 A 
ATOM     10  C   UNL A   1      33.708  27.125  24.554  1.00  0.00     0.012 A 
ATOM     11  C   UNL A   1      31.725  27.187  25.883  1.00  0.00     0.131 A 
ATOM     12  C   UNL A   1      34.079  28.398  25.024  1.00  0.00     0.005 A 
ATOM     13  C   UNL A   1      32.068  28.469  26.328  1.00  0.00     0.044 A 
ATOM     14  F   UNL A   1      30.596  26.638  26.354  1.00  0.00    -0.206 F 
BRANCH   9  15
ATOM     15  C   UNL A   1      32.222  25.100  24.566  1.00  0.00     0.069 A 
ATOM     16  C   UNL A   1      32.620  24.017  25.399  1.00  0.00     0.130 A 
ATOM     17  C   UNL A   1      32.282  22.686  25.125  1.00  0.00     0.047 A 
ATOM     18  C   UNL A   1      31.517  22.391  24.012  1.00  0.00     0.008 A 
ATOM     19  C   UNL A   1      31.501  24.769  23.397  1.00  0.00     0.130 A 
ATOM     20  C   UNL A   1      31.149  23.422  23.154  1.00  0.00     0.047 A 
BRANCH  16  21
ATOM     21  O   UNL A   1      33.456  24.272  26.459  1.00  0.00    -0.493 OA
BRANCH  21  22
ATOM     22  C   UNL A   1      34.606  23.424  26.491  1.00  0.00     0.226 C 
ATOM     23  C   UNL A   1      35.334  23.626  25.183  1.00  0.00     0.049 C 
ENDBRANCH  21  22
ENDBRANCH  16  21
BRANCH  19  24
ATOM     24  O   UNL A   1      31.060  25.536  22.355  1.00  0.00    -0.493 OA
BRANCH  24  25
ATOM     25  C   UNL A   1      31.890  26.339  21.535  1.00  0.00     0.226 C 
ATOM     26  C   UNL A   1      32.422  25.498  20.388  1.00  0.00     0.049 C 
ENDBRANCH  24  25
ENDBRANCH  19  24
ENDBRANCH   9  15
ENDBRANCH   6   8
ENDBRANCH   4   6
ENDBRANCH   3   4
ENDBRANCH   2   3
ENDBRANCH   1   2
BRANCH   1  27
ATOM     27  O   UNL A   1      35.286  33.229  30.738  1.00  0.00    -0.374 OA
BRANCH  27  28
ATOM     28  C   UNL A   1      36.389  32.700  31.466  1.00  0.00     0.202 C 
BRANCH  28  29
ATOM     29  C   UNL A   1      36.094  31.510  32.380  1.00  0.00     0.261 C 
BRANCH  29  30
ATOM     30  O   UNL A   1      36.305  30.241  31.740  1.00  0.00    -0.460 OA
BRANCH  30  31
ATOM     31  C   UNL A   1      37.208  29.445  32.358  1.00  0.00     0.338 C 
ATOM     32  O   UNL A   1      37.013  28.712  33.321  1.00  0.00    -0.246 OA
BRANCH  31  33
ATOM     33  C   UNL A   1      38.498  29.489  31.651  1.00  0.00     0.060 A 
ATOM     34  C   UNL A   1      38.495  29.623  30.259  1.00  0.00     0.016 A 
ATOM     35  C   UNL A   1      39.690  29.252  32.338  1.00  0.00     0.016 A 
ATOM     36  C   UNL A   1      39.689  29.493  29.546  1.00  0.00     0.010 A 
ATOM     37  C   UNL A   1      40.888  29.134  31.621  1.00  0.00     0.010 A 
ATOM     38  C   UNL A   1      40.892  29.223  30.217  1.00  0.00    -0.014 A 
BRANCH  38  39
ATOM     39  C   UNL A   1      42.128  28.952  29.434  1.00  0.00     0.031 A 
ATOM     40  C   UNL A   1      43.167  30.029  29.266  1.00  0.00     0.074 A 
ATOM     41  C   UNL A   1      42.346  27.734  28.904  1.00  0.00     0.049 A 
ATOM     42  N   UNL A   1      44.331  29.970  28.668  1.00  0.00    -0.248 NA
ATOM     43  C   UNL A   1      42.856  31.344  29.846  1.00  0.00     0.031 C 
ATOM     44  C   UNL A   1      41.430  26.598  28.999  1.00  0.00     0.029 A 
ATOM     45  N   UNL A   1      43.408  27.249  28.182  1.00  0.00    -0.354 N 
ATOM     46  C   UNL A   1      44.895  31.233  28.804  1.00  0.00     0.074 A 
ATOM     47  C   UNL A   1      43.927  32.048  29.509  1.00  0.00     0.031 C 
ATOM     48  C   UNL A   1      41.975  25.545  28.366  1.00  0.00     0.029 A 
ATOM     49  C   UNL A   1      43.266  25.937  27.803  1.00  0.00     0.049 A 
ATOM     50  H   UNL A   1      44.198  27.793  27.956  1.00  0.00     0.167 HD
ATOM     51  C   UNL A   1      46.110  31.673  28.395  1.00  0.00     0.037 A 
ATOM     52  C   UNL A   1      44.080  25.139  27.082  1.00  0.00     0.037 A 
ATOM     53  C   UNL A   1      47.076  30.870  27.690  1.00  0.00     0.049 A 
ATOM     54  C   UNL A   1      45.401  25.663  26.590  1.00  0.00     0.074 A 
ATOM     55  C   UNL A   1      48.348  31.222  27.271  1.00  0.00     0.029 A 
ATOM     56  N   UNL A   1      46.875  29.558  27.286  1.00  0.00    -0.354 N 
ATOM     57  N   UNL A   1      45.939  26.845  26.772  1.00  0.00    -0.248 NA
ATOM     58  C   UNL A   1      46.229  24.742  25.797  1.00  0.00     0.031 C 
ATOM     59  C   UNL A   1      48.899  30.139  26.575  1.00  0.00     0.029 A 
ATOM     60  C   UNL A   1      47.987  29.097  26.598  1.00  0.00     0.049 A 
ATOM     61  H   UNL A   1      46.063  29.032  27.463  1.00  0.00     0.167 HD
ATOM     62  C   UNL A   1      47.174  26.804  26.133  1.00  0.00     0.074 A 
ATOM     63  C   UNL A   1      47.309  25.476  25.570  1.00  0.00     0.031 C 
ATOM     64  C   UNL A   1      48.112  27.778  26.028  1.00  0.00     0.037 A 
BRANCH  51  65
ATOM     65  C   UNL A   1      46.457  33.106  28.688  1.00  0.00     0.058 A 
ATOM     66  C   UNL A   1      46.102  34.143  27.811  1.00  0.00     0.135 A 
ATOM     67  C   UNL A   1      47.136  33.448  29.868  1.00  0.00     0.135 A 
ATOM     68  F   UNL A   1      45.462  33.868  26.663  1.00  0.00    -0.206 F 
ATOM     69  C   UNL A   1      46.441  35.466  28.074  1.00  0.00     0.059 A 
ATOM     70  C   UNL A   1      47.465  34.768  30.164  1.00  0.00     0.059 A 
ATOM     71  F   UNL A   1      47.494  32.496  30.743  1.00  0.00    -0.206 F 
ATOM     72  C   UNL A   1      47.131  35.768  29.250  1.00  0.00     0.060 A 
BRANCH  72  73
ATOM     73  S   UNL A   1      47.589  37.485  29.570  1.00  0.00     0.124 S 
ATOM     74  O   UNL A   1      49.003  37.349  29.904  1.00  0.00    -0.237 OA
ATOM     75  O   UNL A   1      47.299  38.132  28.294  1.00  0.00    -0.237 OA
ATOM     76  O   UNL A   1      46.716  37.868  30.675  1.00  0.00    -0.744 OA
ENDBRANCH  72  73
ENDBRANCH  51  65
BRANCH  52  77
ATOM     77  C   UNL A   1      43.666  23.741  26.794  1.00  0.00     0.058 A 
ATOM     78  C   UNL A   1      43.923  22.708  27.706  1.00  0.00     0.135 A 
ATOM     79  C   UNL A   1      42.983  23.419  25.612  1.00  0.00     0.135 A 
ATOM     80  F   UNL A   1      44.584  22.969  28.845  1.00  0.00    -0.206 F 
ATOM     81  C   UNL A   1      43.516  21.402  27.459  1.00  0.00     0.059 A 
ATOM     82  C   UNL A   1      42.547  22.123  25.351  1.00  0.00     0.059 A 
ATOM     83  F   UNL A   1      42.705  24.375  24.713  1.00  0.00    -0.206 F 
ATOM     84  C   UNL A   1      42.822  21.121  26.281  1.00  0.00     0.060 A 
BRANCH  84  85
ATOM     85  S   UNL A   1      42.225  19.439  26.004  1.00  0.00     0.124 S 
ATOM     86  O   UNL A   1      42.353  18.859  27.336  1.00  0.00    -0.237 OA
ATOM     87  O   UNL A   1      40.861  19.671  25.537  1.00  0.00    -0.237 OA
ATOM     88  O   UNL A   1      43.143  18.920  24.996  1.00  0.00    -0.744 OA
ENDBRANCH  84  85
ENDBRANCH  52  77
BRANCH  64  89
ATOM     89  C   UNL A   1      49.378  27.444  25.285  1.00  0.00     0.058 A 
ATOM     90  C   UNL A   1      50.555  27.087  25.962  1.00  0.00     0.135 A 
ATOM     91  C   UNL A   1      49.405  27.445  23.881  1.00  0.00     0.135 A 
ATOM     92  F   UNL A   1      50.585  27.077  27.304  1.00  0.00    -0.206 F 
ATOM     93  C   UNL A   1      51.721  26.767  25.273  1.00  0.00     0.059 A 
ATOM     94  C   UNL A   1      50.553  27.106  23.171  1.00  0.00     0.059 A 
ATOM     95  F   UNL A   1      48.303  27.769  23.184  1.00  0.00    -0.206 F 
ATOM     96  C   UNL A   1      51.711  26.780  23.877  1.00  0.00     0.060 A 
BRANCH  96  97
ATOM     97  S   UNL A   1      53.223  26.341  22.992  1.00  0.00     0.124 S 
ATOM     98  O   UNL A   1      53.759  25.279  23.836  1.00  0.00    -0.237 OA
ATOM     99  O   UNL A   1      52.715  25.921  21.689  1.00  0.00    -0.237 OA
ATOM    100  O   UNL A   1      53.986  27.586  22.986  1.00  0.00    -0.744 OA
ENDBRANCH  96  97
ENDBRANCH  64  89
ENDBRANCH  38  39
ENDBRANCH  31  33
ENDBRANCH  30  31
ENDBRANCH  29  30
ENDBRANCH  28  29
ENDBRANCH  27  28
ENDBRANCH   1  27
TORSDOF 23
ENDMDL
MODEL 3
REMARK VINA RESULT:      -9.1      5.892     11.799
REMARK SMILES CCOc1cccc(OCC)c1-c1ccc([C@@H](C)C(=O)OCCOCCOC(=O)c2ccc(-c3c4nc(c(-c5c(F)cc(S(=O)(=O)[O-])cc5F)c5ccc([nH]5)c(-c5c(F)cc(S(=O)(=O)[O-])cc5F)c5nc(c(-c6c(F)cc(S(=O)(=O)[O-])cc6F)c6ccc3[nH]6)C=C5)C=C4)cc2)cc1F
REMARK SMILES IDX 23 1 22 2 21 3 19 4 20 5 17 6 18 7 16 8 13 9 14 10 97 11
REMARK SMILES IDX 15 12 96 13 98 14 12 15 4 16 5 17 6 18 8 19 7 20 3 21 2 22
REMARK SMILES IDX 1 23 9 24 10 25 11 26 24 27 25 28 26 29 27 30 28 31 29 32
REMARK SMILES IDX 30 33 31 34 95 35 32 36 94 37 33 38 34 39 35 40 88 41 36 42
REMARK SMILES IDX 93 43 87 44 89 45 37 46 92 47 86 48 85 49 38 51 72 52 51 53
REMARK SMILES IDX 71 54 52 55 55 56 70 57 90 58 53 59 54 60 69 62 91 63 56 64
REMARK SMILES IDX 39 65 40 66 49 67 41 68 42 69 48 70 50 71 43 72 44 73 45 74
REMARK SMILES IDX 46 75 47 76 73 77 74 78 83 79 75 80 76 81 82 82 84 83 77 84
REMARK SMILES IDX 78 85 79 86 80 87 81 88 57 89 58 90 67 91 59 92 60 93 66 94
REMARK SMILES IDX 68 95 61 96 62 97 63 98 64 99 65 100
REMARK H PARENT 89 50 55 61
REMARK Flexibility Score: inf
ROOT
ATOM      1  C   UNL A   1      40.429  25.889  26.930  1.00  0.00     0.202 C 
ENDROOT
BRANCH   1   2
ATOM      2  C   UNL A   1      39.564  24.765  27.513  1.00  0.00     0.261 C 
BRANCH   2   3
ATOM      3  O   UNL A   1      38.532  24.300  26.615  1.00  0.00    -0.463 OA
BRANCH   3   4
ATOM      4  C   UNL A   1      38.553  22.974  26.326  1.00  0.00     0.313 C 
ATOM      5  O   UNL A   1      39.577  22.290  26.327  1.00  0.00    -0.252 OA
BRANCH   4   6
ATOM      6  C   UNL A   1      37.221  22.361  25.927  1.00  0.00     0.126 C 
ATOM      7  C   UNL A   1      37.462  21.423  24.742  1.00  0.00     0.025 C 
BRANCH   6   8
ATOM      8  C   UNL A   1      35.983  23.216  25.675  1.00  0.00    -0.031 A 
ATOM      9  C   UNL A   1      33.436  24.423  25.144  1.00  0.00     0.025 A 
ATOM     10  C   UNL A   1      34.533  24.593  24.279  1.00  0.00     0.012 A 
ATOM     11  C   UNL A   1      33.665  23.694  26.315  1.00  0.00     0.131 A 
ATOM     12  C   UNL A   1      35.774  23.977  24.522  1.00  0.00     0.005 A 
ATOM     13  C   UNL A   1      34.907  23.108  26.581  1.00  0.00     0.044 A 
ATOM     14  F   UNL A   1      32.673  23.498  27.197  1.00  0.00    -0.206 F 
BRANCH   9  15
ATOM     15  C   UNL A   1      32.118  25.012  24.828  1.00  0.00     0.069 A 
ATOM     16  C   UNL A   1      31.859  26.338  25.274  1.00  0.00     0.130 A 
ATOM     17  C   UNL A   1      30.685  27.031  24.953  1.00  0.00     0.047 A 
ATOM     18  C   UNL A   1      29.731  26.424  24.159  1.00  0.00     0.008 A 
ATOM     19  C   UNL A   1      31.099  24.386  24.076  1.00  0.00     0.130 A 
ATOM     20  C   UNL A   1      29.934  25.112  23.743  1.00  0.00     0.047 A 
BRANCH  16  21
ATOM     21  O   UNL A   1      32.748  26.930  26.139  1.00  0.00    -0.493 OA
BRANCH  21  22
ATOM     22  C   UNL A   1      33.523  27.968  25.535  1.00  0.00     0.226 C 
ATOM     23  C   UNL A   1      33.499  29.140  26.488  1.00  0.00     0.049 C 
ENDBRANCH  21  22
ENDBRANCH  16  21
BRANCH  19  24
ATOM     24  O   UNL A   1      30.983  23.115  23.587  1.00  0.00    -0.493 OA
BRANCH  24  25
ATOM     25  C   UNL A   1      31.927  22.486  22.737  1.00  0.00     0.226 C 
ATOM     26  C   UNL A   1      32.596  21.351  23.490  1.00  0.00     0.049 C 
ENDBRANCH  24  25
ENDBRANCH  19  24
ENDBRANCH   9  15
ENDBRANCH   6   8
ENDBRANCH   4   6
ENDBRANCH   3   4
ENDBRANCH   2   3
ENDBRANCH   1   2
BRANCH   1  27
ATOM     27  O   UNL A   1      40.786  25.775  25.552  1.00  0.00    -0.374 OA
BRANCH  27  28
ATOM     28  C   UNL A   1      42.158  25.547  25.250  1.00  0.00     0.202 C 
BRANCH  28  29
ATOM     29  C   UNL A   1      43.084  26.762  25.326  1.00  0.00     0.261 C 
BRANCH  29  30
ATOM     30  O   UNL A   1      44.424  26.428  25.725  1.00  0.00    -0.460 OA
BRANCH  30  31
ATOM     31  C   UNL A   1      44.503  25.663  26.839  1.00  0.00     0.338 C 
ATOM     32  O   UNL A   1      44.771  24.469  26.899  1.00  0.00    -0.246 OA
BRANCH  31  33
ATOM     33  C   UNL A   1      44.311  26.489  28.041  1.00  0.00     0.060 A 
ATOM     34  C   UNL A   1      43.449  26.028  29.041  1.00  0.00     0.016 A 
ATOM     35  C   UNL A   1      44.860  27.771  28.114  1.00  0.00     0.016 A 
ATOM     36  C   UNL A   1      43.112  26.865  30.109  1.00  0.00     0.010 A 
ATOM     37  C   UNL A   1      44.530  28.603  29.192  1.00  0.00     0.010 A 
ATOM     38  C   UNL A   1      43.630  28.167  30.181  1.00  0.00    -0.014 A 
BRANCH  38  39
ATOM     39  C   UNL A   1      43.155  29.090  31.247  1.00  0.00     0.031 A 
ATOM     40  C   UNL A   1      43.973  29.285  32.497  1.00  0.00     0.074 A 
ATOM     41  C   UNL A   1      42.014  29.787  31.088  1.00  0.00     0.049 A 
ATOM     42  N   UNL A   1      43.756  30.084  33.512  1.00  0.00    -0.248 NA
ATOM     43  C   UNL A   1      45.193  28.474  32.620  1.00  0.00     0.031 C 
ATOM     44  C   UNL A   1      41.132  29.703  29.925  1.00  0.00     0.029 A 
ATOM     45  N   UNL A   1      41.404  30.704  31.907  1.00  0.00    -0.354 N 
ATOM     46  C   UNL A   1      44.812  29.880  34.391  1.00  0.00     0.074 A 
ATOM     47  C   UNL A   1      45.650  28.853  33.806  1.00  0.00     0.031 C 
ATOM     48  C   UNL A   1      40.097  30.543  30.102  1.00  0.00     0.029 A 
ATOM     49  C   UNL A   1      40.232  31.207  31.398  1.00  0.00     0.049 A 
ATOM     50  H   UNL A   1      41.773  30.976  32.779  1.00  0.00     0.167 HD
ATOM     51  C   UNL A   1      45.073  30.498  35.570  1.00  0.00     0.037 A 
ATOM     52  C   UNL A   1      39.361  32.098  31.915  1.00  0.00     0.037 A 
ATOM     53  C   UNL A   1      44.243  31.517  36.160  1.00  0.00     0.049 A 
ATOM     54  C   UNL A   1      39.641  32.732  33.250  1.00  0.00     0.074 A 
ATOM     55  C   UNL A   1      44.451  32.225  37.331  1.00  0.00     0.029 A 
ATOM     56  N   UNL A   1      43.041  31.965  35.634  1.00  0.00    -0.354 N 
ATOM     57  N   UNL A   1      40.671  32.563  34.044  1.00  0.00    -0.248 NA
ATOM     58  C   UNL A   1      38.640  33.682  33.758  1.00  0.00     0.031 C 
ATOM     59  C   UNL A   1      43.352  33.069  37.537  1.00  0.00     0.029 A 
ATOM     60  C   UNL A   1      42.481  32.918  36.471  1.00  0.00     0.049 A 
ATOM     61  H   UNL A   1      42.643  31.652  34.790  1.00  0.00     0.167 HD
ATOM     62  C   UNL A   1      40.452  33.398  35.135  1.00  0.00     0.074 A 
ATOM     63  C   UNL A   1      39.196  34.080  34.893  1.00  0.00     0.031 C 
ATOM     64  C   UNL A   1      41.225  33.585  36.233  1.00  0.00     0.037 A 
BRANCH  51  65
ATOM     65  C   UNL A   1      46.308  30.070  36.312  1.00  0.00     0.058 A 
ATOM     66  C   UNL A   1      46.261  29.088  37.315  1.00  0.00     0.135 A 
ATOM     67  C   UNL A   1      47.556  30.635  36.005  1.00  0.00     0.135 A 
ATOM     68  F   UNL A   1      45.091  28.524  37.654  1.00  0.00    -0.206 F 
ATOM     69  C   UNL A   1      47.402  28.708  38.014  1.00  0.00     0.059 A 
ATOM     70  C   UNL A   1      48.714  30.253  36.676  1.00  0.00     0.059 A 
ATOM     71  F   UNL A   1      47.657  31.574  35.052  1.00  0.00    -0.206 F 
ATOM     72  C   UNL A   1      48.623  29.303  37.693  1.00  0.00     0.060 A 
BRANCH  72  73
ATOM     73  S   UNL A   1      50.093  28.821  38.624  1.00  0.00     0.124 S 
ATOM     74  O   UNL A   1      51.037  29.864  38.235  1.00  0.00    -0.237 OA
ATOM     75  O   UNL A   1      49.624  28.876  40.005  1.00  0.00    -0.237 OA
ATOM     76  O   UNL A   1      50.390  27.484  38.119  1.00  0.00    -0.744 OA
ENDBRANCH  72  73
ENDBRANCH  51  65
BRANCH  52  77
ATOM     77  C   UNL A   1      38.138  32.454  31.149  1.00  0.00     0.058 A 
ATOM     78  C   UNL A   1      38.162  33.467  30.180  1.00  0.00     0.135 A 
ATOM     79  C   UNL A   1      36.931  31.770  31.356  1.00  0.00     0.135 A 
ATOM     80  F   UNL A   1      39.292  34.155  29.958  1.00  0.00    -0.206 F 
ATOM     81  C   UNL A   1      37.031  33.789  29.439  1.00  0.00     0.059 A 
ATOM     82  C   UNL A   1      35.791  32.060  30.613  1.00  0.00     0.059 A 
ATOM     83  F   UNL A   1      36.862  30.786  32.266  1.00  0.00    -0.206 F 
ATOM     84  C   UNL A   1      35.851  33.075  29.659  1.00  0.00     0.060 A 
BRANCH  84  85
ATOM     85  S   UNL A   1      34.409  33.444  28.635  1.00  0.00     0.124 S 
ATOM     86  O   UNL A   1      35.004  34.231  27.561  1.00  0.00    -0.237 OA
ATOM     87  O   UNL A   1      33.945  32.110  28.268  1.00  0.00    -0.237 OA
ATOM     88  O   UNL A   1      33.532  34.175  29.545  1.00  0.00    -0.744 OA
ENDBRANCH  84  85
ENDBRANCH  52  77
BRANCH  64  89
ATOM     89  C   UNL A   1      40.744  34.576  37.258  1.00  0.00     0.058 A 
ATOM     90  C   UNL A   1      41.141  35.923  37.222  1.00  0.00     0.135 A 
ATOM     91  C   UNL A   1      39.847  34.186  38.266  1.00  0.00     0.135 A 
ATOM     92  F   UNL A   1      42.002  36.347  36.284  1.00  0.00    -0.206 F 
ATOM     93  C   UNL A   1      40.686  36.841  38.163  1.00  0.00     0.059 A 
ATOM     94  C   UNL A   1      39.361  35.092  39.204  1.00  0.00     0.059 A 
ATOM     95  F   UNL A   1      39.427  32.912  38.340  1.00  0.00    -0.206 F 
ATOM     96  C   UNL A   1      39.796  36.416  39.152  1.00  0.00     0.060 A 
BRANCH  96  97
ATOM     97  S   UNL A   1      39.193  37.620  40.356  1.00  0.00     0.124 S 
ATOM     98  O   UNL A   1      38.621  36.751  41.379  1.00  0.00    -0.237 OA
ATOM     99  O   UNL A   1      40.414  38.326  40.735  1.00  0.00    -0.237 OA
ATOM    100  O   UNL A   1      38.232  38.410  39.593  1.00  0.00    -0.744 OA
ENDBRANCH  96  97
ENDBRANCH  64  89
ENDBRANCH  38  39
ENDBRANCH  31  33
ENDBRANCH  30  31
ENDBRANCH  29  30
ENDBRANCH  28  29
ENDBRANCH  27  28
ENDBRANCH   1  27
TORSDOF 23
ENDMDL
