MODEL 1
REMARK VINA RESULT:     -10.2      0.000      0.000
REMARK SMILES O=C(OCCOCCOC(=O)[C@@H]1[C@@H](C(=O)N2CC[NH+](C/C=C/c3ccccc3)CC2)[C@@H]2C=C[C@H]1C2)c1ccc(-c2c3nc(c(-c4c(F)cc(S(=O)(=O)[O-])cc4F)c4ccc([nH]4)c(-c4c(F)cc(S(=O)(=O)[O-])cc4F)c4nc(c(-c5c(F)cc(S(=O)(=O)[O-])cc5F)c5ccc2[nH]5)C=C4)C=C3)cc1
REMARK SMILES IDX 7 1 6 2 5 3 4 4 3 5 2 6 1 7 36 8 37 9 101 10 38 11 100 12
REMARK SMILES IDX 39 13 40 14 41 15 94 16 42 17 99 18 93 19 95 20 43 21 98 22
REMARK SMILES IDX 92 23 91 24 44 26 78 27 57 28 77 29 58 30 61 31 76 32 96 33
REMARK SMILES IDX 59 34 60 35 75 37 97 38 62 39 45 40 46 41 55 42 47 43 48 44
REMARK SMILES IDX 54 45 56 46 49 47 50 48 51 49 52 50 53 51 79 52 80 53 89 54
REMARK SMILES IDX 81 55 82 56 88 57 90 58 83 59 84 60 85 61 86 62 87 63 63 64
REMARK SMILES IDX 64 65 73 66 65 67 66 68 72 69 74 70 67 71 68 72 69 73 70 74
REMARK SMILES IDX 71 75 8 76 9 77 10 78 11 79 12 80 13 81 34 82 31 83 33 84
REMARK SMILES IDX 35 85 32 86 14 87 15 88 16 89 17 90 30 91 18 92 29 93 19 94
REMARK SMILES IDX 20 96 21 97 22 98 23 99 24 100 28 101 25 102 27 103 26 104
REMARK H PARENT 95 25 61 36 19 95
REMARK Flexibility Score: inf
ROOT
ATOM      1  C   UNL A   1      43.925  39.890  28.118  1.00  0.00     0.202 C 
ENDROOT
BRANCH   1   2
ATOM      2  O   UNL A   1      44.384  38.566  28.399  1.00  0.00    -0.374 OA
BRANCH   2   3
ATOM      3  C   UNL A   1      45.298  38.390  29.476  1.00  0.00     0.202 C 
BRANCH   3   4
ATOM      4  C   UNL A   1      46.801  38.261  29.198  1.00  0.00     0.261 C 
BRANCH   4   5
ATOM      5  O   UNL A   1      47.061  37.651  27.913  1.00  0.00    -0.460 OA
BRANCH   5   6
ATOM      6  C   UNL A   1      47.978  36.675  27.658  1.00  0.00     0.338 C 
ATOM      7  O   UNL A   1      49.130  36.972  27.362  1.00  0.00    -0.246 OA
BRANCH   6   8
ATOM      8  C   UNL A   1      47.588  35.246  27.749  1.00  0.00     0.060 A 
ATOM      9  C   UNL A   1      47.198  34.554  26.619  1.00  0.00     0.016 A 
ATOM     10  C   UNL A   1      47.621  34.546  28.952  1.00  0.00     0.016 A 
ATOM     11  C   UNL A   1      46.639  33.317  26.649  1.00  0.00     0.010 A 
ATOM     12  C   UNL A   1      47.219  33.199  28.979  1.00  0.00     0.010 A 
ATOM     13  C   UNL A   1      46.714  32.595  27.816  1.00  0.00    -0.014 A 
BRANCH  13  14
ATOM     14  C   UNL A   1      46.142  31.252  27.702  1.00  0.00     0.031 A 
ATOM     15  C   UNL A   1      47.075  30.133  27.391  1.00  0.00     0.074 A 
ATOM     16  C   UNL A   1      44.894  31.047  28.179  1.00  0.00     0.049 A 
ATOM     17  N   UNL A   1      46.807  28.874  27.216  1.00  0.00    -0.248 NA
ATOM     18  C   UNL A   1      48.508  30.472  27.277  1.00  0.00     0.031 C 
ATOM     19  C   UNL A   1      44.011  32.094  28.725  1.00  0.00     0.029 A 
ATOM     20  N   UNL A   1      44.180  29.899  28.369  1.00  0.00    -0.354 N 
ATOM     21  C   UNL A   1      48.021  28.278  26.913  1.00  0.00     0.074 A 
ATOM     22  C   UNL A   1      49.035  29.304  26.944  1.00  0.00     0.031 C 
ATOM     23  C   UNL A   1      42.907  31.528  29.232  1.00  0.00     0.029 A 
ATOM     24  C   UNL A   1      42.941  30.107  28.931  1.00  0.00     0.049 A 
ATOM     25  H   UNL A   1      44.520  29.007  28.126  1.00  0.00     0.167 HD
ATOM     26  C   UNL A   1      48.239  26.980  26.617  1.00  0.00     0.037 A 
ATOM     27  C   UNL A   1      41.925  29.245  29.110  1.00  0.00     0.037 A 
ATOM     28  C   UNL A   1      47.183  26.005  26.622  1.00  0.00     0.049 A 
ATOM     29  C   UNL A   1      42.161  27.833  28.655  1.00  0.00     0.074 A 
ATOM     30  C   UNL A   1      47.217  24.686  26.221  1.00  0.00     0.029 A 
ATOM     31  N   UNL A   1      45.893  26.260  27.077  1.00  0.00    -0.354 N 
ATOM     32  N   UNL A   1      43.270  27.295  28.195  1.00  0.00    -0.248 NA
ATOM     33  C   UNL A   1      41.018  26.920  28.705  1.00  0.00     0.031 C 
ATOM     34  C   UNL A   1      45.935  24.152  26.398  1.00  0.00     0.029 A 
ATOM     35  C   UNL A   1      45.117  25.124  26.958  1.00  0.00     0.049 A 
ATOM     36  H   UNL A   1      45.579  27.123  27.430  1.00  0.00     0.167 HD
ATOM     37  C   UNL A   1      42.957  25.977  27.898  1.00  0.00     0.074 A 
ATOM     38  C   UNL A   1      41.566  25.794  28.269  1.00  0.00     0.031 C 
ATOM     39  C   UNL A   1      43.734  25.008  27.354  1.00  0.00     0.037 A 
BRANCH  26  40
ATOM     40  C   UNL A   1      49.620  26.599  26.183  1.00  0.00     0.058 A 
ATOM     41  C   UNL A   1      50.583  26.118  27.083  1.00  0.00     0.135 A 
ATOM     42  C   UNL A   1      50.000  26.762  24.841  1.00  0.00     0.135 A 
ATOM     43  F   UNL A   1      50.288  25.994  28.386  1.00  0.00    -0.206 F 
ATOM     44  C   UNL A   1      51.877  25.814  26.668  1.00  0.00     0.059 A 
ATOM     45  C   UNL A   1      51.281  26.445  24.399  1.00  0.00     0.059 A 
ATOM     46  F   UNL A   1      49.127  27.251  23.946  1.00  0.00    -0.206 F 
ATOM     47  C   UNL A   1      52.214  25.979  25.323  1.00  0.00     0.060 A 
BRANCH  47  48
ATOM     48  S   UNL A   1      53.891  25.569  24.796  1.00  0.00     0.124 S 
ATOM     49  O   UNL A   1      54.688  26.176  25.858  1.00  0.00    -0.237 OA
ATOM     50  O   UNL A   1      53.863  24.110  24.781  1.00  0.00    -0.237 OA
ATOM     51  O   UNL A   1      54.003  26.204  23.487  1.00  0.00    -0.744 OA
ENDBRANCH  47  48
ENDBRANCH  26  40
BRANCH  27  52
ATOM     52  C   UNL A   1      40.597  29.710  29.601  1.00  0.00     0.058 A 
ATOM     53  C   UNL A   1      39.515  29.915  28.732  1.00  0.00     0.135 A 
ATOM     54  C   UNL A   1      40.391  30.001  30.963  1.00  0.00     0.135 A 
ATOM     55  F   UNL A   1      39.651  29.657  27.423  1.00  0.00    -0.206 F 
ATOM     56  C   UNL A   1      38.298  30.421  29.185  1.00  0.00     0.059 A 
ATOM     57  C   UNL A   1      39.174  30.473  31.444  1.00  0.00     0.059 A 
ATOM     58  F   UNL A   1      41.383  29.820  31.850  1.00  0.00    -0.206 F 
ATOM     59  C   UNL A   1      38.140  30.705  30.543  1.00  0.00     0.060 A 
BRANCH  59  60
ATOM     60  S   UNL A   1      36.570  31.383  31.122  1.00  0.00     0.124 S 
ATOM     61  O   UNL A   1      37.011  32.591  31.812  1.00  0.00    -0.237 OA
ATOM     62  O   UNL A   1      35.841  31.590  29.875  1.00  0.00    -0.237 OA
ATOM     63  O   UNL A   1      36.043  30.325  31.979  1.00  0.00    -0.744 OA
ENDBRANCH  59  60
ENDBRANCH  27  52
BRANCH  39  64
ATOM     64  C   UNL A   1      43.085  23.671  27.166  1.00  0.00     0.058 A 
ATOM     65  C   UNL A   1      42.554  23.285  25.927  1.00  0.00     0.135 A 
ATOM     66  C   UNL A   1      43.028  22.762  28.231  1.00  0.00     0.135 A 
ATOM     67  F   UNL A   1      42.580  24.130  24.884  1.00  0.00    -0.206 F 
ATOM     68  C   UNL A   1      41.954  22.045  25.760  1.00  0.00     0.059 A 
ATOM     69  C   UNL A   1      42.462  21.505  28.077  1.00  0.00     0.059 A 
ATOM     70  F   UNL A   1      43.537  23.089  29.430  1.00  0.00    -0.206 F 
ATOM     71  C   UNL A   1      41.913  21.163  26.841  1.00  0.00     0.060 A 
BRANCH  71  72
ATOM     72  S   UNL A   1      41.152  19.545  26.606  1.00  0.00     0.124 S 
ATOM     73  O   UNL A   1      40.909  19.134  27.985  1.00  0.00    -0.237 OA
ATOM     74  O   UNL A   1      39.965  19.869  25.820  1.00  0.00    -0.237 OA
ATOM     75  O   UNL A   1      42.179  18.789  25.895  1.00  0.00    -0.744 OA
ENDBRANCH  71  72
ENDBRANCH  39  64
ENDBRANCH  13  14
ENDBRANCH   6   8
ENDBRANCH   5   6
ENDBRANCH   4   5
ENDBRANCH   3   4
ENDBRANCH   2   3
ENDBRANCH   1   2
BRANCH   1  76
ATOM     76  C   UNL A   1      44.112  40.747  29.363  1.00  0.00     0.261 C 
BRANCH  76  77
ATOM     77  O   UNL A   1      44.239  42.103  28.916  1.00  0.00    -0.463 OA
BRANCH  77  78
ATOM     78  C   UNL A   1      45.378  42.372  28.225  1.00  0.00     0.310 C 
ATOM     79  O   UNL A   1      46.407  41.707  28.261  1.00  0.00    -0.252 OA
BRANCH  78  80
ATOM     80  C   UNL A   1      45.226  43.602  27.374  1.00  0.00     0.119 C 
ATOM     81  C   UNL A   1      45.949  43.386  26.022  1.00  0.00     0.100 C 
ATOM     82  C   UNL A   1      45.755  44.987  27.833  1.00  0.00     0.027 C 
ATOM     83  C   UNL A   1      46.710  44.736  25.847  1.00  0.00     0.025 C 
ATOM     84  C   UNL A   1      47.257  44.981  28.047  1.00  0.00    -0.027 C 
ATOM     85  C   UNL A   1      45.749  45.733  26.502  1.00  0.00     0.017 C 
ATOM     86  C   UNL A   1      47.828  44.790  26.853  1.00  0.00    -0.027 C 
BRANCH  81  87
ATOM     87  C   UNL A   1      44.852  43.151  25.023  1.00  0.00     0.227 C 
ATOM     88  O   UNL A   1      43.726  42.763  25.322  1.00  0.00    -0.275 OA
ATOM     89  N   UNL A   1      45.197  43.525  23.759  1.00  0.00    -0.331 N 
ATOM     90  C   UNL A   1      44.263  44.362  23.032  1.00  0.00     0.181 C 
ATOM     91  C   UNL A   1      46.216  42.773  23.040  1.00  0.00     0.181 C 
ATOM     92  C   UNL A   1      44.964  45.130  21.912  1.00  0.00     0.284 C 
ATOM     93  C   UNL A   1      46.814  43.566  21.873  1.00  0.00     0.284 C 
ATOM     94  N   UNL A   1      45.847  44.315  21.054  1.00  0.00    -0.329 N 
ATOM     95  H   UNL A   1      46.392  44.953  20.474  1.00  0.00     0.348 HD
BRANCH  94  96
ATOM     96  C   UNL A   1      45.130  43.514  20.056  1.00  0.00     0.291 C 
BRANCH  96  97
ATOM     97  C   UNL A   1      44.304  44.248  19.036  1.00  0.00     0.034 C 
ATOM     98  C   UNL A   1      44.752  45.277  18.298  1.00  0.00     0.009 C 
BRANCH  98  99
ATOM     99  C   UNL A   1      43.881  46.140  17.484  1.00  0.00    -0.026 A 
ATOM    100  C   UNL A   1      44.197  47.491  17.333  1.00  0.00     0.008 A 
ATOM    101  C   UNL A   1      42.653  45.677  16.985  1.00  0.00     0.008 A 
ATOM    102  C   UNL A   1      43.306  48.360  16.696  1.00  0.00     0.001 A 
ATOM    103  C   UNL A   1      41.753  46.548  16.369  1.00  0.00     0.001 A 
ATOM    104  C   UNL A   1      42.080  47.891  16.224  1.00  0.00     0.000 A 
ENDBRANCH  98  99
ENDBRANCH  96  97
ENDBRANCH  94  96
ENDBRANCH  81  87
ENDBRANCH  78  80
ENDBRANCH  77  78
ENDBRANCH  76  77
ENDBRANCH   1  76
TORSDOF 21
ENDMDL
MODEL 2
REMARK VINA RESULT:     -10.1      6.953     14.446
REMARK SMILES O=C(OCCOCCOC(=O)[C@@H]1[C@@H](C(=O)N2CC[NH+](C/C=C/c3ccccc3)CC2)[C@@H]2C=C[C@H]1C2)c1ccc(-c2c3nc(c(-c4c(F)cc(S(=O)(=O)[O-])cc4F)c4ccc([nH]4)c(-c4c(F)cc(S(=O)(=O)[O-])cc4F)c4nc(c(-c5c(F)cc(S(=O)(=O)[O-])cc5F)c5ccc2[nH]5)C=C4)C=C3)cc1
REMARK SMILES IDX 7 1 6 2 5 3 4 4 3 5 2 6 1 7 36 8 37 9 101 10 38 11 100 12
REMARK SMILES IDX 39 13 40 14 41 15 94 16 42 17 99 18 93 19 95 20 43 21 98 22
REMARK SMILES IDX 92 23 91 24 44 26 78 27 57 28 77 29 58 30 61 31 76 32 96 33
REMARK SMILES IDX 59 34 60 35 75 37 97 38 62 39 45 40 46 41 55 42 47 43 48 44
REMARK SMILES IDX 54 45 56 46 49 47 50 48 51 49 52 50 53 51 79 52 80 53 89 54
REMARK SMILES IDX 81 55 82 56 88 57 90 58 83 59 84 60 85 61 86 62 87 63 63 64
REMARK SMILES IDX 64 65 73 66 65 67 66 68 72 69 74 70 67 71 68 72 69 73 70 74
REMARK SMILES IDX 71 75 8 76 9 77 10 78 11 79 12 80 13 81 34 82 31 83 33 84
REMARK SMILES IDX 35 85 32 86 14 87 15 88 16 89 17 90 30 91 18 92 29 93 19 94
REMARK SMILES IDX 20 96 21 97 22 98 23 99 24 100 28 101 25 102 27 103 26 104
REMARK H PARENT 95 25 61 36 19 95
REMARK Flexibility Score: inf
ROOT
ATOM      1  C   UNL A   1      33.984  35.162  31.130  1.00  0.00     0.202 C 
ENDROOT
BRANCH   1   2
ATOM      2  O   UNL A   1      33.074  34.592  32.072  1.00  0.00    -0.374 OA
BRANCH   2   3
ATOM      3  C   UNL A   1      33.616  33.962  33.228  1.00  0.00     0.202 C 
BRANCH   3   4
ATOM      4  C   UNL A   1      35.002  34.366  33.748  1.00  0.00     0.261 C 
BRANCH   4   5
ATOM      5  O   UNL A   1      35.649  33.284  34.454  1.00  0.00    -0.460 OA
BRANCH   5   6
ATOM      6  C   UNL A   1      36.780  33.380  35.210  1.00  0.00     0.338 C 
ATOM      7  O   UNL A   1      36.707  33.385  36.433  1.00  0.00    -0.246 OA
BRANCH   6   8
ATOM      8  C   UNL A   1      38.108  33.468  34.553  1.00  0.00     0.060 A 
ATOM      9  C   UNL A   1      38.329  34.379  33.539  1.00  0.00     0.016 A 
ATOM     10  C   UNL A   1      39.179  32.666  34.941  1.00  0.00     0.016 A 
ATOM     11  C   UNL A   1      39.440  34.384  32.759  1.00  0.00     0.010 A 
ATOM     12  C   UNL A   1      40.406  32.780  34.267  1.00  0.00     0.010 A 
ATOM     13  C   UNL A   1      40.522  33.638  33.161  1.00  0.00    -0.014 A 
BRANCH  13  14
ATOM     14  C   UNL A   1      41.683  33.781  32.279  1.00  0.00     0.031 A 
ATOM     15  C   UNL A   1      42.571  34.956  32.500  1.00  0.00     0.074 A 
ATOM     16  C   UNL A   1      42.057  32.714  31.539  1.00  0.00     0.049 A 
ATOM     17  N   UNL A   1      43.633  35.310  31.839  1.00  0.00    -0.248 NA
ATOM     18  C   UNL A   1      42.232  35.846  33.628  1.00  0.00     0.031 C 
ATOM     19  C   UNL A   1      41.333  31.430  31.471  1.00  0.00     0.029 A 
ATOM     20  N   UNL A   1      43.169  32.492  30.778  1.00  0.00    -0.354 N 
ATOM     21  C   UNL A   1      44.056  36.491  32.428  1.00  0.00     0.074 A 
ATOM     22  C   UNL A   1      43.152  36.791  33.511  1.00  0.00     0.031 C 
ATOM     23  C   UNL A   1      42.050  30.551  30.758  1.00  0.00     0.029 A 
ATOM     24  C   UNL A   1      43.207  31.239  30.211  1.00  0.00     0.049 A 
ATOM     25  H   UNL A   1      43.876  33.165  30.648  1.00  0.00     0.167 HD
ATOM     26  C   UNL A   1      45.105  37.254  32.058  1.00  0.00     0.037 A 
ATOM     27  C   UNL A   1      44.052  30.738  29.293  1.00  0.00     0.037 A 
ATOM     28  C   UNL A   1      45.978  36.885  30.977  1.00  0.00     0.049 A 
ATOM     29  C   UNL A   1      45.137  31.660  28.813  1.00  0.00     0.074 A 
ATOM     30  C   UNL A   1      47.000  37.610  30.401  1.00  0.00     0.029 A 
ATOM     31  N   UNL A   1      45.927  35.659  30.322  1.00  0.00    -0.354 N 
ATOM     32  N   UNL A   1      45.440  32.865  29.246  1.00  0.00    -0.248 NA
ATOM     33  C   UNL A   1      45.972  31.185  27.708  1.00  0.00     0.031 C 
ATOM     34  C   UNL A   1      47.544  36.835  29.369  1.00  0.00     0.029 A 
ATOM     35  C   UNL A   1      46.895  35.608  29.338  1.00  0.00     0.049 A 
ATOM     36  H   UNL A   1      45.294  34.934  30.528  1.00  0.00     0.167 HD
ATOM     37  C   UNL A   1      46.501  33.294  28.465  1.00  0.00     0.074 A 
ATOM     38  C   UNL A   1      46.810  32.201  27.560  1.00  0.00     0.031 C 
ATOM     39  C   UNL A   1      47.154  34.482  28.473  1.00  0.00     0.037 A 
BRANCH  26  40
ATOM     40  C   UNL A   1      45.279  38.565  32.760  1.00  0.00     0.058 A 
ATOM     41  C   UNL A   1      46.124  38.714  33.870  1.00  0.00     0.135 A 
ATOM     42  C   UNL A   1      44.550  39.687  32.334  1.00  0.00     0.135 A 
ATOM     43  F   UNL A   1      46.803  37.661  34.350  1.00  0.00    -0.206 F 
ATOM     44  C   UNL A   1      46.235  39.931  34.538  1.00  0.00     0.059 A 
ATOM     45  C   UNL A   1      44.661  40.917  32.974  1.00  0.00     0.059 A 
ATOM     46  F   UNL A   1      43.703  39.588  31.298  1.00  0.00    -0.206 F 
ATOM     47  C   UNL A   1      45.501  41.027  34.080  1.00  0.00     0.060 A 
BRANCH  47  48
ATOM     48  S   UNL A   1      45.666  42.601  34.947  1.00  0.00     0.124 S 
ATOM     49  O   UNL A   1      46.385  43.404  33.962  1.00  0.00    -0.237 OA
ATOM     50  O   UNL A   1      44.274  42.977  35.175  1.00  0.00    -0.237 OA
ATOM     51  O   UNL A   1      46.423  42.253  36.145  1.00  0.00    -0.744 OA
ENDBRANCH  47  48
ENDBRANCH  26  40
BRANCH  27  52
ATOM     52  C   UNL A   1      43.826  29.394  28.688  1.00  0.00     0.058 A 
ATOM     53  C   UNL A   1      43.052  29.222  27.532  1.00  0.00     0.135 A 
ATOM     54  C   UNL A   1      44.356  28.235  29.285  1.00  0.00     0.135 A 
ATOM     55  F   UNL A   1      42.518  30.289  26.918  1.00  0.00    -0.206 F 
ATOM     56  C   UNL A   1      42.781  27.957  27.013  1.00  0.00     0.059 A 
ATOM     57  C   UNL A   1      44.130  26.965  28.766  1.00  0.00     0.059 A 
ATOM     58  F   UNL A   1      45.113  28.330  30.391  1.00  0.00    -0.206 F 
ATOM     59  C   UNL A   1      43.319  26.833  27.643  1.00  0.00     0.060 A 
BRANCH  59  60
ATOM     60  S   UNL A   1      42.948  25.194  26.983  1.00  0.00     0.124 S 
ATOM     61  O   UNL A   1      44.221  24.508  27.174  1.00  0.00    -0.237 OA
ATOM     62  O   UNL A   1      41.851  24.754  27.840  1.00  0.00    -0.237 OA
ATOM     63  O   UNL A   1      42.580  25.465  25.597  1.00  0.00    -0.744 OA
ENDBRANCH  59  60
ENDBRANCH  27  52
BRANCH  39  64
ATOM     64  C   UNL A   1      48.275  34.626  27.491  1.00  0.00     0.058 A 
ATOM     65  C   UNL A   1      48.045  35.057  26.177  1.00  0.00     0.135 A 
ATOM     66  C   UNL A   1      49.594  34.358  27.886  1.00  0.00     0.135 A 
ATOM     67  F   UNL A   1      46.796  35.315  25.757  1.00  0.00    -0.206 F 
ATOM     68  C   UNL A   1      49.088  35.188  25.272  1.00  0.00     0.059 A 
ATOM     69  C   UNL A   1      50.655  34.513  27.007  1.00  0.00     0.059 A 
ATOM     70  F   UNL A   1      49.858  33.955  29.139  1.00  0.00    -0.206 F 
ATOM     71  C   UNL A   1      50.390  34.913  25.697  1.00  0.00     0.060 A 
BRANCH  71  72
ATOM     72  S   UNL A   1      51.741  35.109  24.519  1.00  0.00     0.124 S 
ATOM     73  O   UNL A   1      52.869  35.361  25.409  1.00  0.00    -0.237 OA
ATOM     74  O   UNL A   1      51.747  33.820  23.834  1.00  0.00    -0.237 OA
ATOM     75  O   UNL A   1      51.316  36.244  23.704  1.00  0.00    -0.744 OA
ENDBRANCH  71  72
ENDBRANCH  39  64
ENDBRANCH  13  14
ENDBRANCH   6   8
ENDBRANCH   5   6
ENDBRANCH   4   5
ENDBRANCH   3   4
ENDBRANCH   2   3
ENDBRANCH   1   2
BRANCH   1  76
ATOM     76  C   UNL A   1      34.026  34.278  29.891  1.00  0.00     0.261 C 
BRANCH  76  77
ATOM     77  O   UNL A   1      35.314  33.651  29.874  1.00  0.00    -0.463 OA
BRANCH  77  78
ATOM     78  C   UNL A   1      35.716  33.203  28.656  1.00  0.00     0.310 C 
ATOM     79  O   UNL A   1      35.425  33.711  27.579  1.00  0.00    -0.252 OA
BRANCH  78  80
ATOM     80  C   UNL A   1      36.595  31.989  28.780  1.00  0.00     0.119 C 
ATOM     81  C   UNL A   1      35.714  30.734  28.991  1.00  0.00     0.100 C 
ATOM     82  C   UNL A   1      37.659  31.859  29.902  1.00  0.00     0.027 C 
ATOM     83  C   UNL A   1      36.469  30.003  30.144  1.00  0.00     0.025 C 
ATOM     84  C   UNL A   1      37.036  31.893  31.285  1.00  0.00    -0.027 C 
ATOM     85  C   UNL A   1      37.930  30.359  29.845  1.00  0.00     0.017 C 
ATOM     86  C   UNL A   1      36.289  30.793  31.412  1.00  0.00    -0.027 C 
BRANCH  81  87
ATOM     87  C   UNL A   1      35.734  30.013  27.673  1.00  0.00     0.227 C 
ATOM     88  O   UNL A   1      36.763  29.710  27.075  1.00  0.00    -0.275 OA
ATOM     89  N   UNL A   1      34.495  29.625  27.263  1.00  0.00    -0.331 N 
ATOM     90  C   UNL A   1      34.334  28.250  26.832  1.00  0.00     0.181 C 
ATOM     91  C   UNL A   1      33.520  30.633  26.866  1.00  0.00     0.181 C 
ATOM     92  C   UNL A   1      32.874  27.808  26.922  1.00  0.00     0.284 C 
ATOM     93  C   UNL A   1      32.084  30.099  26.891  1.00  0.00     0.284 C 
ATOM     94  N   UNL A   1      31.900  28.749  26.333  1.00  0.00    -0.329 N 
ATOM     95  H   UNL A   1      30.967  28.445  26.613  1.00  0.00     0.348 HD
BRANCH  94  96
ATOM     96  C   UNL A   1      31.828  28.689  24.869  1.00  0.00     0.291 C 
BRANCH  96  97
ATOM     97  C   UNL A   1      31.039  29.759  24.166  1.00  0.00     0.034 C 
ATOM     98  C   UNL A   1      29.732  29.666  23.872  1.00  0.00     0.009 C 
BRANCH  98  99
ATOM     99  C   UNL A   1      29.025  30.599  22.980  1.00  0.00    -0.026 A 
ATOM    100  C   UNL A   1      28.610  30.168  21.719  1.00  0.00     0.008 A 
ATOM    101  C   UNL A   1      28.897  31.960  23.301  1.00  0.00     0.008 A 
ATOM    102  C   UNL A   1      28.078  31.077  20.799  1.00  0.00     0.001 A 
ATOM    103  C   UNL A   1      28.386  32.872  22.376  1.00  0.00     0.001 A 
ATOM    104  C   UNL A   1      27.976  32.430  21.123  1.00  0.00     0.000 A 
ENDBRANCH  98  99
ENDBRANCH  96  97
ENDBRANCH  94  96
ENDBRANCH  81  87
ENDBRANCH  78  80
ENDBRANCH  77  78
ENDBRANCH  76  77
ENDBRANCH   1  76
TORSDOF 21
ENDMDL
MODEL 3
REMARK VINA RESULT:     -10.1      6.602     13.020
REMARK SMILES O=C(OCCOCCOC(=O)[C@@H]1[C@@H](C(=O)N2CC[NH+](C/C=C/c3ccccc3)CC2)[C@@H]2C=C[C@H]1C2)c1ccc(-c2c3nc(c(-c4c(F)cc(S(=O)(=O)[O-])cc4F)c4ccc([nH]4)c(-c4c(F)cc(S(=O)(=O)[O-])cc4F)c4nc(c(-c5c(F)cc(S(=O)(=O)[O-])cc5F)c5ccc2[nH]5)C=C4)C=C3)cc1
REMARK SMILES IDX 7 1 6 2 5 3 4 4 3 5 2 6 1 7 36 8 37 9 101 10 38 11 100 12
REMARK SMILES IDX 39 13 40 14 41 15 94 16 42 17 99 18 93 19 95 20 43 21 98 22
REMARK SMILES IDX 92 23 91 24 44 26 78 27 57 28 77 29 58 30 61 31 76 32 96 33
REMARK SMILES IDX 59 34 60 35 75 37 97 38 62 39 45 40 46 41 55 42 47 43 48 44
REMARK SMILES IDX 54 45 56 46 49 47 50 48 51 49 52 50 53 51 79 52 80 53 89 54
REMARK SMILES IDX 81 55 82 56 88 57 90 58 83 59 84 60 85 61 86 62 87 63 63 64
REMARK SMILES IDX 64 65 73 66 65 67 66 68 72 69 74 70 67 71 68 72 69 73 70 74
REMARK SMILES IDX 71 75 8 76 9 77 10 78 11 79 12 80 13 81 34 82 31 83 33 84
REMARK SMILES IDX 35 85 32 86 14 87 15 88 16 89 17 90 30 91 18 92 29 93 19 94
REMARK SMILES IDX 20 96 21 97 22 98 23 99 24 100 28 101 25 102 27 103 26 104
REMARK H PARENT 95 25 61 36 19 95
REMARK Flexibility Score: inf
ROOT
ATOM      1  C   UNL A   1      35.365  33.989  33.675  1.00  0.00     0.202 C 
ENDROOT
BRANCH   1   2
ATOM      2  O   UNL A   1      36.540  33.390  33.127  1.00  0.00    -0.374 OA
BRANCH   2   3
ATOM      3  C   UNL A   1      36.378  32.428  32.090  1.00  0.00     0.202 C 
BRANCH   3   4
ATOM      4  C   UNL A   1      36.499  30.931  32.402  1.00  0.00     0.261 C 
BRANCH   4   5
ATOM      5  O   UNL A   1      36.079  30.112  31.287  1.00  0.00    -0.460 OA
BRANCH   5   6
ATOM      6  C   UNL A   1      36.348  30.346  29.972  1.00  0.00     0.338 C 
ATOM      7  O   UNL A   1      35.539  30.945  29.272  1.00  0.00    -0.246 OA
BRANCH   6   8
ATOM      8  C   UNL A   1      37.630  29.885  29.382  1.00  0.00     0.060 A 
ATOM      9  C   UNL A   1      38.560  29.224  30.158  1.00  0.00     0.016 A 
ATOM     10  C   UNL A   1      37.934  30.075  28.036  1.00  0.00     0.016 A 
ATOM     11  C   UNL A   1      39.826  28.952  29.751  1.00  0.00     0.010 A 
ATOM     12  C   UNL A   1      39.174  29.636  27.540  1.00  0.00     0.010 A 
ATOM     13  C   UNL A   1      40.123  29.084  28.416  1.00  0.00    -0.014 A 
BRANCH  13  14
ATOM     14  C   UNL A   1      41.497  28.694  28.088  1.00  0.00     0.031 A 
ATOM     15  C   UNL A   1      42.571  29.696  28.335  1.00  0.00     0.074 A 
ATOM     16  C   UNL A   1      41.756  27.384  27.880  1.00  0.00     0.049 A 
ATOM     17  N   UNL A   1      43.846  29.597  28.104  1.00  0.00    -0.248 NA
ATOM     18  C   UNL A   1      42.161  30.978  28.943  1.00  0.00     0.031 C 
ATOM     19  C   UNL A   1      40.746  26.310  27.863  1.00  0.00     0.029 A 
ATOM     20  N   UNL A   1      42.936  26.713  27.734  1.00  0.00    -0.354 N 
ATOM     21  C   UNL A   1      44.384  30.818  28.478  1.00  0.00     0.074 A 
ATOM     22  C   UNL A   1      43.306  31.641  28.971  1.00  0.00     0.031 C 
ATOM     23  C   UNL A   1      41.359  25.122  27.770  1.00  0.00     0.029 A 
ATOM     24  C   UNL A   1      42.782  25.353  27.587  1.00  0.00     0.049 A 
ATOM     25  H   UNL A   1      43.814  27.160  27.734  1.00  0.00     0.167 HD
ATOM     26  C   UNL A   1      45.674  31.200  28.387  1.00  0.00     0.037 A 
ATOM     27  C   UNL A   1      43.691  24.416  27.268  1.00  0.00     0.037 A 
ATOM     28  C   UNL A   1      46.703  30.321  27.903  1.00  0.00     0.049 A 
ATOM     29  C   UNL A   1      45.098  24.899  27.054  1.00  0.00     0.074 A 
ATOM     30  C   UNL A   1      48.025  30.599  27.630  1.00  0.00     0.029 A 
ATOM     31  N   UNL A   1      46.506  28.970  27.635  1.00  0.00    -0.354 N 
ATOM     32  N   UNL A   1      45.587  26.106  27.237  1.00  0.00    -0.248 NA
ATOM     33  C   UNL A   1      46.068  23.920  26.561  1.00  0.00     0.031 C 
ATOM     34  C   UNL A   1      48.621  29.422  27.161  1.00  0.00     0.029 A 
ATOM     35  C   UNL A   1      47.682  28.400  27.190  1.00  0.00     0.049 A 
ATOM     36  H   UNL A   1      45.653  28.490  27.746  1.00  0.00     0.167 HD
ATOM     37  C   UNL A   1      46.924  26.033  26.880  1.00  0.00     0.074 A 
ATOM     38  C   UNL A   1      47.172  24.651  26.508  1.00  0.00     0.031 C 
ATOM     39  C   UNL A   1      47.862  27.011  26.842  1.00  0.00     0.037 A 
BRANCH  26  40
ATOM     40  C   UNL A   1      45.991  32.624  28.723  1.00  0.00     0.058 A 
ATOM     41  C   UNL A   1      46.339  33.029  30.021  1.00  0.00     0.135 A 
ATOM     42  C   UNL A   1      45.902  33.613  27.730  1.00  0.00     0.135 A 
ATOM     43  F   UNL A   1      46.386  32.133  31.019  1.00  0.00    -0.206 F 
ATOM     44  C   UNL A   1      46.584  34.366  30.323  1.00  0.00     0.059 A 
ATOM     45  C   UNL A   1      46.163  34.952  28.004  1.00  0.00     0.059 A 
ATOM     46  F   UNL A   1      45.540  33.284  26.480  1.00  0.00    -0.206 F 
ATOM     47  C   UNL A   1      46.495  35.319  29.306  1.00  0.00     0.060 A 
BRANCH  47  48
ATOM     48  S   UNL A   1      46.829  37.046  29.710  1.00  0.00     0.124 S 
ATOM     49  O   UNL A   1      48.176  36.963  30.264  1.00  0.00    -0.237 OA
ATOM     50  O   UNL A   1      46.719  37.695  28.407  1.00  0.00    -0.237 OA
ATOM     51  O   UNL A   1      45.778  37.383  30.664  1.00  0.00    -0.744 OA
ENDBRANCH  47  48
ENDBRANCH  26  40
BRANCH  27  52
ATOM     52  C   UNL A   1      43.286  23.006  27.004  1.00  0.00     0.058 A 
ATOM     53  C   UNL A   1      42.978  22.116  28.043  1.00  0.00     0.135 A 
ATOM     54  C   UNL A   1      43.236  22.503  25.691  1.00  0.00     0.135 A 
ATOM     55  F   UNL A   1      43.011  22.537  29.317  1.00  0.00    -0.206 F 
ATOM     56  C   UNL A   1      42.672  20.779  27.796  1.00  0.00     0.059 A 
ATOM     57  C   UNL A   1      42.899  21.182  25.417  1.00  0.00     0.059 A 
ATOM     58  F   UNL A   1      43.512  23.304  24.649  1.00  0.00    -0.206 F 
ATOM     59  C   UNL A   1      42.644  20.319  26.478  1.00  0.00     0.060 A 
BRANCH  59  60
ATOM     60  S   UNL A   1      42.271  18.581  26.161  1.00  0.00     0.124 S 
ATOM     61  O   UNL A   1      42.545  17.982  27.463  1.00  0.00    -0.237 OA
ATOM     62  O   UNL A   1      40.867  18.631  25.765  1.00  0.00    -0.237 OA
ATOM     63  O   UNL A   1      43.202  18.226  25.095  1.00  0.00    -0.744 OA
ENDBRANCH  59  60
ENDBRANCH  27  52
BRANCH  39  64
ATOM     64  C   UNL A   1      49.234  26.593  26.411  1.00  0.00     0.058 A 
ATOM     65  C   UNL A   1      49.695  26.832  25.108  1.00  0.00     0.135 A 
ATOM     66  C   UNL A   1      50.101  25.977  27.324  1.00  0.00     0.135 A 
ATOM     67  F   UNL A   1      48.892  27.411  24.200  1.00  0.00    -0.206 F 
ATOM     68  C   UNL A   1      50.967  26.442  24.715  1.00  0.00     0.059 A 
ATOM     69  C   UNL A   1      51.388  25.608  26.961  1.00  0.00     0.059 A 
ATOM     70  F   UNL A   1      49.702  25.742  28.585  1.00  0.00    -0.206 F 
ATOM     71  C   UNL A   1      51.805  25.831  25.649  1.00  0.00     0.060 A 
BRANCH  71  72
ATOM     72  S   UNL A   1      53.465  25.349  25.133  1.00  0.00     0.124 S 
ATOM     73  O   UNL A   1      53.435  25.679  23.712  1.00  0.00    -0.237 OA
ATOM     74  O   UNL A   1      54.310  26.198  25.966  1.00  0.00    -0.237 OA
ATOM     75  O   UNL A   1      53.515  23.924  25.448  1.00  0.00    -0.744 OA
ENDBRANCH  71  72
ENDBRANCH  39  64
ENDBRANCH  13  14
ENDBRANCH   6   8
ENDBRANCH   5   6
ENDBRANCH   4   5
ENDBRANCH   3   4
ENDBRANCH   2   3
ENDBRANCH   1   2
BRANCH   1  76
ATOM     76  C   UNL A   1      35.547  34.138  35.180  1.00  0.00     0.261 C 
BRANCH  76  77
ATOM     77  O   UNL A   1      36.619  33.264  35.555  1.00  0.00    -0.463 OA
BRANCH  77  78
ATOM     78  C   UNL A   1      37.064  33.420  36.830  1.00  0.00     0.310 C 
ATOM     79  O   UNL A   1      36.460  33.080  37.841  1.00  0.00    -0.252 OA
BRANCH  78  80
ATOM     80  C   UNL A   1      38.424  34.058  36.862  1.00  0.00     0.119 C 
ATOM     81  C   UNL A   1      39.511  32.965  36.717  1.00  0.00     0.100 C 
ATOM     82  C   UNL A   1      38.917  34.876  38.086  1.00  0.00     0.027 C 
ATOM     83  C   UNL A   1      40.533  33.380  37.818  1.00  0.00     0.025 C 
ATOM     84  C   UNL A   1      38.975  34.035  39.348  1.00  0.00    -0.027 C 
ATOM     85  C   UNL A   1      40.416  34.908  37.803  1.00  0.00     0.017 C 
ATOM     86  C   UNL A   1      39.923  33.110  39.167  1.00  0.00    -0.027 C 
BRANCH  81  87
ATOM     87  C   UNL A   1      40.017  33.099  35.309  1.00  0.00     0.227 C 
ATOM     88  O   UNL A   1      39.956  34.137  34.656  1.00  0.00    -0.275 OA
ATOM     89  N   UNL A   1      40.658  31.980  34.868  1.00  0.00    -0.331 N 
ATOM     90  C   UNL A   1      41.956  32.156  34.247  1.00  0.00     0.181 C 
ATOM     91  C   UNL A   1      39.897  30.760  34.636  1.00  0.00     0.181 C 
ATOM     92  C   UNL A   1      42.774  30.866  34.297  1.00  0.00     0.284 C 
ATOM     93  C   UNL A   1      40.788  29.513  34.608  1.00  0.00     0.284 C 
ATOM     94  N   UNL A   1      42.051  29.652  33.866  1.00  0.00    -0.329 N 
ATOM     95  H   UNL A   1      42.624  28.846  34.114  1.00  0.00     0.348 HD
BRANCH  94  96
ATOM     96  C   UNL A   1      41.931  29.520  32.409  1.00  0.00     0.291 C 
BRANCH  96  97
ATOM     97  C   UNL A   1      43.115  28.972  31.661  1.00  0.00     0.034 C 
ATOM     98  C   UNL A   1      44.069  28.204  32.210  1.00  0.00     0.009 C 
BRANCH  98  99
ATOM     99  C   UNL A   1      45.339  27.873  31.543  1.00  0.00    -0.026 A 
ATOM    100  C   UNL A   1      45.593  26.556  31.157  1.00  0.00     0.008 A 
ATOM    101  C   UNL A   1      46.371  28.818  31.426  1.00  0.00     0.008 A 
ATOM    102  C   UNL A   1      46.850  26.192  30.664  1.00  0.00     0.001 A 
ATOM    103  C   UNL A   1      47.633  28.452  30.955  1.00  0.00     0.001 A 
ATOM    104  C   UNL A   1      47.872  27.136  30.574  1.00  0.00     0.000 A 
ENDBRANCH  98  99
ENDBRANCH  96  97
ENDBRANCH  94  96
ENDBRANCH  81  87
ENDBRANCH  78  80
ENDBRANCH  77  78
ENDBRANCH  76  77
ENDBRANCH   1  76
TORSDOF 21
ENDMDL
