MODEL 1
REMARK VINA RESULT:      -9.6      0.000      0.000
REMARK SMILES Cc1nn(C)c(C)c1C(=O)N1CC[C@H](C(=O)OCCOCCOC(=O)c2ccc(-c3c4nc(c(-c5c(F)cc(S(=O)(=O)[O-])cc5F)c5ccc([nH]5)c(-c5c(F)cc(S(=O)(=O)[O-])cc5F)c5nc(c(-c6c(F)cc(S(=O)(=O)[O-])cc6F)c6ccc3[nH]6)C=C5)C=C4)cc2)[C@@H]1C
REMARK SMILES IDX 21 1 20 2 19 3 18 4 17 5 15 6 16 7 14 8 11 9 12 10 92 11
REMARK SMILES IDX 13 12 93 13 9 14 10 15 8 16 1 17 2 18 3 19 4 20 6 21 5 22
REMARK SMILES IDX 7 23 22 24 23 25 24 26 25 27 26 28 27 29 91 30 28 31 90 32
REMARK SMILES IDX 29 33 30 34 31 35 84 36 32 37 89 38 83 39 85 40 33 41 88 42
REMARK SMILES IDX 82 43 81 44 34 46 68 47 47 48 67 49 48 50 51 51 66 52 86 53
REMARK SMILES IDX 49 54 50 55 65 57 87 58 52 59 35 60 36 61 45 62 37 63 38 64
REMARK SMILES IDX 44 65 46 66 39 67 40 68 41 69 42 70 43 71 69 72 70 73 79 74
REMARK SMILES IDX 71 75 72 76 78 77 80 78 73 79 74 80 75 81 76 82 77 83 53 84
REMARK SMILES IDX 54 85 63 86 55 87 56 88 62 89 64 90 57 91 58 92 59 93 60 94
REMARK SMILES IDX 61 95
REMARK H PARENT 85 45 51 56
REMARK Flexibility Score: inf
ROOT
ATOM      1  C   UNL A   1      33.704  34.292  28.325  1.00  0.00     0.202 C 
ENDROOT
BRANCH   1   2
ATOM      2  O   UNL A   1      32.657  35.007  28.964  1.00  0.00    -0.374 OA
BRANCH   2   3
ATOM      3  C   UNL A   1      32.963  36.160  29.737  1.00  0.00     0.202 C 
BRANCH   3   4
ATOM      4  C   UNL A   1      33.243  35.994  31.229  1.00  0.00     0.261 C 
BRANCH   4   5
ATOM      5  O   UNL A   1      32.977  34.661  31.700  1.00  0.00    -0.463 OA
BRANCH   5   6
ATOM      6  C   UNL A   1      34.034  34.017  32.268  1.00  0.00     0.311 C 
ATOM      7  O   UNL A   1      34.078  32.820  32.514  1.00  0.00    -0.252 OA
BRANCH   6   8
ATOM      8  C   UNL A   1      35.126  34.999  32.633  1.00  0.00     0.123 C 
ATOM      9  N   UNL A   1      37.269  34.266  33.372  1.00  0.00    -0.335 N 
ATOM     10  C   UNL A   1      36.327  33.963  34.422  1.00  0.00     0.121 C 
ATOM     11  C   UNL A   1      36.569  34.691  32.157  1.00  0.00     0.096 C 
ATOM     12  C   UNL A   1      35.234  34.988  34.169  1.00  0.00     0.039 C 
ATOM     13  C   UNL A   1      36.766  33.653  31.060  1.00  0.00     0.032 C 
BRANCH   9  14
ATOM     14  C   UNL A   1      38.616  34.026  33.547  1.00  0.00     0.257 C 
ATOM     15  O   UNL A   1      39.438  34.419  32.718  1.00  0.00    -0.269 OA
BRANCH  14  16
ATOM     16  C   UNL A   1      39.039  33.216  34.688  1.00  0.00     0.083 A 
ATOM     17  C   UNL A   1      38.754  30.705  33.898  1.00  0.00     0.069 C 
ATOM     18  C   UNL A   1      39.131  31.797  34.831  1.00  0.00     0.072 A 
ATOM     19  N   UNL A   1      39.725  31.452  35.980  1.00  0.00    -0.178 NA
ATOM     20  N   UNL A   1      40.106  32.618  36.521  1.00  0.00    -0.272 N 
ATOM     21  C   UNL A   1      39.640  33.711  35.843  1.00  0.00     0.048 A 
ATOM     22  C   UNL A   1      41.027  32.574  37.632  1.00  0.00     0.174 C 
ATOM     23  C   UNL A   1      39.872  35.108  36.296  1.00  0.00     0.067 C 
ENDBRANCH  14  16
ENDBRANCH   9  14
ENDBRANCH   6   8
ENDBRANCH   5   6
ENDBRANCH   4   5
ENDBRANCH   3   4
ENDBRANCH   2   3
ENDBRANCH   1   2
BRANCH   1  24
ATOM     24  C   UNL A   1      33.528  32.806  27.967  1.00  0.00     0.261 C 
BRANCH  24  25
ATOM     25  O   UNL A   1      34.413  31.904  28.603  1.00  0.00    -0.460 OA
BRANCH  25  26
ATOM     26  C   UNL A   1      34.532  30.700  28.005  1.00  0.00     0.338 C 
ATOM     27  O   UNL A   1      33.755  30.152  27.248  1.00  0.00    -0.246 OA
BRANCH  26  28
ATOM     28  C   UNL A   1      35.884  30.256  28.351  1.00  0.00     0.060 A 
ATOM     29  C   UNL A   1      36.112  29.753  29.634  1.00  0.00     0.016 A 
ATOM     30  C   UNL A   1      36.873  30.228  27.363  1.00  0.00     0.016 A 
ATOM     31  C   UNL A   1      37.359  29.224  29.941  1.00  0.00     0.010 A 
ATOM     32  C   UNL A   1      38.120  29.704  27.673  1.00  0.00     0.010 A 
ATOM     33  C   UNL A   1      38.368  29.222  28.968  1.00  0.00    -0.014 A 
BRANCH  33  34
ATOM     34  C   UNL A   1      39.745  28.846  29.332  1.00  0.00     0.031 A 
ATOM     35  C   UNL A   1      40.570  29.843  30.086  1.00  0.00     0.074 A 
ATOM     36  C   UNL A   1      40.238  27.651  28.964  1.00  0.00     0.049 A 
ATOM     37  N   UNL A   1      41.817  29.771  30.460  1.00  0.00    -0.248 NA
ATOM     38  C   UNL A   1      39.896  31.099  30.457  1.00  0.00     0.031 C 
ATOM     39  C   UNL A   1      39.492  26.614  28.252  1.00  0.00     0.029 A 
ATOM     40  N   UNL A   1      41.486  27.118  29.131  1.00  0.00    -0.354 N 
ATOM     41  C   UNL A   1      42.084  30.973  31.101  1.00  0.00     0.074 A 
ATOM     42  C   UNL A   1      40.879  31.770  31.038  1.00  0.00     0.031 C 
ATOM     43  C   UNL A   1      40.302  25.563  28.042  1.00  0.00     0.029 A 
ATOM     44  C   UNL A   1      41.628  25.873  28.570  1.00  0.00     0.049 A 
ATOM     45  H   UNL A   1      42.213  27.581  29.607  1.00  0.00     0.167 HD
ATOM     46  C   UNL A   1      43.234  31.368  31.692  1.00  0.00     0.037 A 
ATOM     47  C   UNL A   1      42.719  25.088  28.479  1.00  0.00     0.037 A 
ATOM     48  C   UNL A   1      44.421  30.556  31.727  1.00  0.00     0.049 A 
ATOM     49  C   UNL A   1      44.012  25.584  29.070  1.00  0.00     0.074 A 
ATOM     50  C   UNL A   1      45.633  30.826  32.332  1.00  0.00     0.029 A 
ATOM     51  N   UNL A   1      44.547  29.320  31.105  1.00  0.00    -0.354 N 
ATOM     52  N   UNL A   1      44.244  26.697  29.726  1.00  0.00    -0.248 NA
ATOM     53  C   UNL A   1      45.193  24.728  28.899  1.00  0.00     0.031 C 
ATOM     54  C   UNL A   1      46.513  29.784  32.021  1.00  0.00     0.029 A 
ATOM     55  C   UNL A   1      45.833  28.835  31.270  1.00  0.00     0.049 A 
ATOM     56  H   UNL A   1      43.828  28.856  30.619  1.00  0.00     0.167 HD
ATOM     57  C   UNL A   1      45.593  26.670  30.060  1.00  0.00     0.074 A 
ATOM     58  C   UNL A   1      46.121  25.422  29.543  1.00  0.00     0.031 C 
ATOM     59  C   UNL A   1      46.330  27.592  30.730  1.00  0.00     0.037 A 
BRANCH  46  60
ATOM     60  C   UNL A   1      43.265  32.746  32.292  1.00  0.00     0.058 A 
ATOM     61  C   UNL A   1      43.693  33.867  31.563  1.00  0.00     0.135 A 
ATOM     62  C   UNL A   1      42.882  32.944  33.628  1.00  0.00     0.135 A 
ATOM     63  F   UNL A   1      44.092  33.734  30.287  1.00  0.00    -0.206 F 
ATOM     64  C   UNL A   1      43.784  35.126  32.149  1.00  0.00     0.059 A 
ATOM     65  C   UNL A   1      42.934  34.200  34.226  1.00  0.00     0.059 A 
ATOM     66  F   UNL A   1      42.469  31.908  34.375  1.00  0.00    -0.206 F 
ATOM     67  C   UNL A   1      43.408  35.280  33.484  1.00  0.00     0.060 A 
BRANCH  67  68
ATOM     68  S   UNL A   1      43.561  36.912  34.241  1.00  0.00     0.124 S 
ATOM     69  O   UNL A   1      44.378  37.614  33.255  1.00  0.00    -0.237 OA
ATOM     70  O   UNL A   1      42.171  37.345  34.335  1.00  0.00    -0.237 OA
ATOM     71  O   UNL A   1      44.216  36.637  35.515  1.00  0.00    -0.744 OA
ENDBRANCH  67  68
ENDBRANCH  46  60
BRANCH  47  72
ATOM     72  C   UNL A   1      42.624  23.762  27.816  1.00  0.00     0.058 A 
ATOM     73  C   UNL A   1      42.772  23.642  26.426  1.00  0.00     0.135 A 
ATOM     74  C   UNL A   1      42.436  22.584  28.557  1.00  0.00     0.135 A 
ATOM     75  F   UNL A   1      42.943  24.740  25.674  1.00  0.00    -0.206 F 
ATOM     76  C   UNL A   1      42.745  22.404  25.795  1.00  0.00     0.059 A 
ATOM     77  C   UNL A   1      42.428  21.331  27.950  1.00  0.00     0.059 A 
ATOM     78  F   UNL A   1      42.299  22.642  29.890  1.00  0.00    -0.206 F 
ATOM     79  C   UNL A   1      42.584  21.252  26.567  1.00  0.00     0.060 A 
BRANCH  79  80
ATOM     80  S   UNL A   1      42.641  19.646  25.743  1.00  0.00     0.124 S 
ATOM     81  O   UNL A   1      43.150  18.787  26.806  1.00  0.00    -0.237 OA
ATOM     82  O   UNL A   1      41.243  19.445  25.374  1.00  0.00    -0.237 OA
ATOM     83  O   UNL A   1      43.550  19.873  24.624  1.00  0.00    -0.744 OA
ENDBRANCH  79  80
ENDBRANCH  47  72
BRANCH  59  84
ATOM     84  C   UNL A   1      47.787  27.287  30.943  1.00  0.00     0.058 A 
ATOM     85  C   UNL A   1      48.211  26.430  31.971  1.00  0.00     0.135 A 
ATOM     86  C   UNL A   1      48.757  27.789  30.061  1.00  0.00     0.135 A 
ATOM     87  F   UNL A   1      47.323  25.934  32.847  1.00  0.00    -0.206 F 
ATOM     88  C   UNL A   1      49.549  26.085  32.120  1.00  0.00     0.059 A 
ATOM     89  C   UNL A   1      50.097  27.433  30.174  1.00  0.00     0.059 A 
ATOM     90  F   UNL A   1      48.401  28.605  29.057  1.00  0.00    -0.206 F 
ATOM     91  C   UNL A   1      50.483  26.584  31.210  1.00  0.00     0.060 A 
BRANCH  91  92
ATOM     92  S   UNL A   1      52.206  26.074  31.377  1.00  0.00     0.124 S 
ATOM     93  O   UNL A   1      52.062  24.727  31.920  1.00  0.00    -0.237 OA
ATOM     94  O   UNL A   1      52.689  26.154  30.002  1.00  0.00    -0.237 OA
ATOM     95  O   UNL A   1      52.768  27.063  32.291  1.00  0.00    -0.744 OA
ENDBRANCH  91  92
ENDBRANCH  59  84
ENDBRANCH  33  34
ENDBRANCH  26  28
ENDBRANCH  25  26
ENDBRANCH  24  25
ENDBRANCH   1  24
TORSDOF 19
ENDMDL
MODEL 2
REMARK VINA RESULT:      -9.6      4.858     11.997
REMARK SMILES Cc1nn(C)c(C)c1C(=O)N1CC[C@H](C(=O)OCCOCCOC(=O)c2ccc(-c3c4nc(c(-c5c(F)cc(S(=O)(=O)[O-])cc5F)c5ccc([nH]5)c(-c5c(F)cc(S(=O)(=O)[O-])cc5F)c5nc(c(-c6c(F)cc(S(=O)(=O)[O-])cc6F)c6ccc3[nH]6)C=C5)C=C4)cc2)[C@@H]1C
REMARK SMILES IDX 21 1 20 2 19 3 18 4 17 5 15 6 16 7 14 8 11 9 12 10 92 11
REMARK SMILES IDX 13 12 93 13 9 14 10 15 8 16 1 17 2 18 3 19 4 20 6 21 5 22
REMARK SMILES IDX 7 23 22 24 23 25 24 26 25 27 26 28 27 29 91 30 28 31 90 32
REMARK SMILES IDX 29 33 30 34 31 35 84 36 32 37 89 38 83 39 85 40 33 41 88 42
REMARK SMILES IDX 82 43 81 44 34 46 68 47 47 48 67 49 48 50 51 51 66 52 86 53
REMARK SMILES IDX 49 54 50 55 65 57 87 58 52 59 35 60 36 61 45 62 37 63 38 64
REMARK SMILES IDX 44 65 46 66 39 67 40 68 41 69 42 70 43 71 69 72 70 73 79 74
REMARK SMILES IDX 71 75 72 76 78 77 80 78 73 79 74 80 75 81 76 82 77 83 53 84
REMARK SMILES IDX 54 85 63 86 55 87 56 88 62 89 64 90 57 91 58 92 59 93 60 94
REMARK SMILES IDX 61 95
REMARK H PARENT 85 45 51 56
REMARK Flexibility Score: inf
ROOT
ATOM      1  C   UNL A   1      39.584  21.276  26.116  1.00  0.00     0.202 C 
ENDROOT
BRANCH   1   2
ATOM      2  O   UNL A   1      38.300  21.867  25.989  1.00  0.00    -0.374 OA
BRANCH   2   3
ATOM      3  C   UNL A   1      37.411  21.406  24.980  1.00  0.00     0.202 C 
BRANCH   3   4
ATOM      4  C   UNL A   1      35.907  21.471  25.236  1.00  0.00     0.261 C 
BRANCH   4   5
ATOM      5  O   UNL A   1      35.203  22.226  24.234  1.00  0.00    -0.463 OA
BRANCH   5   6
ATOM      6  C   UNL A   1      33.851  22.278  24.380  1.00  0.00     0.311 C 
ATOM      7  O   UNL A   1      33.158  21.379  24.837  1.00  0.00    -0.252 OA
BRANCH   6   8
ATOM      8  C   UNL A   1      33.301  23.573  23.824  1.00  0.00     0.123 C 
ATOM      9  N   UNL A   1      31.707  24.872  25.027  1.00  0.00    -0.335 N 
ATOM     10  C   UNL A   1      31.037  23.673  24.587  1.00  0.00     0.121 C 
ATOM     11  C   UNL A   1      33.150  24.774  24.792  1.00  0.00     0.096 C 
ATOM     12  C   UNL A   1      31.858  23.281  23.370  1.00  0.00     0.039 C 
ATOM     13  C   UNL A   1      33.885  24.730  26.125  1.00  0.00     0.032 C 
BRANCH   9  14
ATOM     14  C   UNL A   1      31.010  25.864  25.687  1.00  0.00     0.257 C 
ATOM     15  O   UNL A   1      30.123  25.579  26.492  1.00  0.00    -0.269 OA
BRANCH  14  16
ATOM     16  C   UNL A   1      31.283  27.257  25.342  1.00  0.00     0.083 A 
ATOM     17  C   UNL A   1      30.326  27.564  22.892  1.00  0.00     0.069 C 
ATOM     18  C   UNL A   1      30.963  27.998  24.162  1.00  0.00     0.072 A 
ATOM     19  N   UNL A   1      31.237  29.300  24.304  1.00  0.00    -0.178 NA
ATOM     20  N   UNL A   1      31.626  29.421  25.581  1.00  0.00    -0.272 N 
ATOM     21  C   UNL A   1      31.765  28.221  26.224  1.00  0.00     0.048 A 
ATOM     22  C   UNL A   1      31.721  30.753  26.131  1.00  0.00     0.174 C 
ATOM     23  C   UNL A   1      32.255  28.102  27.622  1.00  0.00     0.067 C 
ENDBRANCH  14  16
ENDBRANCH   9  14
ENDBRANCH   6   8
ENDBRANCH   5   6
ENDBRANCH   4   5
ENDBRANCH   3   4
ENDBRANCH   2   3
ENDBRANCH   1   2
BRANCH   1  24
ATOM     24  C   UNL A   1      40.797  22.129  26.529  1.00  0.00     0.261 C 
BRANCH  24  25
ATOM     25  O   UNL A   1      40.524  23.475  26.868  1.00  0.00    -0.460 OA
BRANCH  25  26
ATOM     26  C   UNL A   1      41.500  24.353  26.555  1.00  0.00     0.338 C 
ATOM     27  O   UNL A   1      42.251  24.341  25.599  1.00  0.00    -0.246 OA
BRANCH  26  28
ATOM     28  C   UNL A   1      41.359  25.420  27.548  1.00  0.00     0.060 A 
ATOM     29  C   UNL A   1      42.289  26.463  27.542  1.00  0.00     0.016 A 
ATOM     30  C   UNL A   1      40.241  25.437  28.387  1.00  0.00     0.016 A 
ATOM     31  C   UNL A   1      42.105  27.538  28.403  1.00  0.00     0.010 A 
ATOM     32  C   UNL A   1      40.061  26.509  29.249  1.00  0.00     0.010 A 
ATOM     33  C   UNL A   1      41.006  27.548  29.271  1.00  0.00    -0.014 A 
BRANCH  33  34
ATOM     34  C   UNL A   1      40.901  28.579  30.319  1.00  0.00     0.031 A 
ATOM     35  C   UNL A   1      41.862  28.514  31.466  1.00  0.00     0.074 A 
ATOM     36  C   UNL A   1      39.946  29.521  30.246  1.00  0.00     0.049 A 
ATOM     37  N   UNL A   1      41.928  29.263  32.532  1.00  0.00    -0.248 NA
ATOM     38  C   UNL A   1      42.881  27.452  31.405  1.00  0.00     0.031 C 
ATOM     39  C   UNL A   1      38.989  29.668  29.149  1.00  0.00     0.029 A 
ATOM     40  N   UNL A   1      39.621  30.524  31.117  1.00  0.00    -0.354 N 
ATOM     41  C   UNL A   1      42.986  28.757  33.276  1.00  0.00     0.074 A 
ATOM     42  C   UNL A   1      43.513  27.620  32.555  1.00  0.00     0.031 C 
ATOM     43  C   UNL A   1      38.180  30.708  29.416  1.00  0.00     0.029 A 
ATOM     44  C   UNL A   1      38.540  31.268  30.716  1.00  0.00     0.049 A 
ATOM     45  H   UNL A   1      40.116  30.696  31.951  1.00  0.00     0.167 HD
ATOM     46  C   UNL A   1      43.471  29.211  34.453  1.00  0.00     0.037 A 
ATOM     47  C   UNL A   1      37.904  32.274  31.348  1.00  0.00     0.037 A 
ATOM     48  C   UNL A   1      42.916  30.339  35.153  1.00  0.00     0.049 A 
ATOM     49  C   UNL A   1      38.410  32.709  32.698  1.00  0.00     0.074 A 
ATOM     50  C   UNL A   1      43.346  30.921  36.329  1.00  0.00     0.029 A 
ATOM     51  N   UNL A   1      41.788  31.039  34.744  1.00  0.00    -0.354 N 
ATOM     52  N   UNL A   1      39.447  32.265  33.370  1.00  0.00    -0.248 NA
ATOM     53  C   UNL A   1      37.656  33.767  33.381  1.00  0.00     0.031 C 
ATOM     54  C   UNL A   1      42.440  31.932  36.667  1.00  0.00     0.029 A 
ATOM     55  C   UNL A   1      41.477  32.019  35.671  1.00  0.00     0.049 A 
ATOM     56  H   UNL A   1      41.284  30.867  33.916  1.00  0.00     0.167 HD
ATOM     57  C   UNL A   1      39.480  33.000  34.549  1.00  0.00     0.074 A 
ATOM     58  C   UNL A   1      38.365  33.926  34.490  1.00  0.00     0.031 C 
ATOM     59  C   UNL A   1      40.350  32.918  35.588  1.00  0.00     0.037 A 
BRANCH  46  60
ATOM     60  C   UNL A   1      44.617  28.453  35.067  1.00  0.00     0.058 A 
ATOM     61  C   UNL A   1      45.955  28.744  34.753  1.00  0.00     0.135 A 
ATOM     62  C   UNL A   1      44.370  27.403  35.965  1.00  0.00     0.135 A 
ATOM     63  F   UNL A   1      46.250  29.724  33.884  1.00  0.00    -0.206 F 
ATOM     64  C   UNL A   1      47.004  27.991  35.272  1.00  0.00     0.059 A 
ATOM     65  C   UNL A   1      45.405  26.657  36.520  1.00  0.00     0.059 A 
ATOM     66  F   UNL A   1      43.110  27.078  36.296  1.00  0.00    -0.206 F 
ATOM     67  C   UNL A   1      46.717  26.945  36.151  1.00  0.00     0.060 A 
BRANCH  67  68
ATOM     68  S   UNL A   1      48.085  25.957  36.791  1.00  0.00     0.124 S 
ATOM     69  O   UNL A   1      47.373  24.908  37.516  1.00  0.00    -0.237 OA
ATOM     70  O   UNL A   1      48.763  25.533  35.570  1.00  0.00    -0.237 OA
ATOM     71  O   UNL A   1      48.827  26.899  37.621  1.00  0.00    -0.744 OA
ENDBRANCH  67  68
ENDBRANCH  46  60
BRANCH  47  72
ATOM     72  C   UNL A   1      36.740  32.934  30.703  1.00  0.00     0.058 A 
ATOM     73  C   UNL A   1      35.434  32.676  31.144  1.00  0.00     0.135 A 
ATOM     74  C   UNL A   1      36.908  33.873  29.672  1.00  0.00     0.135 A 
ATOM     75  F   UNL A   1      35.222  31.779  32.119  1.00  0.00    -0.206 F 
ATOM     76  C   UNL A   1      34.337  33.327  30.593  1.00  0.00     0.059 A 
ATOM     77  C   UNL A   1      35.827  34.555  29.120  1.00  0.00     0.059 A 
ATOM     78  F   UNL A   1      38.137  34.164  29.220  1.00  0.00    -0.206 F 
ATOM     79  C   UNL A   1      34.544  34.275  29.588  1.00  0.00     0.060 A 
BRANCH  79  80
ATOM     80  S   UNL A   1      33.118  35.178  28.946  1.00  0.00     0.124 S 
ATOM     81  O   UNL A   1      32.563  34.218  27.999  1.00  0.00    -0.237 OA
ATOM     82  O   UNL A   1      32.336  35.409  30.156  1.00  0.00    -0.237 OA
ATOM     83  O   UNL A   1      33.715  36.373  28.356  1.00  0.00    -0.744 OA
ENDBRANCH  79  80
ENDBRANCH  47  72
BRANCH  59  84
ATOM     84  C   UNL A   1      40.132  33.852  36.745  1.00  0.00     0.058 A 
ATOM     85  C   UNL A   1      40.629  35.164  36.728  1.00  0.00     0.135 A 
ATOM     86  C   UNL A   1      39.349  33.458  37.842  1.00  0.00     0.135 A 
ATOM     87  F   UNL A   1      41.393  35.584  35.707  1.00  0.00    -0.206 F 
ATOM     88  C   UNL A   1      40.361  36.053  37.762  1.00  0.00     0.059 A 
ATOM     89  C   UNL A   1      39.043  34.339  38.873  1.00  0.00     0.059 A 
ATOM     90  F   UNL A   1      38.843  32.215  37.901  1.00  0.00    -0.206 F 
ATOM     91  C   UNL A   1      39.559  35.634  38.826  1.00  0.00     0.060 A 
BRANCH  91  92
ATOM     92  S   UNL A   1      39.165  36.821  40.128  1.00  0.00     0.124 S 
ATOM     93  O   UNL A   1      38.690  37.962  39.351  1.00  0.00    -0.237 OA
ATOM     94  O   UNL A   1      38.148  36.111  40.898  1.00  0.00    -0.237 OA
ATOM     95  O   UNL A   1      40.440  37.013  40.811  1.00  0.00    -0.744 OA
ENDBRANCH  91  92
ENDBRANCH  59  84
ENDBRANCH  33  34
ENDBRANCH  26  28
ENDBRANCH  25  26
ENDBRANCH  24  25
ENDBRANCH   1  24
TORSDOF 19
ENDMDL
MODEL 3
REMARK VINA RESULT:      -9.5      4.987     11.704
REMARK SMILES Cc1nn(C)c(C)c1C(=O)N1CC[C@H](C(=O)OCCOCCOC(=O)c2ccc(-c3c4nc(c(-c5c(F)cc(S(=O)(=O)[O-])cc5F)c5ccc([nH]5)c(-c5c(F)cc(S(=O)(=O)[O-])cc5F)c5nc(c(-c6c(F)cc(S(=O)(=O)[O-])cc6F)c6ccc3[nH]6)C=C5)C=C4)cc2)[C@@H]1C
REMARK SMILES IDX 21 1 20 2 19 3 18 4 17 5 15 6 16 7 14 8 11 9 12 10 92 11
REMARK SMILES IDX 13 12 93 13 9 14 10 15 8 16 1 17 2 18 3 19 4 20 6 21 5 22
REMARK SMILES IDX 7 23 22 24 23 25 24 26 25 27 26 28 27 29 91 30 28 31 90 32
REMARK SMILES IDX 29 33 30 34 31 35 84 36 32 37 89 38 83 39 85 40 33 41 88 42
REMARK SMILES IDX 82 43 81 44 34 46 68 47 47 48 67 49 48 50 51 51 66 52 86 53
REMARK SMILES IDX 49 54 50 55 65 57 87 58 52 59 35 60 36 61 45 62 37 63 38 64
REMARK SMILES IDX 44 65 46 66 39 67 40 68 41 69 42 70 43 71 69 72 70 73 79 74
REMARK SMILES IDX 71 75 72 76 78 77 80 78 73 79 74 80 75 81 76 82 77 83 53 84
REMARK SMILES IDX 54 85 63 86 55 87 56 88 62 89 64 90 57 91 58 92 59 93 60 94
REMARK SMILES IDX 61 95
REMARK H PARENT 85 45 51 56
REMARK Flexibility Score: inf
ROOT
ATOM      1  C   UNL A   1      40.650  22.068  26.912  1.00  0.00     0.202 C 
ENDROOT
BRANCH   1   2
ATOM      2  O   UNL A   1      39.495  21.387  26.447  1.00  0.00    -0.374 OA
BRANCH   2   3
ATOM      3  C   UNL A   1      38.408  22.131  25.912  1.00  0.00     0.202 C 
BRANCH   3   4
ATOM      4  C   UNL A   1      37.403  21.421  25.009  1.00  0.00     0.261 C 
BRANCH   4   5
ATOM      5  O   UNL A   1      36.173  21.104  25.685  1.00  0.00    -0.463 OA
BRANCH   5   6
ATOM      6  C   UNL A   1      35.035  21.468  25.033  1.00  0.00     0.311 C 
ATOM      7  O   UNL A   1      34.235  20.692  24.528  1.00  0.00    -0.252 OA
BRANCH   6   8
ATOM      8  C   UNL A   1      34.926  22.975  24.944  1.00  0.00     0.123 C 
ATOM      9  N   UNL A   1      32.940  24.124  25.580  1.00  0.00    -0.335 N 
ATOM     10  C   UNL A   1      32.647  23.406  24.363  1.00  0.00     0.121 C 
ATOM     11  C   UNL A   1      34.244  23.725  26.115  1.00  0.00     0.096 C 
ATOM     12  C   UNL A   1      34.025  23.281  23.733  1.00  0.00     0.039 C 
ATOM     13  C   UNL A   1      34.054  22.992  27.437  1.00  0.00     0.032 C 
BRANCH   9  14
ATOM     14  C   UNL A   1      31.995  24.953  26.150  1.00  0.00     0.257 C 
ATOM     15  O   UNL A   1      31.312  24.569  27.099  1.00  0.00    -0.269 OA
BRANCH  14  16
ATOM     16  C   UNL A   1      31.758  26.262  25.544  1.00  0.00     0.083 A 
ATOM     17  C   UNL A   1      29.454  26.025  24.262  1.00  0.00     0.069 C 
ATOM     18  C   UNL A   1      30.658  26.735  24.764  1.00  0.00     0.072 A 
ATOM     19  N   UNL A   1      30.739  28.051  24.538  1.00  0.00    -0.178 NA
ATOM     20  N   UNL A   1      31.810  28.444  25.243  1.00  0.00    -0.272 N 
ATOM     21  C   UNL A   1      32.515  27.406  25.787  1.00  0.00     0.048 A 
ATOM     22  C   UNL A   1      32.002  29.862  25.436  1.00  0.00     0.174 C 
ATOM     23  C   UNL A   1      33.778  27.593  26.548  1.00  0.00     0.067 C 
ENDBRANCH  14  16
ENDBRANCH   9  14
ENDBRANCH   6   8
ENDBRANCH   5   6
ENDBRANCH   4   5
ENDBRANCH   3   4
ENDBRANCH   2   3
ENDBRANCH   1   2
BRANCH   1  24
ATOM     24  C   UNL A   1      41.107  23.376  26.243  1.00  0.00     0.261 C 
BRANCH  24  25
ATOM     25  O   UNL A   1      40.348  24.529  26.550  1.00  0.00    -0.460 OA
BRANCH  25  26
ATOM     26  C   UNL A   1      40.937  25.703  26.237  1.00  0.00     0.338 C 
ATOM     27  O   UNL A   1      41.358  26.075  25.159  1.00  0.00    -0.246 OA
BRANCH  26  28
ATOM     28  C   UNL A   1      40.826  26.501  27.460  1.00  0.00     0.060 A 
ATOM     29  C   UNL A   1      39.854  26.148  28.400  1.00  0.00     0.016 A 
ATOM     30  C   UNL A   1      41.765  27.505  27.715  1.00  0.00     0.016 A 
ATOM     31  C   UNL A   1      39.809  26.824  29.613  1.00  0.00     0.010 A 
ATOM     32  C   UNL A   1      41.716  28.182  28.925  1.00  0.00     0.010 A 
ATOM     33  C   UNL A   1      40.724  27.855  29.864  1.00  0.00    -0.014 A 
BRANCH  33  34
ATOM     34  C   UNL A   1      40.570  28.706  31.058  1.00  0.00     0.031 A 
ATOM     35  C   UNL A   1      39.530  29.782  31.022  1.00  0.00     0.074 A 
ATOM     36  C   UNL A   1      41.368  28.525  32.123  1.00  0.00     0.049 A 
ATOM     37  N   UNL A   1      39.250  30.692  31.915  1.00  0.00    -0.248 NA
ATOM     38  C   UNL A   1      38.700  29.849  29.806  1.00  0.00     0.031 C 
ATOM     39  C   UNL A   1      42.386  27.482  32.247  1.00  0.00     0.029 A 
ATOM     40  N   UNL A   1      41.451  29.221  33.297  1.00  0.00    -0.354 N 
ATOM     41  C   UNL A   1      38.221  31.446  31.367  1.00  0.00     0.074 A 
ATOM     42  C   UNL A   1      37.947  30.909  30.053  1.00  0.00     0.031 C 
ATOM     43  C   UNL A   1      42.995  27.609  33.438  1.00  0.00     0.029 A 
ATOM     44  C   UNL A   1      42.434  28.762  34.138  1.00  0.00     0.049 A 
ATOM     45  H   UNL A   1      40.861  29.978  33.519  1.00  0.00     0.167 HD
ATOM     46  C   UNL A   1      37.565  32.490  31.921  1.00  0.00     0.037 A 
ATOM     47  C   UNL A   1      42.844  29.242  35.328  1.00  0.00     0.037 A 
ATOM     48  C   UNL A   1      37.870  33.009  33.227  1.00  0.00     0.049 A 
ATOM     49  C   UNL A   1      42.154  30.458  35.888  1.00  0.00     0.074 A 
ATOM     50  C   UNL A   1      37.249  34.033  33.915  1.00  0.00     0.029 A 
ATOM     51  N   UNL A   1      38.907  32.554  34.032  1.00  0.00    -0.354 N 
ATOM     52  N   UNL A   1      41.143  31.132  35.393  1.00  0.00    -0.248 NA
ATOM     53  C   UNL A   1      42.668  30.986  37.158  1.00  0.00     0.031 C 
ATOM     54  C   UNL A   1      37.950  34.241  35.108  1.00  0.00     0.029 A 
ATOM     55  C   UNL A   1      38.974  33.308  35.190  1.00  0.00     0.049 A 
ATOM     56  H   UNL A   1      39.505  31.804  33.812  1.00  0.00     0.167 HD
ATOM     57  C   UNL A   1      40.887  32.157  36.296  1.00  0.00     0.074 A 
ATOM     58  C   UNL A   1      41.844  32.003  37.376  1.00  0.00     0.031 C 
ATOM     59  C   UNL A   1      39.950  33.136  36.241  1.00  0.00     0.037 A 
BRANCH  46  60
ATOM     60  C   UNL A   1      36.501  33.156  31.092  1.00  0.00     0.058 A 
ATOM     61  C   UNL A   1      36.814  33.960  29.984  1.00  0.00     0.135 A 
ATOM     62  C   UNL A   1      35.146  33.005  31.428  1.00  0.00     0.135 A 
ATOM     63  F   UNL A   1      38.094  34.156  29.630  1.00  0.00    -0.206 F 
ATOM     64  C   UNL A   1      35.826  34.627  29.267  1.00  0.00     0.059 A 
ATOM     65  C   UNL A   1      34.138  33.638  30.706  1.00  0.00     0.059 A 
ATOM     66  F   UNL A   1      34.789  32.253  32.481  1.00  0.00    -0.206 F 
ATOM     67  C   UNL A   1      34.490  34.464  29.640  1.00  0.00     0.060 A 
BRANCH  67  68
ATOM     68  S   UNL A   1      33.222  35.361  28.721  1.00  0.00     0.124 S 
ATOM     69  O   UNL A   1      34.035  36.260  27.906  1.00  0.00    -0.237 OA
ATOM     70  O   UNL A   1      32.544  34.290  27.998  1.00  0.00    -0.237 OA
ATOM     71  O   UNL A   1      32.434  36.004  29.767  1.00  0.00    -0.744 OA
ENDBRANCH  67  68
ENDBRANCH  46  60
BRANCH  47  72
ATOM     72  C   UNL A   1      43.944  28.564  36.059  1.00  0.00     0.058 A 
ATOM     73  C   UNL A   1      43.684  27.464  36.889  1.00  0.00     0.135 A 
ATOM     74  C   UNL A   1      45.283  28.963  35.905  1.00  0.00     0.135 A 
ATOM     75  F   UNL A   1      42.421  27.051  37.076  1.00  0.00    -0.206 F 
ATOM     76  C   UNL A   1      44.707  26.779  37.535  1.00  0.00     0.059 A 
ATOM     77  C   UNL A   1      46.326  28.279  36.522  1.00  0.00     0.059 A 
ATOM     78  F   UNL A   1      45.587  30.003  35.114  1.00  0.00    -0.206 F 
ATOM     79  C   UNL A   1      46.027  27.187  37.336  1.00  0.00     0.060 A 
BRANCH  79  80
ATOM     80  S   UNL A   1      47.352  26.234  38.109  1.00  0.00     0.124 S 
ATOM     81  O   UNL A   1      48.511  26.654  37.331  1.00  0.00    -0.237 OA
ATOM     82  O   UNL A   1      47.301  26.708  39.488  1.00  0.00    -0.237 OA
ATOM     83  O   UNL A   1      46.928  24.850  37.915  1.00  0.00    -0.744 OA
ENDBRANCH  79  80
ENDBRANCH  47  72
BRANCH  59  84
ATOM     84  C   UNL A   1      39.912  34.119  37.378  1.00  0.00     0.058 A 
ATOM     85  C   UNL A   1      40.685  35.290  37.356  1.00  0.00     0.135 A 
ATOM     86  C   UNL A   1      39.033  33.929  38.456  1.00  0.00     0.135 A 
ATOM     87  F   UNL A   1      41.548  35.512  36.353  1.00  0.00    -0.206 F 
ATOM     88  C   UNL A   1      40.591  36.238  38.369  1.00  0.00     0.059 A 
ATOM     89  C   UNL A   1      38.902  34.878  39.465  1.00  0.00     0.059 A 
ATOM     90  F   UNL A   1      38.266  32.829  38.519  1.00  0.00    -0.206 F 
ATOM     91  C   UNL A   1      39.690  36.027  39.414  1.00  0.00     0.060 A 
BRANCH  91  92
ATOM     92  S   UNL A   1      39.533  37.298  40.686  1.00  0.00     0.124 S 
ATOM     93  O   UNL A   1      39.180  36.501  41.856  1.00  0.00    -0.237 OA
ATOM     94  O   UNL A   1      40.868  37.889  40.700  1.00  0.00    -0.237 OA
ATOM     95  O   UNL A   1      38.476  38.164  40.174  1.00  0.00    -0.744 OA
ENDBRANCH  91  92
ENDBRANCH  59  84
ENDBRANCH  33  34
ENDBRANCH  26  28
ENDBRANCH  25  26
ENDBRANCH  24  25
ENDBRANCH   1  24
TORSDOF 19
ENDMDL
