MODEL 1
REMARK VINA RESULT:     -12.5      0.000      0.000
REMARK SMILES CC1(C)O[C@@H]2C[C@@H]3[C@H]4CCC5=CC(=O)C=C[C@@]5(C)[C@]4(F)[C@H](O)C[C@]3(C)[C@]2(C(=O)OCCOCCOC(=O)c2ccc(-c3c4nc(c(-c5c(F)cc(S(=O)(=O)[O-])cc5F)c5ccc([nH]5)c(-c5c(F)cc(S(=O)(=O)[O-])cc5F)c5nc(c(-c6c(F)cc(S(=O)(=O)[O-])cc6F)c6ccc3[nH]6)C=C5)C=C4)cc2)O1
REMARK SMILES IDX 33 1 32 2 31 3 30 4 29 5 27 6 28 7 26 8 1 9 2 10 4 11 104 12
REMARK SMILES IDX 3 13 5 14 6 15 24 16 7 17 23 18 25 19 8 20 21 21 9 22 19 23
REMARK SMILES IDX 10 24 17 25 20 26 11 27 16 28 18 29 12 30 15 31 13 32 14 33
REMARK SMILES IDX 22 34 34 36 35 37 36 38 37 39 38 40 39 41 103 42 40 43
REMARK SMILES IDX 102 44 41 45 42 46 43 47 96 48 44 49 101 50 95 51 97 52
REMARK SMILES IDX 45 53 100 54 94 55 93 56 46 58 80 59 59 60 79 61 60 62 63 63
REMARK SMILES IDX 78 64 98 65 61 66 62 67 77 69 99 70 64 71 47 72 48 73 57 74
REMARK SMILES IDX 49 75 50 76 56 77 58 78 51 79 52 80 53 81 54 82 55 83 81 84
REMARK SMILES IDX 82 85 91 86 83 87 84 88 90 89 92 90 85 91 86 92 87 93 88 94
REMARK SMILES IDX 89 95 65 96 66 97 75 98 67 99 68 100 74 101 76 102 69 103
REMARK SMILES IDX 70 104 71 105 72 106 73 107
REMARK H PARENT 22 35 97 57 63 68
REMARK Flexibility Score: inf
ROOT
ATOM      1  C   UNL A   1      34.069  33.291  28.034  1.00  0.00     0.202 C 
ENDROOT
BRANCH   1   2
ATOM      2  O   UNL A   1      32.661  33.505  27.994  1.00  0.00    -0.374 OA
BRANCH   2   3
ATOM      3  C   UNL A   1      31.925  33.077  26.852  1.00  0.00     0.202 C 
BRANCH   3   4
ATOM      4  C   UNL A   1      31.325  31.673  26.868  1.00  0.00     0.261 C 
BRANCH   4   5
ATOM      5  O   UNL A   1      31.943  30.834  25.883  1.00  0.00    -0.461 OA
BRANCH   5   6
ATOM      6  C   UNL A   1      31.823  29.506  26.134  1.00  0.00     0.341 C 
ATOM      7  O   UNL A   1      31.324  29.079  27.170  1.00  0.00    -0.249 OA
BRANCH   6   8
ATOM      8  C   UNL A   1      32.395  28.624  25.024  1.00  0.00     0.200 C 
ATOM      9  C   UNL A   1      29.711  29.716  23.503  1.00  0.00     0.075 C 
ATOM     10  C   UNL A   1      30.765  28.626  23.331  1.00  0.00     0.165 C 
ATOM     11  O   UNL A   1      31.893  29.265  22.728  1.00  0.00    -0.344 OA
ATOM     12  O   UNL A   1      31.151  27.993  24.568  1.00  0.00    -0.329 OA
ATOM     13  C   UNL A   1      30.200  27.552  22.398  1.00  0.00     0.075 C 
ATOM     14  C   UNL A   1      32.964  29.208  23.673  1.00  0.00     0.166 C 
ATOM     15  C   UNL A   1      33.994  28.114  23.095  1.00  0.00     0.040 C 
ATOM     16  C   UNL A   1      33.574  27.635  25.406  1.00  0.00     0.016 C 
ATOM     17  C   UNL A   1      33.662  26.927  24.019  1.00  0.00     0.008 C 
ATOM     18  C   UNL A   1      33.547  26.656  26.594  1.00  0.00     0.046 C 
ATOM     19  C   UNL A   1      34.874  28.480  25.735  1.00  0.00     0.015 C 
ATOM     20  C   UNL A   1      33.166  25.459  23.895  1.00  0.00     0.035 C 
ATOM     21  C   UNL A   1      32.805  25.359  26.402  1.00  0.00     0.154 C 
ATOM     22  C   UNL A   1      33.581  24.768  22.602  1.00  0.00     0.012 C 
ATOM     23  C   UNL A   1      33.304  24.581  25.144  1.00  0.00     0.152 C 
ATOM     24  C   UNL A   1      32.634  23.591  22.367  1.00  0.00     0.032 C 
ATOM     25  C   UNL A   1      32.557  23.188  24.957  1.00  0.00     0.044 C 
ATOM     26  F   UNL A   1      34.648  24.345  25.295  1.00  0.00    -0.239 F 
ATOM     27  C   UNL A   1      32.633  22.625  23.521  1.00  0.00    -0.053 C 
ATOM     28  C   UNL A   1      33.110  22.154  25.938  1.00  0.00    -0.009 C 
ATOM     29  C   UNL A   1      31.037  23.286  25.274  1.00  0.00     0.024 C 
ATOM     30  C   UNL A   1      32.573  21.299  23.292  1.00  0.00     0.052 C 
ATOM     31  C   UNL A   1      33.030  20.833  25.721  1.00  0.00     0.048 C 
ATOM     32  C   UNL A   1      32.530  20.338  24.420  1.00  0.00     0.178 C 
ATOM     33  O   UNL A   1      32.151  19.185  24.262  1.00  0.00    -0.290 OA
BRANCH  21  34
ATOM     34  O   UNL A   1      31.427  25.716  26.376  1.00  0.00    -0.390 OA
ATOM     35  H   UNL A   1      31.011  25.343  25.582  1.00  0.00     0.211 HD
ENDBRANCH  21  34
ENDBRANCH   6   8
ENDBRANCH   5   6
ENDBRANCH   4   5
ENDBRANCH   3   4
ENDBRANCH   2   3
ENDBRANCH   1   2
BRANCH   1  36
ATOM     36  C   UNL A   1      34.602  32.008  28.674  1.00  0.00     0.261 C 
BRANCH  36  37
ATOM     37  O   UNL A   1      36.020  32.053  28.911  1.00  0.00    -0.460 OA
BRANCH  37  38
ATOM     38  C   UNL A   1      36.425  31.309  29.972  1.00  0.00     0.338 C 
ATOM     39  O   UNL A   1      35.858  31.199  31.043  1.00  0.00    -0.246 OA
BRANCH  38  40
ATOM     40  C   UNL A   1      37.573  30.459  29.599  1.00  0.00     0.060 A 
ATOM     41  C   UNL A   1      38.431  30.051  30.629  1.00  0.00     0.016 A 
ATOM     42  C   UNL A   1      37.870  30.164  28.268  1.00  0.00     0.016 A 
ATOM     43  C   UNL A   1      39.628  29.408  30.327  1.00  0.00     0.010 A 
ATOM     44  C   UNL A   1      39.078  29.526  27.967  1.00  0.00     0.010 A 
ATOM     45  C   UNL A   1      39.984  29.188  28.991  1.00  0.00    -0.014 A 
BRANCH  45  46
ATOM     46  C   UNL A   1      41.367  28.757  28.665  1.00  0.00     0.031 A 
ATOM     47  C   UNL A   1      42.465  29.789  28.649  1.00  0.00     0.074 A 
ATOM     48  C   UNL A   1      41.647  27.465  28.417  1.00  0.00     0.049 A 
ATOM     49  N   UNL A   1      43.725  29.651  28.329  1.00  0.00    -0.248 NA
ATOM     50  C   UNL A   1      42.094  31.160  29.043  1.00  0.00     0.031 C 
ATOM     51  C   UNL A   1      40.680  26.368  28.446  1.00  0.00     0.029 A 
ATOM     52  N   UNL A   1      42.832  26.859  28.076  1.00  0.00    -0.354 N 
ATOM     53  C   UNL A   1      44.291  30.915  28.458  1.00  0.00     0.074 A 
ATOM     54  C   UNL A   1      43.236  31.812  28.873  1.00  0.00     0.031 C 
ATOM     55  C   UNL A   1      41.305  25.226  28.112  1.00  0.00     0.029 A 
ATOM     56  C   UNL A   1      42.706  25.515  27.808  1.00  0.00     0.049 A 
ATOM     57  H   UNL A   1      43.689  27.338  28.028  1.00  0.00     0.167 HD
ATOM     58  C   UNL A   1      45.574  31.289  28.251  1.00  0.00     0.037 A 
ATOM     59  C   UNL A   1      43.606  24.630  27.336  1.00  0.00     0.037 A 
ATOM     60  C   UNL A   1      46.627  30.385  27.867  1.00  0.00     0.049 A 
ATOM     61  C   UNL A   1      45.020  25.087  27.066  1.00  0.00     0.074 A 
ATOM     62  C   UNL A   1      47.971  30.664  27.683  1.00  0.00     0.029 A 
ATOM     63  N   UNL A   1      46.459  29.036  27.598  1.00  0.00    -0.354 N 
ATOM     64  N   UNL A   1      45.549  26.277  27.233  1.00  0.00    -0.248 NA
ATOM     65  C   UNL A   1      45.960  24.083  26.547  1.00  0.00     0.031 C 
ATOM     66  C   UNL A   1      48.602  29.499  27.241  1.00  0.00     0.029 A 
ATOM     67  C   UNL A   1      47.667  28.477  27.217  1.00  0.00     0.049 A 
ATOM     68  H   UNL A   1      45.607  28.548  27.669  1.00  0.00     0.167 HD
ATOM     69  C   UNL A   1      46.889  26.152  26.875  1.00  0.00     0.074 A 
ATOM     70  C   UNL A   1      47.092  24.771  26.493  1.00  0.00     0.031 C 
ATOM     71  C   UNL A   1      47.863  27.094  26.864  1.00  0.00     0.037 A 
BRANCH  58  72
ATOM     72  C   UNL A   1      45.931  32.742  28.406  1.00  0.00     0.058 A 
ATOM     73  C   UNL A   1      46.420  33.264  29.614  1.00  0.00     0.135 A 
ATOM     74  C   UNL A   1      45.882  33.598  27.294  1.00  0.00     0.135 A 
ATOM     75  F   UNL A   1      46.468  32.494  30.712  1.00  0.00    -0.206 F 
ATOM     76  C   UNL A   1      46.852  34.582  29.711  1.00  0.00     0.059 A 
ATOM     77  C   UNL A   1      46.334  34.912  27.361  1.00  0.00     0.059 A 
ATOM     78  F   UNL A   1      45.416  33.150  26.117  1.00  0.00    -0.206 F 
ATOM     79  C   UNL A   1      46.817  35.395  28.576  1.00  0.00     0.060 A 
BRANCH  79  80
ATOM     80  S   UNL A   1      47.440  37.084  28.704  1.00  0.00     0.124 S 
ATOM     81  O   UNL A   1      46.220  37.862  28.511  1.00  0.00    -0.237 OA
ATOM     82  O   UNL A   1      47.998  37.106  30.053  1.00  0.00    -0.237 OA
ATOM     83  O   UNL A   1      48.416  37.171  27.623  1.00  0.00    -0.744 OA
ENDBRANCH  79  80
ENDBRANCH  58  72
BRANCH  59  84
ATOM     84  C   UNL A   1      43.201  23.229  27.038  1.00  0.00     0.058 A 
ATOM     85  C   UNL A   1      42.996  22.292  28.061  1.00  0.00     0.135 A 
ATOM     86  C   UNL A   1      43.058  22.787  25.712  1.00  0.00     0.135 A 
ATOM     87  F   UNL A   1      43.128  22.662  29.346  1.00  0.00    -0.206 F 
ATOM     88  C   UNL A   1      42.705  20.960  27.785  1.00  0.00     0.059 A 
ATOM     89  C   UNL A   1      42.734  21.468  25.411  1.00  0.00     0.059 A 
ATOM     90  F   UNL A   1      43.227  23.644  24.694  1.00  0.00    -0.206 F 
ATOM     91  C   UNL A   1      42.581  20.557  26.454  1.00  0.00     0.060 A 
BRANCH  91  92
ATOM     92  S   UNL A   1      42.196  18.829  26.101  1.00  0.00     0.124 S 
ATOM     93  O   UNL A   1      40.784  18.910  25.750  1.00  0.00    -0.237 OA
ATOM     94  O   UNL A   1      43.113  18.531  25.005  1.00  0.00    -0.237 OA
ATOM     95  O   UNL A   1      42.499  18.156  27.361  1.00  0.00    -0.744 OA
ENDBRANCH  91  92
ENDBRANCH  59  84
BRANCH  71  96
ATOM     96  C   UNL A   1      49.255  26.665  26.483  1.00  0.00     0.058 A 
ATOM     97  C   UNL A   1      50.115  26.036  27.395  1.00  0.00     0.135 A 
ATOM     98  C   UNL A   1      49.705  26.823  25.161  1.00  0.00     0.135 A 
ATOM     99  F   UNL A   1      49.738  25.865  28.673  1.00  0.00    -0.206 F 
ATOM    100  C   UNL A   1      51.380  25.597  27.017  1.00  0.00     0.059 A 
ATOM    101  C   UNL A   1      50.952  26.362  24.752  1.00  0.00     0.059 A 
ATOM    102  F   UNL A   1      48.918  27.407  24.244  1.00  0.00    -0.206 F 
ATOM    103  C   UNL A   1      51.787  25.759  25.691  1.00  0.00     0.060 A 
BRANCH 103 104
ATOM    104  S   UNL A   1      53.412  25.142  25.203  1.00  0.00     0.124 S 
ATOM    105  O   UNL A   1      53.245  23.703  25.375  1.00  0.00    -0.237 OA
ATOM    106  O   UNL A   1      53.520  25.607  23.823  1.00  0.00    -0.237 OA
ATOM    107  O   UNL A   1      54.320  25.785  26.148  1.00  0.00    -0.744 OA
ENDBRANCH 103 104
ENDBRANCH  71  96
ENDBRANCH  45  46
ENDBRANCH  38  40
ENDBRANCH  37  38
ENDBRANCH  36  37
ENDBRANCH   1  36
TORSDOF 18
ENDMDL
MODEL 2
REMARK VINA RESULT:     -12.5      6.122     11.521
REMARK SMILES CC1(C)O[C@@H]2C[C@@H]3[C@H]4CCC5=CC(=O)C=C[C@@]5(C)[C@]4(F)[C@H](O)C[C@]3(C)[C@]2(C(=O)OCCOCCOC(=O)c2ccc(-c3c4nc(c(-c5c(F)cc(S(=O)(=O)[O-])cc5F)c5ccc([nH]5)c(-c5c(F)cc(S(=O)(=O)[O-])cc5F)c5nc(c(-c6c(F)cc(S(=O)(=O)[O-])cc6F)c6ccc3[nH]6)C=C5)C=C4)cc2)O1
REMARK SMILES IDX 33 1 32 2 31 3 30 4 29 5 27 6 28 7 26 8 1 9 2 10 4 11 104 12
REMARK SMILES IDX 3 13 5 14 6 15 24 16 7 17 23 18 25 19 8 20 21 21 9 22 19 23
REMARK SMILES IDX 10 24 17 25 20 26 11 27 16 28 18 29 12 30 15 31 13 32 14 33
REMARK SMILES IDX 22 34 34 36 35 37 36 38 37 39 38 40 39 41 103 42 40 43
REMARK SMILES IDX 102 44 41 45 42 46 43 47 96 48 44 49 101 50 95 51 97 52
REMARK SMILES IDX 45 53 100 54 94 55 93 56 46 58 80 59 59 60 79 61 60 62 63 63
REMARK SMILES IDX 78 64 98 65 61 66 62 67 77 69 99 70 64 71 47 72 48 73 57 74
REMARK SMILES IDX 49 75 50 76 56 77 58 78 51 79 52 80 53 81 54 82 55 83 81 84
REMARK SMILES IDX 82 85 91 86 83 87 84 88 90 89 92 90 85 91 86 92 87 93 88 94
REMARK SMILES IDX 89 95 65 96 66 97 75 98 67 99 68 100 74 101 76 102 69 103
REMARK SMILES IDX 70 104 71 105 72 106 73 107
REMARK H PARENT 22 35 97 57 63 68
REMARK Flexibility Score: inf
ROOT
ATOM      1  C   UNL A   1      40.912  21.237  27.390  1.00  0.00     0.202 C 
ENDROOT
BRANCH   1   2
ATOM      2  O   UNL A   1      40.271  20.636  26.267  1.00  0.00    -0.374 OA
BRANCH   2   3
ATOM      3  C   UNL A   1      38.947  21.038  25.926  1.00  0.00     0.202 C 
BRANCH   3   4
ATOM      4  C   UNL A   1      38.157  20.158  24.960  1.00  0.00     0.261 C 
BRANCH   4   5
ATOM      5  O   UNL A   1      36.745  20.352  25.119  1.00  0.00    -0.461 OA
BRANCH   5   6
ATOM      6  C   UNL A   1      36.271  21.476  24.525  1.00  0.00     0.341 C 
ATOM      7  O   UNL A   1      36.750  21.917  23.485  1.00  0.00    -0.249 OA
BRANCH   6   8
ATOM      8  C   UNL A   1      35.125  22.134  25.295  1.00  0.00     0.200 C 
ATOM      9  C   UNL A   1      33.729  19.251  24.623  1.00  0.00     0.075 C 
ATOM     10  C   UNL A   1      33.322  20.638  25.115  1.00  0.00     0.165 C 
ATOM     11  O   UNL A   1      33.619  20.658  26.513  1.00  0.00    -0.344 OA
ATOM     12  O   UNL A   1      34.007  21.714  24.443  1.00  0.00    -0.329 OA
ATOM     13  C   UNL A   1      31.818  20.808  24.887  1.00  0.00     0.075 C 
ATOM     14  C   UNL A   1      34.646  21.631  26.712  1.00  0.00     0.166 C 
ATOM     15  C   UNL A   1      33.927  22.882  27.426  1.00  0.00     0.040 C 
ATOM     16  C   UNL A   1      35.232  23.689  25.583  1.00  0.00     0.016 C 
ATOM     17  C   UNL A   1      33.818  23.843  26.226  1.00  0.00     0.008 C 
ATOM     18  C   UNL A   1      35.541  24.759  24.521  1.00  0.00     0.046 C 
ATOM     19  C   UNL A   1      36.398  23.945  26.625  1.00  0.00     0.015 C 
ATOM     20  C   UNL A   1      32.712  24.592  25.432  1.00  0.00     0.035 C 
ATOM     21  C   UNL A   1      34.402  25.214  23.647  1.00  0.00     0.154 C 
ATOM     22  C   UNL A   1      31.489  24.958  26.262  1.00  0.00     0.012 C 
ATOM     23  C   UNL A   1      33.182  25.705  24.488  1.00  0.00     0.152 C 
ATOM     24  C   UNL A   1      30.318  25.188  25.307  1.00  0.00     0.032 C 
ATOM     25  C   UNL A   1      31.988  26.230  23.575  1.00  0.00     0.044 C 
ATOM     26  F   UNL A   1      33.606  26.732  25.293  1.00  0.00    -0.239 F 
ATOM     27  C   UNL A   1      30.619  26.254  24.287  1.00  0.00    -0.053 C 
ATOM     28  C   UNL A   1      32.306  27.626  23.037  1.00  0.00    -0.009 C 
ATOM     29  C   UNL A   1      31.774  25.341  22.315  1.00  0.00     0.024 C 
ATOM     30  C   UNL A   1      29.662  27.129  23.921  1.00  0.00     0.052 C 
ATOM     31  C   UNL A   1      31.354  28.488  22.651  1.00  0.00     0.048 C 
ATOM     32  C   UNL A   1      29.932  28.157  22.889  1.00  0.00     0.178 C 
ATOM     33  O   UNL A   1      29.022  28.734  22.309  1.00  0.00    -0.290 OA
BRANCH  21  34
ATOM     34  O   UNL A   1      34.129  24.115  22.784  1.00  0.00    -0.390 OA
ATOM     35  H   UNL A   1      34.009  24.438  21.877  1.00  0.00     0.211 HD
ENDBRANCH  21  34
ENDBRANCH   6   8
ENDBRANCH   5   6
ENDBRANCH   4   5
ENDBRANCH   3   4
ENDBRANCH   2   3
ENDBRANCH   1   2
BRANCH   1  36
ATOM     36  C   UNL A   1      41.770  22.484  27.166  1.00  0.00     0.261 C 
BRANCH  36  37
ATOM     37  O   UNL A   1      40.987  23.641  26.824  1.00  0.00    -0.460 OA
BRANCH  37  38
ATOM     38  C   UNL A   1      41.719  24.774  26.668  1.00  0.00     0.338 C 
ATOM     39  O   UNL A   1      42.551  24.991  25.807  1.00  0.00    -0.246 OA
BRANCH  38  40
ATOM     40  C   UNL A   1      41.236  25.830  27.578  1.00  0.00     0.060 A 
ATOM     41  C   UNL A   1      42.011  26.993  27.682  1.00  0.00     0.016 A 
ATOM     42  C   UNL A   1      40.120  25.646  28.395  1.00  0.00     0.016 A 
ATOM     43  C   UNL A   1      41.716  27.946  28.653  1.00  0.00     0.010 A 
ATOM     44  C   UNL A   1      39.831  26.601  29.377  1.00  0.00     0.010 A 
ATOM     45  C   UNL A   1      40.656  27.731  29.541  1.00  0.00    -0.014 A 
BRANCH  45  46
ATOM     46  C   UNL A   1      40.515  28.601  30.736  1.00  0.00     0.031 A 
ATOM     47  C   UNL A   1      39.457  29.674  30.734  1.00  0.00     0.074 A 
ATOM     48  C   UNL A   1      41.296  28.422  31.817  1.00  0.00     0.049 A 
ATOM     49  N   UNL A   1      39.201  30.585  31.635  1.00  0.00    -0.248 NA
ATOM     50  C   UNL A   1      38.570  29.728  29.558  1.00  0.00     0.031 C 
ATOM     51  C   UNL A   1      42.325  27.392  31.956  1.00  0.00     0.029 A 
ATOM     52  N   UNL A   1      41.354  29.115  33.001  1.00  0.00    -0.354 N 
ATOM     53  C   UNL A   1      38.145  31.335  31.128  1.00  0.00     0.074 A 
ATOM     54  C   UNL A   1      37.814  30.782  29.834  1.00  0.00     0.031 C 
ATOM     55  C   UNL A   1      42.928  27.536  33.148  1.00  0.00     0.029 A 
ATOM     56  C   UNL A   1      42.357  28.691  33.840  1.00  0.00     0.049 A 
ATOM     57  H   UNL A   1      40.736  29.847  33.228  1.00  0.00     0.167 HD
ATOM     58  C   UNL A   1      37.509  32.386  31.695  1.00  0.00     0.037 A 
ATOM     59  C   UNL A   1      42.789  29.197  35.012  1.00  0.00     0.037 A 
ATOM     60  C   UNL A   1      37.823  32.913  32.998  1.00  0.00     0.049 A 
ATOM     61  C   UNL A   1      42.093  30.402  35.598  1.00  0.00     0.074 A 
ATOM     62  C   UNL A   1      37.199  33.945  33.678  1.00  0.00     0.029 A 
ATOM     63  N   UNL A   1      38.849  32.460  33.813  1.00  0.00    -0.354 N 
ATOM     64  N   UNL A   1      41.069  31.075  35.126  1.00  0.00    -0.248 NA
ATOM     65  C   UNL A   1      42.607  30.917  36.875  1.00  0.00     0.031 C 
ATOM     66  C   UNL A   1      37.887  34.159  34.873  1.00  0.00     0.029 A 
ATOM     67  C   UNL A   1      38.897  33.216  34.972  1.00  0.00     0.049 A 
ATOM     68  H   UNL A   1      39.453  31.713  33.599  1.00  0.00     0.167 HD
ATOM     69  C   UNL A   1      40.796  32.064  36.066  1.00  0.00     0.074 A 
ATOM     70  C   UNL A   1      41.754  31.898  37.137  1.00  0.00     0.031 C 
ATOM     71  C   UNL A   1      39.839  33.024  36.045  1.00  0.00     0.037 A 
BRANCH  58  72
ATOM     72  C   UNL A   1      36.420  33.070  30.915  1.00  0.00     0.058 A 
ATOM     73  C   UNL A   1      35.070  32.982  31.287  1.00  0.00     0.135 A 
ATOM     74  C   UNL A   1      36.751  33.914  29.843  1.00  0.00     0.135 A 
ATOM     75  F   UNL A   1      34.697  32.174  32.292  1.00  0.00    -0.206 F 
ATOM     76  C   UNL A   1      34.087  33.710  30.626  1.00  0.00     0.059 A 
ATOM     77  C   UNL A   1      35.789  34.672  29.184  1.00  0.00     0.059 A 
ATOM     78  F   UNL A   1      38.028  34.029  29.442  1.00  0.00    -0.206 F 
ATOM     79  C   UNL A   1      34.458  34.563  29.583  1.00  0.00     0.060 A 
BRANCH  79  80
ATOM     80  S   UNL A   1      33.178  35.548  28.777  1.00  0.00     0.124 S 
ATOM     81  O   UNL A   1      33.980  36.516  28.033  1.00  0.00    -0.237 OA
ATOM     82  O   UNL A   1      32.482  34.551  27.970  1.00  0.00    -0.237 OA
ATOM     83  O   UNL A   1      32.414  36.094  29.893  1.00  0.00    -0.744 OA
ENDBRANCH  79  80
ENDBRANCH  58  72
BRANCH  59  84
ATOM     84  C   UNL A   1      43.969  28.605  35.700  1.00  0.00     0.058 A 
ATOM     85  C   UNL A   1      43.824  27.613  36.681  1.00  0.00     0.135 A 
ATOM     86  C   UNL A   1      45.269  29.060  35.420  1.00  0.00     0.135 A 
ATOM     87  F   UNL A   1      42.603  27.150  36.991  1.00  0.00    -0.206 F 
ATOM     88  C   UNL A   1      44.916  27.121  37.389  1.00  0.00     0.059 A 
ATOM     89  C   UNL A   1      46.380  28.559  36.090  1.00  0.00     0.059 A 
ATOM     90  F   UNL A   1      45.467  29.996  34.480  1.00  0.00    -0.206 F 
ATOM     91  C   UNL A   1      46.190  27.605  37.089  1.00  0.00     0.060 A 
BRANCH  91  92
ATOM     92  S   UNL A   1      47.605  26.958  38.006  1.00  0.00     0.124 S 
ATOM     93  O   UNL A   1      48.262  26.143  36.992  1.00  0.00    -0.237 OA
ATOM     94  O   UNL A   1      48.300  28.181  38.396  1.00  0.00    -0.237 OA
ATOM     95  O   UNL A   1      46.982  26.224  39.104  1.00  0.00    -0.744 OA
ENDBRANCH  91  92
ENDBRANCH  59  84
BRANCH  71  96
ATOM     96  C   UNL A   1      39.732  33.939  37.236  1.00  0.00     0.058 A 
ATOM     97  C   UNL A   1      40.345  35.200  37.264  1.00  0.00     0.135 A 
ATOM     98  C   UNL A   1      38.940  33.572  38.338  1.00  0.00     0.135 A 
ATOM     99  F   UNL A   1      41.117  35.598  36.240  1.00  0.00    -0.206 F 
ATOM    100  C   UNL A   1      40.194  36.057  38.349  1.00  0.00     0.059 A 
ATOM    101  C   UNL A   1      38.748  34.427  39.419  1.00  0.00     0.059 A 
ATOM    102  F   UNL A   1      38.320  32.381  38.360  1.00  0.00    -0.206 F 
ATOM    103  C   UNL A   1      39.389  35.664  39.420  1.00  0.00     0.060 A 
BRANCH 103 104
ATOM    104  S   UNL A   1      39.165  36.806  40.800  1.00  0.00     0.124 S 
ATOM    105  O   UNL A   1      38.419  37.889  40.167  1.00  0.00    -0.237 OA
ATOM    106  O   UNL A   1      38.418  35.996  41.757  1.00  0.00    -0.237 OA
ATOM    107  O   UNL A   1      40.531  37.134  41.196  1.00  0.00    -0.744 OA
ENDBRANCH 103 104
ENDBRANCH  71  96
ENDBRANCH  45  46
ENDBRANCH  38  40
ENDBRANCH  37  38
ENDBRANCH  36  37
ENDBRANCH   1  36
TORSDOF 18
ENDMDL
MODEL 3
REMARK VINA RESULT:     -12.5      5.853     11.604
REMARK SMILES CC1(C)O[C@@H]2C[C@@H]3[C@H]4CCC5=CC(=O)C=C[C@@]5(C)[C@]4(F)[C@H](O)C[C@]3(C)[C@]2(C(=O)OCCOCCOC(=O)c2ccc(-c3c4nc(c(-c5c(F)cc(S(=O)(=O)[O-])cc5F)c5ccc([nH]5)c(-c5c(F)cc(S(=O)(=O)[O-])cc5F)c5nc(c(-c6c(F)cc(S(=O)(=O)[O-])cc6F)c6ccc3[nH]6)C=C5)C=C4)cc2)O1
REMARK SMILES IDX 33 1 32 2 31 3 30 4 29 5 27 6 28 7 26 8 1 9 2 10 4 11 104 12
REMARK SMILES IDX 3 13 5 14 6 15 24 16 7 17 23 18 25 19 8 20 21 21 9 22 19 23
REMARK SMILES IDX 10 24 17 25 20 26 11 27 16 28 18 29 12 30 15 31 13 32 14 33
REMARK SMILES IDX 22 34 34 36 35 37 36 38 37 39 38 40 39 41 103 42 40 43
REMARK SMILES IDX 102 44 41 45 42 46 43 47 96 48 44 49 101 50 95 51 97 52
REMARK SMILES IDX 45 53 100 54 94 55 93 56 46 58 80 59 59 60 79 61 60 62 63 63
REMARK SMILES IDX 78 64 98 65 61 66 62 67 77 69 99 70 64 71 47 72 48 73 57 74
REMARK SMILES IDX 49 75 50 76 56 77 58 78 51 79 52 80 53 81 54 82 55 83 81 84
REMARK SMILES IDX 82 85 91 86 83 87 84 88 90 89 92 90 85 91 86 92 87 93 88 94
REMARK SMILES IDX 89 95 65 96 66 97 75 98 67 99 68 100 74 101 76 102 69 103
REMARK SMILES IDX 70 104 71 105 72 106 73 107
REMARK H PARENT 22 35 97 57 63 68
REMARK Flexibility Score: inf
ROOT
ATOM      1  C   UNL A   1      40.252  21.550  26.355  1.00  0.00     0.202 C 
ENDROOT
BRANCH   1   2
ATOM      2  O   UNL A   1      39.213  22.428  26.779  1.00  0.00    -0.374 OA
BRANCH   2   3
ATOM      3  C   UNL A   1      38.150  22.733  25.880  1.00  0.00     0.202 C 
BRANCH   3   4
ATOM      4  C   UNL A   1      37.733  21.664  24.873  1.00  0.00     0.261 C 
BRANCH   4   5
ATOM      5  O   UNL A   1      36.404  21.898  24.389  1.00  0.00    -0.461 OA
BRANCH   5   6
ATOM      6  C   UNL A   1      35.477  21.035  24.876  1.00  0.00     0.341 C 
ATOM      7  O   UNL A   1      35.716  19.843  25.037  1.00  0.00    -0.249 OA
BRANCH   6   8
ATOM      8  C   UNL A   1      34.127  21.692  25.163  1.00  0.00     0.200 C 
ATOM      9  C   UNL A   1      33.141  19.309  23.148  1.00  0.00     0.075 C 
ATOM     10  C   UNL A   1      32.598  20.602  23.751  1.00  0.00     0.165 C 
ATOM     11  O   UNL A   1      32.156  20.264  25.068  1.00  0.00    -0.344 OA
ATOM     12  O   UNL A   1      33.568  21.667  23.806  1.00  0.00    -0.329 OA
ATOM     13  C   UNL A   1      31.416  21.072  22.898  1.00  0.00     0.075 C 
ATOM     14  C   UNL A   1      32.985  20.980  25.986  1.00  0.00     0.166 C 
ATOM     15  C   UNL A   1      32.054  22.146  26.590  1.00  0.00     0.040 C 
ATOM     16  C   UNL A   1      34.136  23.105  25.883  1.00  0.00     0.016 C 
ATOM     17  C   UNL A   1      32.597  23.352  25.798  1.00  0.00     0.008 C 
ATOM     18  C   UNL A   1      34.976  24.313  25.433  1.00  0.00     0.046 C 
ATOM     19  C   UNL A   1      34.635  22.923  27.376  1.00  0.00     0.015 C 
ATOM     20  C   UNL A   1      32.066  24.434  24.817  1.00  0.00     0.035 C 
ATOM     21  C   UNL A   1      34.444  25.136  24.289  1.00  0.00     0.154 C 
ATOM     22  C   UNL A   1      30.607  24.812  25.038  1.00  0.00     0.012 C 
ATOM     23  C   UNL A   1      32.987  25.631  24.554  1.00  0.00     0.152 C 
ATOM     24  C   UNL A   1      30.079  25.442  23.748  1.00  0.00     0.032 C 
ATOM     25  C   UNL A   1      32.431  26.539  23.371  1.00  0.00     0.044 C 
ATOM     26  F   UNL A   1      32.992  26.368  25.712  1.00  0.00    -0.239 F 
ATOM     27  C   UNL A   1      30.890  26.639  23.329  1.00  0.00    -0.053 C 
ATOM     28  C   UNL A   1      33.029  27.944  23.455  1.00  0.00    -0.009 C 
ATOM     29  C   UNL A   1      32.840  25.999  21.970  1.00  0.00     0.024 C 
ATOM     30  C   UNL A   1      30.279  27.723  22.813  1.00  0.00     0.052 C 
ATOM     31  C   UNL A   1      32.431  29.019  22.920  1.00  0.00     0.048 C 
ATOM     32  C   UNL A   1      31.069  28.891  22.358  1.00  0.00     0.178 C 
ATOM     33  O   UNL A   1      30.594  29.728  21.602  1.00  0.00    -0.290 OA
BRANCH  21  34
ATOM     34  O   UNL A   1      34.596  24.317  23.135  1.00  0.00    -0.390 OA
ATOM     35  H   UNL A   1      35.276  23.645  23.302  1.00  0.00     0.211 HD
ENDBRANCH  21  34
ENDBRANCH   6   8
ENDBRANCH   5   6
ENDBRANCH   4   5
ENDBRANCH   3   4
ENDBRANCH   2   3
ENDBRANCH   1   2
BRANCH   1  36
ATOM     36  C   UNL A   1      41.594  22.149  25.930  1.00  0.00     0.261 C 
BRANCH  36  37
ATOM     37  O   UNL A   1      42.069  23.150  26.847  1.00  0.00    -0.460 OA
BRANCH  37  38
ATOM     38  C   UNL A   1      42.310  24.355  26.269  1.00  0.00     0.338 C 
ATOM     39  O   UNL A   1      42.739  24.553  25.148  1.00  0.00    -0.246 OA
BRANCH  38  40
ATOM     40  C   UNL A   1      41.787  25.446  27.115  1.00  0.00     0.060 A 
ATOM     41  C   UNL A   1      42.463  26.673  27.070  1.00  0.00     0.016 A 
ATOM     42  C   UNL A   1      40.738  25.246  28.012  1.00  0.00     0.016 A 
ATOM     43  C   UNL A   1      42.141  27.682  27.973  1.00  0.00     0.010 A 
ATOM     44  C   UNL A   1      40.422  26.259  28.925  1.00  0.00     0.010 A 
ATOM     45  C   UNL A   1      41.154  27.462  28.941  1.00  0.00    -0.014 A 
BRANCH  45  46
ATOM     46  C   UNL A   1      41.004  28.423  30.063  1.00  0.00     0.031 A 
ATOM     47  C   UNL A   1      41.908  28.287  31.261  1.00  0.00     0.074 A 
ATOM     48  C   UNL A   1      40.100  29.417  30.005  1.00  0.00     0.049 A 
ATOM     49  N   UNL A   1      41.911  28.969  32.377  1.00  0.00    -0.248 NA
ATOM     50  C   UNL A   1      42.946  27.243  31.195  1.00  0.00     0.031 C 
ATOM     51  C   UNL A   1      39.200  29.678  28.882  1.00  0.00     0.029 A 
ATOM     52  N   UNL A   1      39.780  30.387  30.924  1.00  0.00    -0.354 N 
ATOM     53  C   UNL A   1      42.927  28.424  33.154  1.00  0.00     0.074 A 
ATOM     54  C   UNL A   1      43.514  27.346  32.389  1.00  0.00     0.031 C 
ATOM     55  C   UNL A   1      38.413  30.724  29.189  1.00  0.00     0.029 A 
ATOM     56  C   UNL A   1      38.725  31.182  30.542  1.00  0.00     0.049 A 
ATOM     57  H   UNL A   1      40.260  30.503  31.775  1.00  0.00     0.167 HD
ATOM     58  C   UNL A   1      43.335  28.793  34.390  1.00  0.00     0.037 A 
ATOM     59  C   UNL A   1      38.063  32.141  31.219  1.00  0.00     0.037 A 
ATOM     60  C   UNL A   1      42.766  29.887  35.134  1.00  0.00     0.049 A 
ATOM     61  C   UNL A   1      38.507  32.499  32.617  1.00  0.00     0.074 A 
ATOM     62  C   UNL A   1      43.147  30.368  36.375  1.00  0.00     0.029 A 
ATOM     63  N   UNL A   1      41.695  30.662  34.716  1.00  0.00    -0.354 N 
ATOM     64  N   UNL A   1      39.497  32.002  33.321  1.00  0.00    -0.248 NA
ATOM     65  C   UNL A   1      37.748  33.548  33.313  1.00  0.00     0.031 C 
ATOM     66  C   UNL A   1      42.267  31.390  36.735  1.00  0.00     0.029 A 
ATOM     67  C   UNL A   1      41.381  31.594  35.690  1.00  0.00     0.049 A 
ATOM     68  H   UNL A   1      41.229  30.564  33.854  1.00  0.00     0.167 HD
ATOM     69  C   UNL A   1      39.500  32.704  34.524  1.00  0.00     0.074 A 
ATOM     70  C   UNL A   1      38.422  33.666  34.448  1.00  0.00     0.031 C 
ATOM     71  C   UNL A   1      40.321  32.565  35.593  1.00  0.00     0.037 A 
BRANCH  58  72
ATOM     72  C   UNL A   1      44.432  28.003  35.048  1.00  0.00     0.058 A 
ATOM     73  C   UNL A   1      45.778  28.391  34.969  1.00  0.00     0.135 A 
ATOM     74  C   UNL A   1      44.114  26.903  35.860  1.00  0.00     0.135 A 
ATOM     75  F   UNL A   1      46.140  29.424  34.191  1.00  0.00    -0.206 F 
ATOM     76  C   UNL A   1      46.770  27.718  35.675  1.00  0.00     0.059 A 
ATOM     77  C   UNL A   1      45.084  26.231  36.596  1.00  0.00     0.059 A 
ATOM     78  F   UNL A   1      42.841  26.486  35.965  1.00  0.00    -0.206 F 
ATOM     79  C   UNL A   1      46.411  26.646  36.496  1.00  0.00     0.060 A 
BRANCH  79  80
ATOM     80  S   UNL A   1      47.700  25.823  37.454  1.00  0.00     0.124 S 
ATOM     81  O   UNL A   1      47.219  26.019  38.819  1.00  0.00    -0.237 OA
ATOM     82  O   UNL A   1      47.634  24.455  36.950  1.00  0.00    -0.237 OA
ATOM     83  O   UNL A   1      48.909  26.561  37.104  1.00  0.00    -0.744 OA
ENDBRANCH  79  80
ENDBRANCH  58  72
BRANCH  59  84
ATOM     84  C   UNL A   1      36.878  32.809  30.614  1.00  0.00     0.058 A 
ATOM     85  C   UNL A   1      37.017  33.812  29.644  1.00  0.00     0.135 A 
ATOM     86  C   UNL A   1      35.577  32.487  31.036  1.00  0.00     0.135 A 
ATOM     87  F   UNL A   1      38.240  34.163  29.213  1.00  0.00    -0.206 F 
ATOM     88  C   UNL A   1      35.917  34.500  29.142  1.00  0.00     0.059 A 
ATOM     89  C   UNL A   1      34.459  33.137  30.524  1.00  0.00     0.059 A 
ATOM     90  F   UNL A   1      35.384  31.524  31.951  1.00  0.00    -0.206 F 
ATOM     91  C   UNL A   1      34.642  34.158  29.593  1.00  0.00     0.060 A 
BRANCH  91  92
ATOM     92  S   UNL A   1      33.217  35.050  28.934  1.00  0.00     0.124 S 
ATOM     93  O   UNL A   1      33.857  36.207  28.319  1.00  0.00    -0.237 OA
ATOM     94  O   UNL A   1      32.643  34.072  28.015  1.00  0.00    -0.237 OA
ATOM     95  O   UNL A   1      32.417  35.327  30.123  1.00  0.00    -0.744 OA
ENDBRANCH  91  92
ENDBRANCH  59  84
BRANCH  71  96
ATOM     96  C   UNL A   1      40.134  33.508  36.752  1.00  0.00     0.058 A 
ATOM     97  C   UNL A   1      40.887  34.684  36.884  1.00  0.00     0.135 A 
ATOM     98  C   UNL A   1      39.132  33.262  37.707  1.00  0.00     0.135 A 
ATOM     99  F   UNL A   1      41.862  34.965  36.003  1.00  0.00    -0.206 F 
ATOM    100  C   UNL A   1      40.669  35.573  37.931  1.00  0.00     0.059 A 
ATOM    101  C   UNL A   1      38.874  34.154  38.743  1.00  0.00     0.059 A 
ATOM    102  F   UNL A   1      38.373  32.158  37.622  1.00  0.00    -0.206 F 
ATOM    103  C   UNL A   1      39.655  35.302  38.853  1.00  0.00     0.060 A 
BRANCH 103 104
ATOM    104  S   UNL A   1      39.351  36.488  40.180  1.00  0.00     0.124 S 
ATOM    105  O   UNL A   1      38.652  37.553  39.468  1.00  0.00    -0.237 OA
ATOM    106  O   UNL A   1      38.541  35.711  41.112  1.00  0.00    -0.237 OA
ATOM    107  O   UNL A   1      40.691  36.824  40.651  1.00  0.00    -0.744 OA
ENDBRANCH 103 104
ENDBRANCH  71  96
ENDBRANCH  45  46
ENDBRANCH  38  40
ENDBRANCH  37  38
ENDBRANCH  36  37
ENDBRANCH   1  36
TORSDOF 18
ENDMDL
