MODEL 1
REMARK VINA RESULT:     -10.9      0.000      0.000
REMARK SMILES O=C(OCCOCCOC(=O)[C@@H]1CN(Cc2ccccc2)c2ccccc2O1)c1ccc(-c2c3nc(c(-c4c(F)cc(S(=O)(=O)[O-])cc4F)c4ccc([nH]4)c(-c4c(F)cc(S(=O)(=O)[O-])cc4F)c4nc(c(-c5c(F)cc(S(=O)(=O)[O-])cc5F)c5ccc2[nH]5)C=C4)C=C3)cc1
REMARK SMILES IDX 5 1 4 2 3 3 2 4 1 5 29 6 30 7 94 8 31 9 93 10 32 11 33 12
REMARK SMILES IDX 34 13 87 14 35 15 92 16 86 17 88 18 36 19 91 20 85 21 84 22
REMARK SMILES IDX 37 24 71 25 50 26 70 27 51 28 54 29 69 30 89 31 52 32 53 33
REMARK SMILES IDX 68 35 90 36 55 37 38 38 39 39 48 40 40 41 41 42 47 43 49 44
REMARK SMILES IDX 42 45 43 46 44 47 45 48 46 49 72 50 73 51 82 52 74 53 75 54
REMARK SMILES IDX 81 55 83 56 76 57 77 58 78 59 79 60 80 61 56 62 57 63 66 64
REMARK SMILES IDX 58 65 59 66 65 67 67 68 60 69 61 70 62 71 63 72 64 73 6 74
REMARK SMILES IDX 7 75 8 76 9 77 10 78 11 79 12 80 13 81 28 82 14 83 27 84
REMARK SMILES IDX 22 85 26 86 23 87 25 88 24 89 15 90 16 91 17 92 21 93 18 94
REMARK SMILES IDX 20 95 19 96
REMARK H PARENT 88 23 54 34
REMARK Flexibility Score: inf
ROOT
ATOM      1  C   UNL A   1      31.784  29.310  25.872  1.00  0.00     0.202 C 
ENDROOT
BRANCH   1   2
ATOM      2  C   UNL A   1      33.279  29.318  26.196  1.00  0.00     0.261 C 
BRANCH   2   3
ATOM      3  O   UNL A   1      33.505  29.646  27.572  1.00  0.00    -0.460 OA
BRANCH   3   4
ATOM      4  C   UNL A   1      34.435  30.497  28.066  1.00  0.00     0.338 C 
ATOM      5  O   UNL A   1      34.097  31.650  28.326  1.00  0.00    -0.246 OA
BRANCH   4   6
ATOM      6  C   UNL A   1      35.849  30.102  28.344  1.00  0.00     0.060 A 
ATOM      7  C   UNL A   1      36.322  29.583  29.554  1.00  0.00     0.016 A 
ATOM      8  C   UNL A   1      36.740  30.172  27.263  1.00  0.00     0.016 A 
ATOM      9  C   UNL A   1      37.640  29.187  29.713  1.00  0.00     0.010 A 
ATOM     10  C   UNL A   1      38.063  29.745  27.402  1.00  0.00     0.010 A 
ATOM     11  C   UNL A   1      38.515  29.262  28.636  1.00  0.00    -0.014 A 
BRANCH  11  12
ATOM     12  C   UNL A   1      39.930  28.930  28.863  1.00  0.00     0.031 A 
ATOM     13  C   UNL A   1      40.807  29.977  29.472  1.00  0.00     0.074 A 
ATOM     14  C   UNL A   1      40.373  27.686  28.613  1.00  0.00     0.049 A 
ATOM     15  N   UNL A   1      42.095  29.966  29.667  1.00  0.00    -0.248 NA
ATOM     16  C   UNL A   1      40.136  31.207  29.932  1.00  0.00     0.031 C 
ATOM     17  C   UNL A   1      39.543  26.572  28.142  1.00  0.00     0.029 A 
ATOM     18  N   UNL A   1      41.621  27.141  28.736  1.00  0.00    -0.354 N 
ATOM     19  C   UNL A   1      42.396  31.196  30.235  1.00  0.00     0.074 A 
ATOM     20  C   UNL A   1      41.159  31.932  30.354  1.00  0.00     0.031 C 
ATOM     21  C   UNL A   1      40.308  25.475  28.021  1.00  0.00     0.029 A 
ATOM     22  C   UNL A   1      41.688  25.828  28.334  1.00  0.00     0.049 A 
ATOM     23  H   UNL A   1      42.397  27.641  29.079  1.00  0.00     0.167 HD
ATOM     24  C   UNL A   1      43.609  31.660  30.613  1.00  0.00     0.037 A 
ATOM     25  C   UNL A   1      42.759  25.026  28.192  1.00  0.00     0.037 A 
ATOM     26  C   UNL A   1      44.815  30.889  30.479  1.00  0.00     0.049 A 
ATOM     27  C   UNL A   1      44.111  25.599  28.527  1.00  0.00     0.074 A 
ATOM     28  C   UNL A   1      46.114  31.257  30.771  1.00  0.00     0.029 A 
ATOM     29  N   UNL A   1      44.861  29.581  30.010  1.00  0.00    -0.354 N 
ATOM     30  N   UNL A   1      44.406  26.791  28.998  1.00  0.00    -0.248 NA
ATOM     31  C   UNL A   1      45.274  24.735  28.302  1.00  0.00     0.031 C 
ATOM     32  C   UNL A   1      46.949  30.187  30.435  1.00  0.00     0.029 A 
ATOM     33  C   UNL A   1      46.167  29.131  29.988  1.00  0.00     0.049 A 
ATOM     34  H   UNL A   1      44.077  29.053  29.734  1.00  0.00     0.167 HD
ATOM     35  C   UNL A   1      45.788  26.813  29.142  1.00  0.00     0.074 A 
ATOM     36  C   UNL A   1      46.266  25.508  28.725  1.00  0.00     0.031 C 
ATOM     37  C   UNL A   1      46.593  27.816  29.574  1.00  0.00     0.037 A 
BRANCH  24  38
ATOM     38  C   UNL A   1      43.679  33.070  31.124  1.00  0.00     0.058 A 
ATOM     39  C   UNL A   1      43.876  34.167  30.270  1.00  0.00     0.135 A 
ATOM     40  C   UNL A   1      43.573  33.325  32.501  1.00  0.00     0.135 A 
ATOM     41  F   UNL A   1      44.021  33.978  28.948  1.00  0.00    -0.206 F 
ATOM     42  C   UNL A   1      43.993  35.463  30.766  1.00  0.00     0.059 A 
ATOM     43  C   UNL A   1      43.660  34.614  33.016  1.00  0.00     0.059 A 
ATOM     44  F   UNL A   1      43.402  32.311  33.364  1.00  0.00    -0.206 F 
ATOM     45  C   UNL A   1      43.886  35.676  32.141  1.00  0.00     0.060 A 
BRANCH  45  46
ATOM     46  S   UNL A   1      44.050  37.360  32.769  1.00  0.00     0.124 S 
ATOM     47  O   UNL A   1      42.996  37.398  33.779  1.00  0.00    -0.237 OA
ATOM     48  O   UNL A   1      45.416  37.371  33.279  1.00  0.00    -0.237 OA
ATOM     49  O   UNL A   1      43.817  38.188  31.589  1.00  0.00    -0.744 OA
ENDBRANCH  45  46
ENDBRANCH  24  38
BRANCH  25  50
ATOM     50  C   UNL A   1      42.606  23.644  27.660  1.00  0.00     0.058 A 
ATOM     51  C   UNL A   1      42.616  23.386  26.281  1.00  0.00     0.135 A 
ATOM     52  C   UNL A   1      42.439  22.547  28.523  1.00  0.00     0.135 A 
ATOM     53  F   UNL A   1      42.766  24.397  25.411  1.00  0.00    -0.206 F 
ATOM     54  C   UNL A   1      42.447  22.099  25.777  1.00  0.00     0.059 A 
ATOM     55  C   UNL A   1      42.299  21.248  28.044  1.00  0.00     0.059 A 
ATOM     56  F   UNL A   1      42.430  22.731  29.852  1.00  0.00    -0.206 F 
ATOM     57  C   UNL A   1      42.289  21.036  26.668  1.00  0.00     0.060 A 
BRANCH  57  58
ATOM     58  S   UNL A   1      42.093  19.367  26.004  1.00  0.00     0.124 S 
ATOM     59  O   UNL A   1      42.932  19.426  24.812  1.00  0.00    -0.237 OA
ATOM     60  O   UNL A   1      42.594  18.542  27.098  1.00  0.00    -0.237 OA
ATOM     61  O   UNL A   1      40.657  19.269  25.760  1.00  0.00    -0.744 OA
ENDBRANCH  57  58
ENDBRANCH  25  50
BRANCH  37  62
ATOM     62  C   UNL A   1      48.063  27.520  29.655  1.00  0.00     0.058 A 
ATOM     63  C   UNL A   1      48.934  27.823  28.597  1.00  0.00     0.135 A 
ATOM     64  C   UNL A   1      48.610  26.989  30.832  1.00  0.00     0.135 A 
ATOM     65  F   UNL A   1      48.456  28.327  27.449  1.00  0.00    -0.206 F 
ATOM     66  C   UNL A   1      50.300  27.587  28.699  1.00  0.00     0.059 A 
ATOM     67  C   UNL A   1      49.976  26.774  30.967  1.00  0.00     0.059 A 
ATOM     68  F   UNL A   1      47.816  26.695  31.876  1.00  0.00    -0.206 F 
ATOM     69  C   UNL A   1      50.811  27.066  29.889  1.00  0.00     0.060 A 
BRANCH  69  70
ATOM     70  S   UNL A   1      52.592  26.807  30.024  1.00  0.00     0.124 S 
ATOM     71  O   UNL A   1      52.909  26.273  28.704  1.00  0.00    -0.237 OA
ATOM     72  O   UNL A   1      53.083  28.153  30.299  1.00  0.00    -0.237 OA
ATOM     73  O   UNL A   1      52.714  25.862  31.130  1.00  0.00    -0.744 OA
ENDBRANCH  69  70
ENDBRANCH  37  62
ENDBRANCH  11  12
ENDBRANCH   4   6
ENDBRANCH   3   4
ENDBRANCH   2   3
ENDBRANCH   1   2
BRANCH   1  74
ATOM     74  O   UNL A   1      31.319  28.114  25.238  1.00  0.00    -0.374 OA
BRANCH  74  75
ATOM     75  C   UNL A   1      31.977  26.915  25.682  1.00  0.00     0.202 C 
BRANCH  75  76
ATOM     76  C   UNL A   1      31.049  26.130  26.597  1.00  0.00     0.261 C 
BRANCH  76  77
ATOM     77  O   UNL A   1      30.620  24.973  25.861  1.00  0.00    -0.460 OA
BRANCH  77  78
ATOM     78  C   UNL A   1      31.191  23.819  26.318  1.00  0.00     0.349 C 
ATOM     79  O   UNL A   1      31.662  23.714  27.443  1.00  0.00    -0.248 OA
BRANCH  78  80
ATOM     80  C   UNL A   1      31.172  22.726  25.235  1.00  0.00     0.301 C 
ATOM     81  C   UNL A   1      32.503  21.998  24.996  1.00  0.00     0.174 C 
ATOM     82  O   UNL A   1      30.732  23.274  23.994  1.00  0.00    -0.475 OA
ATOM     83  N   UNL A   1      33.588  22.920  24.625  1.00  0.00    -0.360 N 
ATOM     84  C   UNL A   1      31.723  24.066  23.447  1.00  0.00     0.144 A 
ATOM     85  C   UNL A   1      33.112  23.910  23.731  1.00  0.00     0.080 A 
ATOM     86  C   UNL A   1      31.227  25.106  22.660  1.00  0.00     0.049 A 
ATOM     87  C   UNL A   1      33.964  24.817  23.102  1.00  0.00     0.030 A 
ATOM     88  C   UNL A   1      32.103  26.047  22.144  1.00  0.00     0.004 A 
ATOM     89  C   UNL A   1      33.471  25.893  22.351  1.00  0.00     0.002 A 
BRANCH  83  90
ATOM     90  C   UNL A   1      34.491  23.298  25.745  1.00  0.00     0.152 C 
BRANCH  90  91
ATOM     91  C   UNL A   1      35.936  22.860  25.669  1.00  0.00    -0.029 A 
ATOM     92  C   UNL A   1      36.296  21.561  25.280  1.00  0.00     0.005 A 
ATOM     93  C   UNL A   1      36.949  23.726  26.115  1.00  0.00     0.005 A 
ATOM     94  C   UNL A   1      37.634  21.155  25.316  1.00  0.00     0.000 A 
ATOM     95  C   UNL A   1      38.287  23.336  26.109  1.00  0.00     0.000 A 
ATOM     96  C   UNL A   1      38.630  22.047  25.714  1.00  0.00     0.000 A 
ENDBRANCH  90  91
ENDBRANCH  83  90
ENDBRANCH  78  80
ENDBRANCH  77  78
ENDBRANCH  76  77
ENDBRANCH  75  76
ENDBRANCH  74  75
ENDBRANCH   1  74
TORSDOF 19
ENDMDL
MODEL 2
REMARK VINA RESULT:     -10.8      1.432      2.501
REMARK SMILES O=C(OCCOCCOC(=O)[C@@H]1CN(Cc2ccccc2)c2ccccc2O1)c1ccc(-c2c3nc(c(-c4c(F)cc(S(=O)(=O)[O-])cc4F)c4ccc([nH]4)c(-c4c(F)cc(S(=O)(=O)[O-])cc4F)c4nc(c(-c5c(F)cc(S(=O)(=O)[O-])cc5F)c5ccc2[nH]5)C=C4)C=C3)cc1
REMARK SMILES IDX 5 1 4 2 3 3 2 4 1 5 29 6 30 7 94 8 31 9 93 10 32 11 33 12
REMARK SMILES IDX 34 13 87 14 35 15 92 16 86 17 88 18 36 19 91 20 85 21 84 22
REMARK SMILES IDX 37 24 71 25 50 26 70 27 51 28 54 29 69 30 89 31 52 32 53 33
REMARK SMILES IDX 68 35 90 36 55 37 38 38 39 39 48 40 40 41 41 42 47 43 49 44
REMARK SMILES IDX 42 45 43 46 44 47 45 48 46 49 72 50 73 51 82 52 74 53 75 54
REMARK SMILES IDX 81 55 83 56 76 57 77 58 78 59 79 60 80 61 56 62 57 63 66 64
REMARK SMILES IDX 58 65 59 66 65 67 67 68 60 69 61 70 62 71 63 72 64 73 6 74
REMARK SMILES IDX 7 75 8 76 9 77 10 78 11 79 12 80 13 81 28 82 14 83 27 84
REMARK SMILES IDX 22 85 26 86 23 87 25 88 24 89 15 90 16 91 17 92 21 93 18 94
REMARK SMILES IDX 20 95 19 96
REMARK H PARENT 88 23 54 34
REMARK Flexibility Score: inf
ROOT
ATOM      1  C   UNL A   1      31.797  29.113  25.915  1.00  0.00     0.202 C 
ENDROOT
BRANCH   1   2
ATOM      2  C   UNL A   1      32.203  29.844  27.197  1.00  0.00     0.261 C 
BRANCH   2   3
ATOM      3  O   UNL A   1      33.554  29.535  27.558  1.00  0.00    -0.460 OA
BRANCH   3   4
ATOM      4  C   UNL A   1      34.489  30.394  28.030  1.00  0.00     0.338 C 
ATOM      5  O   UNL A   1      34.156  31.554  28.263  1.00  0.00    -0.246 OA
BRANCH   4   6
ATOM      6  C   UNL A   1      35.902  30.000  28.314  1.00  0.00     0.060 A 
ATOM      7  C   UNL A   1      36.362  29.445  29.513  1.00  0.00     0.016 A 
ATOM      8  C   UNL A   1      36.807  30.111  27.249  1.00  0.00     0.016 A 
ATOM      9  C   UNL A   1      37.682  29.054  29.677  1.00  0.00     0.010 A 
ATOM     10  C   UNL A   1      38.131  29.690  27.392  1.00  0.00     0.010 A 
ATOM     11  C   UNL A   1      38.570  29.170  28.615  1.00  0.00    -0.014 A 
BRANCH  11  12
ATOM     12  C   UNL A   1      39.984  28.841  28.851  1.00  0.00     0.031 A 
ATOM     13  C   UNL A   1      40.852  29.886  29.476  1.00  0.00     0.074 A 
ATOM     14  C   UNL A   1      40.433  27.600  28.593  1.00  0.00     0.049 A 
ATOM     15  N   UNL A   1      42.139  29.877  29.681  1.00  0.00    -0.248 NA
ATOM     16  C   UNL A   1      40.173  31.108  29.942  1.00  0.00     0.031 C 
ATOM     17  C   UNL A   1      39.611  26.488  28.104  1.00  0.00     0.029 A 
ATOM     18  N   UNL A   1      41.683  27.059  28.721  1.00  0.00    -0.354 N 
ATOM     19  C   UNL A   1      42.430  31.102  30.264  1.00  0.00     0.074 A 
ATOM     20  C   UNL A   1      41.191  31.833  30.380  1.00  0.00     0.031 C 
ATOM     21  C   UNL A   1      40.381  25.396  27.979  1.00  0.00     0.029 A 
ATOM     22  C   UNL A   1      41.758  25.750  28.307  1.00  0.00     0.049 A 
ATOM     23  H   UNL A   1      42.454  27.558  29.075  1.00  0.00     0.167 HD
ATOM     24  C   UNL A   1      43.639  31.568  30.656  1.00  0.00     0.037 A 
ATOM     25  C   UNL A   1      42.833  24.953  28.167  1.00  0.00     0.037 A 
ATOM     26  C   UNL A   1      44.849  30.802  30.525  1.00  0.00     0.049 A 
ATOM     27  C   UNL A   1      44.180  25.528  28.518  1.00  0.00     0.074 A 
ATOM     28  C   UNL A   1      46.144  31.172  30.831  1.00  0.00     0.029 A 
ATOM     29  N   UNL A   1      44.903  29.498  30.044  1.00  0.00    -0.354 N 
ATOM     30  N   UNL A   1      44.467  26.716  29.002  1.00  0.00    -0.248 NA
ATOM     31  C   UNL A   1      45.348  24.670  28.293  1.00  0.00     0.031 C 
ATOM     32  C   UNL A   1      46.986  30.107  30.492  1.00  0.00     0.029 A 
ATOM     33  C   UNL A   1      46.211  29.053  30.028  1.00  0.00     0.049 A 
ATOM     34  H   UNL A   1      44.123  28.970  29.756  1.00  0.00     0.167 HD
ATOM     35  C   UNL A   1      45.847  26.742  29.158  1.00  0.00     0.074 A 
ATOM     36  C   UNL A   1      46.333  25.443  28.732  1.00  0.00     0.031 C 
ATOM     37  C   UNL A   1      46.645  27.743  29.605  1.00  0.00     0.037 A 
BRANCH  24  38
ATOM     38  C   UNL A   1      43.699  32.973  31.181  1.00  0.00     0.058 A 
ATOM     39  C   UNL A   1      43.878  34.080  30.336  1.00  0.00     0.135 A 
ATOM     40  C   UNL A   1      43.605  33.212  32.561  1.00  0.00     0.135 A 
ATOM     41  F   UNL A   1      44.011  33.906  29.011  1.00  0.00    -0.206 F 
ATOM     42  C   UNL A   1      43.986  35.372  30.844  1.00  0.00     0.059 A 
ATOM     43  C   UNL A   1      43.684  34.497  33.089  1.00  0.00     0.059 A 
ATOM     44  F   UNL A   1      43.452  32.188  33.416  1.00  0.00    -0.206 F 
ATOM     45  C   UNL A   1      43.890  35.570  32.223  1.00  0.00     0.060 A 
BRANCH  45  46
ATOM     46  S   UNL A   1      44.044  37.250  32.866  1.00  0.00     0.124 S 
ATOM     47  O   UNL A   1      43.871  38.042  31.653  1.00  0.00    -0.237 OA
ATOM     48  O   UNL A   1      42.949  37.316  33.827  1.00  0.00    -0.237 OA
ATOM     49  O   UNL A   1      45.384  37.272  33.444  1.00  0.00    -0.744 OA
ENDBRANCH  45  46
ENDBRANCH  24  38
BRANCH  25  50
ATOM     50  C   UNL A   1      42.688  23.576  27.620  1.00  0.00     0.058 A 
ATOM     51  C   UNL A   1      42.418  22.482  28.454  1.00  0.00     0.135 A 
ATOM     52  C   UNL A   1      42.825  23.322  26.244  1.00  0.00     0.135 A 
ATOM     53  F   UNL A   1      42.283  22.666  29.778  1.00  0.00    -0.206 F 
ATOM     54  C   UNL A   1      42.308  21.188  27.953  1.00  0.00     0.059 A 
ATOM     55  C   UNL A   1      42.688  22.043  25.714  1.00  0.00     0.059 A 
ATOM     56  F   UNL A   1      43.075  24.331  25.395  1.00  0.00    -0.206 F 
ATOM     57  C   UNL A   1      42.445  20.979  26.579  1.00  0.00     0.060 A 
BRANCH  57  58
ATOM     58  S   UNL A   1      42.278  19.300  25.934  1.00  0.00     0.124 S 
ATOM     59  O   UNL A   1      42.803  18.507  27.041  1.00  0.00    -0.237 OA
ATOM     60  O   UNL A   1      40.840  19.202  25.704  1.00  0.00    -0.237 OA
ATOM     61  O   UNL A   1      43.099  19.320  24.726  1.00  0.00    -0.744 OA
ENDBRANCH  57  58
ENDBRANCH  25  50
BRANCH  37  62
ATOM     62  C   UNL A   1      48.115  27.452  29.695  1.00  0.00     0.058 A 
ATOM     63  C   UNL A   1      48.978  27.672  28.610  1.00  0.00     0.135 A 
ATOM     64  C   UNL A   1      48.672  27.011  30.905  1.00  0.00     0.135 A 
ATOM     65  F   UNL A   1      48.489  28.088  27.431  1.00  0.00    -0.206 F 
ATOM     66  C   UNL A   1      50.344  27.443  28.717  1.00  0.00     0.059 A 
ATOM     67  C   UNL A   1      50.039  26.804  31.043  1.00  0.00     0.059 A 
ATOM     68  F   UNL A   1      47.888  26.799  31.975  1.00  0.00    -0.206 F 
ATOM     69  C   UNL A   1      50.865  27.013  29.940  1.00  0.00     0.060 A 
BRANCH  69  70
ATOM     70  S   UNL A   1      52.646  26.761  30.077  1.00  0.00     0.124 S 
ATOM     71  O   UNL A   1      52.715  25.703  31.079  1.00  0.00    -0.237 OA
ATOM     72  O   UNL A   1      53.013  26.375  28.719  1.00  0.00    -0.237 OA
ATOM     73  O   UNL A   1      53.141  28.066  30.507  1.00  0.00    -0.744 OA
ENDBRANCH  69  70
ENDBRANCH  37  62
ENDBRANCH  11  12
ENDBRANCH   4   6
ENDBRANCH   3   4
ENDBRANCH   2   3
ENDBRANCH   1   2
BRANCH   1  74
ATOM     74  O   UNL A   1      31.027  27.925  26.127  1.00  0.00    -0.374 OA
BRANCH  74  75
ATOM     75  C   UNL A   1      31.814  26.744  26.359  1.00  0.00     0.202 C 
BRANCH  75  76
ATOM     76  C   UNL A   1      31.109  25.534  25.764  1.00  0.00     0.261 C 
BRANCH  76  77
ATOM     77  O   UNL A   1      32.070  24.466  25.736  1.00  0.00    -0.460 OA
BRANCH  77  78
ATOM     78  C   UNL A   1      31.602  23.356  25.091  1.00  0.00     0.349 C 
ATOM     79  O   UNL A   1      30.871  22.536  25.631  1.00  0.00    -0.248 OA
BRANCH  78  80
ATOM     80  C   UNL A   1      32.132  23.290  23.649  1.00  0.00     0.301 C 
ATOM     81  C   UNL A   1      32.276  21.882  23.053  1.00  0.00     0.174 C 
ATOM     82  O   UNL A   1      33.397  23.944  23.562  1.00  0.00    -0.475 OA
ATOM     83  N   UNL A   1      33.162  21.022  23.852  1.00  0.00    -0.360 N 
ATOM     84  C   UNL A   1      34.373  23.171  24.159  1.00  0.00     0.144 A 
ATOM     85  C   UNL A   1      34.287  21.755  24.305  1.00  0.00     0.080 A 
ATOM     86  C   UNL A   1      35.418  23.922  24.700  1.00  0.00     0.049 A 
ATOM     87  C   UNL A   1      35.360  21.146  24.955  1.00  0.00     0.030 A 
ATOM     88  C   UNL A   1      36.407  23.284  25.431  1.00  0.00     0.004 A 
ATOM     89  C   UNL A   1      36.387  21.897  25.543  1.00  0.00     0.002 A 
BRANCH  83  90
ATOM     90  C   UNL A   1      32.457  20.092  24.775  1.00  0.00     0.152 C 
BRANCH  90  91
ATOM     91  C   UNL A   1      32.790  18.620  24.688  1.00  0.00    -0.029 A 
ATOM     92  C   UNL A   1      32.661  17.766  25.794  1.00  0.00     0.005 A 
ATOM     93  C   UNL A   1      33.362  18.105  23.513  1.00  0.00     0.005 A 
ATOM     94  C   UNL A   1      33.073  16.431  25.711  1.00  0.00     0.000 A 
ATOM     95  C   UNL A   1      33.731  16.764  23.417  1.00  0.00     0.000 A 
ATOM     96  C   UNL A   1      33.591  15.927  24.519  1.00  0.00     0.000 A 
ENDBRANCH  90  91
ENDBRANCH  83  90
ENDBRANCH  78  80
ENDBRANCH  77  78
ENDBRANCH  76  77
ENDBRANCH  75  76
ENDBRANCH  74  75
ENDBRANCH   1  74
TORSDOF 19
ENDMDL
MODEL 3
REMARK VINA RESULT:     -10.6      2.411      3.483
REMARK SMILES O=C(OCCOCCOC(=O)[C@@H]1CN(Cc2ccccc2)c2ccccc2O1)c1ccc(-c2c3nc(c(-c4c(F)cc(S(=O)(=O)[O-])cc4F)c4ccc([nH]4)c(-c4c(F)cc(S(=O)(=O)[O-])cc4F)c4nc(c(-c5c(F)cc(S(=O)(=O)[O-])cc5F)c5ccc2[nH]5)C=C4)C=C3)cc1
REMARK SMILES IDX 5 1 4 2 3 3 2 4 1 5 29 6 30 7 94 8 31 9 93 10 32 11 33 12
REMARK SMILES IDX 34 13 87 14 35 15 92 16 86 17 88 18 36 19 91 20 85 21 84 22
REMARK SMILES IDX 37 24 71 25 50 26 70 27 51 28 54 29 69 30 89 31 52 32 53 33
REMARK SMILES IDX 68 35 90 36 55 37 38 38 39 39 48 40 40 41 41 42 47 43 49 44
REMARK SMILES IDX 42 45 43 46 44 47 45 48 46 49 72 50 73 51 82 52 74 53 75 54
REMARK SMILES IDX 81 55 83 56 76 57 77 58 78 59 79 60 80 61 56 62 57 63 66 64
REMARK SMILES IDX 58 65 59 66 65 67 67 68 60 69 61 70 62 71 63 72 64 73 6 74
REMARK SMILES IDX 7 75 8 76 9 77 10 78 11 79 12 80 13 81 28 82 14 83 27 84
REMARK SMILES IDX 22 85 26 86 23 87 25 88 24 89 15 90 16 91 17 92 21 93 18 94
REMARK SMILES IDX 20 95 19 96
REMARK H PARENT 88 23 54 34
REMARK Flexibility Score: inf
ROOT
ATOM      1  C   UNL A   1      34.203  28.673  26.348  1.00  0.00     0.202 C 
ENDROOT
BRANCH   1   2
ATOM      2  C   UNL A   1      34.508  29.902  27.207  1.00  0.00     0.261 C 
BRANCH   2   3
ATOM      3  O   UNL A   1      35.184  29.531  28.414  1.00  0.00    -0.460 OA
BRANCH   3   4
ATOM      4  C   UNL A   1      36.254  30.147  28.972  1.00  0.00     0.338 C 
ATOM      5  O   UNL A   1      36.054  31.060  29.772  1.00  0.00    -0.246 OA
BRANCH   4   6
ATOM      6  C   UNL A   1      37.668  29.757  28.692  1.00  0.00     0.060 A 
ATOM      7  C   UNL A   1      38.240  29.642  27.421  1.00  0.00     0.016 A 
ATOM      8  C   UNL A   1      38.502  29.590  29.807  1.00  0.00     0.016 A 
ATOM      9  C   UNL A   1      39.579  29.329  27.248  1.00  0.00     0.010 A 
ATOM     10  C   UNL A   1      39.860  29.307  29.646  1.00  0.00     0.010 A 
ATOM     11  C   UNL A   1      40.395  29.165  28.361  1.00  0.00    -0.014 A 
BRANCH  11  12
ATOM     12  C   UNL A   1      41.786  28.735  28.147  1.00  0.00     0.031 A 
ATOM     13  C   UNL A   1      42.865  29.762  28.270  1.00  0.00     0.074 A 
ATOM     14  C   UNL A   1      42.059  27.433  27.945  1.00  0.00     0.049 A 
ATOM     15  N   UNL A   1      44.140  29.656  28.022  1.00  0.00    -0.248 NA
ATOM     16  C   UNL A   1      42.449  31.094  28.746  1.00  0.00     0.031 C 
ATOM     17  C   UNL A   1      41.068  26.352  27.943  1.00  0.00     0.029 A 
ATOM     18  N   UNL A   1      43.248  26.796  27.720  1.00  0.00    -0.354 N 
ATOM     19  C   UNL A   1      44.672  30.912  28.274  1.00  0.00     0.074 A 
ATOM     20  C   UNL A   1      43.587  31.768  28.693  1.00  0.00     0.031 C 
ATOM     21  C   UNL A   1      41.695  25.184  27.733  1.00  0.00     0.029 A 
ATOM     22  C   UNL A   1      43.113  25.443  27.512  1.00  0.00     0.049 A 
ATOM     23  H   UNL A   1      44.116  27.259  27.708  1.00  0.00     0.167 HD
ATOM     24  C   UNL A   1      45.961  31.306  28.154  1.00  0.00     0.037 A 
ATOM     25  C   UNL A   1      44.032  24.536  27.137  1.00  0.00     0.037 A 
ATOM     26  C   UNL A   1      47.012  30.417  27.736  1.00  0.00     0.049 A 
ATOM     27  C   UNL A   1      45.441  25.018  26.915  1.00  0.00     0.074 A 
ATOM     28  C   UNL A   1      48.347  30.697  27.521  1.00  0.00     0.029 A 
ATOM     29  N   UNL A   1      46.834  29.063  27.473  1.00  0.00    -0.354 N 
ATOM     30  N   UNL A   1      45.934  26.225  27.083  1.00  0.00    -0.248 NA
ATOM     31  C   UNL A   1      46.416  24.030  26.440  1.00  0.00     0.031 C 
ATOM     32  C   UNL A   1      48.967  29.522  27.083  1.00  0.00     0.029 A 
ATOM     33  C   UNL A   1      48.032  28.496  27.080  1.00  0.00     0.049 A 
ATOM     34  H   UNL A   1      45.980  28.580  27.553  1.00  0.00     0.167 HD
ATOM     35  C   UNL A   1      47.280  26.138  26.752  1.00  0.00     0.074 A 
ATOM     36  C   UNL A   1      47.526  24.755  26.391  1.00  0.00     0.031 C 
ATOM     37  C   UNL A   1      48.229  27.108  26.741  1.00  0.00     0.037 A 
BRANCH  24  38
ATOM     38  C   UNL A   1      46.266  32.754  28.404  1.00  0.00     0.058 A 
ATOM     39  C   UNL A   1      46.627  33.235  29.673  1.00  0.00     0.135 A 
ATOM     40  C   UNL A   1      46.169  33.685  27.357  1.00  0.00     0.135 A 
ATOM     41  F   UNL A   1      46.700  32.396  30.719  1.00  0.00    -0.206 F 
ATOM     42  C   UNL A   1      46.854  34.590  29.900  1.00  0.00     0.059 A 
ATOM     43  C   UNL A   1      46.417  35.039  27.554  1.00  0.00     0.059 A 
ATOM     44  F   UNL A   1      45.810  33.283  26.127  1.00  0.00    -0.206 F 
ATOM     45  C   UNL A   1      46.744  35.484  28.834  1.00  0.00     0.060 A 
BRANCH  45  46
ATOM     46  S   UNL A   1      47.032  37.239  29.147  1.00  0.00     0.124 S 
ATOM     47  O   UNL A   1      47.759  37.633  27.944  1.00  0.00    -0.237 OA
ATOM     48  O   UNL A   1      45.675  37.760  29.266  1.00  0.00    -0.237 OA
ATOM     49  O   UNL A   1      47.813  37.242  30.381  1.00  0.00    -0.744 OA
ENDBRANCH  45  46
ENDBRANCH  24  38
BRANCH  25  50
ATOM     50  C   UNL A   1      43.643  23.119  26.891  1.00  0.00     0.058 A 
ATOM     51  C   UNL A   1      43.567  22.597  25.592  1.00  0.00     0.135 A 
ATOM     52  C   UNL A   1      43.330  22.256  27.956  1.00  0.00     0.135 A 
ATOM     53  F   UNL A   1      43.850  23.378  24.538  1.00  0.00    -0.206 F 
ATOM     54  C   UNL A   1      43.178  21.281  25.354  1.00  0.00     0.059 A 
ATOM     55  C   UNL A   1      42.969  20.929  27.746  1.00  0.00     0.059 A 
ATOM     56  F   UNL A   1      43.393  22.698  29.222  1.00  0.00    -0.206 F 
ATOM     57  C   UNL A   1      42.881  20.454  26.440  1.00  0.00     0.060 A 
BRANCH  57  58
ATOM     58  S   UNL A   1      42.400  18.743  26.123  1.00  0.00     0.124 S 
ATOM     59  O   UNL A   1      43.310  18.377  25.042  1.00  0.00    -0.237 OA
ATOM     60  O   UNL A   1      42.652  18.109  27.413  1.00  0.00    -0.237 OA
ATOM     61  O   UNL A   1      40.992  18.852  25.751  1.00  0.00    -0.744 OA
ENDBRANCH  57  58
ENDBRANCH  25  50
BRANCH  37  62
ATOM     62  C   UNL A   1      49.622  26.691  26.367  1.00  0.00     0.058 A 
ATOM     63  C   UNL A   1      50.508  26.151  27.312  1.00  0.00     0.135 A 
ATOM     64  C   UNL A   1      50.048  26.774  25.033  1.00  0.00     0.135 A 
ATOM     65  F   UNL A   1      50.147  26.056  28.602  1.00  0.00    -0.206 F 
ATOM     66  C   UNL A   1      51.780  25.725  26.947  1.00  0.00     0.059 A 
ATOM     67  C   UNL A   1      51.303  26.327  24.641  1.00  0.00     0.059 A 
ATOM     68  F   UNL A   1      49.230  27.273  24.091  1.00  0.00    -0.206 F 
ATOM     69  C   UNL A   1      52.166  25.815  25.608  1.00  0.00     0.060 A 
BRANCH  69  70
ATOM     70  S   UNL A   1      53.804  25.218  25.141  1.00  0.00     0.124 S 
ATOM     71  O   UNL A   1      53.566  23.785  25.012  1.00  0.00    -0.237 OA
ATOM     72  O   UNL A   1      54.053  25.936  23.896  1.00  0.00    -0.237 OA
ATOM     73  O   UNL A   1      54.644  25.617  26.267  1.00  0.00    -0.744 OA
ENDBRANCH  69  70
ENDBRANCH  37  62
ENDBRANCH  11  12
ENDBRANCH   4   6
ENDBRANCH   3   4
ENDBRANCH   2   3
ENDBRANCH   1   2
BRANCH   1  74
ATOM     74  O   UNL A   1      33.471  28.951  25.150  1.00  0.00    -0.374 OA
BRANCH  74  75
ATOM     75  C   UNL A   1      33.901  28.195  24.005  1.00  0.00     0.202 C 
BRANCH  75  76
ATOM     76  C   UNL A   1      32.916  27.066  23.739  1.00  0.00     0.261 C 
BRANCH  76  77
ATOM     77  O   UNL A   1      33.695  25.886  23.483  1.00  0.00    -0.460 OA
BRANCH  77  78
ATOM     78  C   UNL A   1      32.984  24.736  23.673  1.00  0.00     0.349 C 
ATOM     79  O   UNL A   1      32.680  23.986  22.754  1.00  0.00    -0.248 OA
BRANCH  78  80
ATOM     80  C   UNL A   1      32.619  24.549  25.156  1.00  0.00     0.301 C 
ATOM     81  C   UNL A   1      33.803  24.451  26.129  1.00  0.00     0.174 C 
ATOM     82  O   UNL A   1      31.808  23.388  25.318  1.00  0.00    -0.475 OA
ATOM     83  N   UNL A   1      34.715  23.347  25.792  1.00  0.00    -0.360 N 
ATOM     84  C   UNL A   1      32.575  22.249  25.167  1.00  0.00     0.144 A 
ATOM     85  C   UNL A   1      33.981  22.201  25.397  1.00  0.00     0.080 A 
ATOM     86  C   UNL A   1      31.856  21.161  24.668  1.00  0.00     0.049 A 
ATOM     87  C   UNL A   1      34.591  20.968  25.172  1.00  0.00     0.030 A 
ATOM     88  C   UNL A   1      32.524  19.988  24.357  1.00  0.00     0.004 A 
ATOM     89  C   UNL A   1      33.886  19.886  24.624  1.00  0.00     0.002 A 
BRANCH  83  90
ATOM     90  C   UNL A   1      35.929  23.754  25.034  1.00  0.00     0.152 C 
BRANCH  90  91
ATOM     91  C   UNL A   1      37.268  23.237  25.509  1.00  0.00    -0.029 A 
ATOM     92  C   UNL A   1      37.707  21.938  25.210  1.00  0.00     0.005 A 
ATOM     93  C   UNL A   1      38.048  24.021  26.374  1.00  0.00     0.005 A 
ATOM     94  C   UNL A   1      38.905  21.454  25.747  1.00  0.00     0.000 A 
ATOM     95  C   UNL A   1      39.262  23.555  26.874  1.00  0.00     0.000 A 
ATOM     96  C   UNL A   1      39.689  22.268  26.564  1.00  0.00     0.000 A 
ENDBRANCH  90  91
ENDBRANCH  83  90
ENDBRANCH  78  80
ENDBRANCH  77  78
ENDBRANCH  76  77
ENDBRANCH  75  76
ENDBRANCH  74  75
ENDBRANCH   1  74
TORSDOF 19
ENDMDL
