MODEL 1
REMARK VINA RESULT:     -10.0      0.000      0.000
REMARK SMILES O=C(C[C@@H](NC(=O)C1CC=CC1)C1CC1)OCCOCCOC(=O)c1ccc(-c2c3nc(c(-c4c(F)cc(S(=O)(=O)[O-])cc4F)c4ccc([nH]4)c(-c4c(F)cc(S(=O)(=O)[O-])cc4F)c4nc(c(-c5c(F)cc(S(=O)(=O)[O-])cc5F)c5ccc2[nH]5)C=C4)C=C3)cc1
REMARK SMILES IDX 19 1 18 2 17 3 16 4 2 5 1 6 3 7 4 8 5 9 6 10 7 12 8 13 9 14
REMARK SMILES IDX 12 15 10 16 11 17 13 18 14 19 15 20 20 21 21 22 22 23 23 24
REMARK SMILES IDX 24 25 25 26 26 27 90 28 27 29 89 30 28 31 29 32 30 33 83 34
REMARK SMILES IDX 31 35 88 36 82 37 84 38 32 39 87 40 81 41 80 42 33 44 67 45
REMARK SMILES IDX 46 46 66 47 47 48 50 49 65 50 85 51 48 52 49 53 64 55 86 56
REMARK SMILES IDX 51 57 34 58 35 59 44 60 36 61 37 62 43 63 45 64 38 65 39 66
REMARK SMILES IDX 40 67 41 68 42 69 68 70 69 71 78 72 70 73 71 74 77 75 79 76
REMARK SMILES IDX 72 77 73 78 74 79 75 80 76 81 52 82 53 83 62 84 54 85 55 86
REMARK SMILES IDX 61 87 63 88 56 89 57 90 58 91 59 92 60 93
REMARK H PARENT 5 11 84 43 50 54
REMARK Flexibility Score: inf
ROOT
ATOM      1  O   UNL A   1      41.018  21.540  26.779  1.00  0.00    -0.374 OA
ENDROOT
BRANCH   1   2
ATOM      2  C   UNL A   1      39.715  21.166  26.357  1.00  0.00     0.202 C 
BRANCH   2   3
ATOM      3  C   UNL A   1      38.666  22.226  25.999  1.00  0.00     0.261 C 
BRANCH   3   4
ATOM      4  O   UNL A   1      37.320  21.808  25.716  1.00  0.00    -0.463 OA
BRANCH   4   5
ATOM      5  C   UNL A   1      36.413  22.531  25.028  1.00  0.00     0.307 C 
ATOM      6  O   UNL A   1      36.063  22.180  23.902  1.00  0.00    -0.252 OA
BRANCH   5   7
ATOM      7  C   UNL A   1      36.005  23.870  25.566  1.00  0.00     0.147 C 
BRANCH   7   8
ATOM      8  C   UNL A   1      34.514  24.185  25.537  1.00  0.00     0.096 C 
BRANCH   8   9
ATOM      9  N   UNL A   1      33.781  23.492  26.609  1.00  0.00    -0.352 N 
ATOM     10  C   UNL A   1      32.615  22.816  26.778  1.00  0.00     0.223 C 
ATOM     11  H   UNL A   1      34.285  23.529  27.453  1.00  0.00     0.163 HD
ATOM     12  O   UNL A   1      32.259  22.696  27.954  1.00  0.00    -0.275 OA
BRANCH  10  13
ATOM     13  C   UNL A   1      31.839  22.163  25.639  1.00  0.00     0.086 C 
ATOM     14  C   UNL A   1      31.088  23.206  24.776  1.00  0.00     0.040 C 
ATOM     15  C   UNL A   1      32.698  21.356  24.661  1.00  0.00     0.040 C 
ATOM     16  C   UNL A   1      31.639  23.027  23.402  1.00  0.00    -0.030 C 
ATOM     17  C   UNL A   1      32.525  22.032  23.343  1.00  0.00    -0.030 C 
ENDBRANCH  10  13
ENDBRANCH   8   9
BRANCH   8  18
ATOM     18  C   UNL A   1      34.229  25.668  25.464  1.00  0.00     0.012 C 
ATOM     19  C   UNL A   1      33.236  26.284  24.491  1.00  0.00     0.006 C 
ATOM     20  C   UNL A   1      32.906  26.219  25.950  1.00  0.00     0.006 C 
ENDBRANCH   8  18
ENDBRANCH   7   8
ENDBRANCH   5   7
ENDBRANCH   4   5
ENDBRANCH   3   4
ENDBRANCH   2   3
ENDBRANCH   1   2
BRANCH   1  21
ATOM     21  C   UNL A   1      41.959  21.996  25.813  1.00  0.00     0.202 C 
BRANCH  21  22
ATOM     22  C   UNL A   1      42.373  23.453  25.963  1.00  0.00     0.261 C 
BRANCH  22  23
ATOM     23  O   UNL A   1      41.276  24.230  26.452  1.00  0.00    -0.460 OA
BRANCH  23  24
ATOM     24  C   UNL A   1      41.383  25.561  26.241  1.00  0.00     0.338 C 
ATOM     25  O   UNL A   1      41.304  26.151  25.173  1.00  0.00    -0.246 OA
BRANCH  24  26
ATOM     26  C   UNL A   1      41.410  26.241  27.546  1.00  0.00     0.060 A 
ATOM     27  C   UNL A   1      40.327  26.039  28.414  1.00  0.00     0.016 A 
ATOM     28  C   UNL A   1      42.467  27.082  27.901  1.00  0.00     0.016 A 
ATOM     29  C   UNL A   1      40.259  26.742  29.608  1.00  0.00     0.010 A 
ATOM     30  C   UNL A   1      42.393  27.795  29.093  1.00  0.00     0.010 A 
ATOM     31  C   UNL A   1      41.262  27.668  29.918  1.00  0.00    -0.014 A 
BRANCH  31  32
ATOM     32  C   UNL A   1      41.003  28.675  30.966  1.00  0.00     0.031 A 
ATOM     33  C   UNL A   1      41.870  28.650  32.194  1.00  0.00     0.074 A 
ATOM     34  C   UNL A   1      40.049  29.606  30.804  1.00  0.00     0.049 A 
ATOM     35  N   UNL A   1      41.831  29.411  33.255  1.00  0.00    -0.248 NA
ATOM     36  C   UNL A   1      42.923  27.620  32.233  1.00  0.00     0.031 C 
ATOM     37  C   UNL A   1      39.189  29.739  29.629  1.00  0.00     0.029 A 
ATOM     38  N   UNL A   1      39.648  30.617  31.636  1.00  0.00    -0.354 N 
ATOM     39  C   UNL A   1      42.838  28.942  34.091  1.00  0.00     0.074 A 
ATOM     40  C   UNL A   1      43.448  27.810  33.433  1.00  0.00     0.031 C 
ATOM     41  C   UNL A   1      38.356  30.778  29.817  1.00  0.00     0.029 A 
ATOM     42  C   UNL A   1      38.605  31.358  31.135  1.00  0.00     0.049 A 
ATOM     43  H   UNL A   1      40.065  30.795  32.510  1.00  0.00     0.167 HD
ATOM     44  C   UNL A   1      43.223  29.423  35.297  1.00  0.00     0.037 A 
ATOM     45  C   UNL A   1      37.929  32.380  31.692  1.00  0.00     0.037 A 
ATOM     46  C   UNL A   1      42.605  30.557  35.930  1.00  0.00     0.049 A 
ATOM     47  C   UNL A   1      38.338  32.860  33.061  1.00  0.00     0.074 A 
ATOM     48  C   UNL A   1      42.927  31.150  37.137  1.00  0.00     0.029 A 
ATOM     49  N   UNL A   1      41.530  31.265  35.409  1.00  0.00    -0.354 N 
ATOM     50  N   UNL A   1      39.308  32.428  33.834  1.00  0.00    -0.248 NA
ATOM     51  C   UNL A   1      37.565  33.973  33.629  1.00  0.00     0.031 C 
ATOM     52  C   UNL A   1      42.006  32.176  37.375  1.00  0.00     0.029 A 
ATOM     53  C   UNL A   1      41.155  32.270  36.284  1.00  0.00     0.049 A 
ATOM     54  H   UNL A   1      41.098  31.079  34.544  1.00  0.00     0.167 HD
ATOM     55  C   UNL A   1      39.286  33.242  34.963  1.00  0.00     0.074 A 
ATOM     56  C   UNL A   1      38.212  34.194  34.765  1.00  0.00     0.031 C 
ATOM     57  C   UNL A   1      40.084  33.211  36.060  1.00  0.00     0.037 A 
BRANCH  44  58
ATOM     58  C   UNL A   1      44.327  28.697  36.017  1.00  0.00     0.058 A 
ATOM     59  C   UNL A   1      45.677  29.055  35.873  1.00  0.00     0.135 A 
ATOM     60  C   UNL A   1      44.025  27.626  36.875  1.00  0.00     0.135 A 
ATOM     61  F   UNL A   1      46.028  30.055  35.049  1.00  0.00    -0.206 F 
ATOM     62  C   UNL A   1      46.690  28.358  36.525  1.00  0.00     0.059 A 
ATOM     63  C   UNL A   1      45.018  26.937  37.564  1.00  0.00     0.059 A 
ATOM     64  F   UNL A   1      42.752  27.235  37.046  1.00  0.00    -0.206 F 
ATOM     65  C   UNL A   1      46.349  27.300  37.370  1.00  0.00     0.060 A 
BRANCH  65  66
ATOM     66  S   UNL A   1      47.673  26.405  38.209  1.00  0.00     0.124 S 
ATOM     67  O   UNL A   1      47.877  27.230  39.395  1.00  0.00    -0.237 OA
ATOM     68  O   UNL A   1      47.068  25.099  38.443  1.00  0.00    -0.237 OA
ATOM     69  O   UNL A   1      48.764  26.422  37.239  1.00  0.00    -0.744 OA
ENDBRANCH  65  66
ENDBRANCH  44  58
BRANCH  45  70
ATOM     70  C   UNL A   1      36.810  33.023  30.952  1.00  0.00     0.058 A 
ATOM     71  C   UNL A   1      37.060  33.927  29.910  1.00  0.00     0.135 A 
ATOM     72  C   UNL A   1      35.471  32.742  31.266  1.00  0.00     0.135 A 
ATOM     73  F   UNL A   1      38.322  34.235  29.577  1.00  0.00    -0.206 F 
ATOM     74  C   UNL A   1      36.024  34.545  29.216  1.00  0.00     0.059 A 
ATOM     75  C   UNL A   1      34.418  33.324  30.568  1.00  0.00     0.059 A 
ATOM     76  F   UNL A   1      35.176  31.874  32.247  1.00  0.00    -0.206 F 
ATOM     77  C   UNL A   1      34.705  34.233  29.550  1.00  0.00     0.060 A 
BRANCH  77  78
ATOM     78  S   UNL A   1      33.370  35.007  28.612  1.00  0.00     0.124 S 
ATOM     79  O   UNL A   1      32.808  33.864  27.901  1.00  0.00    -0.237 OA
ATOM     80  O   UNL A   1      32.540  35.570  29.673  1.00  0.00    -0.237 OA
ATOM     81  O   UNL A   1      34.065  35.987  27.783  1.00  0.00    -0.744 OA
ENDBRANCH  77  78
ENDBRANCH  45  70
BRANCH  57  82
ATOM     82  C   UNL A   1      39.859  34.269  37.107  1.00  0.00     0.058 A 
ATOM     83  C   UNL A   1      39.066  34.037  38.242  1.00  0.00     0.135 A 
ATOM     84  C   UNL A   1      40.481  35.523  36.987  1.00  0.00     0.135 A 
ATOM     85  F   UNL A   1      38.447  32.857  38.406  1.00  0.00    -0.206 F 
ATOM     86  C   UNL A   1      38.865  35.025  39.200  1.00  0.00     0.059 A 
ATOM     87  C   UNL A   1      40.322  36.513  37.951  1.00  0.00     0.059 A 
ATOM     88  F   UNL A   1      41.263  35.793  35.930  1.00  0.00    -0.206 F 
ATOM     89  C   UNL A   1      39.497  36.260  39.046  1.00  0.00     0.060 A 
BRANCH  89  90
ATOM     90  S   UNL A   1      39.239  37.529  40.303  1.00  0.00     0.124 S 
ATOM     91  O   UNL A   1      38.249  38.384  39.656  1.00  0.00    -0.237 OA
ATOM     92  O   UNL A   1      38.757  36.749  41.439  1.00  0.00    -0.237 OA
ATOM     93  O   UNL A   1      40.563  38.118  40.470  1.00  0.00    -0.744 OA
ENDBRANCH  89  90
ENDBRANCH  57  82
ENDBRANCH  31  32
ENDBRANCH  24  26
ENDBRANCH  23  24
ENDBRANCH  22  23
ENDBRANCH  21  22
ENDBRANCH   1  21
TORSDOF 21
ENDMDL
MODEL 2
REMARK VINA RESULT:      -9.8      0.907      8.366
REMARK SMILES O=C(C[C@@H](NC(=O)C1CC=CC1)C1CC1)OCCOCCOC(=O)c1ccc(-c2c3nc(c(-c4c(F)cc(S(=O)(=O)[O-])cc4F)c4ccc([nH]4)c(-c4c(F)cc(S(=O)(=O)[O-])cc4F)c4nc(c(-c5c(F)cc(S(=O)(=O)[O-])cc5F)c5ccc2[nH]5)C=C4)C=C3)cc1
REMARK SMILES IDX 19 1 18 2 17 3 16 4 2 5 1 6 3 7 4 8 5 9 6 10 7 12 8 13 9 14
REMARK SMILES IDX 12 15 10 16 11 17 13 18 14 19 15 20 20 21 21 22 22 23 23 24
REMARK SMILES IDX 24 25 25 26 26 27 90 28 27 29 89 30 28 31 29 32 30 33 83 34
REMARK SMILES IDX 31 35 88 36 82 37 84 38 32 39 87 40 81 41 80 42 33 44 67 45
REMARK SMILES IDX 46 46 66 47 47 48 50 49 65 50 85 51 48 52 49 53 64 55 86 56
REMARK SMILES IDX 51 57 34 58 35 59 44 60 36 61 37 62 43 63 45 64 38 65 39 66
REMARK SMILES IDX 40 67 41 68 42 69 68 70 69 71 78 72 70 73 71 74 77 75 79 76
REMARK SMILES IDX 72 77 73 78 74 79 75 80 76 81 52 82 53 83 62 84 54 85 55 86
REMARK SMILES IDX 61 87 63 88 56 89 57 90 58 91 59 92 60 93
REMARK H PARENT 5 11 84 43 50 54
REMARK Flexibility Score: inf
ROOT
ATOM      1  O   UNL A   1      38.853  21.880  26.117  1.00  0.00    -0.374 OA
ENDROOT
BRANCH   1   2
ATOM      2  C   UNL A   1      38.051  21.321  25.087  1.00  0.00     0.202 C 
BRANCH   2   3
ATOM      3  C   UNL A   1      36.574  21.705  24.940  1.00  0.00     0.261 C 
BRANCH   3   4
ATOM      4  O   UNL A   1      35.628  21.229  25.912  1.00  0.00    -0.463 OA
BRANCH   4   5
ATOM      5  C   UNL A   1      34.956  22.007  26.784  1.00  0.00     0.307 C 
ATOM      6  O   UNL A   1      34.186  21.503  27.601  1.00  0.00    -0.252 OA
BRANCH   5   7
ATOM      7  C   UNL A   1      35.000  23.494  26.601  1.00  0.00     0.147 C 
BRANCH   7   8
ATOM      8  C   UNL A   1      33.776  24.134  25.955  1.00  0.00     0.096 C 
BRANCH   8   9
ATOM      9  N   UNL A   1      32.539  23.824  26.690  1.00  0.00    -0.352 N 
ATOM     10  C   UNL A   1      31.288  23.360  26.434  1.00  0.00     0.223 C 
ATOM     11  H   UNL A   1      32.651  24.009  27.649  1.00  0.00     0.163 HD
ATOM     12  O   UNL A   1      30.467  23.581  27.330  1.00  0.00    -0.275 OA
BRANCH  10  13
ATOM     13  C   UNL A   1      30.921  22.545  25.200  1.00  0.00     0.086 C 
ATOM     14  C   UNL A   1      31.002  23.386  23.902  1.00  0.00     0.040 C 
ATOM     15  C   UNL A   1      31.806  21.319  24.956  1.00  0.00     0.040 C 
ATOM     16  C   UNL A   1      32.006  22.678  23.056  1.00  0.00    -0.030 C 
ATOM     17  C   UNL A   1      32.453  21.564  23.635  1.00  0.00    -0.030 C 
ENDBRANCH  10  13
ENDBRANCH   8   9
BRANCH   8  18
ATOM     18  C   UNL A   1      33.965  25.607  25.672  1.00  0.00     0.012 C 
ATOM     19  C   UNL A   1      33.878  26.210  24.278  1.00  0.00     0.006 C 
ATOM     20  C   UNL A   1      32.786  26.467  25.270  1.00  0.00     0.006 C 
ENDBRANCH   8  18
ENDBRANCH   7   8
ENDBRANCH   5   7
ENDBRANCH   4   5
ENDBRANCH   3   4
ENDBRANCH   2   3
ENDBRANCH   1   2
BRANCH   1  21
ATOM     21  C   UNL A   1      40.162  21.366  26.337  1.00  0.00     0.202 C 
BRANCH  21  22
ATOM     22  C   UNL A   1      41.139  22.350  26.963  1.00  0.00     0.261 C 
BRANCH  22  23
ATOM     23  O   UNL A   1      40.634  23.684  26.851  1.00  0.00    -0.460 OA
BRANCH  23  24
ATOM     24  C   UNL A   1      41.581  24.643  26.738  1.00  0.00     0.338 C 
ATOM     25  O   UNL A   1      42.491  24.693  25.923  1.00  0.00    -0.246 OA
BRANCH  24  26
ATOM     26  C   UNL A   1      41.230  25.755  27.636  1.00  0.00     0.060 A 
ATOM     27  C   UNL A   1      42.102  26.851  27.694  1.00  0.00     0.016 A 
ATOM     28  C   UNL A   1      40.079  25.709  28.426  1.00  0.00     0.016 A 
ATOM     29  C   UNL A   1      41.866  27.873  28.603  1.00  0.00     0.010 A 
ATOM     30  C   UNL A   1      39.849  26.728  29.345  1.00  0.00     0.010 A 
ATOM     31  C   UNL A   1      40.774  27.779  29.473  1.00  0.00    -0.014 A 
BRANCH  31  32
ATOM     32  C   UNL A   1      40.741  28.641  30.672  1.00  0.00     0.031 A 
ATOM     33  C   UNL A   1      39.704  29.728  30.728  1.00  0.00     0.074 A 
ATOM     34  C   UNL A   1      41.588  28.431  31.692  1.00  0.00     0.049 A 
ATOM     35  N   UNL A   1      39.484  30.620  31.656  1.00  0.00    -0.248 NA
ATOM     36  C   UNL A   1      38.792  29.825  29.574  1.00  0.00     0.031 C 
ATOM     37  C   UNL A   1      42.597  27.374  31.749  1.00  0.00     0.029 A 
ATOM     38  N   UNL A   1      41.728  29.100  32.879  1.00  0.00    -0.354 N 
ATOM     39  C   UNL A   1      38.424  31.392  31.193  1.00  0.00     0.074 A 
ATOM     40  C   UNL A   1      38.068  30.888  29.887  1.00  0.00     0.031 C 
ATOM     41  C   UNL A   1      43.257  27.467  32.917  1.00  0.00     0.029 A 
ATOM     42  C   UNL A   1      42.737  28.607  33.670  1.00  0.00     0.049 A 
ATOM     43  H   UNL A   1      41.161  29.861  33.139  1.00  0.00     0.167 HD
ATOM     44  C   UNL A   1      37.801  32.422  31.809  1.00  0.00     0.037 A 
ATOM     45  C   UNL A   1      43.188  29.042  34.861  1.00  0.00     0.037 A 
ATOM     46  C   UNL A   1      38.169  32.903  33.114  1.00  0.00     0.049 A 
ATOM     47  C   UNL A   1      42.516  30.229  35.502  1.00  0.00     0.074 A 
ATOM     48  C   UNL A   1      37.593  33.922  33.850  1.00  0.00     0.029 A 
ATOM     49  N   UNL A   1      39.217  32.401  33.875  1.00  0.00    -0.354 N 
ATOM     50  N   UNL A   1      41.498  30.937  35.070  1.00  0.00    -0.248 NA
ATOM     51  C   UNL A   1      43.048  30.670  36.798  1.00  0.00     0.031 C 
ATOM     52  C   UNL A   1      38.333  34.078  35.028  1.00  0.00     0.029 A 
ATOM     53  C   UNL A   1      39.325  33.110  35.059  1.00  0.00     0.049 A 
ATOM     54  H   UNL A   1      39.798  31.652  33.610  1.00  0.00     0.167 HD
ATOM     55  C   UNL A   1      41.244  31.883  36.058  1.00  0.00     0.074 A 
ATOM     56  C   UNL A   1      42.211  31.649  37.111  1.00  0.00     0.031 C 
ATOM     57  C   UNL A   1      40.295  32.853  36.097  1.00  0.00     0.037 A 
BRANCH  44  58
ATOM     58  C   UNL A   1      36.695  33.117  31.062  1.00  0.00     0.058 A 
ATOM     59  C   UNL A   1      36.947  33.982  29.985  1.00  0.00     0.135 A 
ATOM     60  C   UNL A   1      35.355  32.906  31.427  1.00  0.00     0.135 A 
ATOM     61  F   UNL A   1      38.209  34.241  29.605  1.00  0.00    -0.206 F 
ATOM     62  C   UNL A   1      35.916  34.639  29.319  1.00  0.00     0.059 A 
ATOM     63  C   UNL A   1      34.306  33.525  30.754  1.00  0.00     0.059 A 
ATOM     64  F   UNL A   1      35.054  32.095  32.454  1.00  0.00    -0.206 F 
ATOM     65  C   UNL A   1      34.597  34.402  29.712  1.00  0.00     0.060 A 
BRANCH  65  66
ATOM     66  S   UNL A   1      33.270  35.261  28.840  1.00  0.00     0.124 S 
ATOM     67  O   UNL A   1      32.687  34.176  28.056  1.00  0.00    -0.237 OA
ATOM     68  O   UNL A   1      32.449  35.761  29.937  1.00  0.00    -0.237 OA
ATOM     69  O   UNL A   1      33.973  36.282  28.070  1.00  0.00    -0.744 OA
ENDBRANCH  65  66
ENDBRANCH  44  58
BRANCH  45  70
ATOM     70  C   UNL A   1      44.321  28.346  35.528  1.00  0.00     0.058 A 
ATOM     71  C   UNL A   1      45.644  28.766  35.329  1.00  0.00     0.135 A 
ATOM     72  C   UNL A   1      44.104  27.254  36.383  1.00  0.00     0.135 A 
ATOM     73  F   UNL A   1      45.904  29.800  34.515  1.00  0.00    -0.206 F 
ATOM     74  C   UNL A   1      46.714  28.118  35.937  1.00  0.00     0.059 A 
ATOM     75  C   UNL A   1      45.155  26.608  37.026  1.00  0.00     0.059 A 
ATOM     76  F   UNL A   1      42.856  26.819  36.618  1.00  0.00    -0.206 F 
ATOM     77  C   UNL A   1      46.459  27.042  36.789  1.00  0.00     0.060 A 
BRANCH  77  78
ATOM     78  S   UNL A   1      47.854  26.237  37.607  1.00  0.00     0.124 S 
ATOM     79  O   UNL A   1      48.966  27.087  37.196  1.00  0.00    -0.237 OA
ATOM     80  O   UNL A   1      47.470  26.321  39.013  1.00  0.00    -0.237 OA
ATOM     81  O   UNL A   1      47.845  24.891  37.041  1.00  0.00    -0.744 OA
ENDBRANCH  77  78
ENDBRANCH  45  70
BRANCH  57  82
ATOM     82  C   UNL A   1      40.223  33.699  37.339  1.00  0.00     0.058 A 
ATOM     83  C   UNL A   1      39.376  33.379  38.412  1.00  0.00     0.135 A 
ATOM     84  C   UNL A   1      41.049  34.828  37.472  1.00  0.00     0.135 A 
ATOM     85  F   UNL A   1      38.564  32.311  38.337  1.00  0.00    -0.206 F 
ATOM     86  C   UNL A   1      39.318  34.172  39.553  1.00  0.00     0.059 A 
ATOM     87  C   UNL A   1      41.034  35.615  38.619  1.00  0.00     0.059 A 
ATOM     88  F   UNL A   1      41.891  35.171  36.484  1.00  0.00    -0.206 F 
ATOM     89  C   UNL A   1      40.152  35.288  39.647  1.00  0.00     0.060 A 
BRANCH  89  90
ATOM     90  S   UNL A   1      40.078  36.301  41.139  1.00  0.00     0.124 S 
ATOM     91  O   UNL A   1      40.986  37.391  40.798  1.00  0.00    -0.237 OA
ATOM     92  O   UNL A   1      38.663  36.653  41.207  1.00  0.00    -0.237 OA
ATOM     93  O   UNL A   1      40.545  35.399  42.187  1.00  0.00    -0.744 OA
ENDBRANCH  89  90
ENDBRANCH  57  82
ENDBRANCH  31  32
ENDBRANCH  24  26
ENDBRANCH  23  24
ENDBRANCH  22  23
ENDBRANCH  21  22
ENDBRANCH   1  21
TORSDOF 21
ENDMDL
MODEL 3
REMARK VINA RESULT:      -9.7      1.335      2.832
REMARK SMILES O=C(C[C@@H](NC(=O)C1CC=CC1)C1CC1)OCCOCCOC(=O)c1ccc(-c2c3nc(c(-c4c(F)cc(S(=O)(=O)[O-])cc4F)c4ccc([nH]4)c(-c4c(F)cc(S(=O)(=O)[O-])cc4F)c4nc(c(-c5c(F)cc(S(=O)(=O)[O-])cc5F)c5ccc2[nH]5)C=C4)C=C3)cc1
REMARK SMILES IDX 19 1 18 2 17 3 16 4 2 5 1 6 3 7 4 8 5 9 6 10 7 12 8 13 9 14
REMARK SMILES IDX 12 15 10 16 11 17 13 18 14 19 15 20 20 21 21 22 22 23 23 24
REMARK SMILES IDX 24 25 25 26 26 27 90 28 27 29 89 30 28 31 29 32 30 33 83 34
REMARK SMILES IDX 31 35 88 36 82 37 84 38 32 39 87 40 81 41 80 42 33 44 67 45
REMARK SMILES IDX 46 46 66 47 47 48 50 49 65 50 85 51 48 52 49 53 64 55 86 56
REMARK SMILES IDX 51 57 34 58 35 59 44 60 36 61 37 62 43 63 45 64 38 65 39 66
REMARK SMILES IDX 40 67 41 68 42 69 68 70 69 71 78 72 70 73 71 74 77 75 79 76
REMARK SMILES IDX 72 77 73 78 74 79 75 80 76 81 52 82 53 83 62 84 54 85 55 86
REMARK SMILES IDX 61 87 63 88 56 89 57 90 58 91 59 92 60 93
REMARK H PARENT 5 11 84 43 50 54
REMARK Flexibility Score: inf
ROOT
ATOM      1  O   UNL A   1      38.679  22.017  26.218  1.00  0.00    -0.374 OA
ENDROOT
BRANCH   1   2
ATOM      2  C   UNL A   1      37.656  21.805  25.257  1.00  0.00     0.202 C 
BRANCH   2   3
ATOM      3  C   UNL A   1      36.176  21.857  25.654  1.00  0.00     0.261 C 
BRANCH   3   4
ATOM      4  O   UNL A   1      35.620  23.101  26.114  1.00  0.00    -0.463 OA
BRANCH   4   5
ATOM      5  C   UNL A   1      34.375  23.541  25.839  1.00  0.00     0.307 C 
ATOM      6  O   UNL A   1      33.409  22.790  25.967  1.00  0.00    -0.252 OA
BRANCH   5   7
ATOM      7  C   UNL A   1      34.216  24.879  25.181  1.00  0.00     0.147 C 
BRANCH   7   8
ATOM      8  C   UNL A   1      32.845  25.181  24.585  1.00  0.00     0.096 C 
BRANCH   8   9
ATOM      9  N   UNL A   1      31.951  25.829  25.558  1.00  0.00    -0.352 N 
ATOM     10  C   UNL A   1      31.905  26.960  26.308  1.00  0.00     0.223 C 
ATOM     11  H   UNL A   1      31.148  25.279  25.709  1.00  0.00     0.163 HD
ATOM     12  O   UNL A   1      31.099  26.921  27.244  1.00  0.00    -0.275 OA
BRANCH  10  13
ATOM     13  C   UNL A   1      32.696  28.223  25.989  1.00  0.00     0.086 C 
ATOM     14  C   UNL A   1      31.944  29.144  24.997  1.00  0.00     0.040 C 
ATOM     15  C   UNL A   1      33.021  29.098  27.203  1.00  0.00     0.040 C 
ATOM     16  C   UNL A   1      31.772  30.430  25.732  1.00  0.00    -0.030 C 
ATOM     17  C   UNL A   1      32.344  30.400  26.936  1.00  0.00    -0.030 C 
ENDBRANCH  10  13
ENDBRANCH   8   9
BRANCH   8  18
ATOM     18  C   UNL A   1      32.928  25.901  23.259  1.00  0.00     0.012 C 
ATOM     19  C   UNL A   1      33.117  25.188  21.928  1.00  0.00     0.006 C 
ATOM     20  C   UNL A   1      31.794  25.804  22.262  1.00  0.00     0.006 C 
ENDBRANCH   8  18
ENDBRANCH   7   8
ENDBRANCH   5   7
ENDBRANCH   4   5
ENDBRANCH   3   4
ENDBRANCH   2   3
ENDBRANCH   1   2
BRANCH   1  21
ATOM     21  C   UNL A   1      39.889  21.274  26.124  1.00  0.00     0.202 C 
BRANCH  21  22
ATOM     22  C   UNL A   1      41.160  22.107  26.201  1.00  0.00     0.261 C 
BRANCH  22  23
ATOM     23  O   UNL A   1      40.879  23.381  26.789  1.00  0.00    -0.460 OA
BRANCH  23  24
ATOM     24  C   UNL A   1      41.970  24.097  27.141  1.00  0.00     0.338 C 
ATOM     25  O   UNL A   1      43.127  23.905  26.794  1.00  0.00    -0.246 OA
BRANCH  24  26
ATOM     26  C   UNL A   1      41.526  25.301  27.864  1.00  0.00     0.060 A 
ATOM     27  C   UNL A   1      42.432  26.364  27.987  1.00  0.00     0.016 A 
ATOM     28  C   UNL A   1      40.252  25.372  28.433  1.00  0.00     0.016 A 
ATOM     29  C   UNL A   1      42.095  27.473  28.749  1.00  0.00     0.010 A 
ATOM     30  C   UNL A   1      39.919  26.480  29.206  1.00  0.00     0.010 A 
ATOM     31  C   UNL A   1      40.862  27.502  29.412  1.00  0.00    -0.014 A 
BRANCH  31  32
ATOM     32  C   UNL A   1      40.664  28.471  30.508  1.00  0.00     0.031 A 
ATOM     33  C   UNL A   1      41.551  28.355  31.717  1.00  0.00     0.074 A 
ATOM     34  C   UNL A   1      39.748  29.447  30.405  1.00  0.00     0.049 A 
ATOM     35  N   UNL A   1      41.562  29.068  32.810  1.00  0.00    -0.248 NA
ATOM     36  C   UNL A   1      42.559  27.280  31.690  1.00  0.00     0.031 C 
ATOM     37  C   UNL A   1      38.875  29.669  29.254  1.00  0.00     0.029 A 
ATOM     38  N   UNL A   1      39.405  30.436  31.288  1.00  0.00    -0.354 N 
ATOM     39  C   UNL A   1      42.563  28.520  33.606  1.00  0.00     0.074 A 
ATOM     40  C   UNL A   1      43.112  27.394  32.887  1.00  0.00     0.031 C 
ATOM     41  C   UNL A   1      38.091  30.732  29.503  1.00  0.00     0.029 A 
ATOM     42  C   UNL A   1      38.387  31.242  30.840  1.00  0.00     0.049 A 
ATOM     43  H   UNL A   1      39.845  30.557  32.161  1.00  0.00     0.167 HD
ATOM     44  C   UNL A   1      42.988  28.930  34.824  1.00  0.00     0.037 A 
ATOM     45  C   UNL A   1      37.765  32.265  31.455  1.00  0.00     0.037 A 
ATOM     46  C   UNL A   1      42.430  30.060  35.518  1.00  0.00     0.049 A 
ATOM     47  C   UNL A   1      38.217  32.666  32.835  1.00  0.00     0.074 A 
ATOM     48  C   UNL A   1      42.799  30.584  36.743  1.00  0.00     0.029 A 
ATOM     49  N   UNL A   1      41.378  30.835  35.049  1.00  0.00    -0.354 N 
ATOM     50  N   UNL A   1      39.181  32.160  33.570  1.00  0.00    -0.248 NA
ATOM     51  C   UNL A   1      37.503  33.784  33.466  1.00  0.00     0.031 C 
ATOM     52  C   UNL A   1      41.927  31.636  37.044  1.00  0.00     0.029 A 
ATOM     53  C   UNL A   1      41.062  31.814  35.975  1.00  0.00     0.049 A 
ATOM     54  H   UNL A   1      40.924  30.706  34.186  1.00  0.00     0.167 HD
ATOM     55  C   UNL A   1      39.213  32.922  34.734  1.00  0.00     0.074 A 
ATOM     56  C   UNL A   1      38.178  33.926  34.598  1.00  0.00     0.031 C 
ATOM     57  C   UNL A   1      40.029  32.809  35.813  1.00  0.00     0.037 A 
BRANCH  44  58
ATOM     58  C   UNL A   1      44.073  28.127  35.490  1.00  0.00     0.058 A 
ATOM     59  C   UNL A   1      43.790  27.052  36.348  1.00  0.00     0.135 A 
ATOM     60  C   UNL A   1      45.424  28.437  35.258  1.00  0.00     0.135 A 
ATOM     61  F   UNL A   1      42.518  26.724  36.626  1.00  0.00    -0.206 F 
ATOM     62  C   UNL A   1      44.803  26.335  36.978  1.00  0.00     0.059 A 
ATOM     63  C   UNL A   1      46.453  27.712  35.850  1.00  0.00     0.059 A 
ATOM     64  F   UNL A   1      45.755  29.458  34.452  1.00  0.00    -0.206 F 
ATOM     65  C   UNL A   1      46.133  26.674  36.721  1.00  0.00     0.060 A 
BRANCH  65  66
ATOM     66  S   UNL A   1      47.437  25.735  37.546  1.00  0.00     0.124 S 
ATOM     67  O   UNL A   1      48.627  26.221  36.854  1.00  0.00    -0.237 OA
ATOM     68  O   UNL A   1      47.295  26.158  38.934  1.00  0.00    -0.237 OA
ATOM     69  O   UNL A   1      47.079  24.346  37.276  1.00  0.00    -0.744 OA
ENDBRANCH  65  66
ENDBRANCH  44  58
BRANCH  45  70
ATOM     70  C   UNL A   1      36.662  32.988  30.766  1.00  0.00     0.058 A 
ATOM     71  C   UNL A   1      35.326  32.792  31.141  1.00  0.00     0.135 A 
ATOM     72  C   UNL A   1      36.922  33.893  29.724  1.00  0.00     0.135 A 
ATOM     73  F   UNL A   1      35.025  31.932  32.126  1.00  0.00    -0.206 F 
ATOM     74  C   UNL A   1      34.283  33.453  30.500  1.00  0.00     0.059 A 
ATOM     75  C   UNL A   1      35.899  34.587  29.086  1.00  0.00     0.059 A 
ATOM     76  F   UNL A   1      38.185  34.127  29.334  1.00  0.00    -0.206 F 
ATOM     77  C   UNL A   1      34.581  34.353  29.475  1.00  0.00     0.060 A 
BRANCH  77  78
ATOM     78  S   UNL A   1      33.222  35.237  28.679  1.00  0.00     0.124 S 
ATOM     79  O   UNL A   1      32.576  34.168  27.925  1.00  0.00    -0.237 OA
ATOM     80  O   UNL A   1      32.479  35.748  29.827  1.00  0.00    -0.237 OA
ATOM     81  O   UNL A   1      33.903  36.251  27.880  1.00  0.00    -0.744 OA
ENDBRANCH  77  78
ENDBRANCH  45  70
BRANCH  57  82
ATOM     82  C   UNL A   1      39.867  33.827  36.910  1.00  0.00     0.058 A 
ATOM     83  C   UNL A   1      40.493  35.083  36.859  1.00  0.00     0.135 A 
ATOM     84  C   UNL A   1      39.038  33.552  38.010  1.00  0.00     0.135 A 
ATOM     85  F   UNL A   1      41.298  35.397  35.831  1.00  0.00    -0.206 F 
ATOM     86  C   UNL A   1      40.336  36.013  37.882  1.00  0.00     0.059 A 
ATOM     87  C   UNL A   1      38.839  34.482  39.026  1.00  0.00     0.059 A 
ATOM     88  F   UNL A   1      38.401  32.373  38.102  1.00  0.00    -0.206 F 
ATOM     89  C   UNL A   1      39.507  35.703  38.961  1.00  0.00     0.060 A 
BRANCH  89  90
ATOM     90  S   UNL A   1      39.301  36.924  40.274  1.00  0.00     0.124 S 
ATOM     91  O   UNL A   1      40.688  37.205  40.632  1.00  0.00    -0.237 OA
ATOM     92  O   UNL A   1      38.593  38.001  39.589  1.00  0.00    -0.237 OA
ATOM     93  O   UNL A   1      38.524  36.213  41.282  1.00  0.00    -0.744 OA
ENDBRANCH  89  90
ENDBRANCH  57  82
ENDBRANCH  31  32
ENDBRANCH  24  26
ENDBRANCH  23  24
ENDBRANCH  22  23
ENDBRANCH  21  22
ENDBRANCH   1  21
TORSDOF 21
ENDMDL
