MODEL 1
REMARK VINA RESULT:     -11.6      0.000      0.000
REMARK SMILES COc1ccc(-c2cc([C@@H]3CC[N@@H+](CC(=O)OCCOCCOC(=O)c4ccc(-c5c6nc(c(-c7c(F)cc(S(=O)(=O)[O-])cc7F)c7ccc([nH]7)c(-c7c(F)cc(S(=O)(=O)[O-])cc7F)c7nc(c(-c8c(F)cc(S(=O)(=O)[O-])cc8F)c8ccc5[nH]8)C=C7)C=C6)cc4)C3)ccn2)c2ccc(C)nc12
REMARK SMILES IDX 19 1 18 2 17 3 15 4 16 5 14 6 13 7 10 8 11 9 92 10 12 11
REMARK SMILES IDX 9 13 7 14 8 15 95 16 94 17 93 18 6 19 3 20 4 21 102 22 5 23
REMARK SMILES IDX 96 24 101 25 97 26 99 27 98 28 100 29 2 30 1 31 20 32 21 33
REMARK SMILES IDX 22 34 23 35 24 36 25 37 26 38 27 39 91 40 28 41 90 42 29 43
REMARK SMILES IDX 30 44 31 45 84 46 32 47 89 48 83 49 85 50 33 51 88 52 82 53
REMARK SMILES IDX 81 54 34 56 68 57 47 58 67 59 48 60 51 61 66 62 86 63 49 64
REMARK SMILES IDX 50 65 65 67 87 68 52 69 35 70 36 71 45 72 37 73 38 74 44 75
REMARK SMILES IDX 46 76 39 77 40 78 41 79 42 80 43 81 69 82 70 83 79 84 71 85
REMARK SMILES IDX 72 86 78 87 80 88 73 89 74 90 75 91 76 92 77 93 53 94 54 95
REMARK SMILES IDX 63 96 55 97 56 98 62 99 64 100 57 101 58 102 59 103 60 104
REMARK SMILES IDX 61 105
REMARK H PARENT 13 12 85 55 51 66
REMARK Flexibility Score: inf
ROOT
ATOM      1  C   UNL A   1      34.490  35.108  29.505  1.00  0.00     0.202 C 
ENDROOT
BRANCH   1   2
ATOM      2  C   UNL A   1      34.013  34.774  28.091  1.00  0.00     0.261 C 
BRANCH   2   3
ATOM      3  O   UNL A   1      32.678  34.229  28.088  1.00  0.00    -0.459 OA
BRANCH   3   4
ATOM      4  C   UNL A   1      32.482  33.036  27.474  1.00  0.00     0.361 C 
ATOM      5  O   UNL A   1      31.419  32.691  26.964  1.00  0.00    -0.245 OA
BRANCH   4   6
ATOM      6  C   UNL A   1      33.684  32.095  27.563  1.00  0.00     0.386 C 
BRANCH   6   7
ATOM      7  N   UNL A   1      33.469  30.643  27.682  1.00  0.00    -0.325 N 
ATOM      8  C   UNL A   1      33.580  28.883  26.035  1.00  0.00     0.080 C 
ATOM      9  C   UNL A   1      34.918  29.006  26.767  1.00  0.00     0.075 C 
ATOM     10  C   UNL A   1      32.685  29.976  26.647  1.00  0.00     0.271 C 
ATOM     11  C   UNL A   1      34.617  29.816  28.017  1.00  0.00     0.263 C 
ATOM     12  H   UNL A   1      32.879  30.704  28.512  1.00  0.00     0.348 HD
BRANCH   8  13
ATOM     13  C   UNL A   1      33.077  27.463  26.075  1.00  0.00    -0.035 A 
ATOM     14  C   UNL A   1      33.429  25.110  25.699  1.00  0.00     0.071 A 
ATOM     15  C   UNL A   1      33.905  26.420  25.689  1.00  0.00     0.033 A 
ATOM     16  N   UNL A   1      32.151  24.796  25.996  1.00  0.00    -0.256 NA
ATOM     17  C   UNL A   1      31.340  25.824  26.329  1.00  0.00     0.112 A 
ATOM     18  C   UNL A   1      31.754  27.149  26.404  1.00  0.00     0.024 A 
BRANCH  14  19
ATOM     19  C   UNL A   1      34.375  24.021  25.449  1.00  0.00     0.010 A 
ATOM     20  C   UNL A   1      36.090  21.833  25.414  1.00  0.00     0.145 A 
ATOM     21  C   UNL A   1      36.568  23.089  25.805  1.00  0.00     0.049 A 
ATOM     22  C   UNL A   1      34.752  21.622  25.030  1.00  0.00     0.113 A 
ATOM     23  C   UNL A   1      35.715  24.183  25.816  1.00  0.00     0.015 A 
ATOM     24  C   UNL A   1      33.903  22.745  25.009  1.00  0.00     0.013 A 
ATOM     25  N   UNL A   1      34.275  20.387  24.722  1.00  0.00    -0.249 NA
ATOM     26  C   UNL A   1      32.572  22.538  24.575  1.00  0.00     0.013 A 
ATOM     27  C   UNL A   1      32.976  20.220  24.376  1.00  0.00     0.038 A 
ATOM     28  C   UNL A   1      32.097  21.274  24.272  1.00  0.00     0.024 A 
ATOM     29  C   UNL A   1      32.526  18.822  24.087  1.00  0.00     0.067 C 
BRANCH  20  30
ATOM     30  O   UNL A   1      37.029  20.827  25.511  1.00  0.00    -0.494 OA
ATOM     31  C   UNL A   1      38.362  21.299  25.338  1.00  0.00     0.278 C 
ENDBRANCH  20  30
ENDBRANCH  14  19
ENDBRANCH   8  13
ENDBRANCH   6   7
ENDBRANCH   4   6
ENDBRANCH   3   4
ENDBRANCH   2   3
ENDBRANCH   1   2
BRANCH   1  32
ATOM     32  O   UNL A   1      35.492  34.227  30.014  1.00  0.00    -0.374 OA
BRANCH  32  33
ATOM     33  C   UNL A   1      35.316  33.795  31.363  1.00  0.00     0.202 C 
BRANCH  33  34
ATOM     34  C   UNL A   1      34.857  32.336  31.495  1.00  0.00     0.261 C 
BRANCH  34  35
ATOM     35  O   UNL A   1      35.834  31.445  30.910  1.00  0.00    -0.460 OA
BRANCH  35  36
ATOM     36  C   UNL A   1      36.813  31.013  31.731  1.00  0.00     0.338 C 
ATOM     37  O   UNL A   1      36.793  31.029  32.954  1.00  0.00    -0.246 OA
BRANCH  36  38
ATOM     38  C   UNL A   1      37.865  30.318  30.955  1.00  0.00     0.060 A 
ATOM     39  C   UNL A   1      38.820  29.614  31.694  1.00  0.00     0.016 A 
ATOM     40  C   UNL A   1      37.978  30.391  29.562  1.00  0.00     0.016 A 
ATOM     41  C   UNL A   1      39.933  29.063  31.060  1.00  0.00     0.010 A 
ATOM     42  C   UNL A   1      39.093  29.820  28.924  1.00  0.00     0.010 A 
ATOM     43  C   UNL A   1      40.109  29.203  29.676  1.00  0.00    -0.014 A 
BRANCH  43  44
ATOM     44  C   UNL A   1      41.428  28.836  29.082  1.00  0.00     0.031 A 
ATOM     45  C   UNL A   1      42.528  29.870  29.021  1.00  0.00     0.074 A 
ATOM     46  C   UNL A   1      41.690  27.570  28.700  1.00  0.00     0.049 A 
ATOM     47  N   UNL A   1      43.771  29.735  28.629  1.00  0.00    -0.248 NA
ATOM     48  C   UNL A   1      42.188  31.233  29.461  1.00  0.00     0.031 C 
ATOM     49  C   UNL A   1      40.733  26.464  28.729  1.00  0.00     0.029 A 
ATOM     50  N   UNL A   1      42.846  26.997  28.224  1.00  0.00    -0.354 N 
ATOM     51  C   UNL A   1      44.356  30.989  28.774  1.00  0.00     0.074 A 
ATOM     52  C   UNL A   1      43.325  31.883  29.253  1.00  0.00     0.031 C 
ATOM     53  C   UNL A   1      41.343  25.346  28.300  1.00  0.00     0.029 A 
ATOM     54  C   UNL A   1      42.725  25.657  27.936  1.00  0.00     0.049 A 
ATOM     55  H   UNL A   1      43.683  27.499  28.102  1.00  0.00     0.167 HD
ATOM     56  C   UNL A   1      45.638  31.363  28.545  1.00  0.00     0.037 A 
ATOM     57  C   UNL A   1      43.616  24.782  27.424  1.00  0.00     0.037 A 
ATOM     58  C   UNL A   1      46.677  30.475  28.087  1.00  0.00     0.049 A 
ATOM     59  C   UNL A   1      45.025  25.238  27.129  1.00  0.00     0.074 A 
ATOM     60  C   UNL A   1      48.014  30.763  27.869  1.00  0.00     0.029 A 
ATOM     61  N   UNL A   1      46.500  29.138  27.770  1.00  0.00    -0.354 N 
ATOM     62  N   UNL A   1      45.569  26.415  27.321  1.00  0.00    -0.248 NA
ATOM     63  C   UNL A   1      45.943  24.243  26.554  1.00  0.00     0.031 C 
ATOM     64  C   UNL A   1      48.631  29.617  27.359  1.00  0.00     0.029 A 
ATOM     65  C   UNL A   1      47.696  28.597  27.325  1.00  0.00     0.049 A 
ATOM     66  H   UNL A   1      45.652  28.645  27.849  1.00  0.00     0.167 HD
ATOM     67  C   UNL A   1      46.898  26.291  26.921  1.00  0.00     0.074 A 
ATOM     68  C   UNL A   1      47.080  24.922  26.492  1.00  0.00     0.031 C 
ATOM     69  C   UNL A   1      47.878  27.228  26.912  1.00  0.00     0.037 A 
BRANCH  56  70
ATOM     70  C   UNL A   1      46.008  32.805  28.770  1.00  0.00     0.058 A 
ATOM     71  C   UNL A   1      45.830  33.780  27.775  1.00  0.00     0.135 A 
ATOM     72  C   UNL A   1      46.462  33.231  30.029  1.00  0.00     0.135 A 
ATOM     73  F   UNL A   1      45.416  33.427  26.549  1.00  0.00    -0.206 F 
ATOM     74  C   UNL A   1      46.097  35.125  28.019  1.00  0.00     0.059 A 
ATOM     75  C   UNL A   1      46.707  34.573  30.305  1.00  0.00     0.059 A 
ATOM     76  F   UNL A   1      46.650  32.340  31.016  1.00  0.00    -0.206 F 
ATOM     77  C   UNL A   1      46.527  35.512  29.290  1.00  0.00     0.060 A 
BRANCH  77  78
ATOM     78  S   UNL A   1      46.827  37.265  29.601  1.00  0.00     0.124 S 
ATOM     79  O   UNL A   1      48.053  37.214  30.393  1.00  0.00    -0.237 OA
ATOM     80  O   UNL A   1      46.968  37.799  28.250  1.00  0.00    -0.237 OA
ATOM     81  O   UNL A   1      45.633  37.695  30.322  1.00  0.00    -0.744 OA
ENDBRANCH  77  78
ENDBRANCH  56  70
BRANCH  57  82
ATOM     82  C   UNL A   1      43.206  23.379  27.128  1.00  0.00     0.058 A 
ATOM     83  C   UNL A   1      43.145  22.403  28.133  1.00  0.00     0.135 A 
ATOM     84  C   UNL A   1      42.908  22.980  25.815  1.00  0.00     0.135 A 
ATOM     85  F   UNL A   1      43.434  22.728  29.403  1.00  0.00    -0.206 F 
ATOM     86  C   UNL A   1      42.835  21.076  27.845  1.00  0.00     0.059 A 
ATOM     87  C   UNL A   1      42.563  21.669  25.507  1.00  0.00     0.059 A 
ATOM     88  F   UNL A   1      42.941  23.876  24.815  1.00  0.00    -0.206 F 
ATOM     89  C   UNL A   1      42.546  20.719  26.527  1.00  0.00     0.060 A 
BRANCH  89  90
ATOM     90  S   UNL A   1      42.123  19.002  26.164  1.00  0.00     0.124 S 
ATOM     91  O   UNL A   1      40.726  19.122  25.765  1.00  0.00    -0.237 OA
ATOM     92  O   UNL A   1      43.066  18.674  25.100  1.00  0.00    -0.237 OA
ATOM     93  O   UNL A   1      42.361  18.323  27.435  1.00  0.00    -0.744 OA
ENDBRANCH  89  90
ENDBRANCH  57  82
BRANCH  69  94
ATOM     94  C   UNL A   1      49.255  26.805  26.467  1.00  0.00     0.058 A 
ATOM     95  C   UNL A   1      50.190  26.256  27.358  1.00  0.00     0.135 A 
ATOM     96  C   UNL A   1      49.623  26.899  25.114  1.00  0.00     0.135 A 
ATOM     97  F   UNL A   1      49.894  26.145  28.663  1.00  0.00    -0.206 F 
ATOM     98  C   UNL A   1      51.448  25.840  26.931  1.00  0.00     0.059 A 
ATOM     99  C   UNL A   1      50.863  26.461  24.658  1.00  0.00     0.059 A 
ATOM    100  F   UNL A   1      48.765  27.405  24.213  1.00  0.00    -0.206 F 
ATOM    101  C   UNL A   1      51.775  25.944  25.578  1.00  0.00     0.060 A 
BRANCH 101 102
ATOM    102  S   UNL A   1      53.399  25.373  25.032  1.00  0.00     0.124 S 
ATOM    103  O   UNL A   1      53.323  23.945  25.323  1.00  0.00    -0.237 OA
ATOM    104  O   UNL A   1      53.396  25.733  23.618  1.00  0.00    -0.237 OA
ATOM    105  O   UNL A   1      54.325  26.134  25.865  1.00  0.00    -0.744 OA
ENDBRANCH 101 102
ENDBRANCH  69  94
ENDBRANCH  43  44
ENDBRANCH  36  38
ENDBRANCH  35  36
ENDBRANCH  34  35
ENDBRANCH  33  34
ENDBRANCH  32  33
ENDBRANCH   1  32
TORSDOF 21
ENDMDL
MODEL 2
REMARK VINA RESULT:     -11.2      2.545      9.982
REMARK SMILES COc1ccc(-c2cc([C@@H]3CC[N@@H+](CC(=O)OCCOCCOC(=O)c4ccc(-c5c6nc(c(-c7c(F)cc(S(=O)(=O)[O-])cc7F)c7ccc([nH]7)c(-c7c(F)cc(S(=O)(=O)[O-])cc7F)c7nc(c(-c8c(F)cc(S(=O)(=O)[O-])cc8F)c8ccc5[nH]8)C=C7)C=C6)cc4)C3)ccn2)c2ccc(C)nc12
REMARK SMILES IDX 19 1 18 2 17 3 15 4 16 5 14 6 13 7 10 8 11 9 92 10 12 11
REMARK SMILES IDX 9 13 7 14 8 15 95 16 94 17 93 18 6 19 3 20 4 21 102 22 5 23
REMARK SMILES IDX 96 24 101 25 97 26 99 27 98 28 100 29 2 30 1 31 20 32 21 33
REMARK SMILES IDX 22 34 23 35 24 36 25 37 26 38 27 39 91 40 28 41 90 42 29 43
REMARK SMILES IDX 30 44 31 45 84 46 32 47 89 48 83 49 85 50 33 51 88 52 82 53
REMARK SMILES IDX 81 54 34 56 68 57 47 58 67 59 48 60 51 61 66 62 86 63 49 64
REMARK SMILES IDX 50 65 65 67 87 68 52 69 35 70 36 71 45 72 37 73 38 74 44 75
REMARK SMILES IDX 46 76 39 77 40 78 41 79 42 80 43 81 69 82 70 83 79 84 71 85
REMARK SMILES IDX 72 86 78 87 80 88 73 89 74 90 75 91 76 92 77 93 53 94 54 95
REMARK SMILES IDX 63 96 55 97 56 98 62 99 64 100 57 101 58 102 59 103 60 104
REMARK SMILES IDX 61 105
REMARK H PARENT 13 12 85 55 51 66
REMARK Flexibility Score: inf
ROOT
ATOM      1  C   UNL A   1      40.993  22.250  27.765  1.00  0.00     0.202 C 
ENDROOT
BRANCH   1   2
ATOM      2  C   UNL A   1      40.296  22.674  26.471  1.00  0.00     0.261 C 
BRANCH   2   3
ATOM      3  O   UNL A   1      38.905  22.293  26.460  1.00  0.00    -0.459 OA
BRANCH   3   4
ATOM      4  C   UNL A   1      38.521  21.327  25.591  1.00  0.00     0.361 C 
ATOM      5  O   UNL A   1      39.124  20.269  25.427  1.00  0.00    -0.245 OA
BRANCH   4   6
ATOM      6  C   UNL A   1      37.311  21.712  24.739  1.00  0.00     0.386 C 
BRANCH   6   7
ATOM      7  N   UNL A   1      36.031  22.038  25.390  1.00  0.00    -0.325 N 
ATOM      8  C   UNL A   1      33.939  22.820  24.475  1.00  0.00     0.080 C 
ATOM      9  C   UNL A   1      33.918  21.296  24.614  1.00  0.00     0.075 C 
ATOM     10  C   UNL A   1      35.333  23.249  24.970  1.00  0.00     0.271 C 
ATOM     11  C   UNL A   1      35.065  20.965  25.555  1.00  0.00     0.263 C 
ATOM     12  H   UNL A   1      36.439  22.230  26.305  1.00  0.00     0.348 HD
BRANCH   8  13
ATOM     13  C   UNL A   1      32.739  23.435  25.147  1.00  0.00    -0.035 A 
ATOM     14  C   UNL A   1      31.614  25.359  26.061  1.00  0.00     0.071 A 
ATOM     15  C   UNL A   1      32.713  24.796  25.414  1.00  0.00     0.033 A 
ATOM     16  N   UNL A   1      30.580  24.626  26.524  1.00  0.00    -0.256 NA
ATOM     17  C   UNL A   1      30.635  23.295  26.296  1.00  0.00     0.112 A 
ATOM     18  C   UNL A   1      31.664  22.666  25.604  1.00  0.00     0.024 A 
BRANCH  14  19
ATOM     19  C   UNL A   1      31.543  26.817  26.177  1.00  0.00     0.010 A 
ATOM     20  C   UNL A   1      31.818  29.583  26.184  1.00  0.00     0.145 A 
ATOM     21  C   UNL A   1      32.328  28.828  27.247  1.00  0.00     0.049 A 
ATOM     22  C   UNL A   1      31.160  28.993  25.088  1.00  0.00     0.113 A 
ATOM     23  C   UNL A   1      32.184  27.448  27.248  1.00  0.00     0.015 A 
ATOM     24  C   UNL A   1      30.987  27.596  25.116  1.00  0.00     0.013 A 
ATOM     25  N   UNL A   1      30.733  29.724  24.023  1.00  0.00    -0.249 NA
ATOM     26  C   UNL A   1      30.281  27.013  24.036  1.00  0.00     0.013 A 
ATOM     27  C   UNL A   1      30.122  29.118  22.977  1.00  0.00     0.038 A 
ATOM     28  C   UNL A   1      29.860  27.767  22.955  1.00  0.00     0.024 A 
ATOM     29  C   UNL A   1      29.715  29.992  21.832  1.00  0.00     0.067 C 
BRANCH  20  30
ATOM     30  O   UNL A   1      32.087  30.932  26.283  1.00  0.00    -0.494 OA
ATOM     31  C   UNL A   1      33.072  31.227  27.270  1.00  0.00     0.278 C 
ENDBRANCH  20  30
ENDBRANCH  14  19
ENDBRANCH   8  13
ENDBRANCH   6   7
ENDBRANCH   4   6
ENDBRANCH   3   4
ENDBRANCH   2   3
ENDBRANCH   1   2
BRANCH   1  32
ATOM     32  O   UNL A   1      42.038  21.294  27.586  1.00  0.00    -0.374 OA
BRANCH  32  33
ATOM     33  C   UNL A   1      41.635  19.924  27.581  1.00  0.00     0.202 C 
BRANCH  33  34
ATOM     34  C   UNL A   1      42.365  19.063  26.541  1.00  0.00     0.261 C 
BRANCH  34  35
ATOM     35  O   UNL A   1      42.674  19.845  25.366  1.00  0.00    -0.460 OA
BRANCH  35  36
ATOM     36  C   UNL A   1      43.944  19.768  24.915  1.00  0.00     0.338 C 
ATOM     37  O   UNL A   1      44.462  18.803  24.372  1.00  0.00    -0.246 OA
BRANCH  36  38
ATOM     38  C   UNL A   1      44.595  21.095  24.984  1.00  0.00     0.060 A 
ATOM     39  C   UNL A   1      45.154  21.451  26.214  1.00  0.00     0.016 A 
ATOM     40  C   UNL A   1      44.613  22.007  23.922  1.00  0.00     0.016 A 
ATOM     41  C   UNL A   1      45.646  22.739  26.417  1.00  0.00     0.010 A 
ATOM     42  C   UNL A   1      45.126  23.300  24.125  1.00  0.00     0.010 A 
ATOM     43  C   UNL A   1      45.592  23.695  25.392  1.00  0.00    -0.014 A 
BRANCH  43  44
ATOM     44  C   UNL A   1      45.879  25.120  25.727  1.00  0.00     0.031 A 
ATOM     45  C   UNL A   1      44.773  25.993  26.271  1.00  0.00     0.074 A 
ATOM     46  C   UNL A   1      47.133  25.612  25.654  1.00  0.00     0.049 A 
ATOM     47  N   UNL A   1      44.830  27.226  26.708  1.00  0.00    -0.248 NA
ATOM     48  C   UNL A   1      43.427  25.400  26.337  1.00  0.00     0.031 C 
ATOM     49  C   UNL A   1      48.302  24.876  25.173  1.00  0.00     0.029 A 
ATOM     50  N   UNL A   1      47.635  26.845  25.998  1.00  0.00    -0.354 N 
ATOM     51  C   UNL A   1      43.535  27.556  27.096  1.00  0.00     0.074 A 
ATOM     52  C   UNL A   1      42.705  26.406  26.810  1.00  0.00     0.031 C 
ATOM     53  C   UNL A   1      49.385  25.667  25.262  1.00  0.00     0.029 A 
ATOM     54  C   UNL A   1      48.987  26.977  25.777  1.00  0.00     0.049 A 
ATOM     55  H   UNL A   1      47.079  27.566  26.370  1.00  0.00     0.167 HD
ATOM     56  C   UNL A   1      43.078  28.702  27.656  1.00  0.00     0.037 A 
ATOM     57  C   UNL A   1      49.809  28.032  25.953  1.00  0.00     0.037 A 
ATOM     58  C   UNL A   1      43.902  29.843  27.964  1.00  0.00     0.049 A 
ATOM     59  C   UNL A   1      49.263  29.316  26.529  1.00  0.00     0.074 A 
ATOM     60  C   UNL A   1      43.526  31.031  28.569  1.00  0.00     0.029 A 
ATOM     61  N   UNL A   1      45.255  29.948  27.686  1.00  0.00    -0.354 N 
ATOM     62  N   UNL A   1      48.046  29.587  26.937  1.00  0.00    -0.248 NA
ATOM     63  C   UNL A   1      50.205  30.436  26.678  1.00  0.00     0.031 C 
ATOM     64  C   UNL A   1      44.638  31.878  28.599  1.00  0.00     0.029 A 
ATOM     65  C   UNL A   1      45.722  31.194  28.077  1.00  0.00     0.049 A 
ATOM     66  H   UNL A   1      45.804  29.243  27.273  1.00  0.00     0.167 HD
ATOM     67  C   UNL A   1      48.086  30.894  27.418  1.00  0.00     0.074 A 
ATOM     68  C   UNL A   1      49.450  31.353  27.266  1.00  0.00     0.031 C 
ATOM     69  C   UNL A   1      47.084  31.644  27.938  1.00  0.00     0.037 A 
BRANCH  56  70
ATOM     70  C   UNL A   1      41.608  28.802  27.969  1.00  0.00     0.058 A 
ATOM     71  C   UNL A   1      41.119  28.685  29.279  1.00  0.00     0.135 A 
ATOM     72  C   UNL A   1      40.689  29.111  26.952  1.00  0.00     0.135 A 
ATOM     73  F   UNL A   1      41.949  28.375  30.286  1.00  0.00    -0.206 F 
ATOM     74  C   UNL A   1      39.769  28.862  29.569  1.00  0.00     0.059 A 
ATOM     75  C   UNL A   1      39.340  29.320  27.222  1.00  0.00     0.059 A 
ATOM     76  F   UNL A   1      41.104  29.233  25.681  1.00  0.00    -0.206 F 
ATOM     77  C   UNL A   1      38.889  29.188  28.535  1.00  0.00     0.060 A 
BRANCH  77  78
ATOM     78  S   UNL A   1      37.149  29.456  28.936  1.00  0.00     0.124 S 
ATOM     79  O   UNL A   1      36.487  28.662  27.905  1.00  0.00    -0.237 OA
ATOM     80  O   UNL A   1      37.059  28.929  30.294  1.00  0.00    -0.237 OA
ATOM     81  O   UNL A   1      36.988  30.901  28.814  1.00  0.00    -0.744 OA
ENDBRANCH  77  78
ENDBRANCH  56  70
BRANCH  57  82
ATOM     82  C   UNL A   1      51.244  27.940  25.556  1.00  0.00     0.058 A 
ATOM     83  C   UNL A   1      52.252  27.681  26.497  1.00  0.00     0.135 A 
ATOM     84  C   UNL A   1      51.636  28.156  24.225  1.00  0.00     0.135 A 
ATOM     85  F   UNL A   1      51.932  27.482  27.785  1.00  0.00    -0.206 F 
ATOM     86  C   UNL A   1      53.598  27.670  26.141  1.00  0.00     0.059 A 
ATOM     87  C   UNL A   1      52.971  28.116  23.838  1.00  0.00     0.059 A 
ATOM     88  F   UNL A   1      50.711  28.398  23.282  1.00  0.00    -0.206 F 
ATOM     89  C   UNL A   1      53.947  27.889  24.807  1.00  0.00     0.060 A 
BRANCH  89  90
ATOM     90  S   UNL A   1      55.692  27.851  24.348  1.00  0.00     0.124 S 
ATOM     91  O   UNL A   1      55.869  29.171  23.754  1.00  0.00    -0.237 OA
ATOM     92  O   UNL A   1      56.342  27.637  25.637  1.00  0.00    -0.237 OA
ATOM     93  O   UNL A   1      55.770  26.725  23.421  1.00  0.00    -0.744 OA
ENDBRANCH  89  90
ENDBRANCH  57  82
BRANCH  69  94
ATOM     94  C   UNL A   1      47.420  33.029  28.429  1.00  0.00     0.058 A 
ATOM     95  C   UNL A   1      47.325  34.157  27.599  1.00  0.00     0.135 A 
ATOM     96  C   UNL A   1      47.788  33.237  29.769  1.00  0.00     0.135 A 
ATOM     97  F   UNL A   1      46.981  34.018  26.308  1.00  0.00    -0.206 F 
ATOM     98  C   UNL A   1      47.608  35.435  28.071  1.00  0.00     0.059 A 
ATOM     99  C   UNL A   1      48.044  34.509  30.271  1.00  0.00     0.059 A 
ATOM    100  F   UNL A   1      47.883  32.197  30.614  1.00  0.00    -0.206 F 
ATOM    101  C   UNL A   1      47.964  35.603  29.410  1.00  0.00     0.060 A 
BRANCH 101 102
ATOM    102  S   UNL A   1      48.298  37.270  30.017  1.00  0.00     0.124 S 
ATOM    103  O   UNL A   1      47.039  37.948  29.726  1.00  0.00    -0.237 OA
ATOM    104  O   UNL A   1      48.581  37.036  31.429  1.00  0.00    -0.237 OA
ATOM    105  O   UNL A   1      49.441  37.700  29.217  1.00  0.00    -0.744 OA
ENDBRANCH 101 102
ENDBRANCH  69  94
ENDBRANCH  43  44
ENDBRANCH  36  38
ENDBRANCH  35  36
ENDBRANCH  34  35
ENDBRANCH  33  34
ENDBRANCH  32  33
ENDBRANCH   1  32
TORSDOF 21
ENDMDL
MODEL 3
REMARK VINA RESULT:     -11.1      2.470      9.601
REMARK SMILES COc1ccc(-c2cc([C@@H]3CC[N@@H+](CC(=O)OCCOCCOC(=O)c4ccc(-c5c6nc(c(-c7c(F)cc(S(=O)(=O)[O-])cc7F)c7ccc([nH]7)c(-c7c(F)cc(S(=O)(=O)[O-])cc7F)c7nc(c(-c8c(F)cc(S(=O)(=O)[O-])cc8F)c8ccc5[nH]8)C=C7)C=C6)cc4)C3)ccn2)c2ccc(C)nc12
REMARK SMILES IDX 19 1 18 2 17 3 15 4 16 5 14 6 13 7 10 8 11 9 92 10 12 11
REMARK SMILES IDX 9 13 7 14 8 15 95 16 94 17 93 18 6 19 3 20 4 21 102 22 5 23
REMARK SMILES IDX 96 24 101 25 97 26 99 27 98 28 100 29 2 30 1 31 20 32 21 33
REMARK SMILES IDX 22 34 23 35 24 36 25 37 26 38 27 39 91 40 28 41 90 42 29 43
REMARK SMILES IDX 30 44 31 45 84 46 32 47 89 48 83 49 85 50 33 51 88 52 82 53
REMARK SMILES IDX 81 54 34 56 68 57 47 58 67 59 48 60 51 61 66 62 86 63 49 64
REMARK SMILES IDX 50 65 65 67 87 68 52 69 35 70 36 71 45 72 37 73 38 74 44 75
REMARK SMILES IDX 46 76 39 77 40 78 41 79 42 80 43 81 69 82 70 83 79 84 71 85
REMARK SMILES IDX 72 86 78 87 80 88 73 89 74 90 75 91 76 92 77 93 53 94 54 95
REMARK SMILES IDX 63 96 55 97 56 98 62 99 64 100 57 101 58 102 59 103 60 104
REMARK SMILES IDX 61 105
REMARK H PARENT 13 12 85 55 51 66
REMARK Flexibility Score: inf
ROOT
ATOM      1  C   UNL A   1      41.040  22.294  27.715  1.00  0.00     0.202 C 
ENDROOT
BRANCH   1   2
ATOM      2  C   UNL A   1      40.601  22.702  26.307  1.00  0.00     0.261 C 
BRANCH   2   3
ATOM      3  O   UNL A   1      39.168  22.643  26.152  1.00  0.00    -0.459 OA
BRANCH   3   4
ATOM      4  C   UNL A   1      38.636  21.520  25.609  1.00  0.00     0.361 C 
ATOM      5  O   UNL A   1      39.136  20.403  25.711  1.00  0.00    -0.245 OA
BRANCH   4   6
ATOM      6  C   UNL A   1      37.395  21.780  24.754  1.00  0.00     0.386 C 
BRANCH   6   7
ATOM      7  N   UNL A   1      36.112  22.098  25.404  1.00  0.00    -0.325 N 
ATOM      8  C   UNL A   1      34.024  22.888  24.489  1.00  0.00     0.080 C 
ATOM      9  C   UNL A   1      34.004  21.363  24.610  1.00  0.00     0.075 C 
ATOM     10  C   UNL A   1      35.415  23.313  24.994  1.00  0.00     0.271 C 
ATOM     11  C   UNL A   1      35.146  21.022  25.552  1.00  0.00     0.263 C 
ATOM     12  H   UNL A   1      36.516  22.280  26.322  1.00  0.00     0.348 HD
BRANCH   8  13
ATOM     13  C   UNL A   1      32.820  23.495  25.162  1.00  0.00    -0.035 A 
ATOM     14  C   UNL A   1      31.676  25.413  26.063  1.00  0.00     0.071 A 
ATOM     15  C   UNL A   1      32.777  24.858  25.414  1.00  0.00     0.033 A 
ATOM     16  N   UNL A   1      30.654  24.672  26.541  1.00  0.00    -0.256 NA
ATOM     17  C   UNL A   1      30.726  23.340  26.327  1.00  0.00     0.112 A 
ATOM     18  C   UNL A   1      31.758  22.717  25.635  1.00  0.00     0.024 A 
BRANCH  14  19
ATOM     19  C   UNL A   1      31.586  26.872  26.163  1.00  0.00     0.010 A 
ATOM     20  C   UNL A   1      31.810  29.642  26.113  1.00  0.00     0.145 A 
ATOM     21  C   UNL A   1      32.403  28.912  27.150  1.00  0.00     0.049 A 
ATOM     22  C   UNL A   1      31.091  29.025  25.072  1.00  0.00     0.113 A 
ATOM     23  C   UNL A   1      32.286  27.530  27.180  1.00  0.00     0.015 A 
ATOM     24  C   UNL A   1      30.946  27.625  25.131  1.00  0.00     0.013 A 
ATOM     25  N   UNL A   1      30.580  29.731  24.029  1.00  0.00    -0.249 NA
ATOM     26  C   UNL A   1      30.180  27.014  24.109  1.00  0.00     0.013 A 
ATOM     27  C   UNL A   1      29.912  29.100  23.035  1.00  0.00     0.038 A 
ATOM     28  C   UNL A   1      29.673  27.745  23.049  1.00  0.00     0.024 A 
ATOM     29  C   UNL A   1      29.413  29.949  21.907  1.00  0.00     0.067 C 
BRANCH  20  30
ATOM     30  O   UNL A   1      32.060  30.997  26.176  1.00  0.00    -0.494 OA
ATOM     31  C   UNL A   1      32.881  31.356  27.284  1.00  0.00     0.278 C 
ENDBRANCH  20  30
ENDBRANCH  14  19
ENDBRANCH   8  13
ENDBRANCH   6   7
ENDBRANCH   4   6
ENDBRANCH   3   4
ENDBRANCH   2   3
ENDBRANCH   1   2
BRANCH   1  32
ATOM     32  O   UNL A   1      42.114  21.354  27.749  1.00  0.00    -0.374 OA
BRANCH  32  33
ATOM     33  C   UNL A   1      41.736  19.977  27.755  1.00  0.00     0.202 C 
BRANCH  33  34
ATOM     34  C   UNL A   1      42.445  19.132  26.688  1.00  0.00     0.261 C 
BRANCH  34  35
ATOM     35  O   UNL A   1      42.514  19.852  25.437  1.00  0.00    -0.460 OA
BRANCH  35  36
ATOM     36  C   UNL A   1      43.734  19.939  24.865  1.00  0.00     0.338 C 
ATOM     37  O   UNL A   1      44.270  19.087  24.170  1.00  0.00    -0.246 OA
BRANCH  36  38
ATOM     38  C   UNL A   1      44.280  21.305  25.024  1.00  0.00     0.060 A 
ATOM     39  C   UNL A   1      45.118  21.515  26.123  1.00  0.00     0.016 A 
ATOM     40  C   UNL A   1      43.949  22.376  24.187  1.00  0.00     0.016 A 
ATOM     41  C   UNL A   1      45.550  22.802  26.442  1.00  0.00     0.010 A 
ATOM     42  C   UNL A   1      44.400  23.670  24.501  1.00  0.00     0.010 A 
ATOM     43  C   UNL A   1      45.155  23.901  25.665  1.00  0.00    -0.014 A 
BRANCH  43  44
ATOM     44  C   UNL A   1      45.415  25.275  26.186  1.00  0.00     0.031 A 
ATOM     45  C   UNL A   1      46.814  25.843  26.117  1.00  0.00     0.074 A 
ATOM     46  C   UNL A   1      44.405  26.058  26.616  1.00  0.00     0.049 A 
ATOM     47  N   UNL A   1      47.238  27.042  26.429  1.00  0.00    -0.248 NA
ATOM     48  C   UNL A   1      47.874  24.945  25.629  1.00  0.00     0.031 C 
ATOM     49  C   UNL A   1      43.004  25.652  26.712  1.00  0.00     0.029 A 
ATOM     50  N   UNL A   1      44.403  27.366  27.042  1.00  0.00    -0.354 N 
ATOM     51  C   UNL A   1      48.607  27.042  26.178  1.00  0.00     0.074 A 
ATOM     52  C   UNL A   1      48.951  25.713  25.723  1.00  0.00     0.031 C 
ATOM     53  C   UNL A   1      42.276  26.691  27.157  1.00  0.00     0.029 A 
ATOM     54  C   UNL A   1      43.160  27.829  27.409  1.00  0.00     0.049 A 
ATOM     55  H   UNL A   1      45.215  27.920  27.079  1.00  0.00     0.167 HD
ATOM     56  C   UNL A   1      49.495  28.058  26.298  1.00  0.00     0.037 A 
ATOM     57  C   UNL A   1      42.776  29.024  27.904  1.00  0.00     0.037 A 
ATOM     58  C   UNL A   1      49.156  29.391  26.731  1.00  0.00     0.049 A 
ATOM     59  C   UNL A   1      43.796  30.123  28.078  1.00  0.00     0.074 A 
ATOM     60  C   UNL A   1      49.989  30.492  26.842  1.00  0.00     0.029 A 
ATOM     61  N   UNL A   1      47.895  29.803  27.130  1.00  0.00    -0.354 N 
ATOM     62  N   UNL A   1      45.075  30.116  27.786  1.00  0.00    -0.248 NA
ATOM     63  C   UNL A   1      43.320  31.395  28.641  1.00  0.00     0.031 C 
ATOM     64  C   UNL A   1      49.246  31.552  27.369  1.00  0.00     0.029 A 
ATOM     65  C   UNL A   1      47.935  31.132  27.520  1.00  0.00     0.049 A 
ATOM     66  H   UNL A   1      47.090  29.236  27.135  1.00  0.00     0.167 HD
ATOM     67  C   UNL A   1      45.545  31.389  28.100  1.00  0.00     0.074 A 
ATOM     68  C   UNL A   1      44.412  32.145  28.588  1.00  0.00     0.031 C 
ATOM     69  C   UNL A   1      46.801  31.887  27.993  1.00  0.00     0.037 A 
BRANCH  56  70
ATOM     70  C   UNL A   1      50.939  27.781  25.972  1.00  0.00     0.058 A 
ATOM     71  C   UNL A   1      51.437  27.885  24.664  1.00  0.00     0.135 A 
ATOM     72  C   UNL A   1      51.853  27.495  27.000  1.00  0.00     0.135 A 
ATOM     73  F   UNL A   1      50.606  28.139  23.641  1.00  0.00    -0.206 F 
ATOM     74  C   UNL A   1      52.790  27.708  24.385  1.00  0.00     0.059 A 
ATOM     75  C   UNL A   1      53.213  27.342  26.749  1.00  0.00     0.059 A 
ATOM     76  F   UNL A   1      51.429  27.383  28.269  1.00  0.00    -0.206 F 
ATOM     77  C   UNL A   1      53.671  27.445  25.436  1.00  0.00     0.060 A 
BRANCH  77  78
ATOM     78  S   UNL A   1      55.427  27.260  25.062  1.00  0.00     0.124 S 
ATOM     79  O   UNL A   1      55.586  25.810  25.118  1.00  0.00    -0.237 OA
ATOM     80  O   UNL A   1      55.526  27.857  23.734  1.00  0.00    -0.237 OA
ATOM     81  O   UNL A   1      56.086  28.004  26.131  1.00  0.00    -0.744 OA
ENDBRANCH  77  78
ENDBRANCH  56  70
BRANCH  57  82
ATOM     82  C   UNL A   1      41.357  29.251  28.302  1.00  0.00     0.058 A 
ATOM     83  C   UNL A   1      40.975  29.336  29.649  1.00  0.00     0.135 A 
ATOM     84  C   UNL A   1      40.345  29.341  27.332  1.00  0.00     0.135 A 
ATOM     85  F   UNL A   1      41.900  29.242  30.616  1.00  0.00    -0.206 F 
ATOM     86  C   UNL A   1      39.641  29.473  30.023  1.00  0.00     0.059 A 
ATOM     87  C   UNL A   1      39.009  29.511  27.679  1.00  0.00     0.059 A 
ATOM     88  F   UNL A   1      40.656  29.275  26.027  1.00  0.00    -0.206 F 
ATOM     89  C   UNL A   1      38.664  29.559  29.028  1.00  0.00     0.060 A 
BRANCH  89  90
ATOM     90  S   UNL A   1      36.939  29.757  29.520  1.00  0.00     0.124 S 
ATOM     91  O   UNL A   1      36.870  31.191  29.779  1.00  0.00    -0.237 OA
ATOM     92  O   UNL A   1      36.228  29.288  28.334  1.00  0.00    -0.237 OA
ATOM     93  O   UNL A   1      36.823  28.896  30.693  1.00  0.00    -0.744 OA
ENDBRANCH  89  90
ENDBRANCH  57  82
BRANCH  69  94
ATOM     94  C   UNL A   1      47.024  33.331  28.364  1.00  0.00     0.058 A 
ATOM     95  C   UNL A   1      46.877  34.371  27.433  1.00  0.00     0.135 A 
ATOM     96  C   UNL A   1      47.334  33.683  29.689  1.00  0.00     0.135 A 
ATOM     97  F   UNL A   1      46.585  34.094  26.152  1.00  0.00    -0.206 F 
ATOM     98  C   UNL A   1      47.055  35.703  27.794  1.00  0.00     0.059 A 
ATOM     99  C   UNL A   1      47.484  35.010  30.080  1.00  0.00     0.059 A 
ATOM    100  F   UNL A   1      47.474  32.731  30.626  1.00  0.00    -0.206 F 
ATOM    101  C   UNL A   1      47.355  36.014  29.122  1.00  0.00     0.060 A 
BRANCH 101 102
ATOM    102  S   UNL A   1      47.553  37.748  29.583  1.00  0.00     0.124 S 
ATOM    103  O   UNL A   1      46.187  38.244  29.460  1.00  0.00    -0.237 OA
ATOM    104  O   UNL A   1      48.074  37.651  30.943  1.00  0.00    -0.237 OA
ATOM    105  O   UNL A   1      48.497  38.259  28.592  1.00  0.00    -0.744 OA
ENDBRANCH 101 102
ENDBRANCH  69  94
ENDBRANCH  43  44
ENDBRANCH  36  38
ENDBRANCH  35  36
ENDBRANCH  34  35
ENDBRANCH  33  34
ENDBRANCH  32  33
ENDBRANCH   1  32
TORSDOF 21
ENDMDL
