MODEL 1
REMARK VINA RESULT:     -11.9      0.000      0.000
REMARK SMILES O=C(CCC(=O)N1N=C(c2ccc(F)cc2)C[C@@H]1c1ccc2nccnc2c1)OCCOCCOC(=O)c1ccc(-c2c3nc(c(-c4c(F)cc(S(=O)(=O)[O-])cc4F)c4ccc([nH]4)c(-c4c(F)cc(S(=O)(=O)[O-])cc4F)c4nc(c(-c5c(F)cc(S(=O)(=O)[O-])cc5F)c5ccc2[nH]5)C=C4)C=C3)cc1
REMARK SMILES IDX 31 1 30 2 29 3 2 4 1 5 3 6 4 7 5 8 6 9 7 10 8 11 18 12 9 13
REMARK SMILES IDX 17 14 19 15 20 16 28 17 21 18 27 19 22 20 26 21 23 22 25 23
REMARK SMILES IDX 24 24 10 25 11 26 16 27 12 28 15 29 13 30 14 31 32 32 33 33
REMARK SMILES IDX 34 34 35 35 36 36 37 37 38 38 39 39 103 40 40 41 102 42
REMARK SMILES IDX 41 43 42 44 43 45 96 46 44 47 101 48 95 49 97 50 45 51
REMARK SMILES IDX 100 52 94 53 93 54 46 56 80 57 59 58 79 59 60 60 63 61 78 62
REMARK SMILES IDX 98 63 61 64 62 65 77 67 99 68 64 69 47 70 48 71 57 72 49 73
REMARK SMILES IDX 50 74 56 75 58 76 51 77 52 78 53 79 54 80 55 81 81 82 82 83
REMARK SMILES IDX 91 84 83 85 84 86 90 87 92 88 85 89 86 90 87 91 88 92 89 93
REMARK SMILES IDX 65 94 66 95 75 96 67 97 68 98 74 99 76 100 69 101 70 102
REMARK SMILES IDX 71 103 72 104 73 105
REMARK H PARENT 97 55 63 66
REMARK Flexibility Score: inf
ROOT
ATOM      1  C   UNL A   1      41.782  21.031  26.338  1.00  0.00     0.202 C 
ENDROOT
BRANCH   1   2
ATOM      2  C   UNL A   1      40.348  20.843  26.837  1.00  0.00     0.261 C 
BRANCH   2   3
ATOM      3  O   UNL A   1      39.409  21.608  26.058  1.00  0.00    -0.463 OA
BRANCH   3   4
ATOM      4  C   UNL A   1      38.947  22.842  26.317  1.00  0.00     0.306 C 
ATOM      5  O   UNL A   1      39.200  23.430  27.363  1.00  0.00    -0.252 OA
BRANCH   4   6
ATOM      6  C   UNL A   1      38.246  23.514  25.215  1.00  0.00     0.132 C 
BRANCH   6   7
ATOM      7  C   UNL A   1      36.773  23.567  25.542  1.00  0.00     0.114 C 
BRANCH   7   8
ATOM      8  C   UNL A   1      35.741  23.604  24.406  1.00  0.00     0.243 C 
ATOM      9  O   UNL A   1      36.233  23.665  23.264  1.00  0.00    -0.273 OA
BRANCH   8  10
ATOM     10  N   UNL A   1      34.373  23.374  24.574  1.00  0.00    -0.225 N 
ATOM     11  N   UNL A   1      34.094  22.140  24.050  1.00  0.00    -0.174 NA
ATOM     12  C   UNL A   1      33.263  23.772  25.539  1.00  0.00     0.147 C 
ATOM     13  C   UNL A   1      33.096  21.622  24.680  1.00  0.00     0.071 C 
ATOM     14  C   UNL A   1      32.354  22.530  25.597  1.00  0.00     0.091 C 
BRANCH  12  15
ATOM     15  C   UNL A   1      32.365  25.032  25.271  1.00  0.00    -0.021 A 
ATOM     16  C   UNL A   1      32.360  26.260  26.599  1.00  0.00     0.008 A 
ATOM     17  C   UNL A   1      31.599  25.495  23.687  1.00  0.00     0.036 A 
ATOM     18  C   UNL A   1      31.725  27.931  26.319  1.00  0.00     0.031 A 
ATOM     19  C   UNL A   1      30.936  27.183  23.369  1.00  0.00     0.089 A 
ATOM     20  C   UNL A   1      31.054  28.453  24.693  1.00  0.00     0.089 A 
ATOM     21  N   UNL A   1      30.385  27.586  22.218  1.00  0.00    -0.253 NA
ATOM     22  N   UNL A   1      30.670  29.704  24.429  1.00  0.00    -0.253 NA
ATOM     23  C   UNL A   1      30.054  28.909  22.166  1.00  0.00     0.132 A 
ATOM     24  C   UNL A   1      30.184  29.884  23.179  1.00  0.00     0.132 A 
ENDBRANCH  12  15
BRANCH  13  25
ATOM     25  C   UNL A   1      32.796  20.199  24.504  1.00  0.00    -0.002 A 
ATOM     26  C   UNL A   1      32.386  19.670  23.285  1.00  0.00     0.013 A 
ATOM     27  C   UNL A   1      33.028  19.368  25.617  1.00  0.00     0.013 A 
ATOM     28  C   UNL A   1      32.311  18.286  23.163  1.00  0.00     0.040 A 
ATOM     29  C   UNL A   1      32.966  17.993  25.482  1.00  0.00     0.040 A 
ATOM     30  C   UNL A   1      32.655  17.473  24.241  1.00  0.00     0.123 A 
ATOM     31  F   UNL A   1      32.785  16.163  24.060  1.00  0.00    -0.207 F 
ENDBRANCH  13  25
ENDBRANCH   8  10
ENDBRANCH   7   8
ENDBRANCH   6   7
ENDBRANCH   4   6
ENDBRANCH   3   4
ENDBRANCH   2   3
ENDBRANCH   1   2
BRANCH   1  32
ATOM     32  O   UNL A   1      42.424  22.300  26.398  1.00  0.00    -0.374 OA
BRANCH  32  33
ATOM     33  C   UNL A   1      43.210  22.779  25.331  1.00  0.00     0.202 C 
BRANCH  33  34
ATOM     34  C   UNL A   1      44.541  23.541  25.645  1.00  0.00     0.261 C 
BRANCH  34  35
ATOM     35  O   UNL A   1      44.662  25.245  25.451  1.00  0.00    -0.460 OA
BRANCH  35  36
ATOM     36  C   UNL A   1      44.311  27.042  25.832  1.00  0.00     0.338 C 
ATOM     37  O   UNL A   1      44.911  28.033  25.323  1.00  0.00    -0.246 OA
BRANCH  36  38
ATOM     38  C   UNL A   1      43.283  27.740  26.723  1.00  0.00     0.060 A 
ATOM     39  C   UNL A   1      43.452  29.081  27.107  1.00  0.00     0.016 A 
ATOM     40  C   UNL A   1      42.563  26.887  27.590  1.00  0.00     0.016 A 
ATOM     41  C   UNL A   1      42.889  29.572  28.281  1.00  0.00     0.010 A 
ATOM     42  C   UNL A   1      42.015  27.373  28.778  1.00  0.00     0.010 A 
ATOM     43  C   UNL A   1      42.183  28.719  29.128  1.00  0.00    -0.014 A 
BRANCH  43  44
ATOM     44  C   UNL A   1      41.622  29.228  30.393  1.00  0.00     0.031 A 
ATOM     45  C   UNL A   1      40.450  30.164  30.380  1.00  0.00     0.074 A 
ATOM     46  C   UNL A   1      42.219  28.854  31.539  1.00  0.00     0.049 A 
ATOM     47  N   UNL A   1      39.965  30.876  31.361  1.00  0.00    -0.248 NA
ATOM     48  C   UNL A   1      39.704  30.294  29.116  1.00  0.00     0.031 C 
ATOM     49  C   UNL A   1      43.263  27.831  31.655  1.00  0.00     0.029 A 
ATOM     50  N   UNL A   1      42.070  29.317  32.820  1.00  0.00    -0.354 N 
ATOM     51  C   UNL A   1      38.844  31.519  30.847  1.00  0.00     0.074 A 
ATOM     52  C   UNL A   1      38.742  31.146  29.453  1.00  0.00     0.031 C 
ATOM     53  C   UNL A   1      43.721  27.815  32.915  1.00  0.00     0.029 A 
ATOM     54  C   UNL A   1      43.062  28.867  33.662  1.00  0.00     0.049 A 
ATOM     55  H   UNL A   1      41.335  29.906  33.107  1.00  0.00     0.167 HD
ATOM     56  C   UNL A   1      37.978  32.322  31.509  1.00  0.00     0.037 A 
ATOM     57  C   UNL A   1      43.444  29.316  34.868  1.00  0.00     0.037 A 
ATOM     58  C   UNL A   1      38.130  32.658  32.903  1.00  0.00     0.049 A 
ATOM     59  C   UNL A   1      42.601  30.368  35.507  1.00  0.00     0.074 A 
ATOM     60  C   UNL A   1      37.303  33.424  33.703  1.00  0.00     0.029 A 
ATOM     61  N   UNL A   1      39.191  32.248  33.701  1.00  0.00    -0.354 N 
ATOM     62  N   UNL A   1      41.548  30.977  35.020  1.00  0.00    -0.248 NA
ATOM     63  C   UNL A   1      42.959  30.753  36.875  1.00  0.00     0.031 C 
ATOM     64  C   UNL A   1      37.893  33.525  34.967  1.00  0.00     0.029 A 
ATOM     65  C   UNL A   1      39.062  32.779  34.972  1.00  0.00     0.049 A 
ATOM     66  H   UNL A   1      39.927  31.665  33.406  1.00  0.00     0.167 HD
ATOM     67  C   UNL A   1      41.081  31.785  36.041  1.00  0.00     0.074 A 
ATOM     68  C   UNL A   1      41.980  31.598  37.165  1.00  0.00     0.031 C 
ATOM     69  C   UNL A   1      39.990  32.586  36.058  1.00  0.00     0.037 A 
BRANCH  56  70
ATOM     70  C   UNL A   1      36.797  32.891  30.770  1.00  0.00     0.058 A 
ATOM     71  C   UNL A   1      36.956  33.989  29.908  1.00  0.00     0.135 A 
ATOM     72  C   UNL A   1      35.491  32.435  31.008  1.00  0.00     0.135 A 
ATOM     73  F   UNL A   1      38.183  34.463  29.637  1.00  0.00    -0.206 F 
ATOM     74  C   UNL A   1      35.863  34.635  29.338  1.00  0.00     0.059 A 
ATOM     75  C   UNL A   1      34.382  33.053  30.431  1.00  0.00     0.059 A 
ATOM     76  F   UNL A   1      35.280  31.378  31.808  1.00  0.00    -0.206 F 
ATOM     77  C   UNL A   1      34.578  34.167  29.615  1.00  0.00     0.060 A 
BRANCH  77  78
ATOM     78  S   UNL A   1      33.170  35.039  28.892  1.00  0.00     0.124 S 
ATOM     79  O   UNL A   1      33.813  36.193  28.274  1.00  0.00    -0.237 OA
ATOM     80  O   UNL A   1      32.632  34.042  27.972  1.00  0.00    -0.237 OA
ATOM     81  O   UNL A   1      32.324  35.335  30.046  1.00  0.00    -0.744 OA
ENDBRANCH  77  78
ENDBRANCH  56  70
BRANCH  57  82
ATOM     82  C   UNL A   1      44.690  28.833  35.515  1.00  0.00     0.058 A 
ATOM     83  C   UNL A   1      44.659  27.739  36.396  1.00  0.00     0.135 A 
ATOM     84  C   UNL A   1      45.928  29.433  35.262  1.00  0.00     0.135 A 
ATOM     85  F   UNL A   1      43.490  27.150  36.694  1.00  0.00    -0.206 F 
ATOM     86  C   UNL A   1      45.814  27.262  37.013  1.00  0.00     0.059 A 
ATOM     87  C   UNL A   1      47.098  28.976  35.867  1.00  0.00     0.059 A 
ATOM     88  F   UNL A   1      46.004  30.469  34.413  1.00  0.00    -0.206 F 
ATOM     89  C   UNL A   1      47.030  27.900  36.756  1.00  0.00     0.060 A 
BRANCH  89  90
ATOM     90  S   UNL A   1      48.520  27.325  37.615  1.00  0.00     0.124 S 
ATOM     91  O   UNL A   1      48.574  28.193  38.787  1.00  0.00    -0.237 OA
ATOM     92  O   UNL A   1      48.199  25.928  37.886  1.00  0.00    -0.237 OA
ATOM     93  O   UNL A   1      49.574  27.542  36.629  1.00  0.00    -0.744 OA
ENDBRANCH  89  90
ENDBRANCH  57  82
BRANCH  69  94
ATOM     94  C   UNL A   1      39.709  33.298  37.342  1.00  0.00     0.058 A 
ATOM     95  C   UNL A   1      38.738  32.804  38.227  1.00  0.00     0.135 A 
ATOM     96  C   UNL A   1      40.373  34.487  37.675  1.00  0.00     0.135 A 
ATOM     97  F   UNL A   1      38.085  31.663  37.951  1.00  0.00    -0.206 F 
ATOM     98  C   UNL A   1      38.413  33.485  39.391  1.00  0.00     0.059 A 
ATOM     99  C   UNL A   1      40.086  35.168  38.851  1.00  0.00     0.059 A 
ATOM    100  F   UNL A   1      41.330  34.975  36.870  1.00  0.00    -0.206 F 
ATOM    101  C   UNL A   1      39.090  34.669  39.690  1.00  0.00     0.060 A 
BRANCH 101 102
ATOM    102  S   UNL A   1      38.651  35.543  41.205  1.00  0.00     0.124 S 
ATOM    103  O   UNL A   1      37.407  34.878  41.580  1.00  0.00    -0.237 OA
ATOM    104  O   UNL A   1      39.801  35.271  42.061  1.00  0.00    -0.237 OA
ATOM    105  O   UNL A   1      38.515  36.929  40.767  1.00  0.00    -0.744 OA
ENDBRANCH 101 102
ENDBRANCH  69  94
ENDBRANCH  43  44
ENDBRANCH  36  38
ENDBRANCH  35  36
ENDBRANCH  34  35
ENDBRANCH  33  34
ENDBRANCH  32  33
ENDBRANCH   1  32
TORSDOF 22
ENDMDL
MODEL 2
REMARK VINA RESULT:     -11.1      5.974      8.826
REMARK SMILES O=C(CCC(=O)N1N=C(c2ccc(F)cc2)C[C@@H]1c1ccc2nccnc2c1)OCCOCCOC(=O)c1ccc(-c2c3nc(c(-c4c(F)cc(S(=O)(=O)[O-])cc4F)c4ccc([nH]4)c(-c4c(F)cc(S(=O)(=O)[O-])cc4F)c4nc(c(-c5c(F)cc(S(=O)(=O)[O-])cc5F)c5ccc2[nH]5)C=C4)C=C3)cc1
REMARK SMILES IDX 31 1 30 2 29 3 2 4 1 5 3 6 4 7 5 8 6 9 7 10 8 11 18 12 9 13
REMARK SMILES IDX 17 14 19 15 20 16 28 17 21 18 27 19 22 20 26 21 23 22 25 23
REMARK SMILES IDX 24 24 10 25 11 26 16 27 12 28 15 29 13 30 14 31 32 32 33 33
REMARK SMILES IDX 34 34 35 35 36 36 37 37 38 38 39 39 103 40 40 41 102 42
REMARK SMILES IDX 41 43 42 44 43 45 96 46 44 47 101 48 95 49 97 50 45 51
REMARK SMILES IDX 100 52 94 53 93 54 46 56 80 57 59 58 79 59 60 60 63 61 78 62
REMARK SMILES IDX 98 63 61 64 62 65 77 67 99 68 64 69 47 70 48 71 57 72 49 73
REMARK SMILES IDX 50 74 56 75 58 76 51 77 52 78 53 79 54 80 55 81 81 82 82 83
REMARK SMILES IDX 91 84 83 85 84 86 90 87 92 88 85 89 86 90 87 91 88 92 89 93
REMARK SMILES IDX 65 94 66 95 75 96 67 97 68 98 74 99 76 100 69 101 70 102
REMARK SMILES IDX 71 103 72 104 73 105
REMARK H PARENT 97 55 63 66
REMARK Flexibility Score: inf
ROOT
ATOM      1  C   UNL A   1      41.921  21.033  26.133  1.00  0.00     0.202 C 
ENDROOT
BRANCH   1   2
ATOM      2  C   UNL A   1      40.549  21.040  26.811  1.00  0.00     0.261 C 
BRANCH   2   3
ATOM      3  O   UNL A   1      39.695  22.068  26.273  1.00  0.00    -0.463 OA
BRANCH   3   4
ATOM      4  C   UNL A   1      39.428  23.270  26.808  1.00  0.00     0.306 C 
ATOM      5  O   UNL A   1      39.954  23.657  27.846  1.00  0.00    -0.252 OA
BRANCH   4   6
ATOM      6  C   UNL A   1      38.585  24.163  26.002  1.00  0.00     0.132 C 
BRANCH   6   7
ATOM      7  C   UNL A   1      37.150  23.707  26.121  1.00  0.00     0.114 C 
BRANCH   7   8
ATOM      8  C   UNL A   1      36.331  23.431  24.851  1.00  0.00     0.243 C 
ATOM      9  O   UNL A   1      37.007  23.350  23.808  1.00  0.00    -0.273 OA
BRANCH   8  10
ATOM     10  N   UNL A   1      34.979  23.079  24.846  1.00  0.00    -0.225 N 
ATOM     11  N   UNL A   1      34.874  21.851  24.250  1.00  0.00    -0.174 NA
ATOM     12  C   UNL A   1      33.733  23.339  25.683  1.00  0.00     0.147 C 
ATOM     13  C   UNL A   1      33.860  21.223  24.737  1.00  0.00     0.071 C 
ATOM     14  C   UNL A   1      32.937  22.024  25.589  1.00  0.00     0.091 C 
BRANCH  12  15
ATOM     15  C   UNL A   1      32.764  24.529  25.352  1.00  0.00    -0.021 A 
ATOM     16  C   UNL A   1      32.423  25.641  26.738  1.00  0.00     0.008 A 
ATOM     17  C   UNL A   1      32.215  25.046  23.697  1.00  0.00     0.036 A 
ATOM     18  C   UNL A   1      31.671  27.264  26.465  1.00  0.00     0.031 A 
ATOM     19  C   UNL A   1      31.441  26.687  23.383  1.00  0.00     0.089 A 
ATOM     20  C   UNL A   1      31.216  27.852  24.788  1.00  0.00     0.089 A 
ATOM     21  N   UNL A   1      31.039  27.130  22.185  1.00  0.00    -0.253 NA
ATOM     22  N   UNL A   1      30.753  29.081  24.545  1.00  0.00    -0.253 NA
ATOM     23  C   UNL A   1      30.586  28.417  22.165  1.00  0.00     0.132 A 
ATOM     24  C   UNL A   1      30.454  29.315  23.246  1.00  0.00     0.132 A 
ENDBRANCH  12  15
BRANCH  13  25
ATOM     25  C   UNL A   1      33.710  19.788  24.477  1.00  0.00    -0.002 A 
ATOM     26  C   UNL A   1      32.529  19.240  23.991  1.00  0.00     0.013 A 
ATOM     27  C   UNL A   1      34.859  18.995  24.665  1.00  0.00     0.013 A 
ATOM     28  C   UNL A   1      32.541  17.906  23.593  1.00  0.00     0.040 A 
ATOM     29  C   UNL A   1      34.866  17.675  24.253  1.00  0.00     0.040 A 
ATOM     30  C   UNL A   1      33.718  17.166  23.677  1.00  0.00     0.123 A 
ATOM     31  F   UNL A   1      33.781  15.968  23.107  1.00  0.00    -0.207 F 
ENDBRANCH  13  25
ENDBRANCH   8  10
ENDBRANCH   7   8
ENDBRANCH   6   7
ENDBRANCH   4   6
ENDBRANCH   3   4
ENDBRANCH   2   3
ENDBRANCH   1   2
BRANCH   1  32
ATOM     32  O   UNL A   1      42.807  22.140  26.250  1.00  0.00    -0.374 OA
BRANCH  32  33
ATOM     33  C   UNL A   1      43.157  22.925  25.132  1.00  0.00     0.202 C 
BRANCH  33  34
ATOM     34  C   UNL A   1      44.624  22.866  24.587  1.00  0.00     0.261 C 
BRANCH  34  35
ATOM     35  O   UNL A   1      45.824  23.970  25.133  1.00  0.00    -0.460 OA
BRANCH  35  36
ATOM     36  C   UNL A   1      46.866  24.885  26.387  1.00  0.00     0.338 C 
ATOM     37  O   UNL A   1      47.638  24.349  27.234  1.00  0.00    -0.246 OA
BRANCH  36  38
ATOM     38  C   UNL A   1      47.092  26.370  26.674  1.00  0.00     0.060 A 
ATOM     39  C   UNL A   1      47.129  26.854  27.994  1.00  0.00     0.016 A 
ATOM     40  C   UNL A   1      46.660  27.251  25.657  1.00  0.00     0.016 A 
ATOM     41  C   UNL A   1      46.797  28.172  28.288  1.00  0.00     0.010 A 
ATOM     42  C   UNL A   1      46.306  28.568  25.954  1.00  0.00     0.010 A 
ATOM     43  C   UNL A   1      46.370  29.030  27.276  1.00  0.00    -0.014 A 
BRANCH  43  44
ATOM     44  C   UNL A   1      45.977  30.414  27.593  1.00  0.00     0.031 A 
ATOM     45  C   UNL A   1      46.975  31.529  27.486  1.00  0.00     0.074 A 
ATOM     46  C   UNL A   1      44.717  30.629  28.013  1.00  0.00     0.049 A 
ATOM     47  N   UNL A   1      46.879  32.754  27.924  1.00  0.00    -0.248 NA
ATOM     48  C   UNL A   1      48.228  31.245  26.765  1.00  0.00     0.031 C 
ATOM     49  C   UNL A   1      43.640  29.634  28.000  1.00  0.00     0.029 A 
ATOM     50  N   UNL A   1      44.134  31.735  28.572  1.00  0.00    -0.354 N 
ATOM     51  C   UNL A   1      48.040  33.399  27.514  1.00  0.00     0.074 A 
ATOM     52  C   UNL A   1      48.851  32.418  26.826  1.00  0.00     0.031 C 
ATOM     53  C   UNL A   1      42.563  30.147  28.612  1.00  0.00     0.029 A 
ATOM     54  C   UNL A   1      42.900  31.462  29.118  1.00  0.00     0.049 A 
ATOM     55  H   UNL A   1      44.551  32.627  28.582  1.00  0.00     0.167 HD
ATOM     56  C   UNL A   1      48.366  34.702  27.687  1.00  0.00     0.037 A 
ATOM     57  C   UNL A   1      42.167  32.165  29.996  1.00  0.00     0.037 A 
ATOM     58  C   UNL A   1      47.515  35.637  28.382  1.00  0.00     0.049 A 
ATOM     59  C   UNL A   1      42.649  33.531  30.355  1.00  0.00     0.074 A 
ATOM     60  C   UNL A   1      47.706  36.990  28.589  1.00  0.00     0.029 A 
ATOM     61  N   UNL A   1      46.311  35.304  28.991  1.00  0.00    -0.354 N 
ATOM     62  N   UNL A   1      43.747  34.135  29.972  1.00  0.00    -0.248 NA
ATOM     63  C   UNL A   1      41.771  34.330  31.212  1.00  0.00     0.031 C 
ATOM     64  C   UNL A   1      46.647  37.463  29.371  1.00  0.00     0.029 A 
ATOM     65  C   UNL A   1      45.769  36.417  29.609  1.00  0.00     0.049 A 
ATOM     66  H   UNL A   1      45.904  34.408  28.983  1.00  0.00     0.167 HD
ATOM     67  C   UNL A   1      43.672  35.410  30.500  1.00  0.00     0.074 A 
ATOM     68  C   UNL A   1      42.428  35.481  31.246  1.00  0.00     0.031 C 
ATOM     69  C   UNL A   1      44.538  36.440  30.358  1.00  0.00     0.037 A 
BRANCH  56  70
ATOM     70  C   UNL A   1      49.667  35.211  27.127  1.00  0.00     0.058 A 
ATOM     71  C   UNL A   1      50.808  35.300  27.941  1.00  0.00     0.135 A 
ATOM     72  C   UNL A   1      49.755  35.730  25.825  1.00  0.00     0.135 A 
ATOM     73  F   UNL A   1      50.785  34.813  29.192  1.00  0.00    -0.206 F 
ATOM     74  C   UNL A   1      51.976  35.914  27.498  1.00  0.00     0.059 A 
ATOM     75  C   UNL A   1      50.921  36.330  25.353  1.00  0.00     0.059 A 
ATOM     76  F   UNL A   1      48.701  35.656  24.996  1.00  0.00    -0.206 F 
ATOM     77  C   UNL A   1      52.019  36.437  26.205  1.00  0.00     0.060 A 
BRANCH  77  78
ATOM     78  S   UNL A   1      53.533  37.260  25.660  1.00  0.00     0.124 S 
ATOM     79  O   UNL A   1      53.117  37.848  24.391  1.00  0.00    -0.237 OA
ATOM     80  O   UNL A   1      53.778  38.202  26.747  1.00  0.00    -0.237 OA
ATOM     81  O   UNL A   1      54.496  36.167  25.558  1.00  0.00    -0.744 OA
ENDBRANCH  77  78
ENDBRANCH  56  70
BRANCH  57  82
ATOM     82  C   UNL A   1      40.959  31.584  30.636  1.00  0.00     0.058 A 
ATOM     83  C   UNL A   1      39.675  31.926  30.180  1.00  0.00     0.135 A 
ATOM     84  C   UNL A   1      41.055  30.674  31.695  1.00  0.00     0.135 A 
ATOM     85  F   UNL A   1      39.532  32.818  29.187  1.00  0.00    -0.206 F 
ATOM     86  C   UNL A   1      38.526  31.393  30.759  1.00  0.00     0.059 A 
ATOM     87  C   UNL A   1      39.921  30.127  32.293  1.00  0.00     0.059 A 
ATOM     88  F   UNL A   1      42.263  30.307  32.149  1.00  0.00    -0.206 F 
ATOM     89  C   UNL A   1      38.658  30.505  31.830  1.00  0.00     0.060 A 
BRANCH  89  90
ATOM     90  S   UNL A   1      37.161  29.868  32.629  1.00  0.00     0.124 S 
ATOM     91  O   UNL A   1      36.807  30.938  33.557  1.00  0.00    -0.237 OA
ATOM     92  O   UNL A   1      36.255  29.699  31.497  1.00  0.00    -0.237 OA
ATOM     93  O   UNL A   1      37.619  28.630  33.250  1.00  0.00    -0.744 OA
ENDBRANCH  89  90
ENDBRANCH  57  82
BRANCH  69  94
ATOM     94  C   UNL A   1      44.150  37.730  31.009  1.00  0.00     0.058 A 
ATOM     95  C   UNL A   1      43.546  38.747  30.256  1.00  0.00     0.135 A 
ATOM     96  C   UNL A   1      44.413  37.968  32.365  1.00  0.00     0.135 A 
ATOM     97  F   UNL A   1      43.267  38.557  28.956  1.00  0.00    -0.206 F 
ATOM     98  C   UNL A   1      43.240  39.976  30.822  1.00  0.00     0.059 A 
ATOM     99  C   UNL A   1      44.085  39.179  32.960  1.00  0.00     0.059 A 
ATOM    100  F   UNL A   1      44.962  37.009  33.126  1.00  0.00    -0.206 F 
ATOM    101  C   UNL A   1      43.518  40.183  32.175  1.00  0.00     0.060 A 
BRANCH 101 102
ATOM    102  S   UNL A   1      43.118  41.787  32.893  1.00  0.00     0.124 S 
ATOM    103  O   UNL A   1      42.942  42.609  31.701  1.00  0.00    -0.237 OA
ATOM    104  O   UNL A   1      41.904  41.492  33.647  1.00  0.00    -0.237 OA
ATOM    105  O   UNL A   1      44.293  42.097  33.702  1.00  0.00    -0.744 OA
ENDBRANCH 101 102
ENDBRANCH  69  94
ENDBRANCH  43  44
ENDBRANCH  36  38
ENDBRANCH  35  36
ENDBRANCH  34  35
ENDBRANCH  33  34
ENDBRANCH  32  33
ENDBRANCH   1  32
TORSDOF 22
ENDMDL
MODEL 3
REMARK VINA RESULT:     -10.9      6.066      8.859
REMARK SMILES O=C(CCC(=O)N1N=C(c2ccc(F)cc2)C[C@@H]1c1ccc2nccnc2c1)OCCOCCOC(=O)c1ccc(-c2c3nc(c(-c4c(F)cc(S(=O)(=O)[O-])cc4F)c4ccc([nH]4)c(-c4c(F)cc(S(=O)(=O)[O-])cc4F)c4nc(c(-c5c(F)cc(S(=O)(=O)[O-])cc5F)c5ccc2[nH]5)C=C4)C=C3)cc1
REMARK SMILES IDX 31 1 30 2 29 3 2 4 1 5 3 6 4 7 5 8 6 9 7 10 8 11 18 12 9 13
REMARK SMILES IDX 17 14 19 15 20 16 28 17 21 18 27 19 22 20 26 21 23 22 25 23
REMARK SMILES IDX 24 24 10 25 11 26 16 27 12 28 15 29 13 30 14 31 32 32 33 33
REMARK SMILES IDX 34 34 35 35 36 36 37 37 38 38 39 39 103 40 40 41 102 42
REMARK SMILES IDX 41 43 42 44 43 45 96 46 44 47 101 48 95 49 97 50 45 51
REMARK SMILES IDX 100 52 94 53 93 54 46 56 80 57 59 58 79 59 60 60 63 61 78 62
REMARK SMILES IDX 98 63 61 64 62 65 77 67 99 68 64 69 47 70 48 71 57 72 49 73
REMARK SMILES IDX 50 74 56 75 58 76 51 77 52 78 53 79 54 80 55 81 81 82 82 83
REMARK SMILES IDX 91 84 83 85 84 86 90 87 92 88 85 89 86 90 87 91 88 92 89 93
REMARK SMILES IDX 65 94 66 95 75 96 67 97 68 98 74 99 76 100 69 101 70 102
REMARK SMILES IDX 71 103 72 104 73 105
REMARK H PARENT 97 55 63 66
REMARK Flexibility Score: inf
ROOT
ATOM      1  C   UNL A   1      43.575  20.205  25.137  1.00  0.00     0.202 C 
ENDROOT
BRANCH   1   2
ATOM      2  C   UNL A   1      42.819  19.111  25.895  1.00  0.00     0.261 C 
BRANCH   2   3
ATOM      3  O   UNL A   1      41.406  19.151  25.614  1.00  0.00    -0.463 OA
BRANCH   3   4
ATOM      4  C   UNL A   1      40.460  19.829  26.283  1.00  0.00     0.306 C 
ATOM      5  O   UNL A   1      40.733  20.698  27.104  1.00  0.00    -0.252 OA
BRANCH   4   6
ATOM      6  C   UNL A   1      39.073  19.583  25.868  1.00  0.00     0.132 C 
BRANCH   6   7
ATOM      7  C   UNL A   1      38.611  20.742  25.018  1.00  0.00     0.114 C 
BRANCH   7   8
ATOM      8  C   UNL A   1      37.600  21.749  25.587  1.00  0.00     0.243 C 
ATOM      9  O   UNL A   1      38.111  22.690  26.223  1.00  0.00    -0.273 OA
BRANCH   8  10
ATOM     10  N   UNL A   1      36.241  21.770  25.264  1.00  0.00    -0.225 N 
ATOM     11  N   UNL A   1      35.935  20.568  24.685  1.00  0.00    -0.174 NA
ATOM     12  C   UNL A   1      34.962  22.423  25.774  1.00  0.00     0.147 C 
ATOM     13  C   UNL A   1      34.704  20.277  24.927  1.00  0.00     0.071 C 
ATOM     14  C   UNL A   1      33.874  21.363  25.517  1.00  0.00     0.091 C 
BRANCH  12  15
ATOM     15  C   UNL A   1      34.463  23.795  25.197  1.00  0.00    -0.021 A 
ATOM     16  C   UNL A   1      34.519  23.930  23.395  1.00  0.00     0.008 A 
ATOM     17  C   UNL A   1      33.584  25.096  26.116  1.00  0.00     0.036 A 
ATOM     18  C   UNL A   1      33.629  25.247  22.531  1.00  0.00     0.031 A 
ATOM     19  C   UNL A   1      32.672  26.455  25.272  1.00  0.00     0.089 A 
ATOM     20  C   UNL A   1      32.641  26.502  23.434  1.00  0.00     0.089 A 
ATOM     21  N   UNL A   1      31.990  27.424  25.894  1.00  0.00    -0.253 NA
ATOM     22  N   UNL A   1      31.894  27.424  22.820  1.00  0.00    -0.253 NA
ATOM     23  C   UNL A   1      31.304  28.270  25.072  1.00  0.00     0.132 A 
ATOM     24  C   UNL A   1      31.257  28.271  23.661  1.00  0.00     0.132 A 
ENDBRANCH  12  15
BRANCH  13  25
ATOM     25  C   UNL A   1      34.223  18.917  24.667  1.00  0.00    -0.002 A 
ATOM     26  C   UNL A   1      35.086  17.836  24.532  1.00  0.00     0.013 A 
ATOM     27  C   UNL A   1      32.825  18.741  24.647  1.00  0.00     0.013 A 
ATOM     28  C   UNL A   1      34.534  16.559  24.480  1.00  0.00     0.040 A 
ATOM     29  C   UNL A   1      32.286  17.467  24.611  1.00  0.00     0.040 A 
ATOM     30  C   UNL A   1      33.154  16.393  24.578  1.00  0.00     0.123 A 
ATOM     31  F   UNL A   1      32.650  15.175  24.739  1.00  0.00    -0.207 F 
ENDBRANCH  13  25
ENDBRANCH   8  10
ENDBRANCH   7   8
ENDBRANCH   6   7
ENDBRANCH   4   6
ENDBRANCH   3   4
ENDBRANCH   2   3
ENDBRANCH   1   2
BRANCH   1  32
ATOM     32  O   UNL A   1      43.724  21.511  25.681  1.00  0.00    -0.374 OA
BRANCH  32  33
ATOM     33  C   UNL A   1      43.869  22.642  24.852  1.00  0.00     0.202 C 
BRANCH  33  34
ATOM     34  C   UNL A   1      45.262  22.936  24.199  1.00  0.00     0.261 C 
BRANCH  34  35
ATOM     35  O   UNL A   1      46.354  24.066  24.897  1.00  0.00    -0.460 OA
BRANCH  35  36
ATOM     36  C   UNL A   1      47.195  25.008  26.275  1.00  0.00     0.338 C 
ATOM     37  O   UNL A   1      47.819  24.490  27.247  1.00  0.00    -0.246 OA
BRANCH  36  38
ATOM     38  C   UNL A   1      47.388  26.499  26.557  1.00  0.00     0.060 A 
ATOM     39  C   UNL A   1      47.541  26.971  27.872  1.00  0.00     0.016 A 
ATOM     40  C   UNL A   1      46.815  27.368  25.602  1.00  0.00     0.016 A 
ATOM     41  C   UNL A   1      47.187  28.272  28.216  1.00  0.00     0.010 A 
ATOM     42  C   UNL A   1      46.440  28.667  25.951  1.00  0.00     0.010 A 
ATOM     43  C   UNL A   1      46.621  29.119  27.265  1.00  0.00    -0.014 A 
BRANCH  43  44
ATOM     44  C   UNL A   1      46.207  30.483  27.639  1.00  0.00     0.031 A 
ATOM     45  C   UNL A   1      47.168  31.628  27.519  1.00  0.00     0.074 A 
ATOM     46  C   UNL A   1      44.962  30.650  28.121  1.00  0.00     0.049 A 
ATOM     47  N   UNL A   1      47.059  32.838  27.996  1.00  0.00    -0.248 NA
ATOM     48  C   UNL A   1      48.394  31.399  26.734  1.00  0.00     0.031 C 
ATOM     49  C   UNL A   1      43.913  29.626  28.129  1.00  0.00     0.029 A 
ATOM     50  N   UNL A   1      44.376  31.724  28.738  1.00  0.00    -0.354 N 
ATOM     51  C   UNL A   1      48.183  33.526  27.552  1.00  0.00     0.074 A 
ATOM     52  C   UNL A   1      48.987  32.587  26.800  1.00  0.00     0.031 C 
ATOM     53  C   UNL A   1      42.852  30.091  28.804  1.00  0.00     0.029 A 
ATOM     54  C   UNL A   1      43.176  31.401  29.331  1.00  0.00     0.049 A 
ATOM     55  H   UNL A   1      44.768  32.626  28.754  1.00  0.00     0.167 HD
ATOM     56  C   UNL A   1      48.480  34.832  27.747  1.00  0.00     0.037 A 
ATOM     57  C   UNL A   1      42.465  32.058  30.262  1.00  0.00     0.037 A 
ATOM     58  C   UNL A   1      47.638  35.723  28.506  1.00  0.00     0.049 A 
ATOM     59  C   UNL A   1      42.926  33.427  30.637  1.00  0.00     0.074 A 
ATOM     60  C   UNL A   1      47.801  37.075  28.743  1.00  0.00     0.029 A 
ATOM     61  N   UNL A   1      46.473  35.340  29.159  1.00  0.00    -0.354 N 
ATOM     62  N   UNL A   1      43.989  34.072  30.222  1.00  0.00    -0.248 NA
ATOM     63  C   UNL A   1      42.068  34.178  31.556  1.00  0.00     0.031 C 
ATOM     64  C   UNL A   1      46.767  37.497  29.586  1.00  0.00     0.029 A 
ATOM     65  C   UNL A   1      45.930  36.420  29.833  1.00  0.00     0.049 A 
ATOM     66  H   UNL A   1      46.090  34.434  29.145  1.00  0.00     0.167 HD
ATOM     67  C   UNL A   1      43.904  35.330  30.789  1.00  0.00     0.074 A 
ATOM     68  C   UNL A   1      42.694  35.345  31.593  1.00  0.00     0.031 C 
ATOM     69  C   UNL A   1      44.735  36.388  30.638  1.00  0.00     0.037 A 
BRANCH  56  70
ATOM     70  C   UNL A   1      49.740  35.393  27.143  1.00  0.00     0.058 A 
ATOM     71  C   UNL A   1      49.751  35.857  25.818  1.00  0.00     0.135 A 
ATOM     72  C   UNL A   1      50.964  35.357  27.830  1.00  0.00     0.135 A 
ATOM     73  F   UNL A   1      48.609  35.922  25.114  1.00  0.00    -0.206 F 
ATOM     74  C   UNL A   1      50.933  36.231  25.184  1.00  0.00     0.059 A 
ATOM     75  C   UNL A   1      52.157  35.746  27.223  1.00  0.00     0.059 A 
ATOM     76  F   UNL A   1      51.010  34.940  29.105  1.00  0.00    -0.206 F 
ATOM     77  C   UNL A   1      52.134  36.160  25.891  1.00  0.00     0.060 A 
BRANCH  77  78
ATOM     78  S   UNL A   1      53.661  36.618  25.042  1.00  0.00     0.124 S 
ATOM     79  O   UNL A   1      54.408  37.287  26.101  1.00  0.00    -0.237 OA
ATOM     80  O   UNL A   1      54.179  35.319  24.622  1.00  0.00    -0.237 OA
ATOM     81  O   UNL A   1      53.202  37.480  23.957  1.00  0.00    -0.744 OA
ENDBRANCH  77  78
ENDBRANCH  56  70
BRANCH  57  82
ATOM     82  C   UNL A   1      41.305  31.427  30.939  1.00  0.00     0.058 A 
ATOM     83  C   UNL A   1      41.495  30.598  32.057  1.00  0.00     0.135 A 
ATOM     84  C   UNL A   1      39.993  31.644  30.502  1.00  0.00     0.135 A 
ATOM     85  F   UNL A   1      42.737  30.336  32.495  1.00  0.00    -0.206 F 
ATOM     86  C   UNL A   1      40.423  29.997  32.714  1.00  0.00     0.059 A 
ATOM     87  C   UNL A   1      38.904  31.053  31.141  1.00  0.00     0.059 A 
ATOM     88  F   UNL A   1      39.766  32.442  29.448  1.00  0.00    -0.206 F 
ATOM     89  C   UNL A   1      39.129  30.216  32.237  1.00  0.00     0.060 A 
BRANCH  89  90
ATOM     90  S   UNL A   1      37.742  29.375  33.047  1.00  0.00     0.124 S 
ATOM     91  O   UNL A   1      37.941  27.980  32.668  1.00  0.00    -0.237 OA
ATOM     92  O   UNL A   1      37.978  29.679  34.455  1.00  0.00    -0.237 OA
ATOM     93  O   UNL A   1      36.574  30.022  32.459  1.00  0.00    -0.744 OA
ENDBRANCH  89  90
ENDBRANCH  57  82
BRANCH  69  94
ATOM     94  C   UNL A   1      44.342  37.648  31.342  1.00  0.00     0.058 A 
ATOM     95  C   UNL A   1      43.657  38.659  30.652  1.00  0.00     0.135 A 
ATOM     96  C   UNL A   1      44.679  37.865  32.685  1.00  0.00     0.135 A 
ATOM     97  F   UNL A   1      43.307  38.488  29.367  1.00  0.00    -0.206 F 
ATOM     98  C   UNL A   1      43.343  39.863  31.266  1.00  0.00     0.059 A 
ATOM     99  C   UNL A   1      44.346  39.050  33.329  1.00  0.00     0.059 A 
ATOM    100  F   UNL A   1      45.306  36.909  33.388  1.00  0.00    -0.206 F 
ATOM    101  C   UNL A   1      43.697  40.049  32.604  1.00  0.00     0.060 A 
BRANCH 101 102
ATOM    102  S   UNL A   1      43.286  41.622  33.383  1.00  0.00     0.124 S 
ATOM    103  O   UNL A   1      43.568  42.567  32.309  1.00  0.00    -0.237 OA
ATOM    104  O   UNL A   1      41.877  41.439  33.718  1.00  0.00    -0.237 OA
ATOM    105  O   UNL A   1      44.193  41.679  34.526  1.00  0.00    -0.744 OA
ENDBRANCH 101 102
ENDBRANCH  69  94
ENDBRANCH  43  44
ENDBRANCH  36  38
ENDBRANCH  35  36
ENDBRANCH  34  35
ENDBRANCH  33  34
ENDBRANCH  32  33
ENDBRANCH   1  32
TORSDOF 22
ENDMDL
