MODEL 1
REMARK VINA RESULT:      -9.6      0.000      0.000
REMARK SMILES C[C@@H](CNC(=O)N(C)CC(C)(C)O)C(=O)OCCOCCOC(=O)c1ccc(-c2c3nc(c(-c4c(F)cc(S(=O)(=O)[O-])cc4F)c4ccc([nH]4)c(-c4c(F)cc(S(=O)(=O)[O-])cc4F)c4nc(c(-c5c(F)cc(S(=O)(=O)[O-])cc5F)c5ccc2[nH]5)C=C4)C=C3)cc1
REMARK SMILES IDX 17 1 16 2 14 3 15 4 2 5 1 6 3 7 4 8 5 9 6 11 7 12 8 13 9 14
REMARK SMILES IDX 10 15 11 16 12 17 13 18 18 20 19 21 20 22 21 23 22 24 23 25
REMARK SMILES IDX 24 26 25 27 26 28 90 29 27 30 89 31 28 32 29 33 30 34 83 35
REMARK SMILES IDX 31 36 88 37 82 38 84 39 32 40 87 41 81 42 80 43 33 45 67 46
REMARK SMILES IDX 46 47 66 48 47 49 50 50 65 51 85 52 48 53 49 54 64 56 86 57
REMARK SMILES IDX 51 58 34 59 35 60 44 61 36 62 37 63 43 64 45 65 38 66 39 67
REMARK SMILES IDX 40 68 41 69 42 70 68 71 69 72 78 73 70 74 71 75 77 76 79 77
REMARK SMILES IDX 72 78 73 79 74 80 75 81 76 82 52 83 53 84 62 85 54 86 55 87
REMARK SMILES IDX 61 88 63 89 56 90 57 91 58 92 59 93 60 94
REMARK H PARENT 4 10 13 19 84 44 50 55
REMARK Flexibility Score: inf
ROOT
ATOM      1  C   UNL A   1      33.289  35.347  28.947  1.00  0.00     0.261 C 
ENDROOT
BRANCH   1   2
ATOM      2  O   UNL A   1      33.104  34.929  30.309  1.00  0.00    -0.463 OA
BRANCH   2   3
ATOM      3  C   UNL A   1      32.803  35.894  31.218  1.00  0.00     0.310 C 
ATOM      4  O   UNL A   1      31.748  36.516  31.272  1.00  0.00    -0.252 OA
BRANCH   3   5
ATOM      5  C   UNL A   1      33.949  36.147  32.181  1.00  0.00     0.115 C 
ATOM      6  C   UNL A   1      34.028  37.603  32.649  1.00  0.00     0.022 C 
BRANCH   5   7
ATOM      7  C   UNL A   1      33.903  35.170  33.359  1.00  0.00     0.132 C 
BRANCH   7   8
ATOM      8  N   UNL A   1      34.064  33.795  32.936  1.00  0.00    -0.337 N 
ATOM      9  C   UNL A   1      35.083  32.939  32.758  1.00  0.00     0.317 C 
ATOM     10  H   UNL A   1      33.198  33.377  32.724  1.00  0.00     0.165 HD
ATOM     11  O   UNL A   1      34.773  31.914  32.140  1.00  0.00    -0.249 OA
BRANCH   9  12
ATOM     12  N   UNL A   1      36.345  33.137  33.233  1.00  0.00    -0.325 N 
ATOM     13  C   UNL A   1      36.778  33.597  34.544  1.00  0.00     0.148 C 
BRANCH  12  14
ATOM     14  C   UNL A   1      37.445  32.704  32.352  1.00  0.00     0.155 C 
BRANCH  14  15
ATOM     15  C   UNL A   1      38.185  33.857  31.610  1.00  0.00     0.077 C 
ATOM     16  C   UNL A   1      39.413  34.369  32.369  1.00  0.00     0.043 C 
ATOM     17  C   UNL A   1      38.619  33.360  30.227  1.00  0.00     0.043 C 
BRANCH  15  18
ATOM     18  O   UNL A   1      37.283  34.954  31.388  1.00  0.00    -0.389 OA
ATOM     19  H   UNL A   1      37.247  35.509  32.183  1.00  0.00     0.211 HD
ENDBRANCH  15  18
ENDBRANCH  14  15
ENDBRANCH  12  14
ENDBRANCH   9  12
ENDBRANCH   7   8
ENDBRANCH   5   7
ENDBRANCH   3   5
ENDBRANCH   2   3
ENDBRANCH   1   2
BRANCH   1  20
ATOM     20  C   UNL A   1      34.638  34.879  28.396  1.00  0.00     0.202 C 
BRANCH  20  21
ATOM     21  O   UNL A   1      34.628  33.667  27.641  1.00  0.00    -0.374 OA
BRANCH  21  22
ATOM     22  C   UNL A   1      35.555  32.650  28.014  1.00  0.00     0.202 C 
BRANCH  22  23
ATOM     23  C   UNL A   1      35.069  31.595  29.013  1.00  0.00     0.261 C 
BRANCH  23  24
ATOM     24  O   UNL A   1      35.631  30.291  28.781  1.00  0.00    -0.460 OA
BRANCH  24  25
ATOM     25  C   UNL A   1      36.392  29.829  29.802  1.00  0.00     0.338 C 
ATOM     26  O   UNL A   1      35.990  29.310  30.837  1.00  0.00    -0.246 OA
BRANCH  25  27
ATOM     27  C   UNL A   1      37.828  29.890  29.475  1.00  0.00     0.060 A 
ATOM     28  C   UNL A   1      38.173  29.879  28.118  1.00  0.00     0.016 A 
ATOM     29  C   UNL A   1      38.819  29.820  30.458  1.00  0.00     0.016 A 
ATOM     30  C   UNL A   1      39.501  29.714  27.734  1.00  0.00     0.010 A 
ATOM     31  C   UNL A   1      40.155  29.652  30.070  1.00  0.00     0.010 A 
ATOM     32  C   UNL A   1      40.493  29.543  28.708  1.00  0.00    -0.014 A 
BRANCH  32  33
ATOM     33  C   UNL A   1      41.832  29.059  28.288  1.00  0.00     0.031 A 
ATOM     34  C   UNL A   1      42.984  30.030  28.276  1.00  0.00     0.074 A 
ATOM     35  C   UNL A   1      42.039  27.764  27.990  1.00  0.00     0.049 A 
ATOM     36  N   UNL A   1      44.243  29.823  27.985  1.00  0.00    -0.248 NA
ATOM     37  C   UNL A   1      42.673  31.421  28.642  1.00  0.00     0.031 C 
ATOM     38  C   UNL A   1      41.016  26.721  28.006  1.00  0.00     0.029 A 
ATOM     39  N   UNL A   1      43.187  27.107  27.626  1.00  0.00    -0.354 N 
ATOM     40  C   UNL A   1      44.871  31.056  28.125  1.00  0.00     0.074 A 
ATOM     41  C   UNL A   1      43.850  32.011  28.496  1.00  0.00     0.031 C 
ATOM     42  C   UNL A   1      41.585  25.549  27.671  1.00  0.00     0.029 A 
ATOM     43  C   UNL A   1      43.004  25.764  27.395  1.00  0.00     0.049 A 
ATOM     44  H   UNL A   1      44.059  27.555  27.538  1.00  0.00     0.167 HD
ATOM     45  C   UNL A   1      46.182  31.365  27.968  1.00  0.00     0.037 A 
ATOM     46  C   UNL A   1      43.882  24.821  27.003  1.00  0.00     0.037 A 
ATOM     47  C   UNL A   1      47.197  30.412  27.605  1.00  0.00     0.049 A 
ATOM     48  C   UNL A   1      45.326  25.194  26.789  1.00  0.00     0.074 A 
ATOM     49  C   UNL A   1      48.555  30.622  27.437  1.00  0.00     0.029 A 
ATOM     50  N   UNL A   1      46.966  29.069  27.346  1.00  0.00    -0.354 N 
ATOM     51  N   UNL A   1      45.910  26.358  26.942  1.00  0.00    -0.248 NA
ATOM     52  C   UNL A   1      46.231  24.121  26.354  1.00  0.00     0.031 C 
ATOM     53  C   UNL A   1      49.138  29.414  27.036  1.00  0.00     0.029 A 
ATOM     54  C   UNL A   1      48.151  28.440  27.001  1.00  0.00     0.049 A 
ATOM     55  H   UNL A   1      46.087  28.627  27.400  1.00  0.00     0.167 HD
ATOM     56  C   UNL A   1      47.256  26.152  26.656  1.00  0.00     0.074 A 
ATOM     57  C   UNL A   1      47.399  24.749  26.320  1.00  0.00     0.031 C 
ATOM     58  C   UNL A   1      48.280  27.041  26.676  1.00  0.00     0.037 A 
BRANCH  45  59
ATOM     59  C   UNL A   1      46.575  32.805  28.157  1.00  0.00     0.058 A 
ATOM     60  C   UNL A   1      46.549  33.727  27.098  1.00  0.00     0.135 A 
ATOM     61  C   UNL A   1      46.997  33.265  29.414  1.00  0.00     0.135 A 
ATOM     62  F   UNL A   1      46.168  33.335  25.871  1.00  0.00    -0.206 F 
ATOM     63  C   UNL A   1      46.967  35.042  27.269  1.00  0.00     0.059 A 
ATOM     64  C   UNL A   1      47.396  34.583  29.614  1.00  0.00     0.059 A 
ATOM     65  F   UNL A   1      47.041  32.427  30.461  1.00  0.00    -0.206 F 
ATOM     66  C   UNL A   1      47.399  35.459  28.529  1.00  0.00     0.060 A 
BRANCH  66  67
ATOM     67  S   UNL A   1      47.974  37.157  28.733  1.00  0.00     0.124 S 
ATOM     68  O   UNL A   1      48.859  37.304  27.580  1.00  0.00    -0.237 OA
ATOM     69  O   UNL A   1      46.731  37.920  28.676  1.00  0.00    -0.237 OA
ATOM     70  O   UNL A   1      48.635  37.139  30.034  1.00  0.00    -0.744 OA
ENDBRANCH  66  67
ENDBRANCH  45  59
BRANCH  46  71
ATOM     71  C   UNL A   1      43.418  23.422  26.807  1.00  0.00     0.058 A 
ATOM     72  C   UNL A   1      43.287  22.876  25.522  1.00  0.00     0.135 A 
ATOM     73  C   UNL A   1      43.122  22.596  27.903  1.00  0.00     0.135 A 
ATOM     74  F   UNL A   1      43.546  23.631  24.444  1.00  0.00    -0.206 F 
ATOM     75  C   UNL A   1      42.880  21.560  25.328  1.00  0.00     0.059 A 
ATOM     76  C   UNL A   1      42.734  21.270  27.735  1.00  0.00     0.059 A 
ATOM     77  F   UNL A   1      43.237  23.070  29.153  1.00  0.00    -0.206 F 
ATOM     78  C   UNL A   1      42.612  20.763  26.442  1.00  0.00     0.060 A 
BRANCH  78  79
ATOM     79  S   UNL A   1      42.158  19.034  26.182  1.00  0.00     0.124 S 
ATOM     80  O   UNL A   1      42.376  18.468  27.508  1.00  0.00    -0.237 OA
ATOM     81  O   UNL A   1      40.767  19.142  25.754  1.00  0.00    -0.237 OA
ATOM     82  O   UNL A   1      43.090  18.595  25.146  1.00  0.00    -0.744 OA
ENDBRANCH  78  79
ENDBRANCH  46  71
BRANCH  58  83
ATOM     83  C   UNL A   1      49.658  26.518  26.371  1.00  0.00     0.058 A 
ATOM     84  C   UNL A   1      50.434  25.865  27.341  1.00  0.00     0.135 A 
ATOM     85  C   UNL A   1      50.187  26.632  25.075  1.00  0.00     0.135 A 
ATOM     86  F   UNL A   1      49.976  25.731  28.596  1.00  0.00    -0.206 F 
ATOM     87  C   UNL A   1      51.699  25.368  27.044  1.00  0.00     0.059 A 
ATOM     88  C   UNL A   1      51.439  26.121  24.750  1.00  0.00     0.059 A 
ATOM     89  F   UNL A   1      49.481  27.237  24.107  1.00  0.00    -0.206 F 
ATOM     90  C   UNL A   1      52.195  25.502  25.746  1.00  0.00     0.060 A 
BRANCH  90  91
ATOM     91  S   UNL A   1      53.828  24.833  25.363  1.00  0.00     0.124 S 
ATOM     92  O   UNL A   1      54.527  25.026  26.630  1.00  0.00    -0.237 OA
ATOM     93  O   UNL A   1      53.526  23.449  25.011  1.00  0.00    -0.237 OA
ATOM     94  O   UNL A   1      54.287  25.668  24.258  1.00  0.00    -0.744 OA
ENDBRANCH  90  91
ENDBRANCH  58  83
ENDBRANCH  32  33
ENDBRANCH  25  27
ENDBRANCH  24  25
ENDBRANCH  23  24
ENDBRANCH  22  23
ENDBRANCH  21  22
ENDBRANCH  20  21
ENDBRANCH   1  20
TORSDOF 23
ENDMDL
MODEL 2
REMARK VINA RESULT:      -8.9      0.867      8.455
REMARK SMILES C[C@@H](CNC(=O)N(C)CC(C)(C)O)C(=O)OCCOCCOC(=O)c1ccc(-c2c3nc(c(-c4c(F)cc(S(=O)(=O)[O-])cc4F)c4ccc([nH]4)c(-c4c(F)cc(S(=O)(=O)[O-])cc4F)c4nc(c(-c5c(F)cc(S(=O)(=O)[O-])cc5F)c5ccc2[nH]5)C=C4)C=C3)cc1
REMARK SMILES IDX 17 1 16 2 14 3 15 4 2 5 1 6 3 7 4 8 5 9 6 11 7 12 8 13 9 14
REMARK SMILES IDX 10 15 11 16 12 17 13 18 18 20 19 21 20 22 21 23 22 24 23 25
REMARK SMILES IDX 24 26 25 27 26 28 90 29 27 30 89 31 28 32 29 33 30 34 83 35
REMARK SMILES IDX 31 36 88 37 82 38 84 39 32 40 87 41 81 42 80 43 33 45 67 46
REMARK SMILES IDX 46 47 66 48 47 49 50 50 65 51 85 52 48 53 49 54 64 56 86 57
REMARK SMILES IDX 51 58 34 59 35 60 44 61 36 62 37 63 43 64 45 65 38 66 39 67
REMARK SMILES IDX 40 68 41 69 42 70 68 71 69 72 78 73 70 74 71 75 77 76 79 77
REMARK SMILES IDX 72 78 73 79 74 80 75 81 76 82 52 83 53 84 62 85 54 86 55 87
REMARK SMILES IDX 61 88 63 89 56 90 57 91 58 92 59 93 60 94
REMARK H PARENT 4 10 13 19 84 44 50 55
REMARK Flexibility Score: inf
ROOT
ATOM      1  C   UNL A   1      33.999  34.584  29.166  1.00  0.00     0.261 C 
ENDROOT
BRANCH   1   2
ATOM      2  O   UNL A   1      32.902  35.094  29.941  1.00  0.00    -0.463 OA
BRANCH   2   3
ATOM      3  C   UNL A   1      33.035  36.345  30.456  1.00  0.00     0.310 C 
ATOM      4  O   UNL A   1      33.184  37.370  29.801  1.00  0.00    -0.252 OA
BRANCH   3   5
ATOM      5  C   UNL A   1      32.998  36.344  31.973  1.00  0.00     0.115 C 
ATOM      6  C   UNL A   1      31.659  35.860  32.539  1.00  0.00     0.022 C 
BRANCH   5   7
ATOM      7  C   UNL A   1      34.179  35.560  32.551  1.00  0.00     0.132 C 
BRANCH   7   8
ATOM      8  N   UNL A   1      34.012  34.129  32.401  1.00  0.00    -0.337 N 
ATOM      9  C   UNL A   1      34.801  33.073  32.148  1.00  0.00     0.317 C 
ATOM     10  H   UNL A   1      33.072  33.860  32.516  1.00  0.00     0.165 HD
ATOM     11  O   UNL A   1      34.181  32.042  31.864  1.00  0.00    -0.249 OA
BRANCH   9  12
ATOM     12  N   UNL A   1      36.161  33.095  32.224  1.00  0.00    -0.325 N 
ATOM     13  C   UNL A   1      37.131  33.629  31.280  1.00  0.00     0.148 C 
BRANCH  12  14
ATOM     14  C   UNL A   1      36.748  32.634  33.495  1.00  0.00     0.155 C 
BRANCH  14  15
ATOM     15  C   UNL A   1      37.435  33.747  34.342  1.00  0.00     0.077 C 
ATOM     16  C   UNL A   1      37.293  33.526  35.851  1.00  0.00     0.043 C 
ATOM     17  C   UNL A   1      38.923  33.802  33.979  1.00  0.00     0.043 C 
BRANCH  15  18
ATOM     18  O   UNL A   1      36.881  35.031  34.005  1.00  0.00    -0.389 OA
ATOM     19  H   UNL A   1      36.967  35.178  33.050  1.00  0.00     0.211 HD
ENDBRANCH  15  18
ENDBRANCH  14  15
ENDBRANCH  12  14
ENDBRANCH   9  12
ENDBRANCH   7   8
ENDBRANCH   5   7
ENDBRANCH   3   5
ENDBRANCH   2   3
ENDBRANCH   1   2
BRANCH   1  20
ATOM     20  C   UNL A   1      33.507  33.790  27.953  1.00  0.00     0.202 C 
BRANCH  20  21
ATOM     21  O   UNL A   1      33.204  32.413  28.178  1.00  0.00    -0.374 OA
BRANCH  21  22
ATOM     22  C   UNL A   1      34.184  31.451  27.795  1.00  0.00     0.202 C 
BRANCH  22  23
ATOM     23  C   UNL A   1      35.444  31.355  28.663  1.00  0.00     0.261 C 
BRANCH  23  24
ATOM     24  O   UNL A   1      35.866  30.001  28.903  1.00  0.00    -0.460 OA
BRANCH  24  25
ATOM     25  C   UNL A   1      36.653  29.854  29.995  1.00  0.00     0.338 C 
ATOM     26  O   UNL A   1      36.292  29.523  31.118  1.00  0.00    -0.246 OA
BRANCH  25  27
ATOM     27  C   UNL A   1      38.080  30.007  29.657  1.00  0.00     0.060 A 
ATOM     28  C   UNL A   1      38.442  29.806  28.318  1.00  0.00     0.016 A 
ATOM     29  C   UNL A   1      39.060  30.205  30.633  1.00  0.00     0.016 A 
ATOM     30  C   UNL A   1      39.784  29.717  27.962  1.00  0.00     0.010 A 
ATOM     31  C   UNL A   1      40.412  30.113  30.273  1.00  0.00     0.010 A 
ATOM     32  C   UNL A   1      40.776  29.815  28.947  1.00  0.00    -0.014 A 
BRANCH  32  33
ATOM     33  C   UNL A   1      42.163  29.408  28.607  1.00  0.00     0.031 A 
ATOM     34  C   UNL A   1      42.422  27.980  28.200  1.00  0.00     0.074 A 
ATOM     35  C   UNL A   1      43.165  30.306  28.590  1.00  0.00     0.049 A 
ATOM     36  N   UNL A   1      43.539  27.413  27.824  1.00  0.00    -0.248 NA
ATOM     37  C   UNL A   1      41.264  27.073  28.220  1.00  0.00     0.031 C 
ATOM     38  C   UNL A   1      43.033  31.723  28.922  1.00  0.00     0.029 A 
ATOM     39  N   UNL A   1      44.490  30.155  28.268  1.00  0.00    -0.354 N 
ATOM     40  C   UNL A   1      43.221  26.083  27.571  1.00  0.00     0.074 A 
ATOM     41  C   UNL A   1      41.814  25.922  27.867  1.00  0.00     0.031 C 
ATOM     42  C   UNL A   1      44.232  32.315  28.781  1.00  0.00     0.029 A 
ATOM     43  C   UNL A   1      45.218  31.316  28.372  1.00  0.00     0.049 A 
ATOM     44  H   UNL A   1      44.882  29.296  27.990  1.00  0.00     0.167 HD
ATOM     45  C   UNL A   1      44.024  25.086  27.125  1.00  0.00     0.037 A 
ATOM     46  C   UNL A   1      46.530  31.543  28.165  1.00  0.00     0.037 A 
ATOM     47  C   UNL A   1      45.423  25.251  26.825  1.00  0.00     0.049 A 
ATOM     48  C   UNL A   1      47.416  30.412  27.714  1.00  0.00     0.074 A 
ATOM     49  C   UNL A   1      46.319  24.308  26.351  1.00  0.00     0.029 A 
ATOM     50  N   UNL A   1      46.130  26.434  26.976  1.00  0.00    -0.354 N 
ATOM     51  N   UNL A   1      47.099  29.164  27.461  1.00  0.00    -0.248 NA
ATOM     52  C   UNL A   1      48.838  30.723  27.512  1.00  0.00     0.031 C 
ATOM     53  C   UNL A   1      47.578  24.912  26.256  1.00  0.00     0.029 A 
ATOM     54  C   UNL A   1      47.457  26.243  26.625  1.00  0.00     0.049 A 
ATOM     55  H   UNL A   1      45.746  27.285  27.288  1.00  0.00     0.167 HD
ATOM     56  C   UNL A   1      48.273  28.549  27.039  1.00  0.00     0.074 A 
ATOM     57  C   UNL A   1      49.308  29.563  27.071  1.00  0.00     0.031 C 
ATOM     58  C   UNL A   1      48.475  27.264  26.654  1.00  0.00     0.037 A 
BRANCH  45  59
ATOM     59  C   UNL A   1      43.407  23.723  26.969  1.00  0.00     0.058 A 
ATOM     60  C   UNL A   1      43.339  22.813  28.037  1.00  0.00     0.135 A 
ATOM     61  C   UNL A   1      42.887  23.318  25.730  1.00  0.00     0.135 A 
ATOM     62  F   UNL A   1      43.836  23.144  29.239  1.00  0.00    -0.206 F 
ATOM     63  C   UNL A   1      42.817  21.535  27.870  1.00  0.00     0.059 A 
ATOM     64  C   UNL A   1      42.336  22.053  25.547  1.00  0.00     0.059 A 
ATOM     65  F   UNL A   1      42.925  24.148  24.676  1.00  0.00    -0.206 F 
ATOM     66  C   UNL A   1      42.326  21.160  26.617  1.00  0.00     0.060 A 
BRANCH  66  67
ATOM     67  S   UNL A   1      41.684  19.487  26.402  1.00  0.00     0.124 S 
ATOM     68  O   UNL A   1      42.448  19.030  25.245  1.00  0.00    -0.237 OA
ATOM     69  O   UNL A   1      42.020  18.854  27.673  1.00  0.00    -0.237 OA
ATOM     70  O   UNL A   1      40.258  19.698  26.168  1.00  0.00    -0.744 OA
ENDBRANCH  66  67
ENDBRANCH  45  59
BRANCH  46  71
ATOM     71  C   UNL A   1      47.079  32.909  28.366  1.00  0.00     0.058 A 
ATOM     72  C   UNL A   1      47.657  33.286  29.587  1.00  0.00     0.135 A 
ATOM     73  C   UNL A   1      47.060  33.858  27.331  1.00  0.00     0.135 A 
ATOM     74  F   UNL A   1      47.685  32.418  30.610  1.00  0.00    -0.206 F 
ATOM     75  C   UNL A   1      48.198  34.553  29.777  1.00  0.00     0.059 A 
ATOM     76  C   UNL A   1      47.615  35.124  27.489  1.00  0.00     0.059 A 
ATOM     77  F   UNL A   1      46.524  33.545  26.141  1.00  0.00    -0.206 F 
ATOM     78  C   UNL A   1      48.178  35.463  28.718  1.00  0.00     0.060 A 
BRANCH  78  79
ATOM     79  S   UNL A   1      48.952  37.079  28.951  1.00  0.00     0.124 S 
ATOM     80  O   UNL A   1      48.841  37.654  27.616  1.00  0.00    -0.237 OA
ATOM     81  O   UNL A   1      48.108  37.680  29.978  1.00  0.00    -0.237 OA
ATOM     82  O   UNL A   1      50.306  36.743  29.383  1.00  0.00    -0.744 OA
ENDBRANCH  78  79
ENDBRANCH  46  71
BRANCH  58  83
ATOM     83  C   UNL A   1      49.856  26.888  26.191  1.00  0.00     0.058 A 
ATOM     84  C   UNL A   1      50.267  27.073  24.862  1.00  0.00     0.135 A 
ATOM     85  C   UNL A   1      50.795  26.378  27.103  1.00  0.00     0.135 A 
ATOM     86  F   UNL A   1      49.409  27.555  23.949  1.00  0.00    -0.206 F 
ATOM     87  C   UNL A   1      51.553  26.740  24.447  1.00  0.00     0.059 A 
ATOM     88  C   UNL A   1      52.092  26.061  26.715  1.00  0.00     0.059 A 
ATOM     89  F   UNL A   1      50.456  26.193  28.388  1.00  0.00    -0.206 F 
ATOM     90  C   UNL A   1      52.459  26.233  25.380  1.00  0.00     0.060 A 
BRANCH  90  91
ATOM     91  S   UNL A   1      54.132  25.825  24.838  1.00  0.00     0.124 S 
ATOM     92  O   UNL A   1      54.940  26.499  25.850  1.00  0.00    -0.237 OA
ATOM     93  O   UNL A   1      54.135  24.367  24.893  1.00  0.00    -0.237 OA
ATOM     94  O   UNL A   1      54.203  26.395  23.496  1.00  0.00    -0.744 OA
ENDBRANCH  90  91
ENDBRANCH  58  83
ENDBRANCH  32  33
ENDBRANCH  25  27
ENDBRANCH  24  25
ENDBRANCH  23  24
ENDBRANCH  22  23
ENDBRANCH  21  22
ENDBRANCH  20  21
ENDBRANCH   1  20
TORSDOF 23
ENDMDL
MODEL 3
REMARK VINA RESULT:      -8.8      4.788      5.844
REMARK SMILES C[C@@H](CNC(=O)N(C)CC(C)(C)O)C(=O)OCCOCCOC(=O)c1ccc(-c2c3nc(c(-c4c(F)cc(S(=O)(=O)[O-])cc4F)c4ccc([nH]4)c(-c4c(F)cc(S(=O)(=O)[O-])cc4F)c4nc(c(-c5c(F)cc(S(=O)(=O)[O-])cc5F)c5ccc2[nH]5)C=C4)C=C3)cc1
REMARK SMILES IDX 17 1 16 2 14 3 15 4 2 5 1 6 3 7 4 8 5 9 6 11 7 12 8 13 9 14
REMARK SMILES IDX 10 15 11 16 12 17 13 18 18 20 19 21 20 22 21 23 22 24 23 25
REMARK SMILES IDX 24 26 25 27 26 28 90 29 27 30 89 31 28 32 29 33 30 34 83 35
REMARK SMILES IDX 31 36 88 37 82 38 84 39 32 40 87 41 81 42 80 43 33 45 67 46
REMARK SMILES IDX 46 47 66 48 47 49 50 50 65 51 85 52 48 53 49 54 64 56 86 57
REMARK SMILES IDX 51 58 34 59 35 60 44 61 36 62 37 63 43 64 45 65 38 66 39 67
REMARK SMILES IDX 40 68 41 69 42 70 68 71 69 72 78 73 70 74 71 75 77 76 79 77
REMARK SMILES IDX 72 78 73 79 74 80 75 81 76 82 52 83 53 84 62 85 54 86 55 87
REMARK SMILES IDX 61 88 63 89 56 90 57 91 58 92 59 93 60 94
REMARK H PARENT 4 10 13 19 84 44 50 55
REMARK Flexibility Score: inf
ROOT
ATOM      1  C   UNL A   1      33.004  35.410  29.127  1.00  0.00     0.261 C 
ENDROOT
BRANCH   1   2
ATOM      2  O   UNL A   1      33.104  35.377  30.560  1.00  0.00    -0.463 OA
BRANCH   2   3
ATOM      3  C   UNL A   1      33.350  36.554  31.192  1.00  0.00     0.310 C 
ATOM      4  O   UNL A   1      32.903  37.646  30.860  1.00  0.00    -0.252 OA
BRANCH   3   5
ATOM      5  C   UNL A   1      34.280  36.380  32.379  1.00  0.00     0.115 C 
ATOM      6  C   UNL A   1      33.653  36.828  33.703  1.00  0.00     0.022 C 
BRANCH   5   7
ATOM      7  C   UNL A   1      34.811  34.947  32.455  1.00  0.00     0.132 C 
BRANCH   7   8
ATOM      8  N   UNL A   1      36.251  34.887  32.308  1.00  0.00    -0.337 N 
ATOM      9  C   UNL A   1      37.248  34.106  32.751  1.00  0.00     0.317 C 
ATOM     10  H   UNL A   1      36.586  35.611  31.731  1.00  0.00     0.165 HD
ATOM     11  O   UNL A   1      38.375  34.579  32.565  1.00  0.00    -0.249 OA
BRANCH   9  12
ATOM     12  N   UNL A   1      37.069  32.883  33.324  1.00  0.00    -0.325 N 
ATOM     13  C   UNL A   1      36.208  31.784  32.910  1.00  0.00     0.148 C 
BRANCH  12  14
ATOM     14  C   UNL A   1      37.965  32.555  34.448  1.00  0.00     0.155 C 
BRANCH  14  15
ATOM     15  C   UNL A   1      37.521  33.125  35.829  1.00  0.00     0.077 C 
ATOM     16  C   UNL A   1      37.777  32.157  36.988  1.00  0.00     0.043 C 
ATOM     17  C   UNL A   1      38.272  34.434  36.091  1.00  0.00     0.043 C 
BRANCH  15  18
ATOM     18  O   UNL A   1      36.121  33.453  35.795  1.00  0.00    -0.389 OA
ATOM     19  H   UNL A   1      35.605  32.647  35.637  1.00  0.00     0.211 HD
ENDBRANCH  15  18
ENDBRANCH  14  15
ENDBRANCH  12  14
ENDBRANCH   9  12
ENDBRANCH   7   8
ENDBRANCH   5   7
ENDBRANCH   3   5
ENDBRANCH   2   3
ENDBRANCH   1   2
BRANCH   1  20
ATOM     20  C   UNL A   1      34.379  35.297  28.465  1.00  0.00     0.202 C 
BRANCH  20  21
ATOM     21  O   UNL A   1      34.586  34.160  27.625  1.00  0.00    -0.374 OA
BRANCH  21  22
ATOM     22  C   UNL A   1      34.892  32.921  28.258  1.00  0.00     0.202 C 
BRANCH  22  23
ATOM     23  C   UNL A   1      33.957  31.740  27.970  1.00  0.00     0.261 C 
BRANCH  23  24
ATOM     24  O   UNL A   1      34.475  30.834  26.981  1.00  0.00    -0.460 OA
BRANCH  24  25
ATOM     25  C   UNL A   1      34.848  29.630  27.477  1.00  0.00     0.338 C 
ATOM     26  O   UNL A   1      34.316  28.549  27.250  1.00  0.00    -0.246 OA
BRANCH  25  27
ATOM     27  C   UNL A   1      36.101  29.729  28.248  1.00  0.00     0.060 A 
ATOM     28  C   UNL A   1      37.254  30.099  27.544  1.00  0.00     0.016 A 
ATOM     29  C   UNL A   1      36.183  29.341  29.588  1.00  0.00     0.016 A 
ATOM     30  C   UNL A   1      38.504  30.002  28.149  1.00  0.00     0.010 A 
ATOM     31  C   UNL A   1      37.443  29.242  30.194  1.00  0.00     0.010 A 
ATOM     32  C   UNL A   1      38.610  29.520  29.460  1.00  0.00    -0.014 A 
BRANCH  32  33
ATOM     33  C   UNL A   1      39.948  29.129  29.971  1.00  0.00     0.031 A 
ATOM     34  C   UNL A   1      40.509  29.856  31.165  1.00  0.00     0.074 A 
ATOM     35  C   UNL A   1      40.622  28.098  29.431  1.00  0.00     0.049 A 
ATOM     36  N   UNL A   1      41.633  29.659  31.805  1.00  0.00    -0.248 NA
ATOM     37  C   UNL A   1      39.692  30.951  31.710  1.00  0.00     0.031 C 
ATOM     38  C   UNL A   1      40.166  27.290  28.301  1.00  0.00     0.029 A 
ATOM     39  N   UNL A   1      41.833  27.551  29.772  1.00  0.00    -0.354 N 
ATOM     40  C   UNL A   1      41.662  30.608  32.821  1.00  0.00     0.074 A 
ATOM     41  C   UNL A   1      40.458  31.401  32.692  1.00  0.00     0.031 C 
ATOM     42  C   UNL A   1      41.086  26.344  28.045  1.00  0.00     0.029 A 
ATOM     43  C   UNL A   1      42.204  26.493  28.975  1.00  0.00     0.049 A 
ATOM     44  H   UNL A   1      42.386  27.884  30.515  1.00  0.00     0.167 HD
ATOM     45  C   UNL A   1      42.600  30.800  33.780  1.00  0.00     0.037 A 
ATOM     46  C   UNL A   1      43.319  25.738  28.994  1.00  0.00     0.037 A 
ATOM     47  C   UNL A   1      43.794  30.006  33.910  1.00  0.00     0.049 A 
ATOM     48  C   UNL A   1      44.372  25.996  30.040  1.00  0.00     0.074 A 
ATOM     49  C   UNL A   1      44.798  30.109  34.858  1.00  0.00     0.029 A 
ATOM     50  N   UNL A   1      44.149  28.967  33.063  1.00  0.00    -0.354 N 
ATOM     51  N   UNL A   1      44.378  26.884  31.005  1.00  0.00    -0.248 NA
ATOM     52  C   UNL A   1      45.568  25.142  30.002  1.00  0.00     0.031 C 
ATOM     53  C   UNL A   1      45.781  29.159  34.558  1.00  0.00     0.029 A 
ATOM     54  C   UNL A   1      45.367  28.432  33.452  1.00  0.00     0.049 A 
ATOM     55  H   UNL A   1      43.615  28.655  32.297  1.00  0.00     0.167 HD
ATOM     56  C   UNL A   1      45.559  26.676  31.710  1.00  0.00     0.074 A 
ATOM     57  C   UNL A   1      46.243  25.575  31.060  1.00  0.00     0.031 C 
ATOM     58  C   UNL A   1      46.032  27.331  32.800  1.00  0.00     0.037 A 
BRANCH  45  59
ATOM     59  C   UNL A   1      42.380  31.937  34.740  1.00  0.00     0.058 A 
ATOM     60  C   UNL A   1      42.897  33.221  34.501  1.00  0.00     0.135 A 
ATOM     61  C   UNL A   1      41.651  31.735  35.923  1.00  0.00     0.135 A 
ATOM     62  F   UNL A   1      43.614  33.465  33.393  1.00  0.00    -0.206 F 
ATOM     63  C   UNL A   1      42.735  34.252  35.420  1.00  0.00     0.059 A 
ATOM     64  C   UNL A   1      41.455  32.759  36.844  1.00  0.00     0.059 A 
ATOM     65  F   UNL A   1      41.135  30.528  36.201  1.00  0.00    -0.206 F 
ATOM     66  C   UNL A   1      42.021  34.009  36.595  1.00  0.00     0.060 A 
BRANCH  66  67
ATOM     67  S   UNL A   1      41.847  35.343  37.798  1.00  0.00     0.124 S 
ATOM     68  O   UNL A   1      43.226  35.507  38.250  1.00  0.00    -0.237 OA
ATOM     69  O   UNL A   1      41.314  36.432  36.986  1.00  0.00    -0.237 OA
ATOM     70  O   UNL A   1      40.925  34.792  38.786  1.00  0.00    -0.744 OA
ENDBRANCH  66  67
ENDBRANCH  45  59
BRANCH  46  71
ATOM     71  C   UNL A   1      43.485  24.648  27.997  1.00  0.00     0.058 A 
ATOM     72  C   UNL A   1      44.022  24.904  26.727  1.00  0.00     0.135 A 
ATOM     73  C   UNL A   1      43.133  23.324  28.304  1.00  0.00     0.135 A 
ATOM     74  F   UNL A   1      44.361  26.156  26.384  1.00  0.00    -0.206 F 
ATOM     75  C   UNL A   1      44.207  23.888  25.796  1.00  0.00     0.059 A 
ATOM     76  C   UNL A   1      43.328  22.287  27.397  1.00  0.00     0.059 A 
ATOM     77  F   UNL A   1      42.620  23.026  29.508  1.00  0.00    -0.206 F 
ATOM     78  C   UNL A   1      43.863  22.580  26.144  1.00  0.00     0.060 A 
BRANCH  78  79
ATOM     79  S   UNL A   1      44.177  21.256  24.955  1.00  0.00     0.124 S 
ATOM     80  O   UNL A   1      45.467  20.751  25.412  1.00  0.00    -0.237 OA
ATOM     81  O   UNL A   1      43.035  20.374  25.167  1.00  0.00    -0.237 OA
ATOM     82  O   UNL A   1      44.190  21.953  23.672  1.00  0.00    -0.744 OA
ENDBRANCH  78  79
ENDBRANCH  46  71
BRANCH  58  83
ATOM     83  C   UNL A   1      47.329  26.848  33.390  1.00  0.00     0.058 A 
ATOM     84  C   UNL A   1      48.563  27.410  33.028  1.00  0.00     0.135 A 
ATOM     85  C   UNL A   1      47.329  25.839  34.368  1.00  0.00     0.135 A 
ATOM     86  F   UNL A   1      48.618  28.375  32.097  1.00  0.00    -0.206 F 
ATOM     87  C   UNL A   1      49.755  26.970  33.595  1.00  0.00     0.059 A 
ATOM     88  C   UNL A   1      48.507  25.401  34.965  1.00  0.00     0.059 A 
ATOM     89  F   UNL A   1      46.175  25.277  34.760  1.00  0.00    -0.206 F 
ATOM     90  C   UNL A   1      49.717  25.963  34.561  1.00  0.00     0.060 A 
BRANCH  90  91
ATOM     91  S   UNL A   1      51.267  25.414  35.308  1.00  0.00     0.124 S 
ATOM     92  O   UNL A   1      51.013  23.989  35.497  1.00  0.00    -0.237 OA
ATOM     93  O   UNL A   1      52.248  25.752  34.281  1.00  0.00    -0.237 OA
ATOM     94  O   UNL A   1      51.353  26.205  36.531  1.00  0.00    -0.744 OA
ENDBRANCH  90  91
ENDBRANCH  58  83
ENDBRANCH  32  33
ENDBRANCH  25  27
ENDBRANCH  24  25
ENDBRANCH  23  24
ENDBRANCH  22  23
ENDBRANCH  21  22
ENDBRANCH  20  21
ENDBRANCH   1  20
TORSDOF 23
ENDMDL
