MODEL 1
REMARK VINA RESULT:     -10.3      0.000      0.000
REMARK SMILES CCc1cn(C[C@H](NC(=O)c2ccco2)C(=O)OCCOCCOC(=O)c2ccc(-c3c4nc(c(-c5c(F)cc(S(=O)(=O)[O-])cc5F)c5ccc([nH]5)c(-c5c(F)cc(S(=O)(=O)[O-])cc5F)c5nc(c(-c6c(F)cc(S(=O)(=O)[O-])cc6F)c6ccc3[nH]6)C=C5)C=C4)cc2)c(=O)[nH]c1=O
REMARK SMILES IDX 21 1 20 2 19 3 18 4 16 5 17 6 7 7 6 8 5 9 3 10 4 11 96 12
REMARK SMILES IDX 95 13 97 14 93 15 94 17 2 18 1 19 8 20 9 21 10 23 11 24
REMARK SMILES IDX 12 25 15 26 13 27 14 28 22 29 23 30 24 31 25 32 26 33 27 34
REMARK SMILES IDX 28 35 92 36 29 37 91 38 30 39 31 40 32 41 85 42 33 43 90 44
REMARK SMILES IDX 84 45 86 46 34 47 89 48 83 49 82 50 35 52 69 53 48 54 68 55
REMARK SMILES IDX 49 56 52 57 67 58 87 59 50 60 51 61 66 63 88 64 53 65 36 66
REMARK SMILES IDX 37 67 46 68 38 69 39 70 45 71 47 72 40 73 41 74 42 75 43 76
REMARK SMILES IDX 44 77 70 78 71 79 80 80 72 81 73 82 79 83 81 84 74 85 75 86
REMARK SMILES IDX 76 87 77 88 78 89 54 90 55 91 64 92 56 93 57 94 63 95 65 96
REMARK SMILES IDX 58 97 59 98 60 99 61 100 62 101
REMARK H PARENT 95 16 8 22 86 51 52 62
REMARK Flexibility Score: inf
ROOT
ATOM      1  O   UNL A   1      38.938  21.780  25.859  1.00  0.00    -0.374 OA
ENDROOT
BRANCH   1   2
ATOM      2  C   UNL A   1      37.758  22.520  25.552  1.00  0.00     0.202 C 
BRANCH   2   3
ATOM      3  C   UNL A   1      37.039  22.170  24.252  1.00  0.00     0.261 C 
BRANCH   3   4
ATOM      4  O   UNL A   1      35.961  23.072  23.988  1.00  0.00    -0.462 OA
BRANCH   4   5
ATOM      5  C   UNL A   1      34.735  22.633  24.364  1.00  0.00     0.330 C 
ATOM      6  O   UNL A   1      34.423  21.452  24.499  1.00  0.00    -0.250 OA
BRANCH   5   7
ATOM      7  C   UNL A   1      33.724  23.765  24.596  1.00  0.00     0.212 C 
BRANCH   7   8
ATOM      8  C   UNL A   1      34.450  25.058  24.216  1.00  0.00     0.164 C 
BRANCH   8   9
ATOM      9  N   UNL A   1      33.694  26.204  23.664  1.00  0.00    -0.298 N 
ATOM     10  C   UNL A   1      32.593  28.248  24.254  1.00  0.00     0.033 A 
ATOM     11  C   UNL A   1      33.302  27.161  24.581  1.00  0.00     0.100 A 
ATOM     12  C   UNL A   1      32.275  28.454  22.825  1.00  0.00     0.256 A 
ATOM     13  N   UNL A   1      32.725  27.495  21.974  1.00  0.00    -0.274 N 
ATOM     14  O   UNL A   1      31.626  29.409  22.422  1.00  0.00    -0.269 OA
ATOM     15  C   UNL A   1      33.373  26.347  22.318  1.00  0.00     0.328 A 
ATOM     16  H   UNL A   1      32.568  27.644  21.013  1.00  0.00     0.175 HD
ATOM     17  O   UNL A   1      33.600  25.520  21.444  1.00  0.00    -0.248 OA
BRANCH  10  18
ATOM     18  C   UNL A   1      32.097  29.241  25.263  1.00  0.00     0.039 C 
ATOM     19  C   UNL A   1      31.733  28.581  26.589  1.00  0.00     0.009 C 
ENDBRANCH  10  18
ENDBRANCH   8   9
ENDBRANCH   7   8
BRANCH   7  20
ATOM     20  N   UNL A   1      32.829  23.722  25.768  1.00  0.00    -0.334 N 
ATOM     21  C   UNL A   1      31.559  24.137  26.091  1.00  0.00     0.287 C 
ATOM     22  H   UNL A   1      33.260  23.272  26.530  1.00  0.00     0.164 HD
ATOM     23  O   UNL A   1      31.187  23.853  27.234  1.00  0.00    -0.266 OA
BRANCH  21  24
ATOM     24  C   UNL A   1      30.713  24.838  25.158  1.00  0.00     0.191 A 
ATOM     25  C   UNL A   1      30.431  24.689  23.811  1.00  0.00     0.056 A 
ATOM     26  O   UNL A   1      29.952  25.865  25.654  1.00  0.00    -0.459 OA
ATOM     27  C   UNL A   1      29.583  25.767  23.448  1.00  0.00     0.043 A 
ATOM     28  C   UNL A   1      29.302  26.439  24.613  1.00  0.00     0.196 A 
ENDBRANCH  21  24
ENDBRANCH   7  20
ENDBRANCH   5   7
ENDBRANCH   4   5
ENDBRANCH   3   4
ENDBRANCH   2   3
ENDBRANCH   1   2
BRANCH   1  29
ATOM     29  C   UNL A   1      39.052  20.442  25.376  1.00  0.00     0.202 C 
BRANCH  29  30
ATOM     30  C   UNL A   1      39.861  19.426  26.197  1.00  0.00     0.261 C 
BRANCH  30  31
ATOM     31  O   UNL A   1      41.148  19.117  25.635  1.00  0.00    -0.460 OA
BRANCH  31  32
ATOM     32  C   UNL A   1      42.198  19.272  26.480  1.00  0.00     0.338 C 
ATOM     33  O   UNL A   1      42.921  18.390  26.923  1.00  0.00    -0.246 OA
BRANCH  32  34
ATOM     34  C   UNL A   1      42.482  20.703  26.675  1.00  0.00     0.060 A 
ATOM     35  C   UNL A   1      42.560  21.244  27.958  1.00  0.00     0.016 A 
ATOM     36  C   UNL A   1      42.766  21.491  25.551  1.00  0.00     0.016 A 
ATOM     37  C   UNL A   1      42.937  22.581  28.114  1.00  0.00     0.010 A 
ATOM     38  C   UNL A   1      43.137  22.828  25.710  1.00  0.00     0.010 A 
ATOM     39  C   UNL A   1      43.240  23.380  26.994  1.00  0.00    -0.014 A 
BRANCH  39  40
ATOM     40  C   UNL A   1      43.743  24.765  27.175  1.00  0.00     0.031 A 
ATOM     41  C   UNL A   1      42.826  25.865  27.629  1.00  0.00     0.074 A 
ATOM     42  C   UNL A   1      45.043  25.021  26.927  1.00  0.00     0.049 A 
ATOM     43  N   UNL A   1      43.106  27.120  27.869  1.00  0.00    -0.248 NA
ATOM     44  C   UNL A   1      41.412  25.514  27.836  1.00  0.00     0.031 C 
ATOM     45  C   UNL A   1      46.022  24.033  26.469  1.00  0.00     0.029 A 
ATOM     46  N   UNL A   1      45.770  26.180  27.038  1.00  0.00    -0.354 N 
ATOM     47  C   UNL A   1      41.916  27.703  28.289  1.00  0.00     0.074 A 
ATOM     48  C   UNL A   1      40.895  26.680  28.208  1.00  0.00     0.031 C 
ATOM     49  C   UNL A   1      47.227  24.618  26.376  1.00  0.00     0.029 A 
ATOM     50  C   UNL A   1      47.104  26.027  26.733  1.00  0.00     0.049 A 
ATOM     51  H   UNL A   1      45.375  27.039  27.309  1.00  0.00     0.167 HD
ATOM     52  C   UNL A   1      41.706  28.967  28.730  1.00  0.00     0.037 A 
ATOM     53  C   UNL A   1      48.112  26.921  26.746  1.00  0.00     0.037 A 
ATOM     54  C   UNL A   1      42.729  29.984  28.797  1.00  0.00     0.049 A 
ATOM     55  C   UNL A   1      47.825  28.342  27.159  1.00  0.00     0.074 A 
ATOM     56  C   UNL A   1      42.611  31.295  29.229  1.00  0.00     0.029 A 
ATOM     57  N   UNL A   1      44.056  29.807  28.429  1.00  0.00    -0.354 N 
ATOM     58  N   UNL A   1      46.702  28.866  27.589  1.00  0.00    -0.248 NA
ATOM     59  C   UNL A   1      48.943  29.293  27.089  1.00  0.00     0.031 C 
ATOM     60  C   UNL A   1      43.852  31.922  29.081  1.00  0.00     0.029 A 
ATOM     61  C   UNL A   1      44.759  30.990  28.608  1.00  0.00     0.049 A 
ATOM     62  H   UNL A   1      44.441  28.967  28.091  1.00  0.00     0.167 HD
ATOM     63  C   UNL A   1      46.989  30.198  27.874  1.00  0.00     0.074 A 
ATOM     64  C   UNL A   1      48.395  30.393  27.584  1.00  0.00     0.031 C 
ATOM     65  C   UNL A   1      46.164  31.170  28.331  1.00  0.00     0.037 A 
BRANCH  52  66
ATOM     66  C   UNL A   1      40.329  29.332  29.216  1.00  0.00     0.058 A 
ATOM     67  C   UNL A   1      40.062  29.491  30.586  1.00  0.00     0.135 A 
ATOM     68  C   UNL A   1      39.302  29.648  28.312  1.00  0.00     0.135 A 
ATOM     69  F   UNL A   1      41.001  29.185  31.497  1.00  0.00    -0.206 F 
ATOM     70  C   UNL A   1      38.835  29.962  31.041  1.00  0.00     0.059 A 
ATOM     71  C   UNL A   1      38.073  30.145  28.744  1.00  0.00     0.059 A 
ATOM     72  F   UNL A   1      39.500  29.512  26.991  1.00  0.00    -0.206 F 
ATOM     73  C   UNL A   1      37.852  30.305  30.111  1.00  0.00     0.060 A 
BRANCH  73  74
ATOM     74  S   UNL A   1      36.307  31.019  30.719  1.00  0.00     0.124 S 
ATOM     75  O   UNL A   1      35.860  30.012  31.675  1.00  0.00    -0.237 OA
ATOM     76  O   UNL A   1      36.759  32.280  31.298  1.00  0.00    -0.237 OA
ATOM     77  O   UNL A   1      35.490  31.143  29.515  1.00  0.00    -0.744 OA
ENDBRANCH  73  74
ENDBRANCH  52  66
BRANCH  53  78
ATOM     78  C   UNL A   1      49.495  26.510  26.381  1.00  0.00     0.058 A 
ATOM     79  C   UNL A   1      49.987  26.717  25.082  1.00  0.00     0.135 A 
ATOM     80  C   UNL A   1      50.337  25.866  27.301  1.00  0.00     0.135 A 
ATOM     81  F   UNL A   1      49.220  27.323  24.164  1.00  0.00    -0.206 F 
ATOM     82  C   UNL A   1      51.246  26.267  24.697  1.00  0.00     0.059 A 
ATOM     83  C   UNL A   1      51.613  25.435  26.949  1.00  0.00     0.059 A 
ATOM     84  F   UNL A   1      49.924  25.655  28.560  1.00  0.00    -0.206 F 
ATOM     85  C   UNL A   1      52.050  25.622  25.638  1.00  0.00     0.060 A 
BRANCH  85  86
ATOM     86  S   UNL A   1      53.677  25.032  25.123  1.00  0.00     0.124 S 
ATOM     87  O   UNL A   1      53.748  25.527  23.753  1.00  0.00    -0.237 OA
ATOM     88  O   UNL A   1      54.557  25.688  26.085  1.00  0.00    -0.237 OA
ATOM     89  O   UNL A   1      53.570  23.584  25.265  1.00  0.00    -0.744 OA
ENDBRANCH  85  86
ENDBRANCH  53  78
BRANCH  65  90
ATOM     90  C   UNL A   1      46.759  32.530  28.581  1.00  0.00     0.058 A 
ATOM     91  C   UNL A   1      46.774  33.522  27.588  1.00  0.00     0.135 A 
ATOM     92  C   UNL A   1      47.268  32.866  29.847  1.00  0.00     0.135 A 
ATOM     93  F   UNL A   1      46.308  33.255  26.357  1.00  0.00    -0.206 F 
ATOM     94  C   UNL A   1      47.293  34.790  27.833  1.00  0.00     0.059 A 
ATOM     95  C   UNL A   1      47.762  34.137  30.124  1.00  0.00     0.059 A 
ATOM     96  F   UNL A   1      47.270  31.959  30.837  1.00  0.00    -0.206 F 
ATOM     97  C   UNL A   1      47.779  35.091  29.107  1.00  0.00     0.060 A 
BRANCH  97  98
ATOM     98  S   UNL A   1      48.410  36.753  29.418  1.00  0.00     0.124 S 
ATOM     99  O   UNL A   1      49.096  37.049  28.164  1.00  0.00    -0.237 OA
ATOM    100  O   UNL A   1      47.185  37.508  29.663  1.00  0.00    -0.237 OA
ATOM    101  O   UNL A   1      49.277  36.580  30.580  1.00  0.00    -0.744 OA
ENDBRANCH  97  98
ENDBRANCH  65  90
ENDBRANCH  39  40
ENDBRANCH  32  34
ENDBRANCH  31  32
ENDBRANCH  30  31
ENDBRANCH  29  30
ENDBRANCH   1  29
TORSDOF 22
ENDMDL
MODEL 2
REMARK VINA RESULT:     -10.3      1.713      8.642
REMARK SMILES CCc1cn(C[C@H](NC(=O)c2ccco2)C(=O)OCCOCCOC(=O)c2ccc(-c3c4nc(c(-c5c(F)cc(S(=O)(=O)[O-])cc5F)c5ccc([nH]5)c(-c5c(F)cc(S(=O)(=O)[O-])cc5F)c5nc(c(-c6c(F)cc(S(=O)(=O)[O-])cc6F)c6ccc3[nH]6)C=C5)C=C4)cc2)c(=O)[nH]c1=O
REMARK SMILES IDX 21 1 20 2 19 3 18 4 16 5 17 6 7 7 6 8 5 9 3 10 4 11 96 12
REMARK SMILES IDX 95 13 97 14 93 15 94 17 2 18 1 19 8 20 9 21 10 23 11 24
REMARK SMILES IDX 12 25 15 26 13 27 14 28 22 29 23 30 24 31 25 32 26 33 27 34
REMARK SMILES IDX 28 35 92 36 29 37 91 38 30 39 31 40 32 41 85 42 33 43 90 44
REMARK SMILES IDX 84 45 86 46 34 47 89 48 83 49 82 50 35 52 69 53 48 54 68 55
REMARK SMILES IDX 49 56 52 57 67 58 87 59 50 60 51 61 66 63 88 64 53 65 36 66
REMARK SMILES IDX 37 67 46 68 38 69 39 70 45 71 47 72 40 73 41 74 42 75 43 76
REMARK SMILES IDX 44 77 70 78 71 79 80 80 72 81 73 82 79 83 81 84 74 85 75 86
REMARK SMILES IDX 76 87 77 88 78 89 54 90 55 91 64 92 56 93 57 94 63 95 65 96
REMARK SMILES IDX 58 97 59 98 60 99 61 100 62 101
REMARK H PARENT 95 16 8 22 86 51 52 62
REMARK Flexibility Score: inf
ROOT
ATOM      1  O   UNL A   1      38.825  21.806  25.856  1.00  0.00    -0.374 OA
ENDROOT
BRANCH   1   2
ATOM      2  C   UNL A   1      37.701  22.546  25.384  1.00  0.00     0.202 C 
BRANCH   2   3
ATOM      3  C   UNL A   1      36.319  21.958  25.656  1.00  0.00     0.261 C 
BRANCH   3   4
ATOM      4  O   UNL A   1      35.468  22.897  26.319  1.00  0.00    -0.462 OA
BRANCH   4   5
ATOM      5  C   UNL A   1      34.214  22.454  26.582  1.00  0.00     0.330 C 
ATOM      6  O   UNL A   1      33.900  21.774  27.556  1.00  0.00    -0.250 OA
BRANCH   5   7
ATOM      7  C   UNL A   1      33.185  22.865  25.519  1.00  0.00     0.212 C 
BRANCH   7   8
ATOM      8  C   UNL A   1      32.133  21.753  25.505  1.00  0.00     0.164 C 
BRANCH   8   9
ATOM      9  N   UNL A   1      32.229  20.648  24.526  1.00  0.00    -0.298 N 
ATOM     10  C   UNL A   1      32.673  18.305  24.303  1.00  0.00     0.033 A 
ATOM     11  C   UNL A   1      32.529  19.405  25.051  1.00  0.00     0.100 A 
ATOM     12  C   UNL A   1      32.433  18.428  22.849  1.00  0.00     0.256 A 
ATOM     13  N   UNL A   1      32.104  19.670  22.406  1.00  0.00    -0.274 N 
ATOM     14  O   UNL A   1      32.547  17.487  22.077  1.00  0.00    -0.269 OA
ATOM     15  C   UNL A   1      32.040  20.805  23.157  1.00  0.00     0.328 A 
ATOM     16  H   UNL A   1      31.889  19.758  21.449  1.00  0.00     0.175 HD
ATOM     17  O   UNL A   1      31.853  21.873  22.585  1.00  0.00    -0.248 OA
BRANCH  10  18
ATOM     18  C   UNL A   1      33.082  16.975  24.865  1.00  0.00     0.039 C 
ATOM     19  C   UNL A   1      34.576  16.718  24.705  1.00  0.00     0.009 C 
ENDBRANCH  10  18
ENDBRANCH   8   9
ENDBRANCH   7   8
BRANCH   7  20
ATOM     20  N   UNL A   1      33.636  23.489  24.260  1.00  0.00    -0.334 N 
ATOM     21  C   UNL A   1      33.913  24.751  23.795  1.00  0.00     0.287 C 
ATOM     22  H   UNL A   1      33.778  22.812  23.559  1.00  0.00     0.164 HD
ATOM     23  O   UNL A   1      34.307  24.807  22.626  1.00  0.00    -0.266 OA
BRANCH  21  24
ATOM     24  C   UNL A   1      33.772  25.927  24.617  1.00  0.00     0.191 A 
ATOM     25  C   UNL A   1      33.509  26.140  25.959  1.00  0.00     0.056 A 
ATOM     26  O   UNL A   1      33.977  27.141  24.013  1.00  0.00    -0.459 OA
ATOM     27  C   UNL A   1      33.399  27.543  26.138  1.00  0.00     0.043 A 
ATOM     28  C   UNL A   1      33.717  28.107  24.927  1.00  0.00     0.196 A 
ENDBRANCH  21  24
ENDBRANCH   7  20
ENDBRANCH   5   7
ENDBRANCH   4   5
ENDBRANCH   3   4
ENDBRANCH   2   3
ENDBRANCH   1   2
BRANCH   1  29
ATOM     29  C   UNL A   1      39.033  20.486  25.356  1.00  0.00     0.202 C 
BRANCH  29  30
ATOM     30  C   UNL A   1      39.885  19.509  26.182  1.00  0.00     0.261 C 
BRANCH  30  31
ATOM     31  O   UNL A   1      41.091  19.088  25.522  1.00  0.00    -0.460 OA
BRANCH  31  32
ATOM     32  C   UNL A   1      42.218  19.178  26.272  1.00  0.00     0.338 C 
ATOM     33  O   UNL A   1      42.984  18.269  26.559  1.00  0.00    -0.246 OA
BRANCH  32  34
ATOM     34  C   UNL A   1      42.516  20.589  26.570  1.00  0.00     0.060 A 
ATOM     35  C   UNL A   1      42.582  21.039  27.888  1.00  0.00     0.016 A 
ATOM     36  C   UNL A   1      42.825  21.450  25.507  1.00  0.00     0.016 A 
ATOM     37  C   UNL A   1      42.972  22.358  28.141  1.00  0.00     0.010 A 
ATOM     38  C   UNL A   1      43.209  22.767  25.763  1.00  0.00     0.010 A 
ATOM     39  C   UNL A   1      43.300  23.228  27.084  1.00  0.00    -0.014 A 
BRANCH  39  40
ATOM     40  C   UNL A   1      43.816  24.591  27.367  1.00  0.00     0.031 A 
ATOM     41  C   UNL A   1      45.267  24.923  27.158  1.00  0.00     0.074 A 
ATOM     42  C   UNL A   1      42.960  25.531  27.813  1.00  0.00     0.049 A 
ATOM     43  N   UNL A   1      45.879  26.068  27.322  1.00  0.00    -0.248 NA
ATOM     44  C   UNL A   1      46.146  23.830  26.711  1.00  0.00     0.031 C 
ATOM     45  C   UNL A   1      41.534  25.316  28.065  1.00  0.00     0.029 A 
ATOM     46  N   UNL A   1      43.154  26.854  28.119  1.00  0.00    -0.354 N 
ATOM     47  C   UNL A   1      47.204  25.848  26.968  1.00  0.00     0.074 A 
ATOM     48  C   UNL A   1      47.324  24.441  26.641  1.00  0.00     0.031 C 
ATOM     49  C   UNL A   1      40.975  26.476  28.448  1.00  0.00     0.029 A 
ATOM     50  C   UNL A   1      42.005  27.507  28.504  1.00  0.00     0.049 A 
ATOM     51  H   UNL A   1      44.033  27.295  28.069  1.00  0.00     0.167 HD
ATOM     52  C   UNL A   1      48.217  26.744  26.892  1.00  0.00     0.037 A 
ATOM     53  C   UNL A   1      41.806  28.793  28.857  1.00  0.00     0.037 A 
ATOM     54  C   UNL A   1      48.090  28.142  27.230  1.00  0.00     0.049 A 
ATOM     55  C   UNL A   1      42.975  29.744  28.845  1.00  0.00     0.074 A 
ATOM     56  C   UNL A   1      49.062  29.128  27.187  1.00  0.00     0.029 A 
ATOM     57  N   UNL A   1      46.925  28.756  27.668  1.00  0.00    -0.354 N 
ATOM     58  N   UNL A   1      44.213  29.527  28.471  1.00  0.00    -0.248 NA
ATOM     59  C   UNL A   1      42.718  31.116  29.305  1.00  0.00     0.031 C 
ATOM     60  C   UNL A   1      48.498  30.324  27.640  1.00  0.00     0.029 A 
ATOM     61  C   UNL A   1      47.160  30.100  27.915  1.00  0.00     0.049 A 
ATOM     62  H   UNL A   1      46.058  28.303  27.786  1.00  0.00     0.167 HD
ATOM     63  C   UNL A   1      44.872  30.744  28.616  1.00  0.00     0.074 A 
ATOM     64  C   UNL A   1      43.892  31.696  29.095  1.00  0.00     0.031 C 
ATOM     65  C   UNL A   1      46.172  31.045  28.377  1.00  0.00     0.037 A 
BRANCH  52  66
ATOM     66  C   UNL A   1      49.555  26.267  26.392  1.00  0.00     0.058 A 
ATOM     67  C   UNL A   1      49.909  26.394  25.039  1.00  0.00     0.135 A 
ATOM     68  C   UNL A   1      50.535  25.798  27.281  1.00  0.00     0.135 A 
ATOM     69  F   UNL A   1      49.005  26.820  24.140  1.00  0.00    -0.206 F 
ATOM     70  C   UNL A   1      51.189  26.088  24.587  1.00  0.00     0.059 A 
ATOM     71  C   UNL A   1      51.831  25.509  26.855  1.00  0.00     0.059 A 
ATOM     72  F   UNL A   1      50.251  25.654  28.585  1.00  0.00    -0.206 F 
ATOM     73  C   UNL A   1      52.149  25.663  25.507  1.00  0.00     0.060 A 
BRANCH  73  74
ATOM     74  S   UNL A   1      53.834  25.377  24.918  1.00  0.00     0.124 S 
ATOM     75  O   UNL A   1      54.636  25.925  26.007  1.00  0.00    -0.237 OA
ATOM     76  O   UNL A   1      53.868  23.925  24.779  1.00  0.00    -0.237 OA
ATOM     77  O   UNL A   1      53.890  26.124  23.665  1.00  0.00    -0.744 OA
ENDBRANCH  73  74
ENDBRANCH  52  66
BRANCH  53  78
ATOM     78  C   UNL A   1      40.448  29.275  29.229  1.00  0.00     0.058 A 
ATOM     79  C   UNL A   1      39.500  29.585  28.241  1.00  0.00     0.135 A 
ATOM     80  C   UNL A   1      40.082  29.478  30.568  1.00  0.00     0.135 A 
ATOM     81  F   UNL A   1      39.802  29.414  26.945  1.00  0.00    -0.206 F 
ATOM     82  C   UNL A   1      38.254  30.114  28.564  1.00  0.00     0.059 A 
ATOM     83  C   UNL A   1      38.831  29.977  30.919  1.00  0.00     0.059 A 
ATOM     84  F   UNL A   1      40.944  29.186  31.555  1.00  0.00    -0.206 F 
ATOM     85  C   UNL A   1      37.931  30.310  29.907  1.00  0.00     0.060 A 
BRANCH  85  86
ATOM     86  S   UNL A   1      36.316  31.009  30.312  1.00  0.00     0.124 S 
ATOM     87  O   UNL A   1      35.946  30.230  31.488  1.00  0.00    -0.237 OA
ATOM     88  O   UNL A   1      36.642  32.411  30.552  1.00  0.00    -0.237 OA
ATOM     89  O   UNL A   1      35.527  30.752  29.113  1.00  0.00    -0.744 OA
ENDBRANCH  85  86
ENDBRANCH  53  78
BRANCH  65  90
ATOM     90  C   UNL A   1      46.610  32.468  28.596  1.00  0.00     0.058 A 
ATOM     91  C   UNL A   1      46.544  33.427  27.573  1.00  0.00     0.135 A 
ATOM     92  C   UNL A   1      47.048  32.894  29.862  1.00  0.00     0.135 A 
ATOM     93  F   UNL A   1      46.141  33.074  26.341  1.00  0.00    -0.206 F 
ATOM     94  C   UNL A   1      46.916  34.749  27.789  1.00  0.00     0.059 A 
ATOM     95  C   UNL A   1      47.394  34.219  30.110  1.00  0.00     0.059 A 
ATOM     96  F   UNL A   1      47.122  32.022  30.881  1.00  0.00    -0.206 F 
ATOM     97  C   UNL A   1      47.334  35.139  29.063  1.00  0.00     0.060 A 
BRANCH  97  98
ATOM     98  S   UNL A   1      47.773  36.868  29.335  1.00  0.00     0.124 S 
ATOM     99  O   UNL A   1      48.876  37.045  28.396  1.00  0.00    -0.237 OA
ATOM    100  O   UNL A   1      46.534  37.560  28.995  1.00  0.00    -0.237 OA
ATOM    101  O   UNL A   1      48.141  36.911  30.748  1.00  0.00    -0.744 OA
ENDBRANCH  97  98
ENDBRANCH  65  90
ENDBRANCH  39  40
ENDBRANCH  32  34
ENDBRANCH  31  32
ENDBRANCH  30  31
ENDBRANCH  29  30
ENDBRANCH   1  29
TORSDOF 22
ENDMDL
MODEL 3
REMARK VINA RESULT:     -10.2      1.299      8.326
REMARK SMILES CCc1cn(C[C@H](NC(=O)c2ccco2)C(=O)OCCOCCOC(=O)c2ccc(-c3c4nc(c(-c5c(F)cc(S(=O)(=O)[O-])cc5F)c5ccc([nH]5)c(-c5c(F)cc(S(=O)(=O)[O-])cc5F)c5nc(c(-c6c(F)cc(S(=O)(=O)[O-])cc6F)c6ccc3[nH]6)C=C5)C=C4)cc2)c(=O)[nH]c1=O
REMARK SMILES IDX 21 1 20 2 19 3 18 4 16 5 17 6 7 7 6 8 5 9 3 10 4 11 96 12
REMARK SMILES IDX 95 13 97 14 93 15 94 17 2 18 1 19 8 20 9 21 10 23 11 24
REMARK SMILES IDX 12 25 15 26 13 27 14 28 22 29 23 30 24 31 25 32 26 33 27 34
REMARK SMILES IDX 28 35 92 36 29 37 91 38 30 39 31 40 32 41 85 42 33 43 90 44
REMARK SMILES IDX 84 45 86 46 34 47 89 48 83 49 82 50 35 52 69 53 48 54 68 55
REMARK SMILES IDX 49 56 52 57 67 58 87 59 50 60 51 61 66 63 88 64 53 65 36 66
REMARK SMILES IDX 37 67 46 68 38 69 39 70 45 71 47 72 40 73 41 74 42 75 43 76
REMARK SMILES IDX 44 77 70 78 71 79 80 80 72 81 73 82 79 83 81 84 74 85 75 86
REMARK SMILES IDX 76 87 77 88 78 89 54 90 55 91 64 92 56 93 57 94 63 95 65 96
REMARK SMILES IDX 58 97 59 98 60 99 61 100 62 101
REMARK H PARENT 95 16 8 22 86 51 52 62
REMARK Flexibility Score: inf
ROOT
ATOM      1  O   UNL A   1      37.747  21.591  25.592  1.00  0.00    -0.374 OA
ENDROOT
BRANCH   1   2
ATOM      2  C   UNL A   1      37.275  21.591  24.246  1.00  0.00     0.202 C 
BRANCH   2   3
ATOM      3  C   UNL A   1      36.597  22.864  23.749  1.00  0.00     0.261 C 
BRANCH   3   4
ATOM      4  O   UNL A   1      35.376  22.577  23.062  1.00  0.00    -0.462 OA
BRANCH   4   5
ATOM      5  C   UNL A   1      34.410  23.520  23.183  1.00  0.00     0.330 C 
ATOM      6  O   UNL A   1      34.405  24.599  22.594  1.00  0.00    -0.250 OA
BRANCH   5   7
ATOM      7  C   UNL A   1      33.294  23.132  24.163  1.00  0.00     0.212 C 
BRANCH   7   8
ATOM      8  C   UNL A   1      32.191  24.177  23.975  1.00  0.00     0.164 C 
BRANCH   8   9
ATOM      9  N   UNL A   1      31.927  25.181  25.028  1.00  0.00    -0.298 N 
ATOM     10  C   UNL A   1      32.613  27.316  25.869  1.00  0.00     0.033 A 
ATOM     11  C   UNL A   1      32.708  26.321  24.980  1.00  0.00     0.100 A 
ATOM     12  C   UNL A   1      31.571  27.207  26.913  1.00  0.00     0.256 A 
ATOM     13  N   UNL A   1      30.813  26.079  26.877  1.00  0.00    -0.274 N 
ATOM     14  O   UNL A   1      31.408  28.056  27.777  1.00  0.00    -0.269 OA
ATOM     15  C   UNL A   1      30.967  25.029  26.024  1.00  0.00     0.328 A 
ATOM     16  H   UNL A   1      30.081  26.015  27.532  1.00  0.00     0.175 HD
ATOM     17  O   UNL A   1      30.284  24.027  26.202  1.00  0.00    -0.248 OA
BRANCH  10  18
ATOM     18  C   UNL A   1      33.519  28.512  25.865  1.00  0.00     0.039 C 
ATOM     19  C   UNL A   1      32.894  29.705  25.149  1.00  0.00     0.009 C 
ENDBRANCH  10  18
ENDBRANCH   8   9
ENDBRANCH   7   8
BRANCH   7  20
ATOM     20  N   UNL A   1      33.638  22.637  25.510  1.00  0.00    -0.334 N 
ATOM     21  C   UNL A   1      33.826  21.425  26.129  1.00  0.00     0.287 C 
ATOM     22  H   UNL A   1      33.769  23.382  26.141  1.00  0.00     0.164 HD
ATOM     23  O   UNL A   1      34.145  21.485  27.320  1.00  0.00    -0.266 OA
BRANCH  21  24
ATOM     24  C   UNL A   1      33.679  20.170  25.433  1.00  0.00     0.191 A 
ATOM     25  C   UNL A   1      34.508  19.411  24.626  1.00  0.00     0.056 A 
ATOM     26  O   UNL A   1      32.496  19.498  25.601  1.00  0.00    -0.459 OA
ATOM     27  C   UNL A   1      33.737  18.313  24.164  1.00  0.00     0.043 A 
ATOM     28  C   UNL A   1      32.528  18.400  24.808  1.00  0.00     0.196 A 
ENDBRANCH  21  24
ENDBRANCH   7  20
ENDBRANCH   5   7
ENDBRANCH   4   5
ENDBRANCH   3   4
ENDBRANCH   2   3
ENDBRANCH   1   2
BRANCH   1  29
ATOM     29  C   UNL A   1      39.155  21.547  25.824  1.00  0.00     0.202 C 
BRANCH  29  30
ATOM     30  C   UNL A   1      39.753  20.305  26.502  1.00  0.00     0.261 C 
BRANCH  30  31
ATOM     31  O   UNL A   1      40.583  19.511  25.636  1.00  0.00    -0.460 OA
BRANCH  31  32
ATOM     32  C   UNL A   1      41.849  19.310  26.079  1.00  0.00     0.338 C 
ATOM     33  O   UNL A   1      42.444  18.242  26.141  1.00  0.00    -0.246 OA
BRANCH  32  34
ATOM     34  C   UNL A   1      42.510  20.601  26.325  1.00  0.00     0.060 A 
ATOM     35  C   UNL A   1      42.921  21.405  25.261  1.00  0.00     0.016 A 
ATOM     36  C   UNL A   1      42.634  21.052  27.647  1.00  0.00     0.016 A 
ATOM     37  C   UNL A   1      43.448  22.672  25.526  1.00  0.00     0.010 A 
ATOM     38  C   UNL A   1      43.166  22.316  27.908  1.00  0.00     0.010 A 
ATOM     39  C   UNL A   1      43.564  23.143  26.848  1.00  0.00    -0.014 A 
BRANCH  39  40
ATOM     40  C   UNL A   1      44.023  24.530  27.114  1.00  0.00     0.031 A 
ATOM     41  C   UNL A   1      45.463  24.914  26.921  1.00  0.00     0.074 A 
ATOM     42  C   UNL A   1      43.123  25.443  27.529  1.00  0.00     0.049 A 
ATOM     43  N   UNL A   1      46.027  26.085  27.074  1.00  0.00    -0.248 NA
ATOM     44  C   UNL A   1      46.390  23.849  26.508  1.00  0.00     0.031 C 
ATOM     45  C   UNL A   1      41.703  25.178  27.762  1.00  0.00     0.029 A 
ATOM     46  N   UNL A   1      43.262  26.779  27.813  1.00  0.00    -0.354 N 
ATOM     47  C   UNL A   1      47.365  25.910  26.744  1.00  0.00     0.074 A 
ATOM     48  C   UNL A   1      47.544  24.504  26.445  1.00  0.00     0.031 C 
ATOM     49  C   UNL A   1      41.094  26.321  28.116  1.00  0.00     0.029 A 
ATOM     50  C   UNL A   1      42.082  27.393  28.168  1.00  0.00     0.049 A 
ATOM     51  H   UNL A   1      44.123  27.253  27.768  1.00  0.00     0.167 HD
ATOM     52  C   UNL A   1      48.344  26.844  26.668  1.00  0.00     0.037 A 
ATOM     53  C   UNL A   1      41.827  28.676  28.494  1.00  0.00     0.037 A 
ATOM     54  C   UNL A   1      48.158  28.242  26.977  1.00  0.00     0.049 A 
ATOM     55  C   UNL A   1      42.958  29.672  28.483  1.00  0.00     0.074 A 
ATOM     56  C   UNL A   1      49.091  29.265  26.931  1.00  0.00     0.029 A 
ATOM     57  N   UNL A   1      46.962  28.817  27.386  1.00  0.00    -0.354 N 
ATOM     58  N   UNL A   1      44.210  29.497  28.132  1.00  0.00    -0.248 NA
ATOM     59  C   UNL A   1      42.641  31.041  28.913  1.00  0.00     0.031 C 
ATOM     60  C   UNL A   1      48.474  30.446  27.353  1.00  0.00     0.029 A 
ATOM     61  C   UNL A   1      47.141  30.174  27.611  1.00  0.00     0.049 A 
ATOM     62  H   UNL A   1      46.112  28.333  27.499  1.00  0.00     0.167 HD
ATOM     63  C   UNL A   1      44.819  30.741  28.265  1.00  0.00     0.074 A 
ATOM     64  C   UNL A   1      43.795  31.662  28.711  1.00  0.00     0.031 C 
ATOM     65  C   UNL A   1      46.110  31.088  28.040  1.00  0.00     0.037 A 
BRANCH  52  66
ATOM     66  C   UNL A   1      49.707  26.411  26.197  1.00  0.00     0.058 A 
ATOM     67  C   UNL A   1      50.128  26.651  24.878  1.00  0.00     0.135 A 
ATOM     68  C   UNL A   1      50.644  25.869  27.092  1.00  0.00     0.135 A 
ATOM     69  F   UNL A   1      49.268  27.150  23.974  1.00  0.00    -0.206 F 
ATOM     70  C   UNL A   1      51.430  26.383  24.468  1.00  0.00     0.059 A 
ATOM     71  C   UNL A   1      51.960  25.616  26.709  1.00  0.00     0.059 A 
ATOM     72  F   UNL A   1      50.295  25.616  28.363  1.00  0.00    -0.206 F 
ATOM     73  C   UNL A   1      52.345  25.883  25.396  1.00  0.00     0.060 A 
BRANCH  73  74
ATOM     74  S   UNL A   1      54.058  25.647  24.871  1.00  0.00     0.124 S 
ATOM     75  O   UNL A   1      54.790  26.456  25.840  1.00  0.00    -0.237 OA
ATOM     76  O   UNL A   1      54.224  24.203  25.002  1.00  0.00    -0.237 OA
ATOM     77  O   UNL A   1      54.069  26.154  23.501  1.00  0.00    -0.744 OA
ENDBRANCH  73  74
ENDBRANCH  52  66
BRANCH  53  78
ATOM     78  C   UNL A   1      40.446  29.112  28.836  1.00  0.00     0.058 A 
ATOM     79  C   UNL A   1      39.521  29.426  27.828  1.00  0.00     0.135 A 
ATOM     80  C   UNL A   1      40.033  29.265  30.168  1.00  0.00     0.135 A 
ATOM     81  F   UNL A   1      39.868  29.302  26.538  1.00  0.00    -0.206 F 
ATOM     82  C   UNL A   1      38.252  29.913  28.125  1.00  0.00     0.059 A 
ATOM     83  C   UNL A   1      38.758  29.720  30.493  1.00  0.00     0.059 A 
ATOM     84  F   UNL A   1      40.871  28.966  31.173  1.00  0.00    -0.206 F 
ATOM     85  C   UNL A   1      37.882  30.061  29.462  1.00  0.00     0.060 A 
BRANCH  85  86
ATOM     86  S   UNL A   1      36.237  30.705  29.836  1.00  0.00     0.124 S 
ATOM     87  O   UNL A   1      35.922  30.004  31.075  1.00  0.00    -0.237 OA
ATOM     88  O   UNL A   1      36.491  32.137  29.959  1.00  0.00    -0.237 OA
ATOM     89  O   UNL A   1      35.449  30.312  28.672  1.00  0.00    -0.744 OA
ENDBRANCH  85  86
ENDBRANCH  53  78
BRANCH  65  90
ATOM     90  C   UNL A   1      46.489  32.531  28.240  1.00  0.00     0.058 A 
ATOM     91  C   UNL A   1      46.354  33.478  27.213  1.00  0.00     0.135 A 
ATOM     92  C   UNL A   1      46.940  32.984  29.492  1.00  0.00     0.135 A 
ATOM     93  F   UNL A   1      45.936  33.099  25.994  1.00  0.00    -0.206 F 
ATOM     94  C   UNL A   1      46.671  34.818  27.412  1.00  0.00     0.059 A 
ATOM     95  C   UNL A   1      47.232  34.326  29.722  1.00  0.00     0.059 A 
ATOM     96  F   UNL A   1      47.079  32.124  30.513  1.00  0.00    -0.206 F 
ATOM     97  C   UNL A   1      47.104  35.234  28.672  1.00  0.00     0.060 A 
BRANCH  97  98
ATOM     98  S   UNL A   1      47.472  36.984  28.922  1.00  0.00     0.124 S 
ATOM     99  O   UNL A   1      48.110  37.336  27.658  1.00  0.00    -0.237 OA
ATOM    100  O   UNL A   1      46.145  37.551  29.142  1.00  0.00    -0.237 OA
ATOM    101  O   UNL A   1      48.350  36.987  30.090  1.00  0.00    -0.744 OA
ENDBRANCH  97  98
ENDBRANCH  65  90
ENDBRANCH  39  40
ENDBRANCH  32  34
ENDBRANCH  31  32
ENDBRANCH  30  31
ENDBRANCH  29  30
ENDBRANCH   1  29
TORSDOF 22
ENDMDL
