MODEL 1
REMARK VINA RESULT:     -12.1      0.000      0.000
REMARK SMILES Cc1c(NC(=O)c2ccc(Br)cc2N)cccc1C(=O)OCCOCCOC(=O)c1ccc(-c2c3nc(c(-c4c(F)cc(S(=O)(=O)[O-])cc4F)c4ccc([nH]4)c(-c4c(F)cc(S(=O)(=O)[O-])cc4F)c4nc(c(-c5c(F)cc(S(=O)(=O)[O-])cc5F)c5ccc2[nH]5)C=C4)C=C3)cc1
REMARK SMILES IDX 24 1 23 2 22 3 21 4 19 5 20 6 18 7 1 8 2 9 3 10 15 11 17 12
REMARK SMILES IDX 16 13 4 14 5 15 6 17 7 18 8 19 13 20 9 21 12 22 10 23 11 24
REMARK SMILES IDX 14 25 25 28 26 29 27 30 28 31 29 32 30 33 31 34 95 35 32 36
REMARK SMILES IDX 94 37 33 38 34 39 35 40 88 41 36 42 93 43 87 44 89 45 37 46
REMARK SMILES IDX 92 47 86 48 85 49 38 51 72 52 51 53 71 54 52 55 55 56 70 57
REMARK SMILES IDX 90 58 53 59 54 60 69 62 91 63 56 64 39 65 40 66 49 67 41 68
REMARK SMILES IDX 42 69 48 70 50 71 43 72 44 73 45 74 46 75 47 76 73 77 74 78
REMARK SMILES IDX 83 79 75 80 76 81 82 82 84 83 77 84 78 85 79 86 80 87 81 88
REMARK SMILES IDX 57 89 58 90 67 91 59 92 60 93 66 94 68 95 61 96 62 97 63 98
REMARK SMILES IDX 64 99 65 100
REMARK H PARENT 4 16 14 26 14 27 89 50 55 61
REMARK Flexibility Score: inf
ROOT
ATOM      1  O   UNL A   1      33.546  27.875  26.639  1.00  0.00    -0.374 OA
ENDROOT
BRANCH   1   2
ATOM      2  C   UNL A   1      33.259  26.773  25.790  1.00  0.00     0.202 C 
BRANCH   2   3
ATOM      3  C   UNL A   1      32.970  27.412  24.483  1.00  0.00     0.261 C 
BRANCH   3   4
ATOM      4  O   UNL A   1      31.634  27.072  24.072  1.00  0.00    -0.460 OA
BRANCH   4   5
ATOM      5  C   UNL A   1      31.224  26.758  22.834  1.00  0.00     0.338 C 
ATOM      6  O   UNL A   1      30.681  27.451  22.005  1.00  0.00    -0.246 OA
BRANCH   5   7
ATOM      7  C   UNL A   1      31.702  25.367  22.601  1.00  0.00     0.065 A 
ATOM      8  C   UNL A   1      30.498  24.233  24.641  1.00  0.00     0.047 C 
ATOM      9  C   UNL A   1      31.406  24.247  23.420  1.00  0.00    -0.013 A 
ATOM     10  C   UNL A   1      32.106  23.047  23.155  1.00  0.00     0.045 A 
ATOM     11  C   UNL A   1      33.028  22.956  22.105  1.00  0.00     0.026 A 
ATOM     12  C   UNL A   1      32.620  25.253  21.537  1.00  0.00     0.016 A 
ATOM     13  C   UNL A   1      33.283  24.056  21.293  1.00  0.00     0.003 A 
BRANCH  10  14
ATOM     14  N   UNL A   1      31.869  21.968  24.023  1.00  0.00    -0.322 N 
ATOM     15  C   UNL A   1      32.693  21.337  24.917  1.00  0.00     0.257 C 
ATOM     16  H   UNL A   1      30.956  21.602  23.982  1.00  0.00     0.170 HD
ATOM     17  O   UNL A   1      32.283  20.342  25.516  1.00  0.00    -0.269 OA
BRANCH  15  18
ATOM     18  C   UNL A   1      34.059  21.828  25.199  1.00  0.00     0.063 A 
ATOM     19  C   UNL A   1      34.138  23.215  25.401  1.00  0.00     0.017 A 
ATOM     20  C   UNL A   1      35.211  21.018  25.278  1.00  0.00     0.045 A 
ATOM     21  C   UNL A   1      35.352  23.810  25.722  1.00  0.00     0.016 A 
ATOM     22  C   UNL A   1      36.425  21.640  25.604  1.00  0.00     0.042 A 
ATOM     23  C   UNL A   1      36.488  23.016  25.836  1.00  0.00     0.020 A 
ATOM     24  Br  UNL A   1      38.140  23.818  26.281  1.00  0.00    -0.051 Br
BRANCH  20  25
ATOM     25  N   UNL A   1      35.252  19.675  24.908  1.00  0.00    -0.398 N 
ATOM     26  H   UNL A   1      36.080  19.157  25.027  1.00  0.00     0.156 HD
ATOM     27  H   UNL A   1      34.452  19.245  24.529  1.00  0.00     0.156 HD
ENDBRANCH  20  25
ENDBRANCH  15  18
ENDBRANCH  10  14
ENDBRANCH   5   7
ENDBRANCH   4   5
ENDBRANCH   3   4
ENDBRANCH   2   3
ENDBRANCH   1   2
BRANCH   1  28
ATOM     28  C   UNL A   1      32.438  28.486  27.243  1.00  0.00     0.202 C 
BRANCH  28  29
ATOM     29  C   UNL A   1      32.503  30.008  27.124  1.00  0.00     0.261 C 
BRANCH  29  30
ATOM     30  O   UNL A   1      33.804  30.426  26.645  1.00  0.00    -0.460 OA
BRANCH  30  31
ATOM     31  C   UNL A   1      34.586  31.142  27.511  1.00  0.00     0.338 C 
ATOM     32  O   UNL A   1      34.366  32.300  27.818  1.00  0.00    -0.246 OA
BRANCH  31  33
ATOM     33  C   UNL A   1      35.685  30.294  28.070  1.00  0.00     0.060 A 
ATOM     34  C   UNL A   1      35.641  29.776  29.382  1.00  0.00     0.016 A 
ATOM     35  C   UNL A   1      36.857  30.178  27.333  1.00  0.00     0.016 A 
ATOM     36  C   UNL A   1      36.810  29.284  30.000  1.00  0.00     0.010 A 
ATOM     37  C   UNL A   1      38.015  29.795  27.972  1.00  0.00     0.010 A 
ATOM     38  C   UNL A   1      38.020  29.371  29.314  1.00  0.00    -0.014 A 
BRANCH  38  39
ATOM     39  C   UNL A   1      39.376  29.150  29.838  1.00  0.00     0.031 A 
ATOM     40  C   UNL A   1      40.029  27.873  29.455  1.00  0.00     0.074 A 
ATOM     41  C   UNL A   1      40.130  30.186  30.294  1.00  0.00     0.049 A 
ATOM     42  N   UNL A   1      41.230  27.559  29.778  1.00  0.00    -0.248 NA
ATOM     43  C   UNL A   1      39.376  26.813  28.680  1.00  0.00     0.031 C 
ATOM     44  C   UNL A   1      41.587  30.353  30.226  1.00  0.00     0.029 A 
ATOM     45  N   UNL A   1      39.731  31.375  30.913  1.00  0.00    -0.354 N 
ATOM     46  C   UNL A   1      41.615  26.483  29.016  1.00  0.00     0.074 A 
ATOM     47  C   UNL A   1      40.395  25.980  28.445  1.00  0.00     0.031 C 
ATOM     48  C   UNL A   1      41.968  31.389  30.997  1.00  0.00     0.029 A 
ATOM     49  C   UNL A   1      40.785  31.862  31.696  1.00  0.00     0.049 A 
ATOM     50  H   UNL A   1      38.849  31.801  30.814  1.00  0.00     0.167 HD
ATOM     51  C   UNL A   1      42.951  26.246  28.895  1.00  0.00     0.037 A 
ATOM     52  C   UNL A   1      40.612  32.025  33.035  1.00  0.00     0.037 A 
ATOM     53  C   UNL A   1      43.687  27.091  29.849  1.00  0.00     0.049 A 
ATOM     54  C   UNL A   1      41.475  30.998  33.706  1.00  0.00     0.074 A 
ATOM     55  C   UNL A   1      44.483  28.216  29.726  1.00  0.00     0.029 A 
ATOM     56  N   UNL A   1      43.358  26.996  31.204  1.00  0.00    -0.354 N 
ATOM     57  N   UNL A   1      41.835  29.893  33.103  1.00  0.00    -0.248 NA
ATOM     58  C   UNL A   1      42.153  31.187  34.984  1.00  0.00     0.031 C 
ATOM     59  C   UNL A   1      44.518  28.860  31.003  1.00  0.00     0.029 A 
ATOM     60  C   UNL A   1      43.776  28.111  31.908  1.00  0.00     0.049 A 
ATOM     61  H   UNL A   1      42.888  26.232  31.608  1.00  0.00     0.167 HD
ATOM     62  C   UNL A   1      42.841  29.309  33.798  1.00  0.00     0.074 A 
ATOM     63  C   UNL A   1      42.970  30.118  35.000  1.00  0.00     0.031 C 
ATOM     64  C   UNL A   1      43.523  28.220  33.345  1.00  0.00     0.037 A 
BRANCH  51  65
ATOM     65  C   UNL A   1      43.619  25.371  27.850  1.00  0.00     0.058 A 
ATOM     66  C   UNL A   1      44.204  25.961  26.707  1.00  0.00     0.135 A 
ATOM     67  C   UNL A   1      43.653  23.956  27.851  1.00  0.00     0.135 A 
ATOM     68  F   UNL A   1      44.215  27.292  26.545  1.00  0.00    -0.206 F 
ATOM     69  C   UNL A   1      44.780  25.219  25.669  1.00  0.00     0.059 A 
ATOM     70  C   UNL A   1      44.263  23.195  26.847  1.00  0.00     0.059 A 
ATOM     71  F   UNL A   1      43.049  23.227  28.795  1.00  0.00    -0.206 F 
ATOM     72  C   UNL A   1      44.816  23.834  25.751  1.00  0.00     0.060 A 
BRANCH  72  73
ATOM     73  S   UNL A   1      45.572  22.889  24.415  1.00  0.00     0.124 S 
ATOM     74  O   UNL A   1      44.409  22.489  23.630  1.00  0.00    -0.237 OA
ATOM     75  O   UNL A   1      46.449  23.878  23.795  1.00  0.00    -0.237 OA
ATOM     76  O   UNL A   1      46.258  21.802  25.109  1.00  0.00    -0.744 OA
ENDBRANCH  72  73
ENDBRANCH  51  65
BRANCH  52  77
ATOM     77  C   UNL A   1      39.239  32.539  33.359  1.00  0.00     0.058 A 
ATOM     78  C   UNL A   1      38.954  33.858  32.930  1.00  0.00     0.135 A 
ATOM     79  C   UNL A   1      38.136  31.681  33.510  1.00  0.00     0.135 A 
ATOM     80  F   UNL A   1      39.960  34.729  32.742  1.00  0.00    -0.206 F 
ATOM     81  C   UNL A   1      37.679  34.256  32.517  1.00  0.00     0.059 A 
ATOM     82  C   UNL A   1      36.851  32.054  33.078  1.00  0.00     0.059 A 
ATOM     83  F   UNL A   1      38.320  30.413  33.905  1.00  0.00    -0.206 F 
ATOM     84  C   UNL A   1      36.645  33.324  32.531  1.00  0.00     0.060 A 
BRANCH  84  85
ATOM     85  S   UNL A   1      35.148  33.679  31.552  1.00  0.00     0.124 S 
ATOM     86  O   UNL A   1      35.707  34.092  30.273  1.00  0.00    -0.237 OA
ATOM     87  O   UNL A   1      34.453  32.390  31.550  1.00  0.00    -0.237 OA
ATOM     88  O   UNL A   1      34.488  34.717  32.333  1.00  0.00    -0.744 OA
ENDBRANCH  84  85
ENDBRANCH  52  77
BRANCH  64  89
ATOM     89  C   UNL A   1      44.043  27.186  34.298  1.00  0.00     0.058 A 
ATOM     90  C   UNL A   1      45.359  27.214  34.800  1.00  0.00     0.135 A 
ATOM     91  C   UNL A   1      43.183  26.230  34.878  1.00  0.00     0.135 A 
ATOM     92  F   UNL A   1      46.231  28.173  34.454  1.00  0.00    -0.206 F 
ATOM     93  C   UNL A   1      45.826  26.277  35.707  1.00  0.00     0.059 A 
ATOM     94  C   UNL A   1      43.609  25.334  35.848  1.00  0.00     0.059 A 
ATOM     95  F   UNL A   1      41.890  26.140  34.534  1.00  0.00    -0.206 F 
ATOM     96  C   UNL A   1      44.946  25.331  36.214  1.00  0.00     0.060 A 
BRANCH  96  97
ATOM     97  S   UNL A   1      45.572  24.096  37.353  1.00  0.00     0.124 S 
ATOM     98  O   UNL A   1      46.998  24.409  37.349  1.00  0.00    -0.237 OA
ATOM     99  O   UNL A   1      44.860  24.410  38.588  1.00  0.00    -0.237 OA
ATOM    100  O   UNL A   1      45.197  22.835  36.722  1.00  0.00    -0.744 OA
ENDBRANCH  96  97
ENDBRANCH  64  89
ENDBRANCH  38  39
ENDBRANCH  31  33
ENDBRANCH  30  31
ENDBRANCH  29  30
ENDBRANCH  28  29
ENDBRANCH   1  28
TORSDOF 20
ENDMDL
MODEL 2
REMARK VINA RESULT:     -12.0      1.407      2.222
REMARK SMILES Cc1c(NC(=O)c2ccc(Br)cc2N)cccc1C(=O)OCCOCCOC(=O)c1ccc(-c2c3nc(c(-c4c(F)cc(S(=O)(=O)[O-])cc4F)c4ccc([nH]4)c(-c4c(F)cc(S(=O)(=O)[O-])cc4F)c4nc(c(-c5c(F)cc(S(=O)(=O)[O-])cc5F)c5ccc2[nH]5)C=C4)C=C3)cc1
REMARK SMILES IDX 24 1 23 2 22 3 21 4 19 5 20 6 18 7 1 8 2 9 3 10 15 11 17 12
REMARK SMILES IDX 16 13 4 14 5 15 6 17 7 18 8 19 13 20 9 21 12 22 10 23 11 24
REMARK SMILES IDX 14 25 25 28 26 29 27 30 28 31 29 32 30 33 31 34 95 35 32 36
REMARK SMILES IDX 94 37 33 38 34 39 35 40 88 41 36 42 93 43 87 44 89 45 37 46
REMARK SMILES IDX 92 47 86 48 85 49 38 51 72 52 51 53 71 54 52 55 55 56 70 57
REMARK SMILES IDX 90 58 53 59 54 60 69 62 91 63 56 64 39 65 40 66 49 67 41 68
REMARK SMILES IDX 42 69 48 70 50 71 43 72 44 73 45 74 46 75 47 76 73 77 74 78
REMARK SMILES IDX 83 79 75 80 76 81 82 82 84 83 77 84 78 85 79 86 80 87 81 88
REMARK SMILES IDX 57 89 58 90 67 91 59 92 60 93 66 94 68 95 61 96 62 97 63 98
REMARK SMILES IDX 64 99 65 100
REMARK H PARENT 4 16 14 26 14 27 89 50 55 61
REMARK Flexibility Score: inf
ROOT
ATOM      1  O   UNL A   1      31.235  29.998  24.627  1.00  0.00    -0.374 OA
ENDROOT
BRANCH   1   2
ATOM      2  C   UNL A   1      30.764  28.769  24.094  1.00  0.00     0.202 C 
BRANCH   2   3
ATOM      3  C   UNL A   1      31.248  28.794  22.692  1.00  0.00     0.261 C 
BRANCH   3   4
ATOM      4  O   UNL A   1      31.815  27.515  22.362  1.00  0.00    -0.460 OA
BRANCH   4   5
ATOM      5  C   UNL A   1      33.117  27.212  22.243  1.00  0.00     0.338 C 
ATOM      6  O   UNL A   1      34.038  27.908  21.883  1.00  0.00    -0.246 OA
BRANCH   5   7
ATOM      7  C   UNL A   1      33.253  25.835  22.791  1.00  0.00     0.065 A 
ATOM      8  C   UNL A   1      33.739  26.493  25.287  1.00  0.00     0.047 C 
ATOM      9  C   UNL A   1      33.559  25.511  24.138  1.00  0.00    -0.013 A 
ATOM     10  C   UNL A   1      33.841  24.157  24.432  1.00  0.00     0.045 A 
ATOM     11  C   UNL A   1      33.785  23.168  23.441  1.00  0.00     0.026 A 
ATOM     12  C   UNL A   1      33.184  24.824  21.810  1.00  0.00     0.016 A 
ATOM     13  C   UNL A   1      33.453  23.499  22.132  1.00  0.00     0.003 A 
BRANCH  10  14
ATOM     14  N   UNL A   1      34.226  23.858  25.750  1.00  0.00    -0.322 N 
ATOM     15  C   UNL A   1      34.277  22.667  26.422  1.00  0.00     0.257 C 
ATOM     16  H   UNL A   1      34.507  24.639  26.280  1.00  0.00     0.170 HD
ATOM     17  O   UNL A   1      34.570  22.662  27.619  1.00  0.00    -0.269 OA
BRANCH  15  18
ATOM     18  C   UNL A   1      34.008  21.379  25.748  1.00  0.00     0.063 A 
ATOM     19  C   UNL A   1      35.161  20.718  25.293  1.00  0.00     0.017 A 
ATOM     20  C   UNL A   1      32.728  20.815  25.558  1.00  0.00     0.045 A 
ATOM     21  C   UNL A   1      35.062  19.475  24.682  1.00  0.00     0.016 A 
ATOM     22  C   UNL A   1      32.653  19.558  24.940  1.00  0.00     0.042 A 
ATOM     23  C   UNL A   1      33.809  18.894  24.521  1.00  0.00     0.020 A 
ATOM     24  Br  UNL A   1      33.670  17.198  23.698  1.00  0.00    -0.051 Br
BRANCH  20  25
ATOM     25  N   UNL A   1      31.532  21.485  25.807  1.00  0.00    -0.398 N 
ATOM     26  H   UNL A   1      31.116  22.026  25.098  1.00  0.00     0.156 HD
ATOM     27  H   UNL A   1      31.104  21.416  26.690  1.00  0.00     0.156 HD
ENDBRANCH  20  25
ENDBRANCH  15  18
ENDBRANCH  10  14
ENDBRANCH   5   7
ENDBRANCH   4   5
ENDBRANCH   3   4
ENDBRANCH   2   3
ENDBRANCH   1   2
BRANCH   1  28
ATOM     28  C   UNL A   1      31.574  29.985  25.987  1.00  0.00     0.202 C 
BRANCH  28  29
ATOM     29  C   UNL A   1      33.086  30.065  26.189  1.00  0.00     0.261 C 
BRANCH  29  30
ATOM     30  O   UNL A   1      33.397  30.572  27.509  1.00  0.00    -0.460 OA
BRANCH  30  31
ATOM     31  C   UNL A   1      34.565  31.273  27.648  1.00  0.00     0.338 C 
ATOM     32  O   UNL A   1      34.667  32.465  27.419  1.00  0.00    -0.246 OA
BRANCH  31  33
ATOM     33  C   UNL A   1      35.657  30.397  28.179  1.00  0.00     0.060 A 
ATOM     34  C   UNL A   1      35.643  29.895  29.496  1.00  0.00     0.016 A 
ATOM     35  C   UNL A   1      36.799  30.239  27.403  1.00  0.00     0.016 A 
ATOM     36  C   UNL A   1      36.818  29.375  30.079  1.00  0.00     0.010 A 
ATOM     37  C   UNL A   1      37.967  29.828  28.006  1.00  0.00     0.010 A 
ATOM     38  C   UNL A   1      38.005  29.418  29.352  1.00  0.00    -0.014 A 
BRANCH  38  39
ATOM     39  C   UNL A   1      39.372  29.161  29.831  1.00  0.00     0.031 A 
ATOM     40  C   UNL A   1      39.996  27.889  29.390  1.00  0.00     0.074 A 
ATOM     41  C   UNL A   1      40.152  30.172  30.300  1.00  0.00     0.049 A 
ATOM     42  N   UNL A   1      41.200  27.549  29.669  1.00  0.00    -0.248 NA
ATOM     43  C   UNL A   1      39.307  26.865  28.598  1.00  0.00     0.031 C 
ATOM     44  C   UNL A   1      41.609  30.322  30.198  1.00  0.00     0.029 A 
ATOM     45  N   UNL A   1      39.786  31.345  30.968  1.00  0.00    -0.354 N 
ATOM     46  C   UNL A   1      41.550  26.494  28.862  1.00  0.00     0.074 A 
ATOM     47  C   UNL A   1      40.308  26.027  28.308  1.00  0.00     0.031 C 
ATOM     48  C   UNL A   1      42.026  31.327  30.992  1.00  0.00     0.029 A 
ATOM     49  C   UNL A   1      40.868  31.793  31.738  1.00  0.00     0.049 A 
ATOM     50  H   UNL A   1      38.909  31.786  30.907  1.00  0.00     0.167 HD
ATOM     51  C   UNL A   1      42.879  26.244  28.698  1.00  0.00     0.037 A 
ATOM     52  C   UNL A   1      40.733  31.913  33.085  1.00  0.00     0.037 A 
ATOM     53  C   UNL A   1      43.652  27.047  29.659  1.00  0.00     0.049 A 
ATOM     54  C   UNL A   1      41.599  30.853  33.700  1.00  0.00     0.074 A 
ATOM     55  C   UNL A   1      44.460  28.164  29.550  1.00  0.00     0.029 A 
ATOM     56  N   UNL A   1      43.358  26.912  31.018  1.00  0.00    -0.354 N 
ATOM     57  N   UNL A   1      41.927  29.765  33.051  1.00  0.00    -0.248 NA
ATOM     58  C   UNL A   1      42.313  30.991  34.963  1.00  0.00     0.031 C 
ATOM     59  C   UNL A   1      44.538  28.766  30.847  1.00  0.00     0.029 A 
ATOM     60  C   UNL A   1      43.810  27.996  31.747  1.00  0.00     0.049 A 
ATOM     61  H   UNL A   1      42.888  26.140  31.409  1.00  0.00     0.167 HD
ATOM     62  C   UNL A   1      42.943  29.144  33.699  1.00  0.00     0.074 A 
ATOM     63  C   UNL A   1      43.115  29.911  34.923  1.00  0.00     0.031 C 
ATOM     64  C   UNL A   1      43.597  28.062  33.193  1.00  0.00     0.037 A 
BRANCH  51  65
ATOM     65  C   UNL A   1      43.506  25.394  27.607  1.00  0.00     0.058 A 
ATOM     66  C   UNL A   1      44.281  24.264  27.954  1.00  0.00     0.135 A 
ATOM     67  C   UNL A   1      43.469  25.665  26.219  1.00  0.00     0.135 A 
ATOM     68  F   UNL A   1      44.441  23.902  29.235  1.00  0.00    -0.206 F 
ATOM     69  C   UNL A   1      44.945  23.469  27.012  1.00  0.00     0.059 A 
ATOM     70  C   UNL A   1      44.088  24.859  25.256  1.00  0.00     0.059 A 
ATOM     71  F   UNL A   1      42.881  26.756  25.719  1.00  0.00    -0.206 F 
ATOM     72  C   UNL A   1      44.835  23.767  25.661  1.00  0.00     0.060 A 
BRANCH  72  73
ATOM     73  S   UNL A   1      45.684  22.730  24.456  1.00  0.00     0.124 S 
ATOM     74  O   UNL A   1      46.651  23.660  23.882  1.00  0.00    -0.237 OA
ATOM     75  O   UNL A   1      46.238  21.672  25.294  1.00  0.00    -0.237 OA
ATOM     76  O   UNL A   1      44.615  22.309  23.552  1.00  0.00    -0.744 OA
ENDBRANCH  72  73
ENDBRANCH  51  65
BRANCH  52  77
ATOM     77  C   UNL A   1      39.377  32.435  33.463  1.00  0.00     0.058 A 
ATOM     78  C   UNL A   1      39.121  33.789  33.138  1.00  0.00     0.135 A 
ATOM     79  C   UNL A   1      38.254  31.595  33.562  1.00  0.00     0.135 A 
ATOM     80  F   UNL A   1      40.146  34.647  33.004  1.00  0.00    -0.206 F 
ATOM     81  C   UNL A   1      37.852  34.247  32.770  1.00  0.00     0.059 A 
ATOM     82  C   UNL A   1      36.975  32.031  33.174  1.00  0.00     0.059 A 
ATOM     83  F   UNL A   1      38.410  30.296  33.858  1.00  0.00    -0.206 F 
ATOM     84  C   UNL A   1      36.795  33.342  32.727  1.00  0.00     0.060 A 
BRANCH  84  85
ATOM     85  S   UNL A   1      35.298  33.807  31.794  1.00  0.00     0.124 S 
ATOM     86  O   UNL A   1      35.787  33.840  30.423  1.00  0.00    -0.237 OA
ATOM     87  O   UNL A   1      34.374  32.716  32.108  1.00  0.00    -0.237 OA
ATOM     88  O   UNL A   1      34.935  35.091  32.380  1.00  0.00    -0.744 OA
ENDBRANCH  84  85
ENDBRANCH  52  77
BRANCH  64  89
ATOM     89  C   UNL A   1      44.127  26.990  34.097  1.00  0.00     0.058 A 
ATOM     90  C   UNL A   1      43.300  26.001  34.664  1.00  0.00     0.135 A 
ATOM     91  C   UNL A   1      45.515  26.813  34.282  1.00  0.00     0.135 A 
ATOM     92  F   UNL A   1      41.980  25.959  34.429  1.00  0.00    -0.206 F 
ATOM     93  C   UNL A   1      43.798  24.991  35.471  1.00  0.00     0.059 A 
ATOM     94  C   UNL A   1      46.041  25.761  35.018  1.00  0.00     0.059 A 
ATOM     95  F   UNL A   1      46.414  27.648  33.741  1.00  0.00    -0.206 F 
ATOM     96  C   UNL A   1      45.170  24.888  35.654  1.00  0.00     0.060 A 
BRANCH  96  97
ATOM     97  S   UNL A   1      45.801  23.606  36.736  1.00  0.00     0.124 S 
ATOM     98  O   UNL A   1      45.386  24.112  38.041  1.00  0.00    -0.237 OA
ATOM     99  O   UNL A   1      45.095  22.417  36.266  1.00  0.00    -0.237 OA
ATOM    100  O   UNL A   1      47.236  23.620  36.477  1.00  0.00    -0.744 OA
ENDBRANCH  96  97
ENDBRANCH  64  89
ENDBRANCH  38  39
ENDBRANCH  31  33
ENDBRANCH  30  31
ENDBRANCH  29  30
ENDBRANCH  28  29
ENDBRANCH   1  28
TORSDOF 20
ENDMDL
MODEL 3
REMARK VINA RESULT:     -11.9      3.837      9.809
REMARK SMILES Cc1c(NC(=O)c2ccc(Br)cc2N)cccc1C(=O)OCCOCCOC(=O)c1ccc(-c2c3nc(c(-c4c(F)cc(S(=O)(=O)[O-])cc4F)c4ccc([nH]4)c(-c4c(F)cc(S(=O)(=O)[O-])cc4F)c4nc(c(-c5c(F)cc(S(=O)(=O)[O-])cc5F)c5ccc2[nH]5)C=C4)C=C3)cc1
REMARK SMILES IDX 24 1 23 2 22 3 21 4 19 5 20 6 18 7 1 8 2 9 3 10 15 11 17 12
REMARK SMILES IDX 16 13 4 14 5 15 6 17 7 18 8 19 13 20 9 21 12 22 10 23 11 24
REMARK SMILES IDX 14 25 25 28 26 29 27 30 28 31 29 32 30 33 31 34 95 35 32 36
REMARK SMILES IDX 94 37 33 38 34 39 35 40 88 41 36 42 93 43 87 44 89 45 37 46
REMARK SMILES IDX 92 47 86 48 85 49 38 51 72 52 51 53 71 54 52 55 55 56 70 57
REMARK SMILES IDX 90 58 53 59 54 60 69 62 91 63 56 64 39 65 40 66 49 67 41 68
REMARK SMILES IDX 42 69 48 70 50 71 43 72 44 73 45 74 46 75 47 76 73 77 74 78
REMARK SMILES IDX 83 79 75 80 76 81 82 82 84 83 77 84 78 85 79 86 80 87 81 88
REMARK SMILES IDX 57 89 58 90 67 91 59 92 60 93 66 94 68 95 61 96 62 97 63 98
REMARK SMILES IDX 64 99 65 100
REMARK H PARENT 4 16 14 26 14 27 89 50 55 61
REMARK Flexibility Score: inf
ROOT
ATOM      1  O   UNL A   1      35.687  22.206  26.100  1.00  0.00    -0.374 OA
ENDROOT
BRANCH   1   2
ATOM      2  C   UNL A   1      34.748  23.070  25.477  1.00  0.00     0.202 C 
BRANCH   2   3
ATOM      3  C   UNL A   1      34.891  22.753  24.036  1.00  0.00     0.261 C 
BRANCH   3   4
ATOM      4  O   UNL A   1      33.923  23.504  23.284  1.00  0.00    -0.460 OA
BRANCH   4   5
ATOM      5  C   UNL A   1      32.754  23.061  22.797  1.00  0.00     0.338 C 
ATOM      6  O   UNL A   1      32.498  22.015  22.248  1.00  0.00    -0.246 OA
BRANCH   5   7
ATOM      7  C   UNL A   1      31.748  24.084  23.195  1.00  0.00     0.065 A 
ATOM      8  C   UNL A   1      32.106  25.733  21.183  1.00  0.00     0.047 C 
ATOM      9  C   UNL A   1      31.478  25.288  22.496  1.00  0.00    -0.013 A 
ATOM     10  C   UNL A   1      30.631  26.229  23.127  1.00  0.00     0.045 A 
ATOM     11  C   UNL A   1      30.052  25.967  24.375  1.00  0.00     0.026 A 
ATOM     12  C   UNL A   1      31.142  23.830  24.443  1.00  0.00     0.016 A 
ATOM     13  C   UNL A   1      30.304  24.768  25.032  1.00  0.00     0.003 A 
BRANCH  10  14
ATOM     14  N   UNL A   1      30.437  27.454  22.466  1.00  0.00    -0.322 N 
ATOM     15  C   UNL A   1      30.929  28.704  22.730  1.00  0.00     0.257 C 
ATOM     16  H   UNL A   1      29.845  27.405  21.680  1.00  0.00     0.170 HD
ATOM     17  O   UNL A   1      30.545  29.658  22.052  1.00  0.00    -0.269 OA
BRANCH  15  18
ATOM     18  C   UNL A   1      31.926  28.940  23.795  1.00  0.00     0.063 A 
ATOM     19  C   UNL A   1      31.375  29.393  25.005  1.00  0.00     0.017 A 
ATOM     20  C   UNL A   1      33.316  28.735  23.664  1.00  0.00     0.045 A 
ATOM     21  C   UNL A   1      32.190  29.611  26.109  1.00  0.00     0.016 A 
ATOM     22  C   UNL A   1      34.118  28.960  24.793  1.00  0.00     0.042 A 
ATOM     23  C   UNL A   1      33.557  29.380  26.001  1.00  0.00     0.020 A 
ATOM     24  Br  UNL A   1      34.669  29.667  27.502  1.00  0.00    -0.051 Br
BRANCH  20  25
ATOM     25  N   UNL A   1      33.958  28.471  22.457  1.00  0.00    -0.398 N 
ATOM     26  H   UNL A   1      33.577  27.814  21.831  1.00  0.00     0.156 HD
ATOM     27  H   UNL A   1      34.792  28.942  22.229  1.00  0.00     0.156 HD
ENDBRANCH  20  25
ENDBRANCH  15  18
ENDBRANCH  10  14
ENDBRANCH   5   7
ENDBRANCH   4   5
ENDBRANCH   3   4
ENDBRANCH   2   3
ENDBRANCH   1   2
BRANCH   1  28
ATOM     28  C   UNL A   1      36.129  21.124  25.326  1.00  0.00     0.202 C 
BRANCH  28  29
ATOM     29  C   UNL A   1      37.649  20.982  25.376  1.00  0.00     0.261 C 
BRANCH  29  30
ATOM     30  O   UNL A   1      38.279  22.283  25.458  1.00  0.00    -0.460 OA
BRANCH  30  31
ATOM     31  C   UNL A   1      39.209  22.464  26.447  1.00  0.00     0.338 C 
ATOM     32  O   UNL A   1      39.799  21.548  26.993  1.00  0.00    -0.246 OA
BRANCH  31  33
ATOM     33  C   UNL A   1      39.442  23.919  26.706  1.00  0.00     0.060 A 
ATOM     34  C   UNL A   1      40.104  24.750  25.778  1.00  0.00     0.016 A 
ATOM     35  C   UNL A   1      39.161  24.407  27.976  1.00  0.00     0.016 A 
ATOM     36  C   UNL A   1      40.615  26.004  26.174  1.00  0.00     0.010 A 
ATOM     37  C   UNL A   1      39.748  25.583  28.387  1.00  0.00     0.010 A 
ATOM     38  C   UNL A   1      40.504  26.384  27.509  1.00  0.00    -0.014 A 
BRANCH  38  39
ATOM     39  C   UNL A   1      41.159  27.513  28.188  1.00  0.00     0.031 A 
ATOM     40  C   UNL A   1      40.286  28.656  28.555  1.00  0.00     0.074 A 
ATOM     41  C   UNL A   1      42.368  27.362  28.793  1.00  0.00     0.049 A 
ATOM     42  N   UNL A   1      40.691  29.685  29.204  1.00  0.00    -0.248 NA
ATOM     43  C   UNL A   1      38.865  28.753  28.205  1.00  0.00     0.031 C 
ATOM     44  C   UNL A   1      42.875  28.030  29.998  1.00  0.00     0.029 A 
ATOM     45  N   UNL A   1      43.433  26.519  28.460  1.00  0.00    -0.354 N 
ATOM     46  C   UNL A   1      39.590  30.381  29.641  1.00  0.00     0.074 A 
ATOM     47  C   UNL A   1      38.489  29.837  28.893  1.00  0.00     0.031 C 
ATOM     48  C   UNL A   1      44.194  27.796  30.134  1.00  0.00     0.029 A 
ATOM     49  C   UNL A   1      44.624  27.065  28.954  1.00  0.00     0.049 A 
ATOM     50  H   UNL A   1      43.357  25.675  27.958  1.00  0.00     0.167 HD
ATOM     51  C   UNL A   1      39.768  31.254  30.671  1.00  0.00     0.037 A 
ATOM     52  C   UNL A   1      45.629  27.380  28.094  1.00  0.00     0.037 A 
ATOM     53  C   UNL A   1      41.208  31.430  30.921  1.00  0.00     0.049 A 
ATOM     54  C   UNL A   1      45.732  28.877  28.085  1.00  0.00     0.074 A 
ATOM     55  C   UNL A   1      42.071  31.009  31.917  1.00  0.00     0.029 A 
ATOM     56  N   UNL A   1      42.015  31.852  29.861  1.00  0.00    -0.354 N 
ATOM     57  N   UNL A   1      44.719  29.643  28.402  1.00  0.00    -0.248 NA
ATOM     58  C   UNL A   1      46.973  29.625  27.922  1.00  0.00     0.031 C 
ATOM     59  C   UNL A   1      43.400  31.066  31.387  1.00  0.00     0.029 A 
ATOM     60  C   UNL A   1      43.347  31.554  30.087  1.00  0.00     0.049 A 
ATOM     61  H   UNL A   1      41.679  32.304  29.055  1.00  0.00     0.167 HD
ATOM     62  C   UNL A   1      45.160  30.907  28.612  1.00  0.00     0.074 A 
ATOM     63  C   UNL A   1      46.566  30.867  28.243  1.00  0.00     0.031 C 
ATOM     64  C   UNL A   1      44.364  31.902  29.094  1.00  0.00     0.037 A 
BRANCH  51  65
ATOM     65  C   UNL A   1      38.679  31.852  31.543  1.00  0.00     0.058 A 
ATOM     66  C   UNL A   1      37.894  32.921  31.055  1.00  0.00     0.135 A 
ATOM     67  C   UNL A   1      38.401  31.497  32.885  1.00  0.00     0.135 A 
ATOM     68  F   UNL A   1      38.067  33.394  29.812  1.00  0.00    -0.206 F 
ATOM     69  C   UNL A   1      36.916  33.567  31.820  1.00  0.00     0.059 A 
ATOM     70  C   UNL A   1      37.398  32.099  33.653  1.00  0.00     0.059 A 
ATOM     71  F   UNL A   1      39.121  30.587  33.548  1.00  0.00    -0.206 F 
ATOM     72  C   UNL A   1      36.665  33.144  33.117  1.00  0.00     0.060 A 
BRANCH  72  73
ATOM     73  S   UNL A   1      35.395  33.975  34.089  1.00  0.00     0.124 S 
ATOM     74  O   UNL A   1      35.770  33.614  35.452  1.00  0.00    -0.237 OA
ATOM     75  O   UNL A   1      35.593  35.374  33.724  1.00  0.00    -0.237 OA
ATOM     76  O   UNL A   1      34.150  33.380  33.608  1.00  0.00    -0.744 OA
ENDBRANCH  72  73
ENDBRANCH  51  65
BRANCH  52  77
ATOM     77  C   UNL A   1      45.759  26.365  26.996  1.00  0.00     0.058 A 
ATOM     78  C   UNL A   1      46.299  25.111  27.371  1.00  0.00     0.135 A 
ATOM     79  C   UNL A   1      44.916  26.369  25.871  1.00  0.00     0.135 A 
ATOM     80  F   UNL A   1      47.096  25.025  28.449  1.00  0.00    -0.206 F 
ATOM     81  C   UNL A   1      45.899  23.911  26.775  1.00  0.00     0.059 A 
ATOM     82  C   UNL A   1      44.484  25.172  25.273  1.00  0.00     0.059 A 
ATOM     83  F   UNL A   1      44.357  27.515  25.454  1.00  0.00    -0.206 F 
ATOM     84  C   UNL A   1      44.938  23.946  25.769  1.00  0.00     0.060 A 
BRANCH  84  85
ATOM     85  S   UNL A   1      44.070  22.398  25.348  1.00  0.00     0.124 S 
ATOM     86  O   UNL A   1      45.077  21.389  25.648  1.00  0.00    -0.237 OA
ATOM     87  O   UNL A   1      42.916  22.424  26.248  1.00  0.00    -0.237 OA
ATOM     88  O   UNL A   1      43.740  22.582  23.941  1.00  0.00    -0.744 OA
ENDBRANCH  84  85
ENDBRANCH  52  77
BRANCH  64  89
ATOM     89  C   UNL A   1      44.557  33.323  28.657  1.00  0.00     0.058 A 
ATOM     90  C   UNL A   1      44.273  33.756  27.348  1.00  0.00     0.135 A 
ATOM     91  C   UNL A   1      44.865  34.337  29.588  1.00  0.00     0.135 A 
ATOM     92  F   UNL A   1      43.811  32.919  26.407  1.00  0.00    -0.206 F 
ATOM     93  C   UNL A   1      44.418  35.077  26.956  1.00  0.00     0.059 A 
ATOM     94  C   UNL A   1      44.936  35.677  29.236  1.00  0.00     0.059 A 
ATOM     95  F   UNL A   1      45.094  34.065  30.881  1.00  0.00    -0.206 F 
ATOM     96  C   UNL A   1      44.766  36.028  27.905  1.00  0.00     0.060 A 
BRANCH  96  97
ATOM     97  S   UNL A   1      44.995  37.726  27.379  1.00  0.00     0.124 S 
ATOM     98  O   UNL A   1      46.046  37.569  26.377  1.00  0.00    -0.237 OA
ATOM     99  O   UNL A   1      43.678  38.081  26.861  1.00  0.00    -0.237 OA
ATOM    100  O   UNL A   1      45.387  38.411  28.606  1.00  0.00    -0.744 OA
ENDBRANCH  96  97
ENDBRANCH  64  89
ENDBRANCH  38  39
ENDBRANCH  31  33
ENDBRANCH  30  31
ENDBRANCH  29  30
ENDBRANCH  28  29
ENDBRANCH   1  28
TORSDOF 20
ENDMDL
