MODEL 1
REMARK VINA RESULT:     -11.7      0.000      0.000
REMARK SMILES O=C(OCCOCCOC(=O)[C@@H]1c2[nH]cnc2CCN1C(=O)CCCc1c[nH]c2ccccc12)c1ccc(-c2c3nc(c(-c4c(F)cc(S(=O)(=O)[O-])cc4F)c4ccc([nH]4)c(-c4c(F)cc(S(=O)(=O)[O-])cc4F)c4nc(c(-c5c(F)cc(S(=O)(=O)[O-])cc5F)c5ccc2[nH]5)C=C4)C=C3)cc1
REMARK SMILES IDX 7 1 6 2 5 3 4 4 3 5 2 6 1 7 35 8 36 9 100 10 37 11 99 12
REMARK SMILES IDX 38 13 39 14 40 15 93 16 41 17 98 18 92 19 94 20 42 21 97 22
REMARK SMILES IDX 91 23 90 24 43 26 77 27 56 28 76 29 57 30 60 31 75 32 95 33
REMARK SMILES IDX 58 34 59 35 74 37 96 38 61 39 44 40 45 41 54 42 46 43 47 44
REMARK SMILES IDX 53 45 55 46 48 47 49 48 50 49 51 50 52 51 78 52 79 53 88 54
REMARK SMILES IDX 80 55 81 56 87 57 89 58 82 59 83 60 84 61 85 62 86 63 62 64
REMARK SMILES IDX 63 65 72 66 64 67 65 68 71 69 73 70 66 71 67 72 68 73 69 74
REMARK SMILES IDX 70 75 8 76 9 77 10 78 11 79 12 80 13 81 20 82 14 83 17 84
REMARK SMILES IDX 19 85 15 86 16 88 18 89 21 90 22 91 23 92 24 93 25 94 26 95
REMARK SMILES IDX 27 96 34 97 28 98 29 99 33 100 30 102 32 103 31 104
REMARK H PARENT 94 25 60 36 14 87 28 101
REMARK Flexibility Score: inf
ROOT
ATOM      1  C   UNL A   1      39.645  22.023  26.723  1.00  0.00     0.202 C 
ENDROOT
BRANCH   1   2
ATOM      2  O   UNL A   1      40.101  20.667  26.767  1.00  0.00    -0.374 OA
BRANCH   2   3
ATOM      3  C   UNL A   1      41.315  20.292  27.403  1.00  0.00     0.202 C 
BRANCH   3   4
ATOM      4  C   UNL A   1      42.249  19.294  26.716  1.00  0.00     0.261 C 
BRANCH   4   5
ATOM      5  O   UNL A   1      42.594  19.656  25.372  1.00  0.00    -0.460 OA
BRANCH   5   6
ATOM      6  C   UNL A   1      43.714  20.319  25.013  1.00  0.00     0.338 C 
ATOM      7  O   UNL A   1      44.477  19.802  24.198  1.00  0.00    -0.246 OA
BRANCH   6   8
ATOM      8  C   UNL A   1      43.937  21.728  25.443  1.00  0.00     0.060 A 
ATOM      9  C   UNL A   1      44.987  22.173  26.247  1.00  0.00     0.016 A 
ATOM     10  C   UNL A   1      42.963  22.652  25.033  1.00  0.00     0.016 A 
ATOM     11  C   UNL A   1      44.899  23.381  26.898  1.00  0.00     0.010 A 
ATOM     12  C   UNL A   1      42.915  23.906  25.608  1.00  0.00     0.010 A 
ATOM     13  C   UNL A   1      43.818  24.206  26.622  1.00  0.00    -0.014 A 
BRANCH  13  14
ATOM     14  C   UNL A   1      43.758  25.462  27.339  1.00  0.00     0.031 A 
ATOM     15  C   UNL A   1      44.910  26.345  27.033  1.00  0.00     0.074 A 
ATOM     16  C   UNL A   1      42.705  25.755  28.123  1.00  0.00     0.049 A 
ATOM     17  N   UNL A   1      45.860  26.712  27.829  1.00  0.00    -0.248 NA
ATOM     18  C   UNL A   1      45.169  26.658  25.615  1.00  0.00     0.031 C 
ATOM     19  C   UNL A   1      41.471  24.979  28.280  1.00  0.00     0.029 A 
ATOM     20  N   UNL A   1      42.452  26.870  28.856  1.00  0.00    -0.354 N 
ATOM     21  C   UNL A   1      46.665  27.554  27.066  1.00  0.00     0.074 A 
ATOM     22  C   UNL A   1      46.352  27.270  25.694  1.00  0.00     0.031 C 
ATOM     23  C   UNL A   1      40.520  25.762  28.830  1.00  0.00     0.029 A 
ATOM     24  C   UNL A   1      41.107  27.043  29.175  1.00  0.00     0.049 A 
ATOM     25  H   UNL A   1      43.155  27.500  29.135  1.00  0.00     0.167 HD
ATOM     26  C   UNL A   1      47.232  28.653  27.637  1.00  0.00     0.037 A 
ATOM     27  C   UNL A   1      40.526  28.202  29.582  1.00  0.00     0.037 A 
ATOM     28  C   UNL A   1      47.336  28.481  29.069  1.00  0.00     0.049 A 
ATOM     29  C   UNL A   1      41.620  29.073  30.096  1.00  0.00     0.074 A 
ATOM     30  C   UNL A   1      47.914  27.537  29.898  1.00  0.00     0.029 A 
ATOM     31  N   UNL A   1      46.452  29.179  29.858  1.00  0.00    -0.354 N 
ATOM     32  N   UNL A   1      42.312  28.797  31.170  1.00  0.00    -0.248 NA
ATOM     33  C   UNL A   1      42.269  29.973  29.155  1.00  0.00     0.031 C 
ATOM     34  C   UNL A   1      47.017  27.410  31.001  1.00  0.00     0.029 A 
ATOM     35  C   UNL A   1      45.986  28.334  30.828  1.00  0.00     0.049 A 
ATOM     36  H   UNL A   1      46.198  30.123  29.744  1.00  0.00     0.167 HD
ATOM     37  C   UNL A   1      43.623  29.113  30.839  1.00  0.00     0.074 A 
ATOM     38  C   UNL A   1      43.523  29.907  29.614  1.00  0.00     0.031 C 
ATOM     39  C   UNL A   1      44.671  28.452  31.416  1.00  0.00     0.037 A 
BRANCH  26  40
ATOM     40  C   UNL A   1      47.191  30.032  26.991  1.00  0.00     0.058 A 
ATOM     41  C   UNL A   1      48.363  30.818  27.030  1.00  0.00     0.135 A 
ATOM     42  C   UNL A   1      46.011  30.734  26.651  1.00  0.00     0.135 A 
ATOM     43  F   UNL A   1      49.553  30.259  27.299  1.00  0.00    -0.206 F 
ATOM     44  C   UNL A   1      48.338  32.207  26.904  1.00  0.00     0.059 A 
ATOM     45  C   UNL A   1      45.972  32.111  26.479  1.00  0.00     0.059 A 
ATOM     46  F   UNL A   1      44.814  30.153  26.539  1.00  0.00    -0.206 F 
ATOM     47  C   UNL A   1      47.127  32.845  26.659  1.00  0.00     0.060 A 
BRANCH  47  48
ATOM     48  S   UNL A   1      47.066  34.641  26.615  1.00  0.00     0.124 S 
ATOM     49  O   UNL A   1      47.986  34.988  27.684  1.00  0.00    -0.237 OA
ATOM     50  O   UNL A   1      47.517  34.921  25.255  1.00  0.00    -0.237 OA
ATOM     51  O   UNL A   1      45.652  34.931  26.872  1.00  0.00    -0.744 OA
ENDBRANCH  47  48
ENDBRANCH  26  40
BRANCH  27  52
ATOM     52  C   UNL A   1      39.188  28.730  29.185  1.00  0.00     0.058 A 
ATOM     53  C   UNL A   1      38.175  28.939  30.139  1.00  0.00     0.135 A 
ATOM     54  C   UNL A   1      38.957  29.292  27.912  1.00  0.00     0.135 A 
ATOM     55  F   UNL A   1      38.313  28.460  31.385  1.00  0.00    -0.206 F 
ATOM     56  C   UNL A   1      37.030  29.699  29.862  1.00  0.00     0.059 A 
ATOM     57  C   UNL A   1      37.819  30.037  27.609  1.00  0.00     0.059 A 
ATOM     58  F   UNL A   1      39.873  29.215  26.937  1.00  0.00    -0.206 F 
ATOM     59  C   UNL A   1      36.870  30.261  28.597  1.00  0.00     0.060 A 
BRANCH  59  60
ATOM     60  S   UNL A   1      35.487  31.382  28.276  1.00  0.00     0.124 S 
ATOM     61  O   UNL A   1      36.167  32.557  27.743  1.00  0.00    -0.237 OA
ATOM     62  O   UNL A   1      34.685  30.622  27.324  1.00  0.00    -0.237 OA
ATOM     63  O   UNL A   1      34.881  31.559  29.593  1.00  0.00    -0.744 OA
ENDBRANCH  59  60
ENDBRANCH  27  52
BRANCH  39  64
ATOM     64  C   UNL A   1      44.404  27.629  32.647  1.00  0.00     0.058 A 
ATOM     65  C   UNL A   1      44.310  28.140  33.954  1.00  0.00     0.135 A 
ATOM     66  C   UNL A   1      44.103  26.272  32.466  1.00  0.00     0.135 A 
ATOM     67  F   UNL A   1      44.471  29.449  34.196  1.00  0.00    -0.206 F 
ATOM     68  C   UNL A   1      43.988  27.321  35.039  1.00  0.00     0.059 A 
ATOM     69  C   UNL A   1      43.746  25.446  33.526  1.00  0.00     0.059 A 
ATOM     70  F   UNL A   1      44.109  25.738  31.232  1.00  0.00    -0.206 F 
ATOM     71  C   UNL A   1      43.711  25.972  34.814  1.00  0.00     0.060 A 
BRANCH  71  72
ATOM     72  S   UNL A   1      43.255  24.918  36.208  1.00  0.00     0.124 S 
ATOM     73  O   UNL A   1      42.796  23.706  35.538  1.00  0.00    -0.237 OA
ATOM     74  O   UNL A   1      44.512  24.801  36.941  1.00  0.00    -0.237 OA
ATOM     75  O   UNL A   1      42.215  25.684  36.890  1.00  0.00    -0.744 OA
ENDBRANCH  71  72
ENDBRANCH  39  64
ENDBRANCH  13  14
ENDBRANCH   6   8
ENDBRANCH   5   6
ENDBRANCH   4   5
ENDBRANCH   3   4
ENDBRANCH   2   3
ENDBRANCH   1   2
BRANCH   1  76
ATOM     76  C   UNL A   1      38.545  22.519  25.771  1.00  0.00     0.261 C 
BRANCH  76  77
ATOM     77  O   UNL A   1      37.214  22.267  26.235  1.00  0.00    -0.461 OA
BRANCH  77  78
ATOM     78  C   UNL A   1      36.521  21.476  25.372  1.00  0.00     0.335 C 
ATOM     79  O   UNL A   1      37.049  20.743  24.534  1.00  0.00    -0.249 OA
BRANCH  78  80
ATOM     80  C   UNL A   1      35.019  21.436  25.644  1.00  0.00     0.244 C 
ATOM     81  C   UNL A   1      34.140  20.324  25.155  1.00  0.00     0.072 A 
ATOM     82  N   UNL A   1      34.251  22.713  25.477  1.00  0.00    -0.323 N 
ATOM     83  N   UNL A   1      34.433  19.035  24.805  1.00  0.00    -0.346 N 
ATOM     84  C   UNL A   1      32.759  20.389  25.135  1.00  0.00     0.066 A 
ATOM     85  C   UNL A   1      32.943  22.632  26.145  1.00  0.00     0.127 C 
ATOM     86  C   UNL A   1      33.232  18.389  24.622  1.00  0.00     0.197 A 
ATOM     87  H   UNL A   1      35.331  18.644  24.704  1.00  0.00     0.167 HD
ATOM     88  N   UNL A   1      32.204  19.189  24.813  1.00  0.00    -0.242 NA
ATOM     89  C   UNL A   1      31.995  21.618  25.465  1.00  0.00     0.080 C 
BRANCH  82  90
ATOM     90  C   UNL A   1      34.637  23.622  24.501  1.00  0.00     0.223 C 
ATOM     91  O   UNL A   1      35.332  24.597  24.809  1.00  0.00    -0.275 OA
BRANCH  90  92
ATOM     92  C   UNL A   1      34.116  23.666  23.061  1.00  0.00     0.100 C 
BRANCH  92  93
ATOM     93  C   UNL A   1      33.046  24.613  22.584  1.00  0.00     0.015 C 
BRANCH  93  94
ATOM     94  C   UNL A   1      33.433  26.015  22.173  1.00  0.00     0.038 C 
BRANCH  94  95
ATOM     95  C   UNL A   1      33.426  27.184  23.142  1.00  0.00    -0.023 A 
ATOM     96  C   UNL A   1      33.869  28.426  22.713  1.00  0.00     0.087 A 
ATOM     97  C   UNL A   1      32.879  27.410  24.480  1.00  0.00     0.003 A 
ATOM     98  N   UNL A   1      33.423  29.378  23.576  1.00  0.00    -0.361 N 
ATOM     99  C   UNL A   1      32.757  28.798  24.623  1.00  0.00     0.046 A 
ATOM    100  C   UNL A   1      32.373  26.651  25.570  1.00  0.00     0.010 A 
ATOM    101  H   UNL A   1      33.559  30.346  23.464  1.00  0.00     0.166 HD
ATOM    102  C   UNL A   1      32.065  29.413  25.678  1.00  0.00     0.026 A 
ATOM    103  C   UNL A   1      31.836  27.256  26.713  1.00  0.00     0.001 A 
ATOM    104  C   UNL A   1      31.646  28.624  26.746  1.00  0.00     0.002 A 
ENDBRANCH  94  95
ENDBRANCH  93  94
ENDBRANCH  92  93
ENDBRANCH  90  92
ENDBRANCH  82  90
ENDBRANCH  78  80
ENDBRANCH  77  78
ENDBRANCH  76  77
ENDBRANCH   1  76
TORSDOF 22
ENDMDL
MODEL 2
REMARK VINA RESULT:     -11.3      2.301      5.024
REMARK SMILES O=C(OCCOCCOC(=O)[C@@H]1c2[nH]cnc2CCN1C(=O)CCCc1c[nH]c2ccccc12)c1ccc(-c2c3nc(c(-c4c(F)cc(S(=O)(=O)[O-])cc4F)c4ccc([nH]4)c(-c4c(F)cc(S(=O)(=O)[O-])cc4F)c4nc(c(-c5c(F)cc(S(=O)(=O)[O-])cc5F)c5ccc2[nH]5)C=C4)C=C3)cc1
REMARK SMILES IDX 7 1 6 2 5 3 4 4 3 5 2 6 1 7 35 8 36 9 100 10 37 11 99 12
REMARK SMILES IDX 38 13 39 14 40 15 93 16 41 17 98 18 92 19 94 20 42 21 97 22
REMARK SMILES IDX 91 23 90 24 43 26 77 27 56 28 76 29 57 30 60 31 75 32 95 33
REMARK SMILES IDX 58 34 59 35 74 37 96 38 61 39 44 40 45 41 54 42 46 43 47 44
REMARK SMILES IDX 53 45 55 46 48 47 49 48 50 49 51 50 52 51 78 52 79 53 88 54
REMARK SMILES IDX 80 55 81 56 87 57 89 58 82 59 83 60 84 61 85 62 86 63 62 64
REMARK SMILES IDX 63 65 72 66 64 67 65 68 71 69 73 70 66 71 67 72 68 73 69 74
REMARK SMILES IDX 70 75 8 76 9 77 10 78 11 79 12 80 13 81 20 82 14 83 17 84
REMARK SMILES IDX 19 85 15 86 16 88 18 89 21 90 22 91 23 92 24 93 25 94 26 95
REMARK SMILES IDX 27 96 34 97 28 98 29 99 33 100 30 102 32 103 31 104
REMARK H PARENT 94 25 60 36 14 87 28 101
REMARK Flexibility Score: inf
ROOT
ATOM      1  C   UNL A   1      35.510  23.314  23.552  1.00  0.00     0.202 C 
ENDROOT
BRANCH   1   2
ATOM      2  O   UNL A   1      36.604  22.391  23.551  1.00  0.00    -0.374 OA
BRANCH   2   3
ATOM      3  C   UNL A   1      36.603  21.207  24.338  1.00  0.00     0.202 C 
BRANCH   3   4
ATOM      4  C   UNL A   1      37.715  20.983  25.365  1.00  0.00     0.261 C 
BRANCH   4   5
ATOM      5  O   UNL A   1      38.380  22.188  25.768  1.00  0.00    -0.460 OA
BRANCH   5   6
ATOM      6  C   UNL A   1      39.491  22.240  26.533  1.00  0.00     0.338 C 
ATOM      7  O   UNL A   1      40.093  21.197  26.782  1.00  0.00    -0.246 OA
BRANCH   6   8
ATOM      8  C   UNL A   1      40.090  23.549  26.918  1.00  0.00     0.060 A 
ATOM      9  C   UNL A   1      41.337  23.723  27.521  1.00  0.00     0.016 A 
ATOM     10  C   UNL A   1      39.288  24.678  26.689  1.00  0.00     0.016 A 
ATOM     11  C   UNL A   1      41.632  24.894  28.178  1.00  0.00     0.010 A 
ATOM     12  C   UNL A   1      39.619  25.888  27.265  1.00  0.00     0.010 A 
ATOM     13  C   UNL A   1      40.729  25.944  28.101  1.00  0.00    -0.014 A 
BRANCH  13  14
ATOM     14  C   UNL A   1      41.074  27.153  28.818  1.00  0.00     0.031 A 
ATOM     15  C   UNL A   1      42.216  27.871  28.202  1.00  0.00     0.074 A 
ATOM     16  C   UNL A   1      40.346  27.555  29.876  1.00  0.00     0.049 A 
ATOM     17  N   UNL A   1      43.398  28.049  28.694  1.00  0.00    -0.248 NA
ATOM     18  C   UNL A   1      42.109  28.221  26.773  1.00  0.00     0.031 C 
ATOM     19  C   UNL A   1      39.100  26.963  30.373  1.00  0.00     0.029 A 
ATOM     20  N   UNL A   1      40.490  28.653  30.662  1.00  0.00    -0.354 N 
ATOM     21  C   UNL A   1      44.076  28.804  27.740  1.00  0.00     0.074 A 
ATOM     22  C   UNL A   1      43.346  28.646  26.514  1.00  0.00     0.031 C 
ATOM     23  C   UNL A   1      38.480  27.847  31.183  1.00  0.00     0.029 A 
ATOM     24  C   UNL A   1      39.336  29.006  31.357  1.00  0.00     0.049 A 
ATOM     25  H   UNL A   1      41.334  29.155  30.733  1.00  0.00     0.167 HD
ATOM     26  C   UNL A   1      44.948  29.773  28.135  1.00  0.00     0.037 A 
ATOM     27  C   UNL A   1      39.084  30.213  31.927  1.00  0.00     0.037 A 
ATOM     28  C   UNL A   1      45.425  29.509  29.474  1.00  0.00     0.049 A 
ATOM     29  C   UNL A   1      40.402  30.882  32.113  1.00  0.00     0.074 A 
ATOM     30  C   UNL A   1      46.058  28.445  30.091  1.00  0.00     0.029 A 
ATOM     31  N   UNL A   1      44.923  30.284  30.492  1.00  0.00    -0.354 N 
ATOM     32  N   UNL A   1      41.318  30.448  32.938  1.00  0.00    -0.248 NA
ATOM     33  C   UNL A   1      40.892  31.727  31.034  1.00  0.00     0.031 C 
ATOM     34  C   UNL A   1      45.502  28.391  31.405  1.00  0.00     0.029 A 
ATOM     35  C   UNL A   1      44.623  29.465  31.546  1.00  0.00     0.049 A 
ATOM     36  H   UNL A   1      44.799  31.260  30.466  1.00  0.00     0.167 HD
ATOM     37  C   UNL A   1      42.514  30.584  32.246  1.00  0.00     0.074 A 
ATOM     38  C   UNL A   1      42.197  31.451  31.111  1.00  0.00     0.031 C 
ATOM     39  C   UNL A   1      43.565  29.744  32.489  1.00  0.00     0.037 A 
BRANCH  26  40
ATOM     40  C   UNL A   1      44.944  31.176  27.542  1.00  0.00     0.058 A 
ATOM     41  C   UNL A   1      46.140  31.658  26.969  1.00  0.00     0.135 A 
ATOM     42  C   UNL A   1      43.966  32.165  27.804  1.00  0.00     0.135 A 
ATOM     43  F   UNL A   1      47.128  30.812  26.635  1.00  0.00    -0.206 F 
ATOM     44  C   UNL A   1      46.405  33.019  26.820  1.00  0.00     0.059 A 
ATOM     45  C   UNL A   1      44.194  33.523  27.623  1.00  0.00     0.059 A 
ATOM     46  F   UNL A   1      42.765  31.895  28.320  1.00  0.00    -0.206 F 
ATOM     47  C   UNL A   1      45.432  33.944  27.181  1.00  0.00     0.060 A 
BRANCH  47  48
ATOM     48  S   UNL A   1      45.809  35.700  27.107  1.00  0.00     0.124 S 
ATOM     49  O   UNL A   1      46.335  35.827  25.760  1.00  0.00    -0.237 OA
ATOM     50  O   UNL A   1      44.499  36.296  27.351  1.00  0.00    -0.237 OA
ATOM     51  O   UNL A   1      46.781  35.877  28.190  1.00  0.00    -0.744 OA
ENDBRANCH  47  48
ENDBRANCH  26  40
BRANCH  27  52
ATOM     52  C   UNL A   1      37.790  30.954  31.939  1.00  0.00     0.058 A 
ATOM     53  C   UNL A   1      37.187  31.350  33.147  1.00  0.00     0.135 A 
ATOM     54  C   UNL A   1      37.248  31.526  30.768  1.00  0.00     0.135 A 
ATOM     55  F   UNL A   1      37.646  30.877  34.316  1.00  0.00    -0.206 F 
ATOM     56  C   UNL A   1      36.148  32.289  33.194  1.00  0.00     0.059 A 
ATOM     57  C   UNL A   1      36.204  32.448  30.789  1.00  0.00     0.059 A 
ATOM     58  F   UNL A   1      37.773  31.276  29.560  1.00  0.00    -0.206 F 
ATOM     59  C   UNL A   1      35.675  32.848  32.008  1.00  0.00     0.060 A 
BRANCH  59  60
ATOM     60  S   UNL A   1      34.455  34.183  32.064  1.00  0.00     0.124 S 
ATOM     61  O   UNL A   1      33.448  33.634  32.965  1.00  0.00    -0.237 OA
ATOM     62  O   UNL A   1      35.237  35.297  32.585  1.00  0.00    -0.237 OA
ATOM     63  O   UNL A   1      34.036  34.318  30.671  1.00  0.00    -0.744 OA
ENDBRANCH  59  60
ENDBRANCH  27  52
BRANCH  39  64
ATOM     64  C   UNL A   1      43.531  28.902  33.736  1.00  0.00     0.058 A 
ATOM     65  C   UNL A   1      43.898  29.346  35.020  1.00  0.00     0.135 A 
ATOM     66  C   UNL A   1      42.975  27.619  33.637  1.00  0.00     0.135 A 
ATOM     67  F   UNL A   1      44.331  30.600  35.218  1.00  0.00    -0.206 F 
ATOM     68  C   UNL A   1      43.771  28.526  36.143  1.00  0.00     0.059 A 
ATOM     69  C   UNL A   1      42.807  26.798  34.747  1.00  0.00     0.059 A 
ATOM     70  F   UNL A   1      42.541  27.162  32.450  1.00  0.00    -0.206 F 
ATOM     71  C   UNL A   1      43.227  27.250  35.994  1.00  0.00     0.060 A 
BRANCH  71  72
ATOM     72  S   UNL A   1      43.024  26.199  37.449  1.00  0.00     0.124 S 
ATOM     73  O   UNL A   1      43.479  24.904  36.958  1.00  0.00    -0.237 OA
ATOM     74  O   UNL A   1      43.889  26.846  38.431  1.00  0.00    -0.237 OA
ATOM     75  O   UNL A   1      41.594  26.289  37.738  1.00  0.00    -0.744 OA
ENDBRANCH  71  72
ENDBRANCH  39  64
ENDBRANCH  13  14
ENDBRANCH   6   8
ENDBRANCH   5   6
ENDBRANCH   4   5
ENDBRANCH   3   4
ENDBRANCH   2   3
ENDBRANCH   1   2
BRANCH   1  76
ATOM     76  C   UNL A   1      35.184  24.243  24.732  1.00  0.00     0.261 C 
BRANCH  76  77
ATOM     77  O   UNL A   1      34.172  23.738  25.610  1.00  0.00    -0.461 OA
BRANCH  77  78
ATOM     78  C   UNL A   1      33.196  24.659  25.837  1.00  0.00     0.335 C 
ATOM     79  O   UNL A   1      32.469  24.660  26.832  1.00  0.00    -0.249 OA
BRANCH  78  80
ATOM     80  C   UNL A   1      33.189  25.810  24.834  1.00  0.00     0.244 C 
ATOM     81  C   UNL A   1      33.050  27.243  25.252  1.00  0.00     0.072 A 
ATOM     82  N   UNL A   1      32.382  25.634  23.583  1.00  0.00    -0.323 N 
ATOM     83  N   UNL A   1      33.316  27.862  26.443  1.00  0.00    -0.346 N 
ATOM     84  C   UNL A   1      32.762  28.274  24.377  1.00  0.00     0.066 A 
ATOM     85  C   UNL A   1      32.782  26.609  22.557  1.00  0.00     0.127 C 
ATOM     86  C   UNL A   1      33.203  29.215  26.223  1.00  0.00     0.197 A 
ATOM     87  H   UNL A   1      33.544  27.422  27.294  1.00  0.00     0.167 HD
ATOM     88  N   UNL A   1      32.865  29.490  24.980  1.00  0.00    -0.242 NA
ATOM     89  C   UNL A   1      32.419  28.059  22.949  1.00  0.00     0.080 C 
BRANCH  82  90
ATOM     90  C   UNL A   1      31.206  24.898  23.625  1.00  0.00     0.223 C 
ATOM     91  O   UNL A   1      30.189  25.390  24.129  1.00  0.00    -0.275 OA
BRANCH  90  92
ATOM     92  C   UNL A   1      31.065  23.412  23.282  1.00  0.00     0.100 C 
BRANCH  92  93
ATOM     93  C   UNL A   1      32.201  22.552  22.791  1.00  0.00     0.015 C 
BRANCH  93  94
ATOM     94  C   UNL A   1      32.039  21.050  22.783  1.00  0.00     0.038 C 
BRANCH  94  95
ATOM     95  C   UNL A   1      32.576  20.163  23.892  1.00  0.00    -0.023 A 
ATOM     96  C   UNL A   1      32.578  20.631  25.197  1.00  0.00     0.087 A 
ATOM     97  C   UNL A   1      32.980  18.759  23.985  1.00  0.00     0.003 A 
ATOM     98  N   UNL A   1      32.721  19.578  26.046  1.00  0.00    -0.361 N 
ATOM     99  C   UNL A   1      32.895  18.417  25.340  1.00  0.00     0.046 A 
ATOM    100  C   UNL A   1      33.317  17.685  23.118  1.00  0.00     0.010 A 
ATOM    101  H   UNL A   1      32.701  19.641  27.027  1.00  0.00     0.166 HD
ATOM    102  C   UNL A   1      32.987  17.100  25.817  1.00  0.00     0.026 A 
ATOM    103  C   UNL A   1      33.584  16.396  23.598  1.00  0.00     0.001 A 
ATOM    104  C   UNL A   1      33.379  16.100  24.931  1.00  0.00     0.002 A 
ENDBRANCH  94  95
ENDBRANCH  93  94
ENDBRANCH  92  93
ENDBRANCH  90  92
ENDBRANCH  82  90
ENDBRANCH  78  80
ENDBRANCH  77  78
ENDBRANCH  76  77
ENDBRANCH   1  76
TORSDOF 22
ENDMDL
MODEL 3
REMARK VINA RESULT:     -10.8      2.125      5.022
REMARK SMILES O=C(OCCOCCOC(=O)[C@@H]1c2[nH]cnc2CCN1C(=O)CCCc1c[nH]c2ccccc12)c1ccc(-c2c3nc(c(-c4c(F)cc(S(=O)(=O)[O-])cc4F)c4ccc([nH]4)c(-c4c(F)cc(S(=O)(=O)[O-])cc4F)c4nc(c(-c5c(F)cc(S(=O)(=O)[O-])cc5F)c5ccc2[nH]5)C=C4)C=C3)cc1
REMARK SMILES IDX 7 1 6 2 5 3 4 4 3 5 2 6 1 7 35 8 36 9 100 10 37 11 99 12
REMARK SMILES IDX 38 13 39 14 40 15 93 16 41 17 98 18 92 19 94 20 42 21 97 22
REMARK SMILES IDX 91 23 90 24 43 26 77 27 56 28 76 29 57 30 60 31 75 32 95 33
REMARK SMILES IDX 58 34 59 35 74 37 96 38 61 39 44 40 45 41 54 42 46 43 47 44
REMARK SMILES IDX 53 45 55 46 48 47 49 48 50 49 51 50 52 51 78 52 79 53 88 54
REMARK SMILES IDX 80 55 81 56 87 57 89 58 82 59 83 60 84 61 85 62 86 63 62 64
REMARK SMILES IDX 63 65 72 66 64 67 65 68 71 69 73 70 66 71 67 72 68 73 69 74
REMARK SMILES IDX 70 75 8 76 9 77 10 78 11 79 12 80 13 81 20 82 14 83 17 84
REMARK SMILES IDX 19 85 15 86 16 88 18 89 21 90 22 91 23 92 24 93 25 94 26 95
REMARK SMILES IDX 27 96 34 97 28 98 29 99 33 100 30 102 32 103 31 104
REMARK H PARENT 94 25 60 36 14 87 28 101
REMARK Flexibility Score: inf
ROOT
ATOM      1  C   UNL A   1      34.860  23.155  23.070  1.00  0.00     0.202 C 
ENDROOT
BRANCH   1   2
ATOM      2  O   UNL A   1      35.540  22.582  24.191  1.00  0.00    -0.374 OA
BRANCH   2   3
ATOM      3  C   UNL A   1      36.726  21.810  24.050  1.00  0.00     0.202 C 
BRANCH   3   4
ATOM      4  C   UNL A   1      37.384  21.205  25.291  1.00  0.00     0.261 C 
BRANCH   4   5
ATOM      5  O   UNL A   1      38.045  22.168  26.123  1.00  0.00    -0.460 OA
BRANCH   5   6
ATOM      6  C   UNL A   1      39.337  22.099  26.510  1.00  0.00     0.338 C 
ATOM      7  O   UNL A   1      39.919  21.017  26.455  1.00  0.00    -0.246 OA
BRANCH   6   8
ATOM      8  C   UNL A   1      40.106  23.337  26.821  1.00  0.00     0.060 A 
ATOM      9  C   UNL A   1      41.362  23.379  27.429  1.00  0.00     0.016 A 
ATOM     10  C   UNL A   1      39.466  24.547  26.512  1.00  0.00     0.016 A 
ATOM     11  C   UNL A   1      41.810  24.539  28.016  1.00  0.00     0.010 A 
ATOM     12  C   UNL A   1      39.954  25.735  27.016  1.00  0.00     0.010 A 
ATOM     13  C   UNL A   1      41.057  25.694  27.861  1.00  0.00    -0.014 A 
BRANCH  13  14
ATOM     14  C   UNL A   1      41.559  26.888  28.506  1.00  0.00     0.031 A 
ATOM     15  C   UNL A   1      42.814  27.382  27.889  1.00  0.00     0.074 A 
ATOM     16  C   UNL A   1      40.870  27.471  29.503  1.00  0.00     0.049 A 
ATOM     17  N   UNL A   1      43.995  27.418  28.414  1.00  0.00    -0.248 NA
ATOM     18  C   UNL A   1      42.804  27.636  26.436  1.00  0.00     0.031 C 
ATOM     19  C   UNL A   1      39.535  27.109  29.990  1.00  0.00     0.029 A 
ATOM     20  N   UNL A   1      41.154  28.591  30.217  1.00  0.00    -0.354 N 
ATOM     21  C   UNL A   1      44.807  27.991  27.439  1.00  0.00     0.074 A 
ATOM     22  C   UNL A   1      44.098  27.853  26.198  1.00  0.00     0.031 C 
ATOM     23  C   UNL A   1      39.031  28.133  30.712  1.00  0.00     0.029 A 
ATOM     24  C   UNL A   1      40.046  29.162  30.839  1.00  0.00     0.049 A 
ATOM     25  H   UNL A   1      42.061  28.966  30.288  1.00  0.00     0.167 HD
ATOM     26  C   UNL A   1      45.802  28.848  27.801  1.00  0.00     0.037 A 
ATOM     27  C   UNL A   1      39.963  30.432  31.314  1.00  0.00     0.037 A 
ATOM     28  C   UNL A   1      46.195  28.615  29.173  1.00  0.00     0.049 A 
ATOM     29  C   UNL A   1      41.360  30.910  31.506  1.00  0.00     0.074 A 
ATOM     30  C   UNL A   1      46.641  27.518  29.887  1.00  0.00     0.029 A 
ATOM     31  N   UNL A   1      45.785  29.530  30.113  1.00  0.00    -0.354 N 
ATOM     32  N   UNL A   1      42.176  30.408  32.396  1.00  0.00    -0.248 NA
ATOM     33  C   UNL A   1      42.003  31.591  30.392  1.00  0.00     0.031 C 
ATOM     34  C   UNL A   1      46.045  27.645  31.178  1.00  0.00     0.029 A 
ATOM     35  C   UNL A   1      45.334  28.845  31.209  1.00  0.00     0.049 A 
ATOM     36  H   UNL A   1      45.811  30.509  30.015  1.00  0.00     0.167 HD
ATOM     37  C   UNL A   1      43.398  30.313  31.745  1.00  0.00     0.074 A 
ATOM     38  C   UNL A   1      43.250  31.131  30.541  1.00  0.00     0.031 C 
ATOM     39  C   UNL A   1      44.303  29.348  32.087  1.00  0.00     0.037 A 
BRANCH  26  40
ATOM     40  C   UNL A   1      46.027  30.188  27.113  1.00  0.00     0.058 A 
ATOM     41  C   UNL A   1      47.357  30.613  26.907  1.00  0.00     0.135 A 
ATOM     42  C   UNL A   1      45.047  31.196  26.961  1.00  0.00     0.135 A 
ATOM     43  F   UNL A   1      48.374  29.739  26.981  1.00  0.00    -0.206 F 
ATOM     44  C   UNL A   1      47.696  31.954  26.728  1.00  0.00     0.059 A 
ATOM     45  C   UNL A   1      45.361  32.531  26.740  1.00  0.00     0.059 A 
ATOM     46  F   UNL A   1      43.737  30.976  27.091  1.00  0.00    -0.206 F 
ATOM     47  C   UNL A   1      46.687  32.909  26.676  1.00  0.00     0.060 A 
BRANCH  47  48
ATOM     48  S   UNL A   1      47.120  34.650  26.567  1.00  0.00     0.124 S 
ATOM     49  O   UNL A   1      47.390  34.793  25.147  1.00  0.00    -0.237 OA
ATOM     50  O   UNL A   1      45.906  35.290  27.064  1.00  0.00    -0.237 OA
ATOM     51  O   UNL A   1      48.284  34.758  27.451  1.00  0.00    -0.744 OA
ENDBRANCH  47  48
ENDBRANCH  26  40
BRANCH  27  52
ATOM     52  C   UNL A   1      38.795  31.356  31.222  1.00  0.00     0.058 A 
ATOM     53  C   UNL A   1      38.139  31.583  29.998  1.00  0.00     0.135 A 
ATOM     54  C   UNL A   1      38.127  31.828  32.372  1.00  0.00     0.135 A 
ATOM     55  F   UNL A   1      38.686  31.152  28.851  1.00  0.00    -0.206 F 
ATOM     56  C   UNL A   1      36.881  32.195  29.924  1.00  0.00     0.059 A 
ATOM     57  C   UNL A   1      36.883  32.454  32.321  1.00  0.00     0.059 A 
ATOM     58  F   UNL A   1      38.619  31.620  33.601  1.00  0.00    -0.206 F 
ATOM     59  C   UNL A   1      36.251  32.611  31.096  1.00  0.00     0.060 A 
BRANCH  59  60
ATOM     60  S   UNL A   1      34.558  33.246  31.033  1.00  0.00     0.124 S 
ATOM     61  O   UNL A   1      34.098  32.752  29.739  1.00  0.00    -0.237 OA
ATOM     62  O   UNL A   1      33.950  32.626  32.204  1.00  0.00    -0.237 OA
ATOM     63  O   UNL A   1      34.734  34.693  31.119  1.00  0.00    -0.744 OA
ENDBRANCH  59  60
ENDBRANCH  27  52
BRANCH  39  64
ATOM     64  C   UNL A   1      44.106  28.615  33.387  1.00  0.00     0.058 A 
ATOM     65  C   UNL A   1      44.512  29.086  34.649  1.00  0.00     0.135 A 
ATOM     66  C   UNL A   1      43.351  27.433  33.357  1.00  0.00     0.135 A 
ATOM     67  F   UNL A   1      45.137  30.266  34.775  1.00  0.00    -0.206 F 
ATOM     68  C   UNL A   1      44.229  28.381  35.821  1.00  0.00     0.059 A 
ATOM     69  C   UNL A   1      43.028  26.733  34.514  1.00  0.00     0.059 A 
ATOM     70  F   UNL A   1      42.876  26.967  32.190  1.00  0.00    -0.206 F 
ATOM     71  C   UNL A   1      43.488  27.201  35.741  1.00  0.00     0.060 A 
BRANCH  71  72
ATOM     72  S   UNL A   1      43.086  26.305  37.257  1.00  0.00     0.124 S 
ATOM     73  O   UNL A   1      43.926  26.977  38.242  1.00  0.00    -0.237 OA
ATOM     74  O   UNL A   1      41.649  26.532  37.387  1.00  0.00    -0.237 OA
ATOM     75  O   UNL A   1      43.465  24.928  36.951  1.00  0.00    -0.744 OA
ENDBRANCH  71  72
ENDBRANCH  39  64
ENDBRANCH  13  14
ENDBRANCH   6   8
ENDBRANCH   5   6
ENDBRANCH   4   5
ENDBRANCH   3   4
ENDBRANCH   2   3
ENDBRANCH   1   2
BRANCH   1  76
ATOM     76  C   UNL A   1      34.447  24.633  22.992  1.00  0.00     0.261 C 
BRANCH  76  77
ATOM     77  O   UNL A   1      33.031  24.843  22.976  1.00  0.00    -0.461 OA
BRANCH  77  78
ATOM     78  C   UNL A   1      32.716  26.167  23.006  1.00  0.00     0.335 C 
ATOM     79  O   UNL A   1      33.543  27.073  22.899  1.00  0.00    -0.249 OA
BRANCH  78  80
ATOM     80  C   UNL A   1      31.215  26.443  23.010  1.00  0.00     0.244 C 
ATOM     81  C   UNL A   1      30.646  27.809  22.763  1.00  0.00     0.072 A 
ATOM     82  N   UNL A   1      30.397  25.814  24.097  1.00  0.00    -0.323 N 
ATOM     83  N   UNL A   1      31.168  28.896  22.117  1.00  0.00    -0.346 N 
ATOM     84  C   UNL A   1      29.334  28.154  23.031  1.00  0.00     0.066 A 
ATOM     85  C   UNL A   1      28.967  25.824  23.753  1.00  0.00     0.127 C 
ATOM     86  C   UNL A   1      30.152  29.817  22.006  1.00  0.00     0.197 A 
ATOM     87  H   UNL A   1      32.092  28.999  21.795  1.00  0.00     0.167 HD
ATOM     88  N   UNL A   1      29.033  29.392  22.554  1.00  0.00    -0.242 NA
ATOM     89  C   UNL A   1      28.379  27.253  23.722  1.00  0.00     0.080 C 
BRANCH  82  90
ATOM     90  C   UNL A   1      30.953  25.634  25.356  1.00  0.00     0.223 C 
ATOM     91  O   UNL A   1      31.318  26.615  26.014  1.00  0.00    -0.275 OA
BRANCH  90  92
ATOM     92  C   UNL A   1      31.366  24.292  25.970  1.00  0.00     0.100 C 
BRANCH  92  93
ATOM     93  C   UNL A   1      31.090  22.956  25.332  1.00  0.00     0.015 C 
BRANCH  93  94
ATOM     94  C   UNL A   1      32.158  21.887  25.368  1.00  0.00     0.038 C 
BRANCH  94  95
ATOM     95  C   UNL A   1      32.126  20.668  24.464  1.00  0.00    -0.023 A 
ATOM     96  C   UNL A   1      31.903  20.834  23.106  1.00  0.00     0.087 A 
ATOM     97  C   UNL A   1      32.454  19.251  24.631  1.00  0.00     0.003 A 
ATOM     98  N   UNL A   1      32.295  19.707  22.452  1.00  0.00    -0.361 N 
ATOM     99  C   UNL A   1      32.702  18.753  23.346  1.00  0.00     0.046 A 
ATOM    100  C   UNL A   1      32.676  18.324  25.685  1.00  0.00     0.010 A 
ATOM    101  H   UNL A   1      32.287  19.594  21.474  1.00  0.00     0.166 HD
ATOM    102  C   UNL A   1      33.264  17.491  23.096  1.00  0.00     0.026 A 
ATOM    103  C   UNL A   1      33.070  17.001  25.441  1.00  0.00     0.001 A 
ATOM    104  C   UNL A   1      33.401  16.605  24.160  1.00  0.00     0.002 A 
ENDBRANCH  94  95
ENDBRANCH  93  94
ENDBRANCH  92  93
ENDBRANCH  90  92
ENDBRANCH  82  90
ENDBRANCH  78  80
ENDBRANCH  77  78
ENDBRANCH  76  77
ENDBRANCH   1  76
TORSDOF 22
ENDMDL
