MODEL 1
REMARK VINA RESULT:     -10.7      0.000      0.000
REMARK SMILES O=C(CCC(=O)N1CCN(S(=O)(=O)c2cccs2)CC1)OCCOCCOC(=O)c1ccc(-c2c3nc(c(-c4c(F)cc(S(=O)(=O)[O-])cc4F)c4ccc([nH]4)c(-c4c(F)cc(S(=O)(=O)[O-])cc4F)c4nc(c(-c5c(F)cc(S(=O)(=O)[O-])cc5F)c5ccc2[nH]5)C=C4)C=C3)cc1
REMARK SMILES IDX 23 1 22 2 21 3 2 4 1 5 3 6 4 7 5 8 6 9 7 10 8 11 20 12 9 13
REMARK SMILES IDX 19 14 10 15 11 16 12 17 13 18 14 19 15 20 18 21 16 22 17 23
REMARK SMILES IDX 24 24 25 25 26 26 27 27 28 28 29 29 30 30 31 31 95 32 32 33
REMARK SMILES IDX 94 34 33 35 34 36 35 37 88 38 36 39 93 40 87 41 89 42 37 43
REMARK SMILES IDX 92 44 86 45 85 46 38 48 72 49 51 50 71 51 52 52 55 53 70 54
REMARK SMILES IDX 90 55 53 56 54 57 69 59 91 60 56 61 39 62 40 63 49 64 41 65
REMARK SMILES IDX 42 66 48 67 50 68 43 69 44 70 45 71 46 72 47 73 73 74 74 75
REMARK SMILES IDX 83 76 75 77 76 78 82 79 84 80 77 81 78 82 79 83 80 84 81 85
REMARK SMILES IDX 57 86 58 87 67 88 59 89 60 90 66 91 68 92 61 93 62 94 63 95
REMARK SMILES IDX 64 96 65 97
REMARK H PARENT 89 47 55 58
REMARK Flexibility Score: inf
ROOT
ATOM      1  C   UNL A   1      33.738  34.969  29.916  1.00  0.00     0.202 C 
ENDROOT
BRANCH   1   2
ATOM      2  C   UNL A   1      33.489  34.560  28.460  1.00  0.00     0.261 C 
BRANCH   2   3
ATOM      3  O   UNL A   1      33.515  33.145  28.221  1.00  0.00    -0.463 OA
BRANCH   3   4
ATOM      4  C   UNL A   1      32.679  32.501  27.381  1.00  0.00     0.306 C 
ATOM      5  O   UNL A   1      31.707  33.093  26.912  1.00  0.00    -0.252 OA
BRANCH   4   6
ATOM      6  C   UNL A   1      32.999  31.096  26.969  1.00  0.00     0.132 C 
BRANCH   6   7
ATOM      7  C   UNL A   1      31.827  30.457  26.242  1.00  0.00     0.112 C 
BRANCH   7   8
ATOM      8  C   UNL A   1      31.746  28.949  26.408  1.00  0.00     0.223 C 
ATOM      9  O   UNL A   1      31.770  28.478  27.548  1.00  0.00    -0.275 OA
ATOM     10  N   UNL A   1      31.638  28.145  25.278  1.00  0.00    -0.340 N 
ATOM     11  C   UNL A   1      31.468  26.696  25.503  1.00  0.00     0.136 C 
ATOM     12  C   UNL A   1      32.117  28.545  23.947  1.00  0.00     0.136 C 
ATOM     13  C   UNL A   1      30.913  25.934  24.285  1.00  0.00     0.124 C 
ATOM     14  C   UNL A   1      31.574  27.726  22.778  1.00  0.00     0.124 C 
ATOM     15  N   UNL A   1      31.662  26.269  23.027  1.00  0.00    -0.194 NA
BRANCH  15  16
ATOM     16  S   UNL A   1      33.193  25.519  22.934  1.00  0.00     0.252 S 
ATOM     17  O   UNL A   1      33.596  25.501  21.543  1.00  0.00    -0.206 OA
ATOM     18  O   UNL A   1      34.037  26.130  23.936  1.00  0.00    -0.206 OA
BRANCH  16  19
ATOM     19  C   UNL A   1      33.054  23.789  23.333  1.00  0.00     0.135 A 
ATOM     20  C   UNL A   1      32.288  22.790  22.757  1.00  0.00     0.033 A 
ATOM     21  S   UNL A   1      34.021  23.183  24.603  1.00  0.00    -0.131 S 
ATOM     22  C   UNL A   1      32.543  21.511  23.327  1.00  0.00     0.013 A 
ATOM     23  C   UNL A   1      33.485  21.579  24.329  1.00  0.00     0.066 A 
ENDBRANCH  16  19
ENDBRANCH  15  16
ENDBRANCH   7   8
ENDBRANCH   6   7
ENDBRANCH   4   6
ENDBRANCH   3   4
ENDBRANCH   2   3
ENDBRANCH   1   2
BRANCH   1  24
ATOM     24  O   UNL A   1      33.841  33.962  30.912  1.00  0.00    -0.374 OA
BRANCH  24  25
ATOM     25  C   UNL A   1      35.100  33.657  31.502  1.00  0.00     0.202 C 
BRANCH  25  26
ATOM     26  C   UNL A   1      35.544  32.207  31.739  1.00  0.00     0.261 C 
BRANCH  26  27
ATOM     27  O   UNL A   1      35.973  31.491  30.570  1.00  0.00    -0.460 OA
BRANCH  27  28
ATOM     28  C   UNL A   1      36.670  30.361  30.841  1.00  0.00     0.338 C 
ATOM     29  O   UNL A   1      36.236  29.339  31.350  1.00  0.00    -0.246 OA
BRANCH  28  30
ATOM     30  C   UNL A   1      38.048  30.443  30.334  1.00  0.00     0.060 A 
ATOM     31  C   UNL A   1      38.248  30.261  28.961  1.00  0.00     0.016 A 
ATOM     32  C   UNL A   1      39.133  30.497  31.212  1.00  0.00     0.016 A 
ATOM     33  C   UNL A   1      39.534  30.061  28.469  1.00  0.00     0.010 A 
ATOM     34  C   UNL A   1      40.425  30.288  30.715  1.00  0.00     0.010 A 
ATOM     35  C   UNL A   1      40.623  30.015  29.350  1.00  0.00    -0.014 A 
BRANCH  35  36
ATOM     36  C   UNL A   1      41.926  29.515  28.847  1.00  0.00     0.031 A 
ATOM     37  C   UNL A   1      43.092  30.465  28.751  1.00  0.00     0.074 A 
ATOM     38  C   UNL A   1      42.089  28.213  28.551  1.00  0.00     0.049 A 
ATOM     39  N   UNL A   1      44.323  30.232  28.375  1.00  0.00    -0.248 NA
ATOM     40  C   UNL A   1      42.835  31.863  29.132  1.00  0.00     0.031 C 
ATOM     41  C   UNL A   1      41.042  27.199  28.628  1.00  0.00     0.029 A 
ATOM     42  N   UNL A   1      43.196  27.525  28.124  1.00  0.00    -0.354 N 
ATOM     43  C   UNL A   1      44.991  31.446  28.485  1.00  0.00     0.074 A 
ATOM     44  C   UNL A   1      44.017  32.426  28.920  1.00  0.00     0.031 C 
ATOM     45  C   UNL A   1      41.549  26.016  28.241  1.00  0.00     0.029 A 
ATOM     46  C   UNL A   1      42.954  26.194  27.881  1.00  0.00     0.049 A 
ATOM     47  H   UNL A   1      44.078  27.944  28.002  1.00  0.00     0.167 HD
ATOM     48  C   UNL A   1      46.300  31.718  28.263  1.00  0.00     0.037 A 
ATOM     49  C   UNL A   1      43.773  25.232  27.409  1.00  0.00     0.037 A 
ATOM     50  C   UNL A   1      47.262  30.741  27.821  1.00  0.00     0.049 A 
ATOM     51  C   UNL A   1      45.213  25.569  27.125  1.00  0.00     0.074 A 
ATOM     52  C   UNL A   1      48.611  30.916  27.560  1.00  0.00     0.029 A 
ATOM     53  N   UNL A   1      46.980  29.406  27.573  1.00  0.00    -0.354 N 
ATOM     54  N   UNL A   1      45.835  26.718  27.251  1.00  0.00    -0.248 NA
ATOM     55  C   UNL A   1      46.068  24.473  26.650  1.00  0.00     0.031 C 
ATOM     56  C   UNL A   1      49.134  29.696  27.116  1.00  0.00     0.029 A 
ATOM     57  C   UNL A   1      48.124  28.749  27.148  1.00  0.00     0.049 A 
ATOM     58  H   UNL A   1      46.097  28.985  27.682  1.00  0.00     0.167 HD
ATOM     59  C   UNL A   1      47.156  26.480  26.885  1.00  0.00     0.074 A 
ATOM     60  C   UNL A   1      47.248  25.071  26.561  1.00  0.00     0.031 C 
ATOM     61  C   UNL A   1      48.198  27.347  26.819  1.00  0.00     0.037 A 
BRANCH  48  62
ATOM     62  C   UNL A   1      46.766  33.130  28.486  1.00  0.00     0.058 A 
ATOM     63  C   UNL A   1      46.669  34.105  27.478  1.00  0.00     0.135 A 
ATOM     64  C   UNL A   1      47.276  33.530  29.732  1.00  0.00     0.135 A 
ATOM     65  F   UNL A   1      46.207  33.775  26.262  1.00  0.00    -0.206 F 
ATOM     66  C   UNL A   1      47.078  35.418  27.693  1.00  0.00     0.059 A 
ATOM     67  C   UNL A   1      47.667  34.843  29.977  1.00  0.00     0.059 A 
ATOM     68  F   UNL A   1      47.395  32.639  30.730  1.00  0.00    -0.206 F 
ATOM     69  C   UNL A   1      47.574  35.778  28.947  1.00  0.00     0.060 A 
BRANCH  69  70
ATOM     70  S   UNL A   1      48.082  37.490  29.214  1.00  0.00     0.124 S 
ATOM     71  O   UNL A   1      48.772  37.394  30.497  1.00  0.00    -0.237 OA
ATOM     72  O   UNL A   1      48.933  37.747  28.056  1.00  0.00    -0.237 OA
ATOM     73  O   UNL A   1      46.819  38.222  29.235  1.00  0.00    -0.744 OA
ENDBRANCH  69  70
ENDBRANCH  48  62
BRANCH  49  74
ATOM     74  C   UNL A   1      43.246  23.862  27.168  1.00  0.00     0.058 A 
ATOM     75  C   UNL A   1      42.941  23.411  25.876  1.00  0.00     0.135 A 
ATOM     76  C   UNL A   1      43.030  22.977  28.235  1.00  0.00     0.135 A 
ATOM     77  F   UNL A   1      43.118  24.224  24.822  1.00  0.00    -0.206 F 
ATOM     78  C   UNL A   1      42.419  22.142  25.650  1.00  0.00     0.059 A 
ATOM     79  C   UNL A   1      42.538  21.691  28.033  1.00  0.00     0.059 A 
ATOM     80  F   UNL A   1      43.308  23.357  29.492  1.00  0.00    -0.206 F 
ATOM     81  C   UNL A   1      42.222  21.287  26.736  1.00  0.00     0.060 A 
BRANCH  81  82
ATOM     82  S   UNL A   1      41.577  19.628  26.430  1.00  0.00     0.124 S 
ATOM     83  O   UNL A   1      41.880  18.957  27.688  1.00  0.00    -0.237 OA
ATOM     84  O   UNL A   1      40.165  19.889  26.170  1.00  0.00    -0.237 OA
ATOM     85  O   UNL A   1      42.344  19.176  25.272  1.00  0.00    -0.744 OA
ENDBRANCH  81  82
ENDBRANCH  49  74
BRANCH  61  86
ATOM     86  C   UNL A   1      49.529  26.786  26.396  1.00  0.00     0.058 A 
ATOM     87  C   UNL A   1      50.374  26.128  27.304  1.00  0.00     0.135 A 
ATOM     88  C   UNL A   1      49.963  26.901  25.065  1.00  0.00     0.135 A 
ATOM     89  F   UNL A   1      50.010  25.990  28.589  1.00  0.00    -0.206 F 
ATOM     90  C   UNL A   1      51.622  25.647  26.920  1.00  0.00     0.059 A 
ATOM     91  C   UNL A   1      51.194  26.400  24.652  1.00  0.00     0.059 A 
ATOM     92  F   UNL A   1      49.188  27.505  24.150  1.00  0.00    -0.206 F 
ATOM     93  C   UNL A   1      52.026  25.795  25.592  1.00  0.00     0.060 A 
BRANCH  93  94
ATOM     94  S   UNL A   1      53.652  25.179  25.106  1.00  0.00     0.124 S 
ATOM     95  O   UNL A   1      53.698  25.553  23.697  1.00  0.00    -0.237 OA
ATOM     96  O   UNL A   1      54.547  25.921  25.989  1.00  0.00    -0.237 OA
ATOM     97  O   UNL A   1      53.567  23.746  25.374  1.00  0.00    -0.744 OA
ENDBRANCH  93  94
ENDBRANCH  61  86
ENDBRANCH  35  36
ENDBRANCH  28  30
ENDBRANCH  27  28
ENDBRANCH  26  27
ENDBRANCH  25  26
ENDBRANCH  24  25
ENDBRANCH   1  24
TORSDOF 21
ENDMDL
MODEL 2
REMARK VINA RESULT:     -10.6      1.058      2.084
REMARK SMILES O=C(CCC(=O)N1CCN(S(=O)(=O)c2cccs2)CC1)OCCOCCOC(=O)c1ccc(-c2c3nc(c(-c4c(F)cc(S(=O)(=O)[O-])cc4F)c4ccc([nH]4)c(-c4c(F)cc(S(=O)(=O)[O-])cc4F)c4nc(c(-c5c(F)cc(S(=O)(=O)[O-])cc5F)c5ccc2[nH]5)C=C4)C=C3)cc1
REMARK SMILES IDX 23 1 22 2 21 3 2 4 1 5 3 6 4 7 5 8 6 9 7 10 8 11 20 12 9 13
REMARK SMILES IDX 19 14 10 15 11 16 12 17 13 18 14 19 15 20 18 21 16 22 17 23
REMARK SMILES IDX 24 24 25 25 26 26 27 27 28 28 29 29 30 30 31 31 95 32 32 33
REMARK SMILES IDX 94 34 33 35 34 36 35 37 88 38 36 39 93 40 87 41 89 42 37 43
REMARK SMILES IDX 92 44 86 45 85 46 38 48 72 49 51 50 71 51 52 52 55 53 70 54
REMARK SMILES IDX 90 55 53 56 54 57 69 59 91 60 56 61 39 62 40 63 49 64 41 65
REMARK SMILES IDX 42 66 48 67 50 68 43 69 44 70 45 71 46 72 47 73 73 74 74 75
REMARK SMILES IDX 83 76 75 77 76 78 82 79 84 80 77 81 78 82 79 83 80 84 81 85
REMARK SMILES IDX 57 86 58 87 67 88 59 89 60 90 66 91 68 92 61 93 62 94 63 95
REMARK SMILES IDX 64 96 65 97
REMARK H PARENT 89 47 55 58
REMARK Flexibility Score: inf
ROOT
ATOM      1  C   UNL A   1      34.100  34.270  29.104  1.00  0.00     0.202 C 
ENDROOT
BRANCH   1   2
ATOM      2  C   UNL A   1      33.294  33.482  28.064  1.00  0.00     0.261 C 
BRANCH   2   3
ATOM      3  O   UNL A   1      34.014  32.413  27.432  1.00  0.00    -0.463 OA
BRANCH   3   4
ATOM      4  C   UNL A   1      33.594  31.132  27.394  1.00  0.00     0.306 C 
ATOM      5  O   UNL A   1      34.308  30.241  27.854  1.00  0.00    -0.252 OA
BRANCH   4   6
ATOM      6  C   UNL A   1      32.226  30.830  26.864  1.00  0.00     0.132 C 
BRANCH   6   7
ATOM      7  C   UNL A   1      31.970  29.331  26.830  1.00  0.00     0.112 C 
BRANCH   7   8
ATOM      8  C   UNL A   1      31.886  28.752  25.428  1.00  0.00     0.223 C 
ATOM      9  O   UNL A   1      31.396  29.442  24.531  1.00  0.00    -0.275 OA
ATOM     10  N   UNL A   1      32.368  27.468  25.192  1.00  0.00    -0.340 N 
ATOM     11  C   UNL A   1      32.346  26.993  23.794  1.00  0.00     0.136 C 
ATOM     12  C   UNL A   1      32.464  26.432  26.230  1.00  0.00     0.136 C 
ATOM     13  C   UNL A   1      33.278  25.795  23.526  1.00  0.00     0.124 C 
ATOM     14  C   UNL A   1      33.361  25.244  25.894  1.00  0.00     0.124 C 
ATOM     15  N   UNL A   1      33.093  24.704  24.541  1.00  0.00    -0.194 NA
BRANCH  15  16
ATOM     16  S   UNL A   1      31.670  23.791  24.298  1.00  0.00     0.252 S 
ATOM     17  O   UNL A   1      30.861  23.903  25.494  1.00  0.00    -0.206 OA
ATOM     18  O   UNL A   1      31.133  24.161  23.009  1.00  0.00    -0.206 OA
BRANCH  16  19
ATOM     19  C   UNL A   1      32.059  22.055  24.238  1.00  0.00     0.135 A 
ATOM     20  C   UNL A   1      32.307  21.152  25.258  1.00  0.00     0.033 A 
ATOM     21  S   UNL A   1      32.119  21.303  22.707  1.00  0.00    -0.131 S 
ATOM     22  C   UNL A   1      32.491  19.825  24.777  1.00  0.00     0.013 A 
ATOM     23  C   UNL A   1      32.389  19.761  23.405  1.00  0.00     0.066 A 
ENDBRANCH  16  19
ENDBRANCH  15  16
ENDBRANCH   7   8
ENDBRANCH   6   7
ENDBRANCH   4   6
ENDBRANCH   3   4
ENDBRANCH   2   3
ENDBRANCH   1   2
BRANCH   1  24
ATOM     24  O   UNL A   1      33.888  34.016  30.485  1.00  0.00    -0.374 OA
BRANCH  24  25
ATOM     25  C   UNL A   1      34.969  33.609  31.318  1.00  0.00     0.202 C 
BRANCH  25  26
ATOM     26  C   UNL A   1      35.243  32.127  31.608  1.00  0.00     0.261 C 
BRANCH  26  27
ATOM     27  O   UNL A   1      35.912  31.404  30.564  1.00  0.00    -0.460 OA
BRANCH  27  28
ATOM     28  C   UNL A   1      36.662  30.364  31.006  1.00  0.00     0.338 C 
ATOM     29  O   UNL A   1      36.268  29.398  31.641  1.00  0.00    -0.246 OA
BRANCH  28  30
ATOM     30  C   UNL A   1      38.049  30.457  30.525  1.00  0.00     0.060 A 
ATOM     31  C   UNL A   1      38.263  30.404  29.144  1.00  0.00     0.016 A 
ATOM     32  C   UNL A   1      39.122  30.396  31.418  1.00  0.00     0.016 A 
ATOM     33  C   UNL A   1      39.551  30.216  28.650  1.00  0.00     0.010 A 
ATOM     34  C   UNL A   1      40.415  30.200  30.918  1.00  0.00     0.010 A 
ATOM     35  C   UNL A   1      40.625  30.055  29.535  1.00  0.00    -0.014 A 
BRANCH  35  36
ATOM     36  C   UNL A   1      41.922  29.570  29.002  1.00  0.00     0.031 A 
ATOM     37  C   UNL A   1      43.082  30.526  28.905  1.00  0.00     0.074 A 
ATOM     38  C   UNL A   1      42.084  28.275  28.677  1.00  0.00     0.049 A 
ATOM     39  N   UNL A   1      44.308  30.306  28.505  1.00  0.00    -0.248 NA
ATOM     40  C   UNL A   1      42.827  31.916  29.319  1.00  0.00     0.031 C 
ATOM     41  C   UNL A   1      41.042  27.255  28.751  1.00  0.00     0.029 A 
ATOM     42  N   UNL A   1      43.186  27.600  28.218  1.00  0.00    -0.354 N 
ATOM     43  C   UNL A   1      44.973  31.520  28.629  1.00  0.00     0.074 A 
ATOM     44  C   UNL A   1      44.004  32.486  29.099  1.00  0.00     0.031 C 
ATOM     45  C   UNL A   1      41.547  26.083  28.331  1.00  0.00     0.029 A 
ATOM     46  C   UNL A   1      42.945  26.273  27.952  1.00  0.00     0.049 A 
ATOM     47  H   UNL A   1      44.065  28.024  28.090  1.00  0.00     0.167 HD
ATOM     48  C   UNL A   1      46.278  31.801  28.391  1.00  0.00     0.037 A 
ATOM     49  C   UNL A   1      43.759  25.324  27.448  1.00  0.00     0.037 A 
ATOM     50  C   UNL A   1      47.237  30.836  27.914  1.00  0.00     0.049 A 
ATOM     51  C   UNL A   1      45.194  25.672  27.148  1.00  0.00     0.074 A 
ATOM     52  C   UNL A   1      48.580  31.022  27.635  1.00  0.00     0.029 A 
ATOM     53  N   UNL A   1      46.955  29.505  27.644  1.00  0.00    -0.354 N 
ATOM     54  N   UNL A   1      45.813  26.821  27.287  1.00  0.00    -0.248 NA
ATOM     55  C   UNL A   1      46.045  24.589  26.637  1.00  0.00     0.031 C 
ATOM     56  C   UNL A   1      49.100  29.813  27.159  1.00  0.00     0.029 A 
ATOM     57  C   UNL A   1      48.094  28.861  27.187  1.00  0.00     0.049 A 
ATOM     58  H   UNL A   1      46.075  29.079  27.759  1.00  0.00     0.167 HD
ATOM     59  C   UNL A   1      47.129  26.594  26.895  1.00  0.00     0.074 A 
ATOM     60  C   UNL A   1      47.221  25.192  26.541  1.00  0.00     0.031 C 
ATOM     61  C   UNL A   1      48.167  27.466  26.829  1.00  0.00     0.037 A 
BRANCH  48  62
ATOM     62  C   UNL A   1      46.743  33.210  28.635  1.00  0.00     0.058 A 
ATOM     63  C   UNL A   1      47.242  33.614  29.884  1.00  0.00     0.135 A 
ATOM     64  C   UNL A   1      46.733  34.159  27.599  1.00  0.00     0.135 A 
ATOM     65  F   UNL A   1      47.258  32.754  30.915  1.00  0.00    -0.206 F 
ATOM     66  C   UNL A   1      47.696  34.911  30.103  1.00  0.00     0.059 A 
ATOM     67  C   UNL A   1      47.205  35.454  27.788  1.00  0.00     0.059 A 
ATOM     68  F   UNL A   1      46.263  33.829  26.386  1.00  0.00    -0.206 F 
ATOM     69  C   UNL A   1      47.675  35.825  29.047  1.00  0.00     0.060 A 
BRANCH  69  70
ATOM     70  S   UNL A   1      48.284  37.498  29.343  1.00  0.00     0.124 S 
ATOM     71  O   UNL A   1      48.474  37.986  27.980  1.00  0.00    -0.237 OA
ATOM     72  O   UNL A   1      47.183  38.105  30.085  1.00  0.00    -0.237 OA
ATOM     73  O   UNL A   1      49.509  37.286  30.109  1.00  0.00    -0.744 OA
ENDBRANCH  69  70
ENDBRANCH  48  62
BRANCH  49  74
ATOM     74  C   UNL A   1      43.234  23.957  27.188  1.00  0.00     0.058 A 
ATOM     75  C   UNL A   1      43.010  23.047  28.232  1.00  0.00     0.135 A 
ATOM     76  C   UNL A   1      42.952  23.531  25.881  1.00  0.00     0.135 A 
ATOM     77  F   UNL A   1      43.276  23.401  29.500  1.00  0.00    -0.206 F 
ATOM     78  C   UNL A   1      42.548  21.757  27.989  1.00  0.00     0.059 A 
ATOM     79  C   UNL A   1      42.461  22.257  25.615  1.00  0.00     0.059 A 
ATOM     80  F   UNL A   1      43.145  24.363  24.846  1.00  0.00    -0.206 F 
ATOM     81  C   UNL A   1      42.275  21.372  26.676  1.00  0.00     0.060 A 
BRANCH  81  82
ATOM     82  S   UNL A   1      41.643  19.706  26.375  1.00  0.00     0.124 S 
ATOM     83  O   UNL A   1      42.409  19.308  25.200  1.00  0.00    -0.237 OA
ATOM     84  O   UNL A   1      41.977  19.020  27.618  1.00  0.00    -0.237 OA
ATOM     85  O   UNL A   1      40.216  19.922  26.153  1.00  0.00    -0.744 OA
ENDBRANCH  81  82
ENDBRANCH  49  74
BRANCH  61  86
ATOM     86  C   UNL A   1      49.493  26.919  26.374  1.00  0.00     0.058 A 
ATOM     87  C   UNL A   1      49.940  27.074  25.051  1.00  0.00     0.135 A 
ATOM     88  C   UNL A   1      50.331  26.237  27.271  1.00  0.00     0.135 A 
ATOM     89  F   UNL A   1      49.178  27.716  24.152  1.00  0.00    -0.206 F 
ATOM     90  C   UNL A   1      51.148  26.531  24.622  1.00  0.00     0.059 A 
ATOM     91  C   UNL A   1      51.557  25.712  26.872  1.00  0.00     0.059 A 
ATOM     92  F   UNL A   1      49.962  26.074  28.552  1.00  0.00    -0.206 F 
ATOM     93  C   UNL A   1      51.945  25.844  25.539  1.00  0.00     0.060 A 
BRANCH  93  94
ATOM     94  S   UNL A   1      53.504  25.133  24.971  1.00  0.00     0.124 S 
ATOM     95  O   UNL A   1      53.529  25.558  23.575  1.00  0.00    -0.237 OA
ATOM     96  O   UNL A   1      54.481  25.775  25.845  1.00  0.00    -0.237 OA
ATOM     97  O   UNL A   1      53.325  23.701  25.189  1.00  0.00    -0.744 OA
ENDBRANCH  93  94
ENDBRANCH  61  86
ENDBRANCH  35  36
ENDBRANCH  28  30
ENDBRANCH  27  28
ENDBRANCH  26  27
ENDBRANCH  25  26
ENDBRANCH  24  25
ENDBRANCH   1  24
TORSDOF 21
ENDMDL
MODEL 3
REMARK VINA RESULT:     -10.2      1.837      8.519
REMARK SMILES O=C(CCC(=O)N1CCN(S(=O)(=O)c2cccs2)CC1)OCCOCCOC(=O)c1ccc(-c2c3nc(c(-c4c(F)cc(S(=O)(=O)[O-])cc4F)c4ccc([nH]4)c(-c4c(F)cc(S(=O)(=O)[O-])cc4F)c4nc(c(-c5c(F)cc(S(=O)(=O)[O-])cc5F)c5ccc2[nH]5)C=C4)C=C3)cc1
REMARK SMILES IDX 23 1 22 2 21 3 2 4 1 5 3 6 4 7 5 8 6 9 7 10 8 11 20 12 9 13
REMARK SMILES IDX 19 14 10 15 11 16 12 17 13 18 14 19 15 20 18 21 16 22 17 23
REMARK SMILES IDX 24 24 25 25 26 26 27 27 28 28 29 29 30 30 31 31 95 32 32 33
REMARK SMILES IDX 94 34 33 35 34 36 35 37 88 38 36 39 93 40 87 41 89 42 37 43
REMARK SMILES IDX 92 44 86 45 85 46 38 48 72 49 51 50 71 51 52 52 55 53 70 54
REMARK SMILES IDX 90 55 53 56 54 57 69 59 91 60 56 61 39 62 40 63 49 64 41 65
REMARK SMILES IDX 42 66 48 67 50 68 43 69 44 70 45 71 46 72 47 73 73 74 74 75
REMARK SMILES IDX 83 76 75 77 76 78 82 79 84 80 77 81 78 82 79 83 80 84 81 85
REMARK SMILES IDX 57 86 58 87 67 88 59 89 60 90 66 91 68 92 61 93 62 94 63 95
REMARK SMILES IDX 64 96 65 97
REMARK H PARENT 89 47 55 58
REMARK Flexibility Score: inf
ROOT
ATOM      1  C   UNL A   1      33.686  30.789  27.621  1.00  0.00     0.202 C 
ENDROOT
BRANCH   1   2
ATOM      2  C   UNL A   1      32.736  30.389  26.485  1.00  0.00     0.261 C 
BRANCH   2   3
ATOM      3  O   UNL A   1      33.375  29.765  25.361  1.00  0.00    -0.463 OA
BRANCH   3   4
ATOM      4  C   UNL A   1      32.884  28.693  24.706  1.00  0.00     0.306 C 
ATOM      5  O   UNL A   1      31.729  28.714  24.279  1.00  0.00    -0.252 OA
BRANCH   4   6
ATOM      6  C   UNL A   1      33.785  27.526  24.440  1.00  0.00     0.132 C 
BRANCH   6   7
ATOM      7  C   UNL A   1      32.989  26.308  24.001  1.00  0.00     0.112 C 
BRANCH   7   8
ATOM      8  C   UNL A   1      32.651  25.352  25.133  1.00  0.00     0.223 C 
ATOM      9  O   UNL A   1      32.591  25.794  26.282  1.00  0.00    -0.275 OA
ATOM     10  N   UNL A   1      32.410  24.013  24.843  1.00  0.00    -0.340 N 
ATOM     11  C   UNL A   1      31.995  23.150  25.967  1.00  0.00     0.136 C 
ATOM     12  C   UNL A   1      32.953  23.326  23.662  1.00  0.00     0.136 C 
ATOM     13  C   UNL A   1      31.320  21.836  25.531  1.00  0.00     0.124 C 
ATOM     14  C   UNL A   1      32.281  22.003  23.302  1.00  0.00     0.124 C 
ATOM     15  N   UNL A   1      32.118  21.120  24.480  1.00  0.00    -0.194 NA
BRANCH  15  16
ATOM     16  S   UNL A   1      33.499  20.331  25.102  1.00  0.00     0.252 S 
ATOM     17  O   UNL A   1      34.657  20.839  24.395  1.00  0.00    -0.206 OA
ATOM     18  O   UNL A   1      33.427  20.404  26.543  1.00  0.00    -0.206 OA
BRANCH  16  19
ATOM     19  C   UNL A   1      33.478  18.609  24.650  1.00  0.00     0.135 A 
ATOM     20  C   UNL A   1      34.017  17.959  23.553  1.00  0.00     0.033 A 
ATOM     21  S   UNL A   1      32.714  17.515  25.715  1.00  0.00    -0.131 S 
ATOM     22  C   UNL A   1      33.849  16.547  23.621  1.00  0.00     0.013 A 
ATOM     23  C   UNL A   1      33.176  16.168  24.760  1.00  0.00     0.066 A 
ENDBRANCH  16  19
ENDBRANCH  15  16
ENDBRANCH   7   8
ENDBRANCH   6   7
ENDBRANCH   4   6
ENDBRANCH   3   4
ENDBRANCH   2   3
ENDBRANCH   1   2
BRANCH   1  24
ATOM     24  O   UNL A   1      34.374  32.028  27.546  1.00  0.00    -0.374 OA
BRANCH  24  25
ATOM     25  C   UNL A   1      35.091  32.524  28.672  1.00  0.00     0.202 C 
BRANCH  25  26
ATOM     26  C   UNL A   1      35.433  31.621  29.866  1.00  0.00     0.261 C 
BRANCH  26  27
ATOM     27  O   UNL A   1      35.998  30.343  29.534  1.00  0.00    -0.460 OA
BRANCH  27  28
ATOM     28  C   UNL A   1      36.830  29.845  30.481  1.00  0.00     0.338 C 
ATOM     29  O   UNL A   1      36.509  29.226  31.484  1.00  0.00    -0.246 OA
BRANCH  28  30
ATOM     30  C   UNL A   1      38.241  30.034  30.111  1.00  0.00     0.060 A 
ATOM     31  C   UNL A   1      38.564  30.018  28.750  1.00  0.00     0.016 A 
ATOM     32  C   UNL A   1      39.245  30.024  31.083  1.00  0.00     0.016 A 
ATOM     33  C   UNL A   1      39.895  29.920  28.355  1.00  0.00     0.010 A 
ATOM     34  C   UNL A   1      40.582  29.918  30.683  1.00  0.00     0.010 A 
ATOM     35  C   UNL A   1      40.906  29.811  29.318  1.00  0.00    -0.014 A 
BRANCH  35  36
ATOM     36  C   UNL A   1      42.269  29.417  28.881  1.00  0.00     0.031 A 
ATOM     37  C   UNL A   1      42.524  27.993  28.462  1.00  0.00     0.074 A 
ATOM     38  C   UNL A   1      43.248  30.335  28.789  1.00  0.00     0.049 A 
ATOM     39  N   UNL A   1      43.623  27.444  28.014  1.00  0.00    -0.248 NA
ATOM     40  C   UNL A   1      41.386  27.064  28.557  1.00  0.00     0.031 C 
ATOM     41  C   UNL A   1      43.112  31.744  29.145  1.00  0.00     0.029 A 
ATOM     42  N   UNL A   1      44.549  30.215  28.372  1.00  0.00    -0.354 N 
ATOM     43  C   UNL A   1      43.310  26.113  27.762  1.00  0.00     0.074 A 
ATOM     44  C   UNL A   1      41.928  25.924  28.150  1.00  0.00     0.031 C 
ATOM     45  C   UNL A   1      44.290  32.360  28.950  1.00  0.00     0.029 A 
ATOM     46  C   UNL A   1      45.264  31.385  28.464  1.00  0.00     0.049 A 
ATOM     47  H   UNL A   1      44.933  29.373  28.038  1.00  0.00     0.167 HD
ATOM     48  C   UNL A   1      44.095  25.141  27.238  1.00  0.00     0.037 A 
ATOM     49  C   UNL A   1      46.561  31.635  28.197  1.00  0.00     0.037 A 
ATOM     50  C   UNL A   1      45.473  25.333  26.862  1.00  0.00     0.049 A 
ATOM     51  C   UNL A   1      47.427  30.527  27.659  1.00  0.00     0.074 A 
ATOM     52  C   UNL A   1      46.357  24.410  26.328  1.00  0.00     0.029 A 
ATOM     53  N   UNL A   1      46.169  26.526  26.981  1.00  0.00    -0.354 N 
ATOM     54  N   UNL A   1      47.112  29.277  27.409  1.00  0.00    -0.248 NA
ATOM     55  C   UNL A   1      48.823  30.867  27.350  1.00  0.00     0.031 C 
ATOM     56  C   UNL A   1      47.598  25.036  26.162  1.00  0.00     0.029 A 
ATOM     57  C   UNL A   1      47.474  26.362  26.545  1.00  0.00     0.049 A 
ATOM     58  H   UNL A   1      45.792  27.368  27.324  1.00  0.00     0.167 HD
ATOM     59  C   UNL A   1      48.264  28.687  26.901  1.00  0.00     0.074 A 
ATOM     60  C   UNL A   1      49.274  29.724  26.852  1.00  0.00     0.031 C 
ATOM     61  C   UNL A   1      48.471  27.403  26.513  1.00  0.00     0.037 A 
BRANCH  48  62
ATOM     62  C   UNL A   1      43.486  23.779  27.048  1.00  0.00     0.058 A 
ATOM     63  C   UNL A   1      43.108  23.314  25.777  1.00  0.00     0.135 A 
ATOM     64  C   UNL A   1      43.315  22.910  28.138  1.00  0.00     0.135 A 
ATOM     65  F   UNL A   1      43.232  24.108  24.702  1.00  0.00    -0.206 F 
ATOM     66  C   UNL A   1      42.567  22.044  25.598  1.00  0.00     0.059 A 
ATOM     67  C   UNL A   1      42.799  21.627  27.978  1.00  0.00     0.059 A 
ATOM     68  F   UNL A   1      43.654  23.305  29.375  1.00  0.00    -0.206 F 
ATOM     69  C   UNL A   1      42.418  21.207  26.705  1.00  0.00     0.060 A 
BRANCH  69  70
ATOM     70  S   UNL A   1      41.731  19.557  26.451  1.00  0.00     0.124 S 
ATOM     71  O   UNL A   1      42.356  19.169  25.190  1.00  0.00    -0.237 OA
ATOM     72  O   UNL A   1      42.195  18.839  27.635  1.00  0.00    -0.237 OA
ATOM     73  O   UNL A   1      40.291  19.792  26.389  1.00  0.00    -0.744 OA
ENDBRANCH  69  70
ENDBRANCH  48  62
BRANCH  49  74
ATOM     74  C   UNL A   1      47.121  32.991  28.444  1.00  0.00     0.058 A 
ATOM     75  C   UNL A   1      47.698  33.333  29.676  1.00  0.00     0.135 A 
ATOM     76  C   UNL A   1      47.081  33.979  27.448  1.00  0.00     0.135 A 
ATOM     77  F   UNL A   1      47.750  32.428  30.667  1.00  0.00    -0.206 F 
ATOM     78  C   UNL A   1      48.194  34.609  29.921  1.00  0.00     0.059 A 
ATOM     79  C   UNL A   1      47.598  35.253  27.657  1.00  0.00     0.059 A 
ATOM     80  F   UNL A   1      46.542  33.704  26.249  1.00  0.00    -0.206 F 
ATOM     81  C   UNL A   1      48.141  35.563  28.903  1.00  0.00     0.060 A 
BRANCH  81  82
ATOM     82  S   UNL A   1      48.819  37.207  29.219  1.00  0.00     0.124 S 
ATOM     83  O   UNL A   1      49.229  37.095  30.614  1.00  0.00    -0.237 OA
ATOM     84  O   UNL A   1      49.899  37.289  28.241  1.00  0.00    -0.237 OA
ATOM     85  O   UNL A   1      47.688  38.094  28.964  1.00  0.00    -0.744 OA
ENDBRANCH  81  82
ENDBRANCH  49  74
BRANCH  61  86
ATOM     86  C   UNL A   1      49.839  27.059  25.985  1.00  0.00     0.058 A 
ATOM     87  C   UNL A   1      50.163  27.202  24.626  1.00  0.00     0.135 A 
ATOM     88  C   UNL A   1      50.841  26.588  26.850  1.00  0.00     0.135 A 
ATOM     89  F   UNL A   1      49.243  27.647  23.756  1.00  0.00    -0.206 F 
ATOM     90  C   UNL A   1      51.415  26.844  24.135  1.00  0.00     0.059 A 
ATOM     91  C   UNL A   1      52.109  26.254  26.385  1.00  0.00     0.059 A 
ATOM     92  F   UNL A   1      50.592  26.449  28.162  1.00  0.00    -0.206 F 
ATOM     93  C   UNL A   1      52.379  26.364  25.022  1.00  0.00     0.060 A 
BRANCH  93  94
ATOM     94  S   UNL A   1      53.996  25.891  24.373  1.00  0.00     0.124 S 
ATOM     95  O   UNL A   1      53.780  26.008  22.935  1.00  0.00    -0.237 OA
ATOM     96  O   UNL A   1      54.878  26.893  24.965  1.00  0.00    -0.237 OA
ATOM     97  O   UNL A   1      54.179  24.531  24.872  1.00  0.00    -0.744 OA
ENDBRANCH  93  94
ENDBRANCH  61  86
ENDBRANCH  35  36
ENDBRANCH  28  30
ENDBRANCH  27  28
ENDBRANCH  26  27
ENDBRANCH  25  26
ENDBRANCH  24  25
ENDBRANCH   1  24
TORSDOF 21
ENDMDL
