MODEL 1
REMARK VINA RESULT:     -10.3      0.000      0.000
REMARK SMILES O=C(OCCOCCOC(=O)[C@@]1([NH2+]C2CC2)CC[C@H](OC2CCC2)C1)c1ccc(-c2c3nc(c(-c4c(F)cc(S(=O)(=O)[O-])cc4F)c4ccc([nH]4)c(-c4c(F)cc(S(=O)(=O)[O-])cc4F)c4nc(c(-c5c(F)cc(S(=O)(=O)[O-])cc5F)c5ccc2[nH]5)C=C4)C=C3)cc1
REMARK SMILES IDX 5 1 4 2 3 3 2 4 1 5 26 6 27 7 91 8 28 9 90 10 29 11 30 12
REMARK SMILES IDX 31 13 84 14 32 15 89 16 83 17 85 18 33 19 88 20 82 21 81 22
REMARK SMILES IDX 34 24 68 25 47 26 67 27 48 28 51 29 66 30 86 31 49 32 50 33
REMARK SMILES IDX 65 35 87 36 52 37 35 38 36 39 45 40 37 41 38 42 44 43 46 44
REMARK SMILES IDX 39 45 40 46 41 47 42 48 43 49 69 50 70 51 79 52 71 53 72 54
REMARK SMILES IDX 78 55 80 56 73 57 74 58 75 59 76 60 77 61 53 62 54 63 63 64
REMARK SMILES IDX 55 65 56 66 62 67 64 68 57 69 58 70 59 71 60 72 61 73 6 74
REMARK SMILES IDX 7 75 8 76 9 77 10 78 11 79 12 80 17 81 25 82 18 83 19 84
REMARK SMILES IDX 13 85 14 88 15 89 16 90 20 91 21 92 22 93 24 94 23 95
REMARK H PARENT 85 23 51 34 13 86 13 87
REMARK Flexibility Score: inf
ROOT
ATOM      1  C   UNL A   1      31.861  29.651  25.724  1.00  0.00     0.202 C 
ENDROOT
BRANCH   1   2
ATOM      2  C   UNL A   1      32.182  29.571  27.216  1.00  0.00     0.261 C 
BRANCH   2   3
ATOM      3  O   UNL A   1      33.595  29.386  27.419  1.00  0.00    -0.460 OA
BRANCH   3   4
ATOM      4  C   UNL A   1      34.446  30.281  27.981  1.00  0.00     0.338 C 
ATOM      5  O   UNL A   1      34.034  31.384  28.328  1.00  0.00    -0.246 OA
BRANCH   4   6
ATOM      6  C   UNL A   1      35.877  29.946  28.199  1.00  0.00     0.060 A 
ATOM      7  C   UNL A   1      36.846  30.075  27.202  1.00  0.00     0.016 A 
ATOM      8  C   UNL A   1      36.277  29.560  29.482  1.00  0.00     0.016 A 
ATOM      9  C   UNL A   1      38.159  29.712  27.423  1.00  0.00     0.010 A 
ATOM     10  C   UNL A   1      37.620  29.277  29.739  1.00  0.00     0.010 A 
ATOM     11  C   UNL A   1      38.560  29.344  28.701  1.00  0.00    -0.014 A 
BRANCH  11  12
ATOM     12  C   UNL A   1      39.982  29.030  28.912  1.00  0.00     0.031 A 
ATOM     13  C   UNL A   1      40.879  30.095  29.453  1.00  0.00     0.074 A 
ATOM     14  C   UNL A   1      40.409  27.773  28.687  1.00  0.00     0.049 A 
ATOM     15  N   UNL A   1      42.176  30.092  29.565  1.00  0.00    -0.248 NA
ATOM     16  C   UNL A   1      40.230  31.325  29.938  1.00  0.00     0.031 C 
ATOM     17  C   UNL A   1      39.554  26.651  28.275  1.00  0.00     0.029 A 
ATOM     18  N   UNL A   1      41.654  27.216  28.784  1.00  0.00    -0.354 N 
ATOM     19  C   UNL A   1      42.508  31.341  30.073  1.00  0.00     0.074 A 
ATOM     20  C   UNL A   1      41.274  32.064  30.283  1.00  0.00     0.031 C 
ATOM     21  C   UNL A   1      40.300  25.543  28.167  1.00  0.00     0.029 A 
ATOM     22  C   UNL A   1      41.692  25.894  28.401  1.00  0.00     0.049 A 
ATOM     23  H   UNL A   1      42.445  27.710  29.098  1.00  0.00     0.167 HD
ATOM     24  C   UNL A   1      43.745  31.830  30.309  1.00  0.00     0.037 A 
ATOM     25  C   UNL A   1      42.749  25.089  28.189  1.00  0.00     0.037 A 
ATOM     26  C   UNL A   1      44.938  31.055  30.103  1.00  0.00     0.049 A 
ATOM     27  C   UNL A   1      44.117  25.683  28.387  1.00  0.00     0.074 A 
ATOM     28  C   UNL A   1      46.255  31.431  30.281  1.00  0.00     0.029 A 
ATOM     29  N   UNL A   1      44.948  29.736  29.667  1.00  0.00    -0.354 N 
ATOM     30  N   UNL A   1      44.435  26.884  28.817  1.00  0.00    -0.248 NA
ATOM     31  C   UNL A   1      45.267  24.843  28.036  1.00  0.00     0.031 C 
ATOM     32  C   UNL A   1      47.063  30.351  29.907  1.00  0.00     0.029 A 
ATOM     33  C   UNL A   1      46.249  29.291  29.536  1.00  0.00     0.049 A 
ATOM     34  H   UNL A   1      44.145  29.196  29.479  1.00  0.00     0.167 HD
ATOM     35  C   UNL A   1      45.820  26.947  28.779  1.00  0.00     0.074 A 
ATOM     36  C   UNL A   1      46.280  25.651  28.317  1.00  0.00     0.031 C 
ATOM     37  C   UNL A   1      46.644  27.981  29.077  1.00  0.00     0.037 A 
BRANCH  24  38
ATOM     38  C   UNL A   1      43.863  33.267  30.720  1.00  0.00     0.058 A 
ATOM     39  C   UNL A   1      43.849  34.319  29.793  1.00  0.00     0.135 A 
ATOM     40  C   UNL A   1      43.987  33.593  32.081  1.00  0.00     0.135 A 
ATOM     41  F   UNL A   1      43.768  34.061  28.478  1.00  0.00    -0.206 F 
ATOM     42  C   UNL A   1      43.957  35.646  30.201  1.00  0.00     0.059 A 
ATOM     43  C   UNL A   1      44.078  34.912  32.512  1.00  0.00     0.059 A 
ATOM     44  F   UNL A   1      44.027  32.621  33.007  1.00  0.00    -0.206 F 
ATOM     45  C   UNL A   1      44.071  35.932  31.563  1.00  0.00     0.060 A 
BRANCH  45  46
ATOM     46  S   UNL A   1      44.196  37.659  32.080  1.00  0.00     0.124 S 
ATOM     47  O   UNL A   1      45.606  37.752  32.443  1.00  0.00    -0.237 OA
ATOM     48  O   UNL A   1      43.805  38.376  30.870  1.00  0.00    -0.237 OA
ATOM     49  O   UNL A   1      43.255  37.752  33.192  1.00  0.00    -0.744 OA
ENDBRANCH  45  46
ENDBRANCH  24  38
BRANCH  25  50
ATOM     50  C   UNL A   1      42.563  23.711  27.656  1.00  0.00     0.058 A 
ATOM     51  C   UNL A   1      42.455  22.603  28.508  1.00  0.00     0.135 A 
ATOM     52  C   UNL A   1      42.506  23.471  26.271  1.00  0.00     0.135 A 
ATOM     53  F   UNL A   1      42.510  22.772  29.838  1.00  0.00    -0.206 F 
ATOM     54  C   UNL A   1      42.326  21.308  28.011  1.00  0.00     0.059 A 
ATOM     55  C   UNL A   1      42.346  22.191  25.751  1.00  0.00     0.059 A 
ATOM     56  F   UNL A   1      42.592  24.494  25.406  1.00  0.00    -0.206 F 
ATOM     57  C   UNL A   1      42.278  21.112  26.629  1.00  0.00     0.060 A 
BRANCH  57  58
ATOM     58  S   UNL A   1      42.114  19.432  25.985  1.00  0.00     0.124 S 
ATOM     59  O   UNL A   1      42.992  19.480  24.821  1.00  0.00    -0.237 OA
ATOM     60  O   UNL A   1      42.582  18.623  27.105  1.00  0.00    -0.237 OA
ATOM     61  O   UNL A   1      40.687  19.322  25.697  1.00  0.00    -0.744 OA
ENDBRANCH  57  58
ENDBRANCH  25  50
BRANCH  37  62
ATOM     62  C   UNL A   1      48.112  27.742  28.912  1.00  0.00     0.058 A 
ATOM     63  C   UNL A   1      48.879  27.203  29.955  1.00  0.00     0.135 A 
ATOM     64  C   UNL A   1      48.733  27.966  27.673  1.00  0.00     0.135 A 
ATOM     65  F   UNL A   1      48.326  26.985  31.158  1.00  0.00    -0.206 F 
ATOM     66  C   UNL A   1      50.220  26.894  29.775  1.00  0.00     0.059 A 
ATOM     67  C   UNL A   1      50.067  27.642  27.465  1.00  0.00     0.059 A 
ATOM     68  F   UNL A   1      48.031  28.473  26.647  1.00  0.00    -0.206 F 
ATOM     69  C   UNL A   1      50.803  27.108  28.524  1.00  0.00     0.060 A 
BRANCH  69  70
ATOM     70  S   UNL A   1      52.523  26.627  28.281  1.00  0.00     0.124 S 
ATOM     71  O   UNL A   1      53.115  27.878  27.820  1.00  0.00    -0.237 OA
ATOM     72  O   UNL A   1      52.919  26.190  29.616  1.00  0.00    -0.237 OA
ATOM     73  O   UNL A   1      52.439  25.566  27.281  1.00  0.00    -0.744 OA
ENDBRANCH  69  70
ENDBRANCH  37  62
ENDBRANCH  11  12
ENDBRANCH   4   6
ENDBRANCH   3   4
ENDBRANCH   2   3
ENDBRANCH   1   2
BRANCH   1  74
ATOM     74  O   UNL A   1      31.597  28.415  25.067  1.00  0.00    -0.374 OA
BRANCH  74  75
ATOM     75  C   UNL A   1      32.475  28.031  24.001  1.00  0.00     0.202 C 
BRANCH  75  76
ATOM     76  C   UNL A   1      32.070  26.642  23.480  1.00  0.00     0.261 C 
BRANCH  76  77
ATOM     77  O   UNL A   1      32.860  25.660  24.165  1.00  0.00    -0.459 OA
BRANCH  77  78
ATOM     78  C   UNL A   1      33.217  24.609  23.364  1.00  0.00     0.368 C 
ATOM     79  O   UNL A   1      33.510  24.707  22.184  1.00  0.00    -0.245 OA
BRANCH  78  80
ATOM     80  C   UNL A   1      33.311  23.306  24.173  1.00  0.00     0.197 C 
ATOM     81  C   UNL A   1      31.990  23.050  24.916  1.00  0.00     0.084 C 
ATOM     82  C   UNL A   1      33.343  22.075  23.230  1.00  0.00     0.113 C 
ATOM     83  C   UNL A   1      31.976  21.554  25.182  1.00  0.00     0.039 C 
ATOM     84  C   UNL A   1      32.662  20.920  23.974  1.00  0.00     0.125 C 
BRANCH  80  85
ATOM     85  N   UNL A   1      34.510  23.225  25.019  1.00  0.00    -0.330 N 
ATOM     86  H   UNL A   1      34.635  22.237  25.236  1.00  0.00     0.347 HD
ATOM     87  H   UNL A   1      34.280  23.886  25.761  1.00  0.00     0.347 HD
BRANCH  85  88
ATOM     88  C   UNL A   1      35.813  23.709  24.594  1.00  0.00     0.183 C 
ATOM     89  C   UNL A   1      37.091  23.701  25.378  1.00  0.00     0.071 C 
ATOM     90  C   UNL A   1      36.893  22.710  24.274  1.00  0.00     0.071 C 
ENDBRANCH  85  88
ENDBRANCH  80  85
BRANCH  84  91
ATOM     91  O   UNL A   1      33.667  19.996  24.372  1.00  0.00    -0.375 OA
BRANCH  91  92
ATOM     92  C   UNL A   1      33.444  18.570  24.335  1.00  0.00     0.118 C 
ATOM     93  C   UNL A   1      33.042  17.947  22.976  1.00  0.00     0.032 C 
ATOM     94  C   UNL A   1      34.611  17.553  24.361  1.00  0.00     0.032 C 
ATOM     95  C   UNL A   1      33.750  16.661  23.438  1.00  0.00     0.005 C 
ENDBRANCH  91  92
ENDBRANCH  84  91
ENDBRANCH  78  80
ENDBRANCH  77  78
ENDBRANCH  76  77
ENDBRANCH  75  76
ENDBRANCH  74  75
ENDBRANCH   1  74
TORSDOF 21
ENDMDL
MODEL 2
REMARK VINA RESULT:     -10.1      1.045      2.160
REMARK SMILES O=C(OCCOCCOC(=O)[C@@]1([NH2+]C2CC2)CC[C@H](OC2CCC2)C1)c1ccc(-c2c3nc(c(-c4c(F)cc(S(=O)(=O)[O-])cc4F)c4ccc([nH]4)c(-c4c(F)cc(S(=O)(=O)[O-])cc4F)c4nc(c(-c5c(F)cc(S(=O)(=O)[O-])cc5F)c5ccc2[nH]5)C=C4)C=C3)cc1
REMARK SMILES IDX 5 1 4 2 3 3 2 4 1 5 26 6 27 7 91 8 28 9 90 10 29 11 30 12
REMARK SMILES IDX 31 13 84 14 32 15 89 16 83 17 85 18 33 19 88 20 82 21 81 22
REMARK SMILES IDX 34 24 68 25 47 26 67 27 48 28 51 29 66 30 86 31 49 32 50 33
REMARK SMILES IDX 65 35 87 36 52 37 35 38 36 39 45 40 37 41 38 42 44 43 46 44
REMARK SMILES IDX 39 45 40 46 41 47 42 48 43 49 69 50 70 51 79 52 71 53 72 54
REMARK SMILES IDX 78 55 80 56 73 57 74 58 75 59 76 60 77 61 53 62 54 63 63 64
REMARK SMILES IDX 55 65 56 66 62 67 64 68 57 69 58 70 59 71 60 72 61 73 6 74
REMARK SMILES IDX 7 75 8 76 9 77 10 78 11 79 12 80 17 81 25 82 18 83 19 84
REMARK SMILES IDX 13 85 14 88 15 89 16 90 20 91 21 92 22 93 24 94 23 95
REMARK H PARENT 85 23 51 34 13 86 13 87
REMARK Flexibility Score: inf
ROOT
ATOM      1  C   UNL A   1      33.537  28.732  25.377  1.00  0.00     0.202 C 
ENDROOT
BRANCH   1   2
ATOM      2  C   UNL A   1      32.732  29.243  26.572  1.00  0.00     0.261 C 
BRANCH   2   3
ATOM      3  O   UNL A   1      33.548  29.261  27.757  1.00  0.00    -0.460 OA
BRANCH   3   4
ATOM      4  C   UNL A   1      34.439  30.225  28.101  1.00  0.00     0.338 C 
ATOM      5  O   UNL A   1      34.059  31.380  28.260  1.00  0.00    -0.246 OA
BRANCH   4   6
ATOM      6  C   UNL A   1      35.876  29.905  28.301  1.00  0.00     0.060 A 
ATOM      7  C   UNL A   1      36.831  30.044  27.293  1.00  0.00     0.016 A 
ATOM      8  C   UNL A   1      36.296  29.524  29.579  1.00  0.00     0.016 A 
ATOM      9  C   UNL A   1      38.151  29.695  27.497  1.00  0.00     0.010 A 
ATOM     10  C   UNL A   1      37.645  29.255  29.820  1.00  0.00     0.010 A 
ATOM     11  C   UNL A   1      38.571  29.331  28.770  1.00  0.00    -0.014 A 
BRANCH  11  12
ATOM     12  C   UNL A   1      39.999  29.033  28.964  1.00  0.00     0.031 A 
ATOM     13  C   UNL A   1      40.891  30.108  29.491  1.00  0.00     0.074 A 
ATOM     14  C   UNL A   1      40.436  27.780  28.736  1.00  0.00     0.049 A 
ATOM     15  N   UNL A   1      42.190  30.120  29.587  1.00  0.00    -0.248 NA
ATOM     16  C   UNL A   1      40.236  31.333  29.982  1.00  0.00     0.031 C 
ATOM     17  C   UNL A   1      39.588  26.649  28.336  1.00  0.00     0.029 A 
ATOM     18  N   UNL A   1      41.688  27.236  28.818  1.00  0.00    -0.354 N 
ATOM     19  C   UNL A   1      42.515  31.373  30.088  1.00  0.00     0.074 A 
ATOM     20  C   UNL A   1      41.277  32.083  30.313  1.00  0.00     0.031 C 
ATOM     21  C   UNL A   1      40.344  25.548  28.222  1.00  0.00     0.029 A 
ATOM     22  C   UNL A   1      41.735  25.914  28.437  1.00  0.00     0.049 A 
ATOM     23  H   UNL A   1      42.477  27.740  29.121  1.00  0.00     0.167 HD
ATOM     24  C   UNL A   1      43.750  31.874  30.308  1.00  0.00     0.037 A 
ATOM     25  C   UNL A   1      42.798  25.120  28.214  1.00  0.00     0.037 A 
ATOM     26  C   UNL A   1      44.948  31.112  30.087  1.00  0.00     0.049 A 
ATOM     27  C   UNL A   1      44.162  25.728  28.392  1.00  0.00     0.074 A 
ATOM     28  C   UNL A   1      46.263  31.502  30.249  1.00  0.00     0.029 A 
ATOM     29  N   UNL A   1      44.966  29.792  29.654  1.00  0.00    -0.354 N 
ATOM     30  N   UNL A   1      44.472  26.934  28.816  1.00  0.00    -0.248 NA
ATOM     31  C   UNL A   1      45.315  24.899  28.029  1.00  0.00     0.031 C 
ATOM     32  C   UNL A   1      47.078  30.430  29.867  1.00  0.00     0.029 A 
ATOM     33  C   UNL A   1      46.270  29.360  29.508  1.00  0.00     0.049 A 
ATOM     34  H   UNL A   1      44.167  29.244  29.477  1.00  0.00     0.167 HD
ATOM     35  C   UNL A   1      45.856  27.010  28.761  1.00  0.00     0.074 A 
ATOM     36  C   UNL A   1      46.324  25.718  28.295  1.00  0.00     0.031 C 
ATOM     37  C   UNL A   1      46.673  28.054  29.047  1.00  0.00     0.037 A 
BRANCH  24  38
ATOM     38  C   UNL A   1      43.858  33.314  30.714  1.00  0.00     0.058 A 
ATOM     39  C   UNL A   1      43.925  33.714  32.056  1.00  0.00     0.135 A 
ATOM     40  C   UNL A   1      43.902  34.313  29.727  1.00  0.00     0.135 A 
ATOM     41  F   UNL A   1      43.853  32.803  33.039  1.00  0.00    -0.206 F 
ATOM     42  C   UNL A   1      44.029  35.058  32.407  1.00  0.00     0.059 A 
ATOM     43  C   UNL A   1      44.022  35.660  30.054  1.00  0.00     0.059 A 
ATOM     44  F   UNL A   1      43.819  33.983  28.429  1.00  0.00    -0.206 F 
ATOM     45  C   UNL A   1      44.077  36.023  31.398  1.00  0.00     0.060 A 
BRANCH  45  46
ATOM     46  S   UNL A   1      44.226  37.761  31.867  1.00  0.00     0.124 S 
ATOM     47  O   UNL A   1      45.657  37.871  32.128  1.00  0.00    -0.237 OA
ATOM     48  O   UNL A   1      43.746  38.449  30.673  1.00  0.00    -0.237 OA
ATOM     49  O   UNL A   1      43.364  37.874  33.040  1.00  0.00    -0.744 OA
ENDBRANCH  45  46
ENDBRANCH  24  38
BRANCH  25  50
ATOM     50  C   UNL A   1      42.619  23.739  27.685  1.00  0.00     0.058 A 
ATOM     51  C   UNL A   1      42.388  23.498  26.323  1.00  0.00     0.135 A 
ATOM     52  C   UNL A   1      42.658  22.624  28.542  1.00  0.00     0.135 A 
ATOM     53  F   UNL A   1      42.333  24.525  25.461  1.00  0.00    -0.206 F 
ATOM     54  C   UNL A   1      42.176  22.211  25.834  1.00  0.00     0.059 A 
ATOM     55  C   UNL A   1      42.480  21.327  28.073  1.00  0.00     0.059 A 
ATOM     56  F   UNL A   1      42.887  22.790  29.855  1.00  0.00    -0.206 F 
ATOM     57  C   UNL A   1      42.218  21.132  26.719  1.00  0.00     0.060 A 
BRANCH  57  58
ATOM     58  S   UNL A   1      41.940  19.464  26.084  1.00  0.00     0.124 S 
ATOM     59  O   UNL A   1      42.358  18.647  27.218  1.00  0.00    -0.237 OA
ATOM     60  O   UNL A   1      40.508  19.475  25.799  1.00  0.00    -0.237 OA
ATOM     61  O   UNL A   1      42.804  19.404  24.908  1.00  0.00    -0.744 OA
ENDBRANCH  57  58
ENDBRANCH  25  50
BRANCH  37  62
ATOM     62  C   UNL A   1      48.141  27.829  28.863  1.00  0.00     0.058 A 
ATOM     63  C   UNL A   1      48.923  27.283  29.891  1.00  0.00     0.135 A 
ATOM     64  C   UNL A   1      48.747  28.076  27.621  1.00  0.00     0.135 A 
ATOM     65  F   UNL A   1      48.385  27.044  31.096  1.00  0.00    -0.206 F 
ATOM     66  C   UNL A   1      50.265  26.988  29.693  1.00  0.00     0.059 A 
ATOM     67  C   UNL A   1      50.082  27.766  27.396  1.00  0.00     0.059 A 
ATOM     68  F   UNL A   1      48.031  28.591  26.610  1.00  0.00    -0.206 F 
ATOM     69  C   UNL A   1      50.833  27.224  28.439  1.00  0.00     0.060 A 
BRANCH  69  70
ATOM     70  S   UNL A   1      52.555  26.761  28.172  1.00  0.00     0.124 S 
ATOM     71  O   UNL A   1      52.421  25.696  27.182  1.00  0.00    -0.237 OA
ATOM     72  O   UNL A   1      53.143  28.006  27.689  1.00  0.00    -0.237 OA
ATOM     73  O   UNL A   1      53.001  26.337  29.495  1.00  0.00    -0.744 OA
ENDBRANCH  69  70
ENDBRANCH  37  62
ENDBRANCH  11  12
ENDBRANCH   4   6
ENDBRANCH   3   4
ENDBRANCH   2   3
ENDBRANCH   1   2
BRANCH   1  74
ATOM     74  O   UNL A   1      33.118  27.492  24.815  1.00  0.00    -0.374 OA
BRANCH  74  75
ATOM     75  C   UNL A   1      33.246  26.319  25.629  1.00  0.00     0.202 C 
BRANCH  75  76
ATOM     76  C   UNL A   1      34.332  25.405  25.042  1.00  0.00     0.261 C 
BRANCH  76  77
ATOM     77  O   UNL A   1      33.724  24.151  24.698  1.00  0.00    -0.459 OA
BRANCH  77  78
ATOM     78  C   UNL A   1      33.977  23.167  25.615  1.00  0.00     0.368 C 
ATOM     79  O   UNL A   1      34.751  23.276  26.552  1.00  0.00    -0.245 OA
BRANCH  78  80
ATOM     80  C   UNL A   1      33.073  21.947  25.378  1.00  0.00     0.197 C 
ATOM     81  C   UNL A   1      32.691  21.856  23.891  1.00  0.00     0.084 C 
ATOM     82  C   UNL A   1      33.875  20.629  25.540  1.00  0.00     0.113 C 
ATOM     83  C   UNL A   1      32.323  20.398  23.673  1.00  0.00     0.039 C 
ATOM     84  C   UNL A   1      33.251  19.603  24.587  1.00  0.00     0.125 C 
BRANCH  80  85
ATOM     85  N   UNL A   1      31.936  21.870  26.305  1.00  0.00    -0.330 N 
ATOM     86  H   UNL A   1      32.277  22.224  27.198  1.00  0.00     0.347 HD
ATOM     87  H   UNL A   1      31.665  20.890  26.214  1.00  0.00     0.347 HD
BRANCH  85  88
ATOM     88  C   UNL A   1      30.670  22.543  26.064  1.00  0.00     0.183 C 
ATOM     89  C   UNL A   1      29.603  22.868  27.065  1.00  0.00     0.071 C 
ATOM     90  C   UNL A   1      30.492  23.956  26.550  1.00  0.00     0.071 C 
ENDBRANCH  85  88
ENDBRANCH  80  85
BRANCH  84  91
ATOM     91  O   UNL A   1      32.529  18.656  25.366  1.00  0.00    -0.375 OA
BRANCH  91  92
ATOM     92  C   UNL A   1      32.408  17.276  24.962  1.00  0.00     0.118 C 
ATOM     93  C   UNL A   1      33.652  16.608  24.327  1.00  0.00     0.032 C 
ATOM     94  C   UNL A   1      32.412  16.115  25.986  1.00  0.00     0.032 C 
ATOM     95  C   UNL A   1      33.150  15.278  24.917  1.00  0.00     0.005 C 
ENDBRANCH  91  92
ENDBRANCH  84  91
ENDBRANCH  78  80
ENDBRANCH  77  78
ENDBRANCH  76  77
ENDBRANCH  75  76
ENDBRANCH  74  75
ENDBRANCH   1  74
TORSDOF 21
ENDMDL
MODEL 3
REMARK VINA RESULT:      -9.9      3.767      6.978
REMARK SMILES O=C(OCCOCCOC(=O)[C@@]1([NH2+]C2CC2)CC[C@H](OC2CCC2)C1)c1ccc(-c2c3nc(c(-c4c(F)cc(S(=O)(=O)[O-])cc4F)c4ccc([nH]4)c(-c4c(F)cc(S(=O)(=O)[O-])cc4F)c4nc(c(-c5c(F)cc(S(=O)(=O)[O-])cc5F)c5ccc2[nH]5)C=C4)C=C3)cc1
REMARK SMILES IDX 5 1 4 2 3 3 2 4 1 5 26 6 27 7 91 8 28 9 90 10 29 11 30 12
REMARK SMILES IDX 31 13 84 14 32 15 89 16 83 17 85 18 33 19 88 20 82 21 81 22
REMARK SMILES IDX 34 24 68 25 47 26 67 27 48 28 51 29 66 30 86 31 49 32 50 33
REMARK SMILES IDX 65 35 87 36 52 37 35 38 36 39 45 40 37 41 38 42 44 43 46 44
REMARK SMILES IDX 39 45 40 46 41 47 42 48 43 49 69 50 70 51 79 52 71 53 72 54
REMARK SMILES IDX 78 55 80 56 73 57 74 58 75 59 76 60 77 61 53 62 54 63 63 64
REMARK SMILES IDX 55 65 56 66 62 67 64 68 57 69 58 70 59 71 60 72 61 73 6 74
REMARK SMILES IDX 7 75 8 76 9 77 10 78 11 79 12 80 17 81 25 82 18 83 19 84
REMARK SMILES IDX 13 85 14 88 15 89 16 90 20 91 21 92 22 93 24 94 23 95
REMARK H PARENT 85 23 51 34 13 86 13 87
REMARK Flexibility Score: inf
ROOT
ATOM      1  C   UNL A   1      33.683  33.653  28.034  1.00  0.00     0.202 C 
ENDROOT
BRANCH   1   2
ATOM      2  C   UNL A   1      33.421  32.171  27.764  1.00  0.00     0.261 C 
BRANCH   2   3
ATOM      3  O   UNL A   1      34.315  31.352  28.539  1.00  0.00    -0.460 OA
BRANCH   3   4
ATOM      4  C   UNL A   1      34.818  30.148  28.170  1.00  0.00     0.338 C 
ATOM      5  O   UNL A   1      34.091  29.319  27.632  1.00  0.00    -0.246 OA
BRANCH   4   6
ATOM      6  C   UNL A   1      36.249  29.812  28.395  1.00  0.00     0.060 A 
ATOM      7  C   UNL A   1      36.730  29.323  29.611  1.00  0.00     0.016 A 
ATOM      8  C   UNL A   1      37.130  29.919  27.315  1.00  0.00     0.016 A 
ATOM      9  C   UNL A   1      38.072  29.064  29.802  1.00  0.00     0.010 A 
ATOM     10  C   UNL A   1      38.474  29.573  27.474  1.00  0.00     0.010 A 
ATOM     11  C   UNL A   1      38.945  29.155  28.726  1.00  0.00    -0.014 A 
BRANCH  11  12
ATOM     12  C   UNL A   1      40.356  28.805  28.953  1.00  0.00     0.031 A 
ATOM     13  C   UNL A   1      41.267  29.838  29.531  1.00  0.00     0.074 A 
ATOM     14  C   UNL A   1      40.759  27.544  28.709  1.00  0.00     0.049 A 
ATOM     15  N   UNL A   1      42.562  29.804  29.664  1.00  0.00    -0.248 NA
ATOM     16  C   UNL A   1      40.638  31.073  30.031  1.00  0.00     0.031 C 
ATOM     17  C   UNL A   1      39.886  26.451  28.259  1.00  0.00     0.029 A 
ATOM     18  N   UNL A   1      41.989  26.957  28.814  1.00  0.00    -0.354 N 
ATOM     19  C   UNL A   1      42.913  31.034  30.203  1.00  0.00     0.074 A 
ATOM     20  C   UNL A   1      41.693  31.781  30.408  1.00  0.00     0.031 C 
ATOM     21  C   UNL A   1      40.609  25.328  28.141  1.00  0.00     0.029 A 
ATOM     22  C   UNL A   1      42.004  25.643  28.404  1.00  0.00     0.049 A 
ATOM     23  H   UNL A   1      42.785  27.427  29.151  1.00  0.00     0.167 HD
ATOM     24  C   UNL A   1      44.157  31.490  30.469  1.00  0.00     0.037 A 
ATOM     25  C   UNL A   1      43.046  24.819  28.193  1.00  0.00     0.037 A 
ATOM     26  C   UNL A   1      45.336  30.693  30.266  1.00  0.00     0.049 A 
ATOM     27  C   UNL A   1      44.423  25.377  28.424  1.00  0.00     0.074 A 
ATOM     28  C   UNL A   1      46.657  31.035  30.473  1.00  0.00     0.029 A 
ATOM     29  N   UNL A   1      45.323  29.383  29.803  1.00  0.00    -0.354 N 
ATOM     30  N   UNL A   1      44.761  26.562  28.885  1.00  0.00    -0.248 NA
ATOM     31  C   UNL A   1      45.560  24.518  28.075  1.00  0.00     0.031 C 
ATOM     32  C   UNL A   1      47.447  29.945  30.090  1.00  0.00     0.029 A 
ATOM     33  C   UNL A   1      46.616  28.911  29.684  1.00  0.00     0.049 A 
ATOM     34  H   UNL A   1      44.512  28.866  29.590  1.00  0.00     0.167 HD
ATOM     35  C   UNL A   1      46.148  26.594  28.871  1.00  0.00     0.074 A 
ATOM     36  C   UNL A   1      46.586  25.297  28.389  1.00  0.00     0.031 C 
ATOM     37  C   UNL A   1      46.989  27.603  29.204  1.00  0.00     0.037 A 
BRANCH  24  38
ATOM     38  C   UNL A   1      44.300  32.915  30.912  1.00  0.00     0.058 A 
ATOM     39  C   UNL A   1      44.332  33.284  32.264  1.00  0.00     0.135 A 
ATOM     40  C   UNL A   1      44.414  33.934  29.950  1.00  0.00     0.135 A 
ATOM     41  F   UNL A   1      44.193  32.356  33.222  1.00  0.00    -0.206 F 
ATOM     42  C   UNL A   1      44.469  34.616  32.649  1.00  0.00     0.059 A 
ATOM     43  C   UNL A   1      44.569  35.268  30.312  1.00  0.00     0.059 A 
ATOM     44  F   UNL A   1      44.367  33.635  28.642  1.00  0.00    -0.206 F 
ATOM     45  C   UNL A   1      44.588  35.600  31.665  1.00  0.00     0.060 A 
BRANCH  45  46
ATOM     46  S   UNL A   1      44.779  37.321  32.178  1.00  0.00     0.124 S 
ATOM     47  O   UNL A   1      44.467  38.030  30.941  1.00  0.00    -0.237 OA
ATOM     48  O   UNL A   1      43.789  37.442  33.244  1.00  0.00    -0.237 OA
ATOM     49  O   UNL A   1      46.172  37.397  32.608  1.00  0.00    -0.744 OA
ENDBRANCH  45  46
ENDBRANCH  24  38
BRANCH  25  50
ATOM     50  C   UNL A   1      42.838  23.456  27.628  1.00  0.00     0.058 A 
ATOM     51  C   UNL A   1      42.473  22.373  28.440  1.00  0.00     0.135 A 
ATOM     52  C   UNL A   1      43.019  23.205  26.256  1.00  0.00     0.135 A 
ATOM     53  F   UNL A   1      42.294  22.553  29.757  1.00  0.00    -0.206 F 
ATOM     54  C   UNL A   1      42.322  21.089  27.921  1.00  0.00     0.059 A 
ATOM     55  C   UNL A   1      42.843  21.939  25.708  1.00  0.00     0.059 A 
ATOM     56  F   UNL A   1      43.358  24.205  25.426  1.00  0.00    -0.206 F 
ATOM     57  C   UNL A   1      42.515  20.881  26.553  1.00  0.00     0.060 A 
BRANCH  57  58
ATOM     58  S   UNL A   1      42.321  19.215  25.883  1.00  0.00     0.124 S 
ATOM     59  O   UNL A   1      43.109  19.301  24.658  1.00  0.00    -0.237 OA
ATOM     60  O   UNL A   1      42.882  18.386  26.945  1.00  0.00    -0.237 OA
ATOM     61  O   UNL A   1      40.878  19.093  25.700  1.00  0.00    -0.744 OA
ENDBRANCH  57  58
ENDBRANCH  25  50
BRANCH  37  62
ATOM     62  C   UNL A   1      48.454  27.334  29.057  1.00  0.00     0.058 A 
ATOM     63  C   UNL A   1      49.138  27.676  27.881  1.00  0.00     0.135 A 
ATOM     64  C   UNL A   1      49.192  26.816  30.132  1.00  0.00     0.135 A 
ATOM     65  F   UNL A   1      48.467  28.163  26.826  1.00  0.00    -0.206 F 
ATOM     66  C   UNL A   1      50.512  27.513  27.776  1.00  0.00     0.059 A 
ATOM     67  C   UNL A   1      50.570  26.667  30.056  1.00  0.00     0.059 A 
ATOM     68  F   UNL A   1      48.576  26.482  31.277  1.00  0.00    -0.206 F 
ATOM     69  C   UNL A   1      51.221  27.016  28.872  1.00  0.00     0.060 A 
BRANCH  69  70
ATOM     70  S   UNL A   1      53.015  26.886  28.751  1.00  0.00     0.124 S 
ATOM     71  O   UNL A   1      53.404  28.287  28.628  1.00  0.00    -0.237 OA
ATOM     72  O   UNL A   1      53.368  26.237  30.010  1.00  0.00    -0.237 OA
ATOM     73  O   UNL A   1      53.215  26.071  27.557  1.00  0.00    -0.744 OA
ENDBRANCH  69  70
ENDBRANCH  37  62
ENDBRANCH  11  12
ENDBRANCH   4   6
ENDBRANCH   3   4
ENDBRANCH   2   3
ENDBRANCH   1   2
BRANCH   1  74
ATOM     74  O   UNL A   1      32.778  34.305  28.920  1.00  0.00    -0.374 OA
BRANCH  74  75
ATOM     75  C   UNL A   1      33.244  35.479  29.597  1.00  0.00     0.202 C 
BRANCH  75  76
ATOM     76  C   UNL A   1      33.267  35.221  31.112  1.00  0.00     0.261 C 
BRANCH  76  77
ATOM     77  O   UNL A   1      34.620  34.930  31.495  1.00  0.00    -0.459 OA
BRANCH  77  78
ATOM     78  C   UNL A   1      34.797  33.629  31.881  1.00  0.00     0.368 C 
ATOM     79  O   UNL A   1      33.971  32.744  31.729  1.00  0.00    -0.245 OA
BRANCH  78  80
ATOM     80  C   UNL A   1      36.216  33.404  32.425  1.00  0.00     0.197 C 
ATOM     81  C   UNL A   1      36.746  34.697  33.065  1.00  0.00     0.084 C 
ATOM     82  C   UNL A   1      36.187  32.472  33.665  1.00  0.00     0.113 C 
ATOM     83  C   UNL A   1      37.828  34.240  34.029  1.00  0.00     0.039 C 
ATOM     84  C   UNL A   1      37.344  32.899  34.576  1.00  0.00     0.125 C 
BRANCH  80  85
ATOM     85  N   UNL A   1      37.128  32.788  31.451  1.00  0.00    -0.330 N 
ATOM     86  H   UNL A   1      37.098  31.786  31.634  1.00  0.00     0.347 HD
ATOM     87  H   UNL A   1      37.988  33.312  31.618  1.00  0.00     0.347 HD
BRANCH  85  88
ATOM     88  C   UNL A   1      36.972  32.939  30.014  1.00  0.00     0.183 C 
ATOM     89  C   UNL A   1      37.260  34.154  29.186  1.00  0.00     0.071 C 
ATOM     90  C   UNL A   1      38.203  32.992  29.149  1.00  0.00     0.071 C 
ENDBRANCH  85  88
ENDBRANCH  80  85
BRANCH  84  91
ATOM     91  O   UNL A   1      38.361  31.907  34.495  1.00  0.00    -0.375 OA
BRANCH  91  92
ATOM     92  C   UNL A   1      39.762  32.252  34.533  1.00  0.00     0.118 C 
ATOM     93  C   UNL A   1      40.484  32.152  35.898  1.00  0.00     0.032 C 
ATOM     94  C   UNL A   1      40.857  31.309  33.979  1.00  0.00     0.032 C 
ATOM     95  C   UNL A   1      41.768  31.828  35.114  1.00  0.00     0.005 C 
ENDBRANCH  91  92
ENDBRANCH  84  91
ENDBRANCH  78  80
ENDBRANCH  77  78
ENDBRANCH  76  77
ENDBRANCH  75  76
ENDBRANCH  74  75
ENDBRANCH   1  74
TORSDOF 21
ENDMDL
