MODEL 1
REMARK VINA RESULT:      -9.1      0.000      0.000
REMARK SMILES COCC[C@H](NC(=O)N1CC[C@H](C(=O)OC)C1)C(=O)OCCOCCOC(=O)c1ccc(-c2c3nc(c(-c4c(F)cc(S(=O)(=O)[O-])cc4F)c4ccc([nH]4)c(-c4c(F)cc(S(=O)(=O)[O-])cc4F)c4nc(c(-c5c(F)cc(S(=O)(=O)[O-])cc5F)c5ccc2[nH]5)C=C4)C=C3)cc1
REMARK SMILES IDX 22 1 21 2 20 3 18 4 19 5 5 6 4 7 3 8 2 9 1 10 6 11 7 12 8 14
REMARK SMILES IDX 9 15 10 16 17 17 11 18 12 19 13 20 14 21 15 22 16 23 23 24
REMARK SMILES IDX 24 25 25 26 26 27 27 28 28 29 29 30 30 31 94 32 31 33 93 34
REMARK SMILES IDX 32 35 33 36 34 37 87 38 35 39 92 40 86 41 88 42 36 43 91 44
REMARK SMILES IDX 85 45 84 46 37 48 71 49 50 50 70 51 51 52 54 53 69 54 89 55
REMARK SMILES IDX 52 56 53 57 68 59 90 60 55 61 38 62 39 63 48 64 40 65 41 66
REMARK SMILES IDX 47 67 49 68 42 69 43 70 44 71 45 72 46 73 72 74 73 75 82 76
REMARK SMILES IDX 74 77 75 78 81 79 83 80 76 81 77 82 78 83 79 84 80 85 56 86
REMARK SMILES IDX 57 87 66 88 58 89 59 90 65 91 67 92 60 93 61 94 62 95 63 96
REMARK SMILES IDX 64 97
REMARK H PARENT 6 13 88 47 54 58
REMARK Flexibility Score: inf
ROOT
ATOM      1  C   UNL A   1      32.466  22.050  25.999  1.00  0.00     0.202 C 
ENDROOT
BRANCH   1   2
ATOM      2  C   UNL A   1      32.430  22.864  27.299  1.00  0.00     0.261 C 
BRANCH   2   3
ATOM      3  O   UNL A   1      31.427  23.895  27.284  1.00  0.00    -0.462 OA
BRANCH   3   4
ATOM      4  C   UNL A   1      31.409  24.659  26.156  1.00  0.00     0.328 C 
ATOM      5  O   UNL A   1      30.417  24.821  25.450  1.00  0.00    -0.250 OA
BRANCH   4   6
ATOM      6  C   UNL A   1      32.692  25.501  25.976  1.00  0.00     0.196 C 
BRANCH   6   7
ATOM      7  C   UNL A   1      32.445  26.955  26.371  1.00  0.00     0.065 C 
BRANCH   7   8
ATOM      8  C   UNL A   1      33.722  27.779  26.556  1.00  0.00     0.162 C 
BRANCH   8   9
ATOM      9  O   UNL A   1      33.432  29.088  27.062  1.00  0.00    -0.385 OA
ATOM     10  C   UNL A   1      32.043  29.345  27.211  1.00  0.00     0.194 C 
ENDBRANCH   8   9
ENDBRANCH   7   8
ENDBRANCH   6   7
BRANCH   6  11
ATOM     11  N   UNL A   1      33.478  25.309  24.745  1.00  0.00    -0.324 N 
ATOM     12  C   UNL A   1      33.410  25.801  23.489  1.00  0.00     0.318 C 
ATOM     13  H   UNL A   1      34.224  24.677  24.865  1.00  0.00     0.166 HD
ATOM     14  O   UNL A   1      34.069  25.232  22.621  1.00  0.00    -0.249 OA
BRANCH  12  15
ATOM     15  N   UNL A   1      32.553  26.814  23.208  1.00  0.00    -0.324 N 
ATOM     16  C   UNL A   1      32.951  28.153  22.828  1.00  0.00     0.122 C 
ATOM     17  C   UNL A   1      31.348  26.522  22.449  1.00  0.00     0.136 C 
ATOM     18  C   UNL A   1      31.632  28.896  22.899  1.00  0.00     0.039 C 
ATOM     19  C   UNL A   1      30.638  27.875  22.321  1.00  0.00     0.120 C 
BRANCH  19  20
ATOM     20  C   UNL A   1      29.306  27.957  23.024  1.00  0.00     0.310 C 
ATOM     21  O   UNL A   1      28.843  27.020  23.662  1.00  0.00    -0.252 OA
BRANCH  20  22
ATOM     22  O   UNL A   1      28.689  29.150  22.835  1.00  0.00    -0.469 OA
ATOM     23  C   UNL A   1      27.272  29.125  23.005  1.00  0.00     0.282 C 
ENDBRANCH  20  22
ENDBRANCH  19  20
ENDBRANCH  12  15
ENDBRANCH   6  11
ENDBRANCH   4   6
ENDBRANCH   3   4
ENDBRANCH   2   3
ENDBRANCH   1   2
BRANCH   1  24
ATOM     24  O   UNL A   1      33.666  22.092  25.232  1.00  0.00    -0.374 OA
BRANCH  24  25
ATOM     25  C   UNL A   1      34.894  22.318  25.924  1.00  0.00     0.202 C 
BRANCH  25  26
ATOM     26  C   UNL A   1      36.071  22.916  25.142  1.00  0.00     0.261 C 
BRANCH  26  27
ATOM     27  O   UNL A   1      36.937  23.708  25.976  1.00  0.00    -0.460 OA
BRANCH  27  28
ATOM     28  C   UNL A   1      38.163  23.174  26.195  1.00  0.00     0.338 C 
ATOM     29  O   UNL A   1      38.544  22.052  25.889  1.00  0.00    -0.246 OA
BRANCH  28  30
ATOM     30  C   UNL A   1      39.085  24.213  26.681  1.00  0.00     0.060 A 
ATOM     31  C   UNL A   1      39.088  24.497  28.054  1.00  0.00     0.016 A 
ATOM     32  C   UNL A   1      39.866  24.959  25.798  1.00  0.00     0.016 A 
ATOM     33  C   UNL A   1      39.848  25.554  28.546  1.00  0.00     0.010 A 
ATOM     34  C   UNL A   1      40.614  26.032  26.292  1.00  0.00     0.010 A 
ATOM     35  C   UNL A   1      40.584  26.352  27.662  1.00  0.00    -0.014 A 
BRANCH  35  36
ATOM     36  C   UNL A   1      41.213  27.602  28.151  1.00  0.00     0.031 A 
ATOM     37  C   UNL A   1      42.712  27.721  28.123  1.00  0.00     0.074 A 
ATOM     38  C   UNL A   1      40.456  28.619  28.598  1.00  0.00     0.049 A 
ATOM     39  N   UNL A   1      43.474  28.690  28.558  1.00  0.00    -0.248 NA
ATOM     40  C   UNL A   1      43.450  26.597  27.524  1.00  0.00     0.031 C 
ATOM     41  C   UNL A   1      38.994  28.633  28.628  1.00  0.00     0.029 A 
ATOM     42  N   UNL A   1      40.816  29.833  29.125  1.00  0.00    -0.354 N 
ATOM     43  C   UNL A   1      44.780  28.290  28.297  1.00  0.00     0.074 A 
ATOM     44  C   UNL A   1      44.708  26.982  27.683  1.00  0.00     0.031 C 
ATOM     45  C   UNL A   1      38.581  29.793  29.166  1.00  0.00     0.029 A 
ATOM     46  C   UNL A   1      39.747  30.586  29.552  1.00  0.00     0.049 A 
ATOM     47  H   UNL A   1      41.750  30.137  29.193  1.00  0.00     0.167 HD
ATOM     48  C   UNL A   1      45.932  28.958  28.544  1.00  0.00     0.037 A 
ATOM     49  C   UNL A   1      39.718  31.762  30.207  1.00  0.00     0.037 A 
ATOM     50  C   UNL A   1      45.992  30.259  29.156  1.00  0.00     0.049 A 
ATOM     51  C   UNL A   1      41.017  32.452  30.541  1.00  0.00     0.074 A 
ATOM     52  C   UNL A   1      47.107  31.032  29.427  1.00  0.00     0.029 A 
ATOM     53  N   UNL A   1      44.891  30.977  29.601  1.00  0.00    -0.354 N 
ATOM     54  N   UNL A   1      42.243  32.077  30.265  1.00  0.00    -0.248 NA
ATOM     55  C   UNL A   1      40.928  33.722  31.276  1.00  0.00     0.031 C 
ATOM     56  C   UNL A   1      46.685  32.193  30.083  1.00  0.00     0.029 A 
ATOM     57  C   UNL A   1      45.303  32.168  30.174  1.00  0.00     0.049 A 
ATOM     58  H   UNL A   1      43.955  30.682  29.522  1.00  0.00     0.167 HD
ATOM     59  C   UNL A   1      43.071  33.074  30.773  1.00  0.00     0.074 A 
ATOM     60  C   UNL A   1      42.204  34.074  31.362  1.00  0.00     0.031 C 
ATOM     61  C   UNL A   1      44.424  33.155  30.752  1.00  0.00     0.037 A 
BRANCH  48  62
ATOM     62  C   UNL A   1      47.224  28.280  28.182  1.00  0.00     0.058 A 
ATOM     63  C   UNL A   1      47.878  28.535  26.966  1.00  0.00     0.135 A 
ATOM     64  C   UNL A   1      47.836  27.393  29.082  1.00  0.00     0.135 A 
ATOM     65  F   UNL A   1      47.328  29.362  26.063  1.00  0.00    -0.206 F 
ATOM     66  C   UNL A   1      49.083  27.919  26.646  1.00  0.00     0.059 A 
ATOM     67  C   UNL A   1      49.054  26.783  28.793  1.00  0.00     0.059 A 
ATOM     68  F   UNL A   1      47.252  27.111  30.256  1.00  0.00    -0.206 F 
ATOM     69  C   UNL A   1      49.664  27.044  27.567  1.00  0.00     0.060 A 
BRANCH  69  70
ATOM     70  S   UNL A   1      51.233  26.259  27.140  1.00  0.00     0.124 S 
ATOM     71  O   UNL A   1      51.472  26.794  25.803  1.00  0.00    -0.237 OA
ATOM     72  O   UNL A   1      52.122  26.750  28.187  1.00  0.00    -0.237 OA
ATOM     73  O   UNL A   1      50.927  24.833  27.199  1.00  0.00    -0.744 OA
ENDBRANCH  69  70
ENDBRANCH  48  62
BRANCH  49  74
ATOM     74  C   UNL A   1      38.416  32.353  30.613  1.00  0.00     0.058 A 
ATOM     75  C   UNL A   1      37.719  33.225  29.766  1.00  0.00     0.135 A 
ATOM     76  C   UNL A   1      37.840  32.053  31.859  1.00  0.00     0.135 A 
ATOM     77  F   UNL A   1      38.232  33.550  28.569  1.00  0.00    -0.206 F 
ATOM     78  C   UNL A   1      36.504  33.790  30.140  1.00  0.00     0.059 A 
ATOM     79  C   UNL A   1      36.614  32.584  32.246  1.00  0.00     0.059 A 
ATOM     80  F   UNL A   1      38.459  31.212  32.701  1.00  0.00    -0.206 F 
ATOM     81  C   UNL A   1      35.959  33.461  31.383  1.00  0.00     0.060 A 
BRANCH  81  82
ATOM     82  S   UNL A   1      34.360  34.167  31.837  1.00  0.00     0.124 S 
ATOM     83  O   UNL A   1      33.818  33.132  32.708  1.00  0.00    -0.237 OA
ATOM     84  O   UNL A   1      34.754  35.412  32.490  1.00  0.00    -0.237 OA
ATOM     85  O   UNL A   1      33.688  34.328  30.551  1.00  0.00    -0.744 OA
ENDBRANCH  81  82
ENDBRANCH  49  74
BRANCH  61  86
ATOM     86  C   UNL A   1      45.060  34.377  31.360  1.00  0.00     0.058 A 
ATOM     87  C   UNL A   1      45.261  35.548  30.615  1.00  0.00     0.135 A 
ATOM     88  C   UNL A   1      45.399  34.399  32.722  1.00  0.00     0.135 A 
ATOM     89  F   UNL A   1      44.960  35.579  29.307  1.00  0.00    -0.206 F 
ATOM     90  C   UNL A   1      45.788  36.697  31.197  1.00  0.00     0.059 A 
ATOM     91  C   UNL A   1      45.904  35.542  33.331  1.00  0.00     0.059 A 
ATOM     92  F   UNL A   1      45.217  33.307  33.482  1.00  0.00    -0.206 F 
ATOM     93  C   UNL A   1      46.102  36.686  32.558  1.00  0.00     0.060 A 
BRANCH  93  94
ATOM     94  S   UNL A   1      46.736  38.199  33.312  1.00  0.00     0.124 S 
ATOM     95  O   UNL A   1      47.707  38.640  32.316  1.00  0.00    -0.237 OA
ATOM     96  O   UNL A   1      45.532  39.017  33.431  1.00  0.00    -0.237 OA
ATOM     97  O   UNL A   1      47.299  37.738  34.578  1.00  0.00    -0.744 OA
ENDBRANCH  93  94
ENDBRANCH  61  86
ENDBRANCH  35  36
ENDBRANCH  28  30
ENDBRANCH  27  28
ENDBRANCH  26  27
ENDBRANCH  25  26
ENDBRANCH  24  25
ENDBRANCH   1  24
TORSDOF 24
ENDMDL
MODEL 2
REMARK VINA RESULT:      -8.9      3.348      8.847
REMARK SMILES COCC[C@H](NC(=O)N1CC[C@H](C(=O)OC)C1)C(=O)OCCOCCOC(=O)c1ccc(-c2c3nc(c(-c4c(F)cc(S(=O)(=O)[O-])cc4F)c4ccc([nH]4)c(-c4c(F)cc(S(=O)(=O)[O-])cc4F)c4nc(c(-c5c(F)cc(S(=O)(=O)[O-])cc5F)c5ccc2[nH]5)C=C4)C=C3)cc1
REMARK SMILES IDX 22 1 21 2 20 3 18 4 19 5 5 6 4 7 3 8 2 9 1 10 6 11 7 12 8 14
REMARK SMILES IDX 9 15 10 16 17 17 11 18 12 19 13 20 14 21 15 22 16 23 23 24
REMARK SMILES IDX 24 25 25 26 26 27 27 28 28 29 29 30 30 31 94 32 31 33 93 34
REMARK SMILES IDX 32 35 33 36 34 37 87 38 35 39 92 40 86 41 88 42 36 43 91 44
REMARK SMILES IDX 85 45 84 46 37 48 71 49 50 50 70 51 51 52 54 53 69 54 89 55
REMARK SMILES IDX 52 56 53 57 68 59 90 60 55 61 38 62 39 63 48 64 40 65 41 66
REMARK SMILES IDX 47 67 49 68 42 69 43 70 44 71 45 72 46 73 72 74 73 75 82 76
REMARK SMILES IDX 74 77 75 78 81 79 83 80 76 81 77 82 78 83 79 84 80 85 56 86
REMARK SMILES IDX 57 87 66 88 58 89 59 90 65 91 67 92 60 93 61 94 62 95 63 96
REMARK SMILES IDX 64 97
REMARK H PARENT 6 13 88 47 54 58
REMARK Flexibility Score: inf
ROOT
ATOM      1  C   UNL A   1      33.023  29.893  26.904  1.00  0.00     0.202 C 
ENDROOT
BRANCH   1   2
ATOM      2  C   UNL A   1      33.486  28.494  27.327  1.00  0.00     0.261 C 
BRANCH   2   3
ATOM      3  O   UNL A   1      32.922  27.450  26.515  1.00  0.00    -0.462 OA
BRANCH   3   4
ATOM      4  C   UNL A   1      31.655  27.081  26.855  1.00  0.00     0.328 C 
ATOM      5  O   UNL A   1      30.977  27.652  27.706  1.00  0.00    -0.250 OA
BRANCH   4   6
ATOM      6  C   UNL A   1      31.056  26.024  25.900  1.00  0.00     0.196 C 
BRANCH   6   7
ATOM      7  C   UNL A   1      30.156  26.684  24.859  1.00  0.00     0.065 C 
BRANCH   7   8
ATOM      8  C   UNL A   1      30.676  28.030  24.345  1.00  0.00     0.162 C 
BRANCH   8   9
ATOM      9  O   UNL A   1      30.915  27.993  22.932  1.00  0.00    -0.385 OA
ATOM     10  C   UNL A   1      30.595  29.208  22.269  1.00  0.00     0.194 C 
ENDBRANCH   8   9
ENDBRANCH   7   8
ENDBRANCH   6   7
BRANCH   6  11
ATOM     11  N   UNL A   1      30.530  24.780  26.489  1.00  0.00    -0.324 N 
ATOM     12  C   UNL A   1      30.858  23.474  26.396  1.00  0.00     0.318 C 
ATOM     13  H   UNL A   1      29.764  24.938  27.087  1.00  0.00     0.166 HD
ATOM     14  O   UNL A   1      30.045  22.654  26.819  1.00  0.00    -0.249 OA
BRANCH  12  15
ATOM     15  N   UNL A   1      31.998  23.109  25.757  1.00  0.00    -0.324 N 
ATOM     16  C   UNL A   1      33.000  22.215  26.298  1.00  0.00     0.122 C 
ATOM     17  C   UNL A   1      31.944  22.837  24.330  1.00  0.00     0.136 C 
ATOM     18  C   UNL A   1      34.128  22.380  25.299  1.00  0.00     0.039 C 
ATOM     19  C   UNL A   1      33.382  22.459  23.957  1.00  0.00     0.120 C 
BRANCH  19  20
ATOM     20  C   UNL A   1      34.062  23.420  23.013  1.00  0.00     0.310 C 
ATOM     21  O   UNL A   1      35.164  23.195  22.531  1.00  0.00    -0.252 OA
BRANCH  20  22
ATOM     22  O   UNL A   1      33.335  24.545  22.802  1.00  0.00    -0.469 OA
ATOM     23  C   UNL A   1      33.796  25.698  23.506  1.00  0.00     0.282 C 
ENDBRANCH  20  22
ENDBRANCH  19  20
ENDBRANCH  12  15
ENDBRANCH   6  11
ENDBRANCH   4   6
ENDBRANCH   3   4
ENDBRANCH   2   3
ENDBRANCH   1   2
BRANCH   1  24
ATOM     24  O   UNL A   1      33.961  30.959  27.023  1.00  0.00    -0.374 OA
BRANCH  24  25
ATOM     25  C   UNL A   1      34.012  31.670  28.260  1.00  0.00     0.202 C 
BRANCH  25  26
ATOM     26  C   UNL A   1      35.301  31.598  29.089  1.00  0.00     0.261 C 
BRANCH  26  27
ATOM     27  O   UNL A   1      35.921  30.300  29.025  1.00  0.00    -0.460 OA
BRANCH  27  28
ATOM     28  C   UNL A   1      36.667  29.970  30.106  1.00  0.00     0.338 C 
ATOM     29  O   UNL A   1      36.260  29.553  31.183  1.00  0.00    -0.246 OA
BRANCH  28  30
ATOM     30  C   UNL A   1      38.096  29.974  29.754  1.00  0.00     0.060 A 
ATOM     31  C   UNL A   1      38.435  29.966  28.394  1.00  0.00     0.016 A 
ATOM     32  C   UNL A   1      39.084  29.894  30.735  1.00  0.00     0.016 A 
ATOM     33  C   UNL A   1      39.768  29.843  28.008  1.00  0.00     0.010 A 
ATOM     34  C   UNL A   1      40.419  29.752  30.345  1.00  0.00     0.010 A 
ATOM     35  C   UNL A   1      40.763  29.696  28.981  1.00  0.00    -0.014 A 
BRANCH  35  36
ATOM     36  C   UNL A   1      42.143  29.346  28.573  1.00  0.00     0.031 A 
ATOM     37  C   UNL A   1      42.446  27.930  28.169  1.00  0.00     0.074 A 
ATOM     38  C   UNL A   1      43.109  30.283  28.551  1.00  0.00     0.049 A 
ATOM     39  N   UNL A   1      43.590  27.389  27.840  1.00  0.00    -0.248 NA
ATOM     40  C   UNL A   1      41.306  27.000  28.128  1.00  0.00     0.031 C 
ATOM     41  C   UNL A   1      42.919  31.696  28.879  1.00  0.00     0.029 A 
ATOM     42  N   UNL A   1      44.443  30.181  28.252  1.00  0.00    -0.354 N 
ATOM     43  C   UNL A   1      43.311  26.055  27.564  1.00  0.00     0.074 A 
ATOM     44  C   UNL A   1      41.894  25.864  27.783  1.00  0.00     0.031 C 
ATOM     45  C   UNL A   1      44.103  32.326  28.780  1.00  0.00     0.029 A 
ATOM     46  C   UNL A   1      45.136  31.356  28.421  1.00  0.00     0.049 A 
ATOM     47  H   UNL A   1      44.865  29.347  27.944  1.00  0.00     0.167 HD
ATOM     48  C   UNL A   1      44.163  25.081  27.162  1.00  0.00     0.037 A 
ATOM     49  C   UNL A   1      46.455  31.609  28.328  1.00  0.00     0.037 A 
ATOM     50  C   UNL A   1      45.571  25.283  26.947  1.00  0.00     0.049 A 
ATOM     51  C   UNL A   1      47.395  30.491  27.953  1.00  0.00     0.074 A 
ATOM     52  C   UNL A   1      46.516  24.367  26.516  1.00  0.00     0.029 A 
ATOM     53  N   UNL A   1      46.242  26.478  27.158  1.00  0.00    -0.354 N 
ATOM     54  N   UNL A   1      47.117  29.242  27.669  1.00  0.00    -0.248 NA
ATOM     55  C   UNL A   1      48.827  30.817  27.888  1.00  0.00     0.031 C 
ATOM     56  C   UNL A   1      47.765  24.996  26.515  1.00  0.00     0.029 A 
ATOM     57  C   UNL A   1      47.592  26.317  26.897  1.00  0.00     0.049 A 
ATOM     58  H   UNL A   1      45.820  27.318  27.452  1.00  0.00     0.167 HD
ATOM     59  C   UNL A   1      48.334  28.637  27.371  1.00  0.00     0.074 A 
ATOM     60  C   UNL A   1      49.350  29.662  27.498  1.00  0.00     0.031 C 
ATOM     61  C   UNL A   1      48.589  27.351  27.023  1.00  0.00     0.037 A 
BRANCH  48  62
ATOM     62  C   UNL A   1      43.600  23.702  26.957  1.00  0.00     0.058 A 
ATOM     63  C   UNL A   1      43.400  22.818  28.029  1.00  0.00     0.135 A 
ATOM     64  C   UNL A   1      43.220  23.274  25.675  1.00  0.00     0.135 A 
ATOM     65  F   UNL A   1      43.762  23.171  29.273  1.00  0.00    -0.206 F 
ATOM     66  C   UNL A   1      42.861  21.550  27.834  1.00  0.00     0.059 A 
ATOM     67  C   UNL A   1      42.656  22.020  25.460  1.00  0.00     0.059 A 
ATOM     68  F   UNL A   1      43.393  24.078  24.615  1.00  0.00    -0.206 F 
ATOM     69  C   UNL A   1      42.492  21.160  26.545  1.00  0.00     0.060 A 
BRANCH  69  70
ATOM     70  S   UNL A   1      41.786  19.515  26.311  1.00  0.00     0.124 S 
ATOM     71  O   UNL A   1      42.514  19.050  25.134  1.00  0.00    -0.237 OA
ATOM     72  O   UNL A   1      42.120  18.850  27.566  1.00  0.00    -0.237 OA
ATOM     73  O   UNL A   1      40.366  19.781  26.104  1.00  0.00    -0.744 OA
ENDBRANCH  69  70
ENDBRANCH  48  62
BRANCH  49  74
ATOM     74  C   UNL A   1      46.972  32.973  28.618  1.00  0.00     0.058 A 
ATOM     75  C   UNL A   1      47.341  33.348  29.917  1.00  0.00     0.135 A 
ATOM     76  C   UNL A   1      47.109  33.930  27.598  1.00  0.00     0.135 A 
ATOM     77  F   UNL A   1      47.220  32.472  30.927  1.00  0.00    -0.206 F 
ATOM     78  C   UNL A   1      47.816  34.624  30.201  1.00  0.00     0.059 A 
ATOM     79  C   UNL A   1      47.606  35.204  27.852  1.00  0.00     0.059 A 
ATOM     80  F   UNL A   1      46.782  33.618  26.335  1.00  0.00    -0.206 F 
ATOM     81  C   UNL A   1      47.947  35.545  29.159  1.00  0.00     0.060 A 
BRANCH  81  82
ATOM     82  S   UNL A   1      48.607  37.183  29.535  1.00  0.00     0.124 S 
ATOM     83  O   UNL A   1      49.663  37.310  28.538  1.00  0.00    -0.237 OA
ATOM     84  O   UNL A   1      47.437  38.033  29.340  1.00  0.00    -0.237 OA
ATOM     85  O   UNL A   1      49.056  37.053  30.918  1.00  0.00    -0.744 OA
ENDBRANCH  81  82
ENDBRANCH  49  74
BRANCH  61  86
ATOM     86  C   UNL A   1      50.016  26.978  26.726  1.00  0.00     0.058 A 
ATOM     87  C   UNL A   1      50.864  26.468  27.721  1.00  0.00     0.135 A 
ATOM     88  C   UNL A   1      50.515  27.060  25.416  1.00  0.00     0.135 A 
ATOM     89  F   UNL A   1      50.439  26.376  28.991  1.00  0.00    -0.206 F 
ATOM     90  C   UNL A   1      52.163  26.063  27.429  1.00  0.00     0.059 A 
ATOM     91  C   UNL A   1      51.801  26.637  25.097  1.00  0.00     0.059 A 
ATOM     92  F   UNL A   1      49.741  27.531  24.426  1.00  0.00    -0.206 F 
ATOM     93  C   UNL A   1      52.621  26.147  26.113  1.00  0.00     0.060 A 
BRANCH  93  94
ATOM     94  S   UNL A   1      54.290  25.568  25.738  1.00  0.00     0.124 S 
ATOM     95  O   UNL A   1      54.572  24.719  26.892  1.00  0.00    -0.237 OA
ATOM     96  O   UNL A   1      54.102  24.870  24.470  1.00  0.00    -0.237 OA
ATOM     97  O   UNL A   1      55.068  26.800  25.659  1.00  0.00    -0.744 OA
ENDBRANCH  93  94
ENDBRANCH  61  86
ENDBRANCH  35  36
ENDBRANCH  28  30
ENDBRANCH  27  28
ENDBRANCH  26  27
ENDBRANCH  25  26
ENDBRANCH  24  25
ENDBRANCH   1  24
TORSDOF 24
ENDMDL
MODEL 3
REMARK VINA RESULT:      -8.9      3.050      9.517
REMARK SMILES COCC[C@H](NC(=O)N1CC[C@H](C(=O)OC)C1)C(=O)OCCOCCOC(=O)c1ccc(-c2c3nc(c(-c4c(F)cc(S(=O)(=O)[O-])cc4F)c4ccc([nH]4)c(-c4c(F)cc(S(=O)(=O)[O-])cc4F)c4nc(c(-c5c(F)cc(S(=O)(=O)[O-])cc5F)c5ccc2[nH]5)C=C4)C=C3)cc1
REMARK SMILES IDX 22 1 21 2 20 3 18 4 19 5 5 6 4 7 3 8 2 9 1 10 6 11 7 12 8 14
REMARK SMILES IDX 9 15 10 16 17 17 11 18 12 19 13 20 14 21 15 22 16 23 23 24
REMARK SMILES IDX 24 25 25 26 26 27 27 28 28 29 29 30 30 31 94 32 31 33 93 34
REMARK SMILES IDX 32 35 33 36 34 37 87 38 35 39 92 40 86 41 88 42 36 43 91 44
REMARK SMILES IDX 85 45 84 46 37 48 71 49 50 50 70 51 51 52 54 53 69 54 89 55
REMARK SMILES IDX 52 56 53 57 68 59 90 60 55 61 38 62 39 63 48 64 40 65 41 66
REMARK SMILES IDX 47 67 49 68 42 69 43 70 44 71 45 72 46 73 72 74 73 75 82 76
REMARK SMILES IDX 74 77 75 78 81 79 83 80 76 81 77 82 78 83 79 84 80 85 56 86
REMARK SMILES IDX 57 87 66 88 58 89 59 90 65 91 67 92 60 93 61 94 62 95 63 96
REMARK SMILES IDX 64 97
REMARK H PARENT 6 13 88 47 54 58
REMARK Flexibility Score: inf
ROOT
ATOM      1  C   UNL A   1      32.614  28.273  27.527  1.00  0.00     0.202 C 
ENDROOT
BRANCH   1   2
ATOM      2  C   UNL A   1      31.889  27.443  26.461  1.00  0.00     0.261 C 
BRANCH   2   3
ATOM      3  O   UNL A   1      32.497  26.158  26.243  1.00  0.00    -0.462 OA
BRANCH   3   4
ATOM      4  C   UNL A   1      32.605  25.790  24.936  1.00  0.00     0.328 C 
ATOM      5  O   UNL A   1      33.616  25.953  24.256  1.00  0.00    -0.250 OA
BRANCH   4   6
ATOM      6  C   UNL A   1      31.419  24.927  24.451  1.00  0.00     0.196 C 
BRANCH   6   7
ATOM      7  C   UNL A   1      30.607  25.669  23.392  1.00  0.00     0.065 C 
BRANCH   7   8
ATOM      8  C   UNL A   1      29.789  26.842  23.940  1.00  0.00     0.162 C 
BRANCH   8   9
ATOM      9  O   UNL A   1      29.939  28.010  23.125  1.00  0.00    -0.385 OA
ATOM     10  C   UNL A   1      31.293  28.390  22.917  1.00  0.00     0.194 C 
ENDBRANCH   8   9
ENDBRANCH   7   8
ENDBRANCH   6   7
BRANCH   6  11
ATOM     11  N   UNL A   1      30.625  24.211  25.465  1.00  0.00    -0.324 N 
ATOM     12  C   UNL A   1      30.871  23.194  26.319  1.00  0.00     0.318 C 
ATOM     13  H   UNL A   1      29.704  24.552  25.537  1.00  0.00     0.166 HD
ATOM     14  O   UNL A   1      29.904  22.658  26.856  1.00  0.00    -0.249 OA
BRANCH  12  15
ATOM     15  N   UNL A   1      32.138  22.734  26.471  1.00  0.00    -0.324 N 
ATOM     16  C   UNL A   1      32.858  22.691  27.727  1.00  0.00     0.122 C 
ATOM     17  C   UNL A   1      32.547  21.550  25.733  1.00  0.00     0.136 C 
ATOM     18  C   UNL A   1      34.260  22.349  27.264  1.00  0.00     0.039 C 
ATOM     19  C   UNL A   1      34.006  21.325  26.145  1.00  0.00     0.120 C 
BRANCH  19  20
ATOM     20  C   UNL A   1      35.008  21.481  25.028  1.00  0.00     0.310 C 
ATOM     21  O   UNL A   1      34.931  22.381  24.201  1.00  0.00    -0.252 OA
BRANCH  20  22
ATOM     22  O   UNL A   1      35.953  20.509  25.035  1.00  0.00    -0.469 OA
ATOM     23  C   UNL A   1      37.292  20.974  24.863  1.00  0.00     0.282 C 
ENDBRANCH  20  22
ENDBRANCH  19  20
ENDBRANCH  12  15
ENDBRANCH   6  11
ENDBRANCH   4   6
ENDBRANCH   3   4
ENDBRANCH   2   3
ENDBRANCH   1   2
BRANCH   1  24
ATOM     24  O   UNL A   1      32.488  29.690  27.453  1.00  0.00    -0.374 OA
BRANCH  24  25
ATOM     25  C   UNL A   1      33.629  30.442  27.037  1.00  0.00     0.202 C 
BRANCH  25  26
ATOM     26  C   UNL A   1      35.000  30.063  27.614  1.00  0.00     0.261 C 
BRANCH  26  27
ATOM     27  O   UNL A   1      35.720  31.206  28.110  1.00  0.00    -0.460 OA
BRANCH  27  28
ATOM     28  C   UNL A   1      36.390  30.999  29.270  1.00  0.00     0.338 C 
ATOM     29  O   UNL A   1      35.988  31.225  30.404  1.00  0.00    -0.246 OA
BRANCH  28  30
ATOM     30  C   UNL A   1      37.630  30.251  29.009  1.00  0.00     0.060 A 
ATOM     31  C   UNL A   1      38.424  29.896  30.108  1.00  0.00     0.016 A 
ATOM     32  C   UNL A   1      38.054  29.982  27.708  1.00  0.00     0.016 A 
ATOM     33  C   UNL A   1      39.667  29.300  29.909  1.00  0.00     0.010 A 
ATOM     34  C   UNL A   1      39.310  29.400  27.509  1.00  0.00     0.010 A 
ATOM     35  C   UNL A   1      40.133  29.085  28.606  1.00  0.00    -0.014 A 
BRANCH  35  36
ATOM     36  C   UNL A   1      41.535  28.657  28.389  1.00  0.00     0.031 A 
ATOM     37  C   UNL A   1      42.628  29.688  28.451  1.00  0.00     0.074 A 
ATOM     38  C   UNL A   1      41.828  27.365  28.154  1.00  0.00     0.049 A 
ATOM     39  N   UNL A   1      43.909  29.551  28.230  1.00  0.00    -0.248 NA
ATOM     40  C   UNL A   1      42.222  31.056  28.812  1.00  0.00     0.031 C 
ATOM     41  C   UNL A   1      40.855  26.274  28.118  1.00  0.00     0.029 A 
ATOM     42  N   UNL A   1      43.028  26.758  27.890  1.00  0.00    -0.354 N 
ATOM     43  C   UNL A   1      44.462  30.814  28.413  1.00  0.00     0.074 A 
ATOM     44  C   UNL A   1      43.374  31.708  28.745  1.00  0.00     0.031 C 
ATOM     45  C   UNL A   1      41.498  25.129  27.826  1.00  0.00     0.029 A 
ATOM     46  C   UNL A   1      42.917  25.414  27.619  1.00  0.00     0.049 A 
ATOM     47  H   UNL A   1      43.888  27.237  27.893  1.00  0.00     0.167 HD
ATOM     48  C   UNL A   1      45.759  31.189  28.316  1.00  0.00     0.037 A 
ATOM     49  C   UNL A   1      43.848  24.527  27.220  1.00  0.00     0.037 A 
ATOM     50  C   UNL A   1      46.834  30.291  27.985  1.00  0.00     0.049 A 
ATOM     51  C   UNL A   1      45.274  24.985  27.043  1.00  0.00     0.074 A 
ATOM     52  C   UNL A   1      48.187  30.566  27.886  1.00  0.00     0.029 A 
ATOM     53  N   UNL A   1      46.678  28.944  27.688  1.00  0.00    -0.354 N 
ATOM     54  N   UNL A   1      45.788  26.174  27.246  1.00  0.00    -0.248 NA
ATOM     55  C   UNL A   1      46.245  23.981  26.584  1.00  0.00     0.031 C 
ATOM     56  C   UNL A   1      48.841  29.399  27.479  1.00  0.00     0.029 A 
ATOM     57  C   UNL A   1      47.904  28.384  27.375  1.00  0.00     0.049 A 
ATOM     58  H   UNL A   1      45.821  28.460  27.698  1.00  0.00     0.167 HD
ATOM     59  C   UNL A   1      47.145  26.057  26.959  1.00  0.00     0.074 A 
ATOM     60  C   UNL A   1      47.373  24.678  26.581  1.00  0.00     0.031 C 
ATOM     61  C   UNL A   1      48.114  27.005  27.006  1.00  0.00     0.037 A 
BRANCH  48  62
ATOM     62  C   UNL A   1      46.086  32.639  28.540  1.00  0.00     0.058 A 
ATOM     63  C   UNL A   1      46.309  33.521  27.471  1.00  0.00     0.135 A 
ATOM     64  C   UNL A   1      46.138  33.161  29.843  1.00  0.00     0.135 A 
ATOM     65  F   UNL A   1      46.287  33.071  26.207  1.00  0.00    -0.206 F 
ATOM     66  C   UNL A   1      46.592  34.866  27.686  1.00  0.00     0.059 A 
ATOM     67  C   UNL A   1      46.396  34.508  30.081  1.00  0.00     0.059 A 
ATOM     68  F   UNL A   1      45.937  32.361  30.900  1.00  0.00    -0.206 F 
ATOM     69  C   UNL A   1      46.633  35.351  28.996  1.00  0.00     0.060 A 
BRANCH  69  70
ATOM     70  S   UNL A   1      46.993  37.101  29.257  1.00  0.00     0.124 S 
ATOM     71  O   UNL A   1      45.979  37.735  28.419  1.00  0.00    -0.237 OA
ATOM     72  O   UNL A   1      46.805  37.246  30.696  1.00  0.00    -0.237 OA
ATOM     73  O   UNL A   1      48.368  37.238  28.790  1.00  0.00    -0.744 OA
ENDBRANCH  69  70
ENDBRANCH  48  62
BRANCH  49  74
ATOM     74  C   UNL A   1      43.458  23.121  26.934  1.00  0.00     0.058 A 
ATOM     75  C   UNL A   1      43.168  22.224  27.971  1.00  0.00     0.135 A 
ATOM     76  C   UNL A   1      43.365  22.647  25.614  1.00  0.00     0.135 A 
ATOM     77  F   UNL A   1      43.251  22.626  29.248  1.00  0.00    -0.206 F 
ATOM     78  C   UNL A   1      42.811  20.904  27.714  1.00  0.00     0.059 A 
ATOM     79  C   UNL A   1      42.985  21.339  25.331  1.00  0.00     0.059 A 
ATOM     80  F   UNL A   1      43.620  23.470  24.585  1.00  0.00    -0.206 F 
ATOM     81  C   UNL A   1      42.721  20.472  26.389  1.00  0.00     0.060 A 
BRANCH  81  82
ATOM     82  S   UNL A   1      42.214  18.769  26.071  1.00  0.00     0.124 S 
ATOM     83  O   UNL A   1      40.794  18.933  25.783  1.00  0.00    -0.237 OA
ATOM     84  O   UNL A   1      43.059  18.408  24.936  1.00  0.00    -0.237 OA
ATOM     85  O   UNL A   1      42.531  18.086  27.321  1.00  0.00    -0.744 OA
ENDBRANCH  81  82
ENDBRANCH  49  74
BRANCH  61  86
ATOM     86  C   UNL A   1      49.518  26.585  26.666  1.00  0.00     0.058 A 
ATOM     87  C   UNL A   1      50.376  26.039  27.632  1.00  0.00     0.135 A 
ATOM     88  C   UNL A   1      49.983  26.659  25.342  1.00  0.00     0.135 A 
ATOM     89  F   UNL A   1      49.984  25.952  28.914  1.00  0.00    -0.206 F 
ATOM     90  C   UNL A   1      51.651  25.591  27.301  1.00  0.00     0.059 A 
ATOM     91  C   UNL A   1      51.243  26.194  24.983  1.00  0.00     0.059 A 
ATOM     92  F   UNL A   1      49.197  27.164  24.378  1.00  0.00    -0.206 F 
ATOM     93  C   UNL A   1      52.074  25.668  25.972  1.00  0.00     0.060 A 
BRANCH  93  94
ATOM     94  S   UNL A   1      53.710  25.034  25.546  1.00  0.00     0.124 S 
ATOM     95  O   UNL A   1      54.043  25.842  24.377  1.00  0.00    -0.237 OA
ATOM     96  O   UNL A   1      54.480  25.318  26.754  1.00  0.00    -0.237 OA
ATOM     97  O   UNL A   1      53.469  23.618  25.284  1.00  0.00    -0.744 OA
ENDBRANCH  93  94
ENDBRANCH  61  86
ENDBRANCH  35  36
ENDBRANCH  28  30
ENDBRANCH  27  28
ENDBRANCH  26  27
ENDBRANCH  25  26
ENDBRANCH  24  25
ENDBRANCH   1  24
TORSDOF 24
ENDMDL
