MODEL 1
REMARK VINA RESULT:     -10.6      0.000      0.000
REMARK SMILES CC(C)c1nc(OCC(=O)OCCOCCOC(=O)c2ccc(-c3c4nc(c(-c5c(F)cc(S(=O)(=O)[O-])cc5F)c5ccc([nH]5)c(-c5c(F)cc(S(=O)(=O)[O-])cc5F)c5nc(c(-c6c(F)cc(S(=O)(=O)[O-])cc6F)c6ccc3[nH]6)C=C5)C=C4)cc2)cc(-c2ccccn2)n1
REMARK SMILES IDX 14 1 13 2 12 3 11 4 9 5 10 6 8 7 7 8 6 9 4 10 5 11 94 12
REMARK SMILES IDX 87 13 86 14 2 15 1 16 3 17 88 18 89 19 93 20 90 21 92 22
REMARK SMILES IDX 91 23 15 24 16 25 17 26 18 27 19 28 20 29 21 30 85 31 22 32
REMARK SMILES IDX 84 33 23 34 24 35 25 36 78 37 26 38 83 39 77 40 79 41 27 42
REMARK SMILES IDX 82 43 76 44 75 45 28 47 62 48 41 49 61 50 42 51 45 52 60 53
REMARK SMILES IDX 80 54 43 55 44 56 59 58 81 59 46 60 29 61 30 62 39 63 31 64
REMARK SMILES IDX 32 65 38 66 40 67 33 68 34 69 35 70 36 71 37 72 63 73 64 74
REMARK SMILES IDX 73 75 65 76 66 77 72 78 74 79 67 80 68 81 69 82 70 83 71 84
REMARK SMILES IDX 47 85 48 86 57 87 49 88 50 89 56 90 58 91 51 92 52 93 53 94
REMARK SMILES IDX 54 95 55 96
REMARK H PARENT 79 46 45 57
REMARK Flexibility Score: inf
ROOT
ATOM      1  O   UNL A   1      33.575  28.535  26.510  1.00  0.00    -0.374 OA
ENDROOT
BRANCH   1   2
ATOM      2  C   UNL A   1      33.713  27.177  26.097  1.00  0.00     0.202 C 
BRANCH   2   3
ATOM      3  C   UNL A   1      32.815  26.697  24.950  1.00  0.00     0.261 C 
BRANCH   3   4
ATOM      4  O   UNL A   1      33.546  26.006  23.909  1.00  0.00    -0.461 OA
BRANCH   4   5
ATOM      5  C   UNL A   1      32.804  25.584  22.847  1.00  0.00     0.344 C 
ATOM      6  O   UNL A   1      32.094  26.310  22.158  1.00  0.00    -0.248 OA
BRANCH   5   7
ATOM      7  C   UNL A   1      32.923  24.082  22.557  1.00  0.00     0.353 C 
BRANCH   7   8
ATOM      8  O   UNL A   1      32.318  23.133  23.402  1.00  0.00    -0.466 OA
BRANCH   8   9
ATOM      9  C   UNL A   1      33.039  22.204  24.089  1.00  0.00     0.217 A 
ATOM     10  C   UNL A   1      35.203  21.786  24.771  1.00  0.00     0.135 A 
ATOM     11  N   UNL A   1      34.283  22.655  24.325  1.00  0.00    -0.198 NA
ATOM     12  N   UNL A   1      34.966  20.477  24.954  1.00  0.00    -0.231 NA
ATOM     13  C   UNL A   1      33.701  20.042  24.752  1.00  0.00     0.096 A 
ATOM     14  C   UNL A   1      32.678  20.897  24.347  1.00  0.00     0.099 A 
BRANCH  10  15
ATOM     15  C   UNL A   1      36.623  22.281  24.953  1.00  0.00     0.051 C 
ATOM     16  C   UNL A   1      37.600  21.105  25.002  1.00  0.00     0.016 C 
ATOM     17  C   UNL A   1      37.026  23.268  23.856  1.00  0.00     0.016 C 
ENDBRANCH  10  15
BRANCH  13  18
ATOM     18  C   UNL A   1      33.520  18.573  24.802  1.00  0.00     0.089 A 
ATOM     19  C   UNL A   1      34.467  17.702  24.254  1.00  0.00     0.030 A 
ATOM     20  N   UNL A   1      32.395  18.103  25.392  1.00  0.00    -0.255 NA
ATOM     21  C   UNL A   1      34.242  16.330  24.246  1.00  0.00     0.004 A 
ATOM     22  C   UNL A   1      32.240  16.756  25.441  1.00  0.00     0.112 A 
ATOM     23  C   UNL A   1      33.109  15.841  24.866  1.00  0.00     0.020 A 
ENDBRANCH  13  18
ENDBRANCH   8   9
ENDBRANCH   7   8
ENDBRANCH   5   7
ENDBRANCH   4   5
ENDBRANCH   3   4
ENDBRANCH   2   3
ENDBRANCH   1   2
BRANCH   1  24
ATOM     24  C   UNL A   1      34.739  29.218  26.937  1.00  0.00     0.202 C 
BRANCH  24  25
ATOM     25  C   UNL A   1      34.875  29.622  28.410  1.00  0.00     0.261 C 
BRANCH  25  26
ATOM     26  O   UNL A   1      36.058  30.287  28.765  1.00  0.00    -0.460 OA
BRANCH  26  27
ATOM     27  C   UNL A   1      36.667  29.751  29.836  1.00  0.00     0.338 C 
ATOM     28  O   UNL A   1      36.185  29.399  30.899  1.00  0.00    -0.246 OA
BRANCH  27  29
ATOM     29  C   UNL A   1      38.044  29.569  29.411  1.00  0.00     0.060 A 
ATOM     30  C   UNL A   1      38.311  29.690  28.052  1.00  0.00     0.016 A 
ATOM     31  C   UNL A   1      39.048  29.350  30.365  1.00  0.00     0.016 A 
ATOM     32  C   UNL A   1      39.612  29.523  27.625  1.00  0.00     0.010 A 
ATOM     33  C   UNL A   1      40.355  29.201  29.936  1.00  0.00     0.010 A 
ATOM     34  C   UNL A   1      40.621  29.244  28.562  1.00  0.00    -0.014 A 
BRANCH  34  35
ATOM     35  C   UNL A   1      41.935  28.846  28.048  1.00  0.00     0.031 A 
ATOM     36  C   UNL A   1      43.020  29.875  28.023  1.00  0.00     0.074 A 
ATOM     37  C   UNL A   1      42.139  27.559  27.733  1.00  0.00     0.049 A 
ATOM     38  N   UNL A   1      44.290  29.723  27.770  1.00  0.00    -0.248 NA
ATOM     39  C   UNL A   1      42.628  31.264  28.330  1.00  0.00     0.031 C 
ATOM     40  C   UNL A   1      41.111  26.515  27.749  1.00  0.00     0.029 A 
ATOM     41  N   UNL A   1      43.281  26.906  27.371  1.00  0.00    -0.354 N 
ATOM     42  C   UNL A   1      44.850  30.987  27.899  1.00  0.00     0.074 A 
ATOM     43  C   UNL A   1      43.779  31.906  28.204  1.00  0.00     0.031 C 
ATOM     44  C   UNL A   1      41.681  25.340  27.440  1.00  0.00     0.029 A 
ATOM     45  C   UNL A   1      43.102  25.557  27.189  1.00  0.00     0.049 A 
ATOM     46  H   UNL A   1      44.148  27.357  27.254  1.00  0.00     0.167 HD
ATOM     47  C   UNL A   1      46.152  31.333  27.791  1.00  0.00     0.037 A 
ATOM     48  C   UNL A   1      44.002  24.613  26.867  1.00  0.00     0.037 A 
ATOM     49  C   UNL A   1      47.188  30.386  27.482  1.00  0.00     0.049 A 
ATOM     50  C   UNL A   1      45.441  25.030  26.730  1.00  0.00     0.074 A 
ATOM     51  C   UNL A   1      48.545  30.603  27.340  1.00  0.00     0.029 A 
ATOM     52  N   UNL A   1      46.972  29.030  27.260  1.00  0.00    -0.354 N 
ATOM     53  N   UNL A   1      45.969  26.224  26.881  1.00  0.00    -0.248 NA
ATOM     54  C   UNL A   1      46.404  23.978  26.396  1.00  0.00     0.031 C 
ATOM     55  C   UNL A   1      49.142  29.387  26.990  1.00  0.00     0.029 A 
ATOM     56  C   UNL A   1      48.167  28.401  26.964  1.00  0.00     0.049 A 
ATOM     57  H   UNL A   1      46.096  28.584  27.308  1.00  0.00     0.167 HD
ATOM     58  C   UNL A   1      47.334  26.064  26.677  1.00  0.00     0.074 A 
ATOM     59  C   UNL A   1      47.546  24.653  26.415  1.00  0.00     0.031 C 
ATOM     60  C   UNL A   1      48.325  26.992  26.699  1.00  0.00     0.037 A 
BRANCH  47  61
ATOM     61  C   UNL A   1      46.504  32.781  27.983  1.00  0.00     0.058 A 
ATOM     62  C   UNL A   1      46.516  33.689  26.910  1.00  0.00     0.135 A 
ATOM     63  C   UNL A   1      46.832  33.271  29.256  1.00  0.00     0.135 A 
ATOM     64  F   UNL A   1      46.240  33.270  25.665  1.00  0.00    -0.206 F 
ATOM     65  C   UNL A   1      46.861  35.026  27.091  1.00  0.00     0.059 A 
ATOM     66  C   UNL A   1      47.155  34.609  29.465  1.00  0.00     0.059 A 
ATOM     67  F   UNL A   1      46.851  32.444  30.314  1.00  0.00    -0.206 F 
ATOM     68  C   UNL A   1      47.178  35.476  28.374  1.00  0.00     0.060 A 
BRANCH  68  69
ATOM     69  S   UNL A   1      47.612  37.215  28.596  1.00  0.00     0.124 S 
ATOM     70  O   UNL A   1      46.934  37.832  27.460  1.00  0.00    -0.237 OA
ATOM     71  O   UNL A   1      47.049  37.512  29.909  1.00  0.00    -0.237 OA
ATOM     72  O   UNL A   1      49.070  37.212  28.529  1.00  0.00    -0.744 OA
ENDBRANCH  68  69
ENDBRANCH  47  61
BRANCH  48  73
ATOM     73  C   UNL A   1      43.564  23.206  26.679  1.00  0.00     0.058 A 
ATOM     74  C   UNL A   1      43.479  22.630  25.404  1.00  0.00     0.135 A 
ATOM     75  C   UNL A   1      43.255  22.397  27.784  1.00  0.00     0.135 A 
ATOM     76  F   UNL A   1      43.769  23.362  24.317  1.00  0.00    -0.206 F 
ATOM     77  C   UNL A   1      43.086  21.308  25.228  1.00  0.00     0.059 A 
ATOM     78  C   UNL A   1      42.885  21.065  27.635  1.00  0.00     0.059 A 
ATOM     79  F   UNL A   1      43.343  22.894  29.028  1.00  0.00    -0.206 F 
ATOM     80  C   UNL A   1      42.792  20.531  26.351  1.00  0.00     0.060 A 
BRANCH  80  81
ATOM     81  S   UNL A   1      42.329  18.802  26.116  1.00  0.00     0.124 S 
ATOM     82  O   UNL A   1      42.607  18.243  27.433  1.00  0.00    -0.237 OA
ATOM     83  O   UNL A   1      40.921  18.909  25.750  1.00  0.00    -0.237 OA
ATOM     84  O   UNL A   1      43.216  18.362  25.042  1.00  0.00    -0.744 OA
ENDBRANCH  80  81
ENDBRANCH  48  73
BRANCH  60  85
ATOM     85  C   UNL A   1      49.718  26.490  26.449  1.00  0.00     0.058 A 
ATOM     86  C   UNL A   1      50.267  26.463  25.158  1.00  0.00     0.135 A 
ATOM     87  C   UNL A   1      50.515  26.049  27.517  1.00  0.00     0.135 A 
ATOM     88  F   UNL A   1      49.541  26.872  24.105  1.00  0.00    -0.206 F 
ATOM     89  C   UNL A   1      51.547  25.973  24.928  1.00  0.00     0.059 A 
ATOM     90  C   UNL A   1      51.808  25.585  27.313  1.00  0.00     0.059 A 
ATOM     91  F   UNL A   1      50.039  26.071  28.772  1.00  0.00    -0.206 F 
ATOM     92  C   UNL A   1      52.307  25.531  26.012  1.00  0.00     0.060 A 
BRANCH  92  93
ATOM     93  S   UNL A   1      53.964  24.891  25.701  1.00  0.00     0.124 S 
ATOM     94  O   UNL A   1      53.683  23.497  25.379  1.00  0.00    -0.237 OA
ATOM     95  O   UNL A   1      54.418  25.721  24.590  1.00  0.00    -0.237 OA
ATOM     96  O   UNL A   1      54.657  25.117  26.966  1.00  0.00    -0.744 OA
ENDBRANCH  92  93
ENDBRANCH  60  85
ENDBRANCH  34  35
ENDBRANCH  27  29
ENDBRANCH  26  27
ENDBRANCH  25  26
ENDBRANCH  24  25
ENDBRANCH   1  24
TORSDOF 21
ENDMDL
MODEL 2
REMARK VINA RESULT:     -10.4      5.418     10.418
REMARK SMILES CC(C)c1nc(OCC(=O)OCCOCCOC(=O)c2ccc(-c3c4nc(c(-c5c(F)cc(S(=O)(=O)[O-])cc5F)c5ccc([nH]5)c(-c5c(F)cc(S(=O)(=O)[O-])cc5F)c5nc(c(-c6c(F)cc(S(=O)(=O)[O-])cc6F)c6ccc3[nH]6)C=C5)C=C4)cc2)cc(-c2ccccn2)n1
REMARK SMILES IDX 14 1 13 2 12 3 11 4 9 5 10 6 8 7 7 8 6 9 4 10 5 11 94 12
REMARK SMILES IDX 87 13 86 14 2 15 1 16 3 17 88 18 89 19 93 20 90 21 92 22
REMARK SMILES IDX 91 23 15 24 16 25 17 26 18 27 19 28 20 29 21 30 85 31 22 32
REMARK SMILES IDX 84 33 23 34 24 35 25 36 78 37 26 38 83 39 77 40 79 41 27 42
REMARK SMILES IDX 82 43 76 44 75 45 28 47 62 48 41 49 61 50 42 51 45 52 60 53
REMARK SMILES IDX 80 54 43 55 44 56 59 58 81 59 46 60 29 61 30 62 39 63 31 64
REMARK SMILES IDX 32 65 38 66 40 67 33 68 34 69 35 70 36 71 37 72 63 73 64 74
REMARK SMILES IDX 73 75 65 76 66 77 72 78 74 79 67 80 68 81 69 82 70 83 71 84
REMARK SMILES IDX 47 85 48 86 57 87 49 88 50 89 56 90 58 91 51 92 52 93 53 94
REMARK SMILES IDX 54 95 55 96
REMARK H PARENT 79 46 45 57
REMARK Flexibility Score: inf
ROOT
ATOM      1  O   UNL A   1      34.833  21.932  25.370  1.00  0.00    -0.374 OA
ENDROOT
BRANCH   1   2
ATOM      2  C   UNL A   1      34.315  20.714  24.840  1.00  0.00     0.202 C 
BRANCH   2   3
ATOM      3  C   UNL A   1      32.989  20.789  24.074  1.00  0.00     0.261 C 
BRANCH   3   4
ATOM      4  O   UNL A   1      32.143  21.881  24.510  1.00  0.00    -0.461 OA
BRANCH   4   5
ATOM      5  C   UNL A   1      32.060  22.940  23.657  1.00  0.00     0.344 C 
ATOM      6  O   UNL A   1      32.767  23.096  22.665  1.00  0.00    -0.248 OA
BRANCH   5   7
ATOM      7  C   UNL A   1      30.981  23.964  24.033  1.00  0.00     0.353 C 
BRANCH   7   8
ATOM      8  O   UNL A   1      30.605  24.980  23.134  1.00  0.00    -0.466 OA
BRANCH   8   9
ATOM      9  C   UNL A   1      30.796  26.301  23.405  1.00  0.00     0.217 A 
ATOM     10  C   UNL A   1      31.489  27.679  25.120  1.00  0.00     0.135 A 
ATOM     11  N   UNL A   1      31.434  26.453  24.578  1.00  0.00    -0.198 NA
ATOM     12  N   UNL A   1      30.904  28.760  24.581  1.00  0.00    -0.231 NA
ATOM     13  C   UNL A   1      30.299  28.604  23.381  1.00  0.00     0.096 A 
ATOM     14  C   UNL A   1      30.253  27.374  22.727  1.00  0.00     0.099 A 
BRANCH  10  15
ATOM     15  C   UNL A   1      32.135  27.828  26.482  1.00  0.00     0.051 C 
ATOM     16  C   UNL A   1      33.656  27.711  26.370  1.00  0.00     0.016 C 
ATOM     17  C   UNL A   1      31.747  29.147  27.154  1.00  0.00     0.016 C 
ENDBRANCH  10  15
BRANCH  13  18
ATOM     18  C   UNL A   1      29.526  29.774  22.903  1.00  0.00     0.089 A 
ATOM     19  C   UNL A   1      29.303  30.885  23.722  1.00  0.00     0.030 A 
ATOM     20  N   UNL A   1      29.035  29.723  21.642  1.00  0.00    -0.255 NA
ATOM     21  C   UNL A   1      28.513  31.941  23.280  1.00  0.00     0.004 A 
ATOM     22  C   UNL A   1      28.335  30.802  21.209  1.00  0.00     0.112 A 
ATOM     23  C   UNL A   1      28.027  31.908  21.987  1.00  0.00     0.020 A 
ENDBRANCH  13  18
ENDBRANCH   8   9
ENDBRANCH   7   8
ENDBRANCH   5   7
ENDBRANCH   4   5
ENDBRANCH   3   4
ENDBRANCH   2   3
ENDBRANCH   1   2
BRANCH   1  24
ATOM     24  C   UNL A   1      36.219  22.181  25.221  1.00  0.00     0.202 C 
BRANCH  24  25
ATOM     25  C   UNL A   1      36.820  23.459  25.818  1.00  0.00     0.261 C 
BRANCH  25  26
ATOM     26  O   UNL A   1      38.137  23.762  25.439  1.00  0.00    -0.460 OA
BRANCH  26  27
ATOM     27  C   UNL A   1      39.052  23.367  26.339  1.00  0.00     0.338 C 
ATOM     28  O   UNL A   1      39.582  22.276  26.468  1.00  0.00    -0.246 OA
BRANCH  27  29
ATOM     29  C   UNL A   1      39.371  24.574  27.081  1.00  0.00     0.060 A 
ATOM     30  C   UNL A   1      40.125  25.541  26.426  1.00  0.00     0.016 A 
ATOM     31  C   UNL A   1      38.867  24.753  28.377  1.00  0.00     0.016 A 
ATOM     32  C   UNL A   1      40.439  26.697  27.110  1.00  0.00     0.010 A 
ATOM     33  C   UNL A   1      39.168  25.921  29.054  1.00  0.00     0.010 A 
ATOM     34  C   UNL A   1      39.992  26.867  28.431  1.00  0.00    -0.014 A 
BRANCH  34  35
ATOM     35  C   UNL A   1      40.538  27.993  29.194  1.00  0.00     0.031 A 
ATOM     36  C   UNL A   1      39.668  29.193  29.396  1.00  0.00     0.074 A 
ATOM     37  C   UNL A   1      41.740  27.854  29.772  1.00  0.00     0.049 A 
ATOM     38  N   UNL A   1      39.865  30.230  30.161  1.00  0.00    -0.248 NA
ATOM     39  C   UNL A   1      38.402  29.232  28.640  1.00  0.00     0.031 C 
ATOM     40  C   UNL A   1      42.624  26.697  29.611  1.00  0.00     0.029 A 
ATOM     41  N   UNL A   1      42.408  28.674  30.634  1.00  0.00    -0.354 N 
ATOM     42  C   UNL A   1      38.747  31.036  29.991  1.00  0.00     0.074 A 
ATOM     43  C   UNL A   1      37.897  30.396  29.015  1.00  0.00     0.031 C 
ATOM     44  C   UNL A   1      43.711  26.870  30.379  1.00  0.00     0.029 A 
ATOM     45  C   UNL A   1      43.602  28.153  31.066  1.00  0.00     0.049 A 
ATOM     46  H   UNL A   1      42.067  29.553  30.918  1.00  0.00     0.167 HD
ATOM     47  C   UNL A   1      38.457  32.197  30.620  1.00  0.00     0.037 A 
ATOM     48  C   UNL A   1      44.493  28.665  31.932  1.00  0.00     0.037 A 
ATOM     49  C   UNL A   1      39.334  32.802  31.584  1.00  0.00     0.049 A 
ATOM     50  C   UNL A   1      44.156  29.970  32.598  1.00  0.00     0.074 A 
ATOM     51  C   UNL A   1      39.164  33.977  32.291  1.00  0.00     0.029 A 
ATOM     52  N   UNL A   1      40.560  32.272  31.971  1.00  0.00    -0.354 N 
ATOM     53  N   UNL A   1      43.083  30.715  32.455  1.00  0.00    -0.248 NA
ATOM     54  C   UNL A   1      45.136  30.497  33.551  1.00  0.00     0.031 C 
ATOM     55  C   UNL A   1      40.307  34.178  33.073  1.00  0.00     0.029 A 
ATOM     56  C   UNL A   1      41.166  33.104  32.894  1.00  0.00     0.049 A 
ATOM     57  H   UNL A   1      40.940  31.427  31.638  1.00  0.00     0.167 HD
ATOM     58  C   UNL A   1      43.250  31.793  33.314  1.00  0.00     0.074 A 
ATOM     59  C   UNL A   1      44.518  31.586  33.988  1.00  0.00     0.031 C 
ATOM     60  C   UNL A   1      42.438  32.859  33.530  1.00  0.00     0.037 A 
BRANCH  47  61
ATOM     61  C   UNL A   1      37.168  32.878  30.258  1.00  0.00     0.058 A 
ATOM     62  C   UNL A   1      36.000  32.710  31.022  1.00  0.00     0.135 A 
ATOM     63  C   UNL A   1      37.096  33.713  29.132  1.00  0.00     0.135 A 
ATOM     64  F   UNL A   1      36.002  31.899  32.092  1.00  0.00    -0.206 F 
ATOM     65  C   UNL A   1      34.804  33.329  30.671  1.00  0.00     0.059 A 
ATOM     66  C   UNL A   1      35.917  34.363  28.777  1.00  0.00     0.059 A 
ATOM     67  F   UNL A   1      38.177  33.898  28.358  1.00  0.00    -0.206 F 
ATOM     68  C   UNL A   1      34.773  34.156  29.546  1.00  0.00     0.060 A 
BRANCH  68  69
ATOM     69  S   UNL A   1      33.218  34.961  29.109  1.00  0.00     0.124 S 
ATOM     70  O   UNL A   1      32.515  34.952  30.388  1.00  0.00    -0.237 OA
ATOM     71  O   UNL A   1      33.664  36.269  28.640  1.00  0.00    -0.237 OA
ATOM     72  O   UNL A   1      32.660  34.088  28.081  1.00  0.00    -0.744 OA
ENDBRANCH  68  69
ENDBRANCH  47  61
BRANCH  48  73
ATOM     73  C   UNL A   1      45.752  27.931  32.218  1.00  0.00     0.058 A 
ATOM     74  C   UNL A   1      46.923  28.172  31.484  1.00  0.00     0.135 A 
ATOM     75  C   UNL A   1      45.817  26.994  33.262  1.00  0.00     0.135 A 
ATOM     76  F   UNL A   1      46.913  29.061  30.479  1.00  0.00    -0.206 F 
ATOM     77  C   UNL A   1      48.107  27.499  31.762  1.00  0.00     0.059 A 
ATOM     78  C   UNL A   1      46.996  26.328  33.575  1.00  0.00     0.059 A 
ATOM     79  F   UNL A   1      44.731  26.744  34.009  1.00  0.00    -0.206 F 
ATOM     80  C   UNL A   1      48.135  26.578  32.813  1.00  0.00     0.060 A 
BRANCH  80  81
ATOM     81  S   UNL A   1      49.689  25.744  33.198  1.00  0.00     0.124 S 
ATOM     82  O   UNL A   1      50.568  26.874  33.471  1.00  0.00    -0.237 OA
ATOM     83  O   UNL A   1      49.322  24.926  34.348  1.00  0.00    -0.237 OA
ATOM     84  O   UNL A   1      49.979  24.999  31.976  1.00  0.00    -0.744 OA
ENDBRANCH  80  81
ENDBRANCH  48  73
BRANCH  60  85
ATOM     85  C   UNL A   1      42.904  33.860  34.547  1.00  0.00     0.058 A 
ATOM     86  C   UNL A   1      43.703  34.956  34.186  1.00  0.00     0.135 A 
ATOM     87  C   UNL A   1      42.528  33.730  35.893  1.00  0.00     0.135 A 
ATOM     88  F   UNL A   1      44.089  35.121  32.911  1.00  0.00    -0.206 F 
ATOM     89  C   UNL A   1      44.154  35.865  35.136  1.00  0.00     0.059 A 
ATOM     90  C   UNL A   1      42.942  34.645  36.854  1.00  0.00     0.059 A 
ATOM     91  F   UNL A   1      41.751  32.708  36.284  1.00  0.00    -0.206 F 
ATOM     92  C   UNL A   1      43.771  35.697  36.468  1.00  0.00     0.060 A 
BRANCH  92  93
ATOM     93  S   UNL A   1      44.367  36.879  37.693  1.00  0.00     0.124 S 
ATOM     94  O   UNL A   1      45.362  37.618  36.925  1.00  0.00    -0.237 OA
ATOM     95  O   UNL A   1      43.154  37.616  38.034  1.00  0.00    -0.237 OA
ATOM     96  O   UNL A   1      44.894  36.028  38.755  1.00  0.00    -0.744 OA
ENDBRANCH  92  93
ENDBRANCH  60  85
ENDBRANCH  34  35
ENDBRANCH  27  29
ENDBRANCH  26  27
ENDBRANCH  25  26
ENDBRANCH  24  25
ENDBRANCH   1  24
TORSDOF 21
ENDMDL
MODEL 3
REMARK VINA RESULT:     -10.4      6.631     12.302
REMARK SMILES CC(C)c1nc(OCC(=O)OCCOCCOC(=O)c2ccc(-c3c4nc(c(-c5c(F)cc(S(=O)(=O)[O-])cc5F)c5ccc([nH]5)c(-c5c(F)cc(S(=O)(=O)[O-])cc5F)c5nc(c(-c6c(F)cc(S(=O)(=O)[O-])cc6F)c6ccc3[nH]6)C=C5)C=C4)cc2)cc(-c2ccccn2)n1
REMARK SMILES IDX 14 1 13 2 12 3 11 4 9 5 10 6 8 7 7 8 6 9 4 10 5 11 94 12
REMARK SMILES IDX 87 13 86 14 2 15 1 16 3 17 88 18 89 19 93 20 90 21 92 22
REMARK SMILES IDX 91 23 15 24 16 25 17 26 18 27 19 28 20 29 21 30 85 31 22 32
REMARK SMILES IDX 84 33 23 34 24 35 25 36 78 37 26 38 83 39 77 40 79 41 27 42
REMARK SMILES IDX 82 43 76 44 75 45 28 47 62 48 41 49 61 50 42 51 45 52 60 53
REMARK SMILES IDX 80 54 43 55 44 56 59 58 81 59 46 60 29 61 30 62 39 63 31 64
REMARK SMILES IDX 32 65 38 66 40 67 33 68 34 69 35 70 36 71 37 72 63 73 64 74
REMARK SMILES IDX 73 75 65 76 66 77 72 78 74 79 67 80 68 81 69 82 70 83 71 84
REMARK SMILES IDX 47 85 48 86 57 87 49 88 50 89 56 90 58 91 51 92 52 93 53 94
REMARK SMILES IDX 54 95 55 96
REMARK H PARENT 79 46 45 57
REMARK Flexibility Score: inf
ROOT
ATOM      1  O   UNL A   1      42.499  21.756  25.381  1.00  0.00    -0.374 OA
ENDROOT
BRANCH   1   2
ATOM      2  C   UNL A   1      41.344  21.382  26.130  1.00  0.00     0.202 C 
BRANCH   2   3
ATOM      3  C   UNL A   1      40.218  22.416  26.246  1.00  0.00     0.261 C 
BRANCH   3   4
ATOM      4  O   UNL A   1      38.921  21.818  26.486  1.00  0.00    -0.461 OA
BRANCH   4   5
ATOM      5  C   UNL A   1      37.995  22.000  25.504  1.00  0.00     0.344 C 
ATOM      6  O   UNL A   1      37.736  21.181  24.627  1.00  0.00    -0.248 OA
BRANCH   5   7
ATOM      7  C   UNL A   1      37.267  23.349  25.572  1.00  0.00     0.353 C 
BRANCH   7   8
ATOM      8  O   UNL A   1      36.267  23.678  24.638  1.00  0.00    -0.466 OA
BRANCH   8   9
ATOM      9  C   UNL A   1      35.037  24.128  25.013  1.00  0.00     0.217 A 
ATOM     10  C   UNL A   1      32.805  23.811  24.522  1.00  0.00     0.135 A 
ATOM     11  N   UNL A   1      34.072  23.372  24.463  1.00  0.00    -0.198 NA
ATOM     12  N   UNL A   1      32.449  24.987  25.063  1.00  0.00    -0.231 NA
ATOM     13  C   UNL A   1      33.422  25.721  25.649  1.00  0.00     0.096 A 
ATOM     14  C   UNL A   1      34.751  25.302  25.680  1.00  0.00     0.099 A 
BRANCH  10  15
ATOM     15  C   UNL A   1      31.735  22.997  23.826  1.00  0.00     0.051 C 
ATOM     16  C   UNL A   1      30.657  23.914  23.245  1.00  0.00     0.016 C 
ATOM     17  C   UNL A   1      32.322  22.101  22.734  1.00  0.00     0.016 C 
ENDBRANCH  10  15
BRANCH  13  18
ATOM     18  C   UNL A   1      33.020  27.079  26.082  1.00  0.00     0.089 A 
ATOM     19  C   UNL A   1      32.029  27.273  27.050  1.00  0.00     0.030 A 
ATOM     20  N   UNL A   1      33.643  28.130  25.498  1.00  0.00    -0.255 NA
ATOM     21  C   UNL A   1      31.614  28.556  27.388  1.00  0.00     0.004 A 
ATOM     22  C   UNL A   1      33.274  29.371  25.906  1.00  0.00     0.112 A 
ATOM     23  C   UNL A   1      32.260  29.634  26.814  1.00  0.00     0.020 A 
ENDBRANCH  13  18
ENDBRANCH   8   9
ENDBRANCH   7   8
ENDBRANCH   5   7
ENDBRANCH   4   5
ENDBRANCH   3   4
ENDBRANCH   2   3
ENDBRANCH   1   2
BRANCH   1  24
ATOM     24  C   UNL A   1      43.703  21.986  26.091  1.00  0.00     0.202 C 
BRANCH  24  25
ATOM     25  C   UNL A   1      44.186  23.425  26.303  1.00  0.00     0.261 C 
BRANCH  25  26
ATOM     26  O   UNL A   1      43.386  24.234  27.125  1.00  0.00    -0.460 OA
BRANCH  26  27
ATOM     27  C   UNL A   1      42.730  25.192  26.449  1.00  0.00     0.338 C 
ATOM     28  O   UNL A   1      42.533  25.289  25.249  1.00  0.00    -0.246 OA
BRANCH  27  29
ATOM     29  C   UNL A   1      42.194  26.058  27.484  1.00  0.00     0.060 A 
ATOM     30  C   UNL A   1      42.846  27.267  27.702  1.00  0.00     0.016 A 
ATOM     31  C   UNL A   1      41.027  25.691  28.170  1.00  0.00     0.016 A 
ATOM     32  C   UNL A   1      42.355  28.107  28.679  1.00  0.00     0.010 A 
ATOM     33  C   UNL A   1      40.526  26.544  29.137  1.00  0.00     0.010 A 
ATOM     34  C   UNL A   1      41.221  27.728  29.416  1.00  0.00    -0.014 A 
BRANCH  34  35
ATOM     35  C   UNL A   1      40.873  28.532  30.591  1.00  0.00     0.031 A 
ATOM     36  C   UNL A   1      41.723  28.394  31.814  1.00  0.00     0.074 A 
ATOM     37  C   UNL A   1      39.887  29.435  30.482  1.00  0.00     0.049 A 
ATOM     38  N   UNL A   1      41.714  29.108  32.904  1.00  0.00    -0.248 NA
ATOM     39  C   UNL A   1      42.724  27.310  31.810  1.00  0.00     0.031 C 
ATOM     40  C   UNL A   1      39.033  29.613  29.305  1.00  0.00     0.029 A 
ATOM     41  N   UNL A   1      39.460  30.390  31.358  1.00  0.00    -0.354 N 
ATOM     42  C   UNL A   1      42.711  28.572  33.709  1.00  0.00     0.074 A 
ATOM     43  C   UNL A   1      43.273  27.443  33.007  1.00  0.00     0.031 C 
ATOM     44  C   UNL A   1      38.201  30.642  29.523  1.00  0.00     0.029 A 
ATOM     45  C   UNL A   1      38.454  31.177  30.857  1.00  0.00     0.049 A 
ATOM     46  H   UNL A   1      39.837  30.503  32.260  1.00  0.00     0.167 HD
ATOM     47  C   UNL A   1      43.125  29.009  34.919  1.00  0.00     0.037 A 
ATOM     48  C   UNL A   1      37.826  32.222  31.423  1.00  0.00     0.037 A 
ATOM     49  C   UNL A   1      42.534  30.136  35.586  1.00  0.00     0.049 A 
ATOM     50  C   UNL A   1      38.291  32.671  32.781  1.00  0.00     0.074 A 
ATOM     51  C   UNL A   1      42.856  30.681  36.815  1.00  0.00     0.029 A 
ATOM     52  N   UNL A   1      41.486  30.891  35.072  1.00  0.00    -0.354 N 
ATOM     53  N   UNL A   1      39.255  32.177  33.525  1.00  0.00    -0.248 NA
ATOM     54  C   UNL A   1      37.601  33.823  33.367  1.00  0.00     0.031 C 
ATOM     55  C   UNL A   1      41.973  31.738  37.062  1.00  0.00     0.029 A 
ATOM     56  C   UNL A   1      41.135  31.886  35.966  1.00  0.00     0.049 A 
ATOM     57  H   UNL A   1      41.057  30.739  34.200  1.00  0.00     0.167 HD
ATOM     58  C   UNL A   1      39.299  32.970  34.665  1.00  0.00     0.074 A 
ATOM     59  C   UNL A   1      38.279  33.988  34.495  1.00  0.00     0.031 C 
ATOM     60  C   UNL A   1      40.103  32.871  35.755  1.00  0.00     0.037 A 
BRANCH  47  61
ATOM     61  C   UNL A   1      44.237  28.250  35.587  1.00  0.00     0.058 A 
ATOM     62  C   UNL A   1      45.589  28.540  35.333  1.00  0.00     0.135 A 
ATOM     63  C   UNL A   1      43.950  27.219  36.494  1.00  0.00     0.135 A 
ATOM     64  F   UNL A   1      45.923  29.496  34.452  1.00  0.00    -0.206 F 
ATOM     65  C   UNL A   1      46.614  27.820  35.941  1.00  0.00     0.059 A 
ATOM     66  C   UNL A   1      44.958  26.503  37.133  1.00  0.00     0.059 A 
ATOM     67  F   UNL A   1      42.676  26.890  36.761  1.00  0.00    -0.206 F 
ATOM     68  C   UNL A   1      46.288  26.804  36.841  1.00  0.00     0.060 A 
BRANCH  68  69
ATOM     69  S   UNL A   1      47.628  25.887  37.630  1.00  0.00     0.124 S 
ATOM     70  O   UNL A   1      47.675  26.513  38.948  1.00  0.00    -0.237 OA
ATOM     71  O   UNL A   1      47.130  24.515  37.597  1.00  0.00    -0.237 OA
ATOM     72  O   UNL A   1      48.776  26.154  36.769  1.00  0.00    -0.744 OA
ENDBRANCH  68  69
ENDBRANCH  47  61
BRANCH  48  73
ATOM     73  C   UNL A   1      36.723  32.903  30.698  1.00  0.00     0.058 A 
ATOM     74  C   UNL A   1      35.379  32.602  30.959  1.00  0.00     0.135 A 
ATOM     75  C   UNL A   1      36.996  33.902  29.749  1.00  0.00     0.135 A 
ATOM     76  F   UNL A   1      35.066  31.659  31.861  1.00  0.00    -0.206 F 
ATOM     77  C   UNL A   1      34.345  33.252  30.294  1.00  0.00     0.059 A 
ATOM     78  C   UNL A   1      35.980  34.583  29.090  1.00  0.00     0.059 A 
ATOM     79  F   UNL A   1      38.266  34.243  29.479  1.00  0.00    -0.206 F 
ATOM     80  C   UNL A   1      34.656  34.244  29.361  1.00  0.00     0.060 A 
BRANCH  80  81
ATOM     81  S   UNL A   1      33.307  35.116  28.537  1.00  0.00     0.124 S 
ATOM     82  O   UNL A   1      34.034  35.967  27.603  1.00  0.00    -0.237 OA
ATOM     83  O   UNL A   1      32.548  34.019  27.945  1.00  0.00    -0.237 OA
ATOM     84  O   UNL A   1      32.637  35.810  29.634  1.00  0.00    -0.744 OA
ENDBRANCH  80  81
ENDBRANCH  48  73
BRANCH  60  85
ATOM     85  C   UNL A   1      39.907  33.905  36.826  1.00  0.00     0.058 A 
ATOM     86  C   UNL A   1      40.642  35.101  36.834  1.00  0.00     0.135 A 
ATOM     87  C   UNL A   1      38.960  33.703  37.842  1.00  0.00     0.135 A 
ATOM     88  F   UNL A   1      41.561  35.337  35.885  1.00  0.00    -0.206 F 
ATOM     89  C   UNL A   1      40.476  36.043  37.842  1.00  0.00     0.059 A 
ATOM     90  C   UNL A   1      38.756  34.647  38.842  1.00  0.00     0.059 A 
ATOM     91  F   UNL A   1      38.222  32.582  37.867  1.00  0.00    -0.206 F 
ATOM     92  C   UNL A   1      39.534  35.804  38.844  1.00  0.00     0.060 A 
BRANCH  92  93
ATOM     93  S   UNL A   1      39.331  37.031  40.150  1.00  0.00     0.124 S 
ATOM     94  O   UNL A   1      38.523  38.041  39.478  1.00  0.00    -0.237 OA
ATOM     95  O   UNL A   1      38.655  36.268  41.195  1.00  0.00    -0.237 OA
ATOM     96  O   UNL A   1      40.702  37.424  40.459  1.00  0.00    -0.744 OA
ENDBRANCH  92  93
ENDBRANCH  60  85
ENDBRANCH  34  35
ENDBRANCH  27  29
ENDBRANCH  26  27
ENDBRANCH  25  26
ENDBRANCH  24  25
ENDBRANCH   1  24
TORSDOF 21
ENDMDL
