MODEL 1
REMARK VINA RESULT:     -10.6      0.000      0.000
REMARK SMILES COc1cc(NS(=O)(=O)c2cc(C)c(C(=O)OCCOCCOC(=O)c3ccc(-c4c5nc(c(-c6c(F)cc(S(=O)(=O)[O-])cc6F)c6ccc([nH]6)c(-c6c(F)cc(S(=O)(=O)[O-])cc6F)c6nc(c(-c7c(F)cc(S(=O)(=O)[O-])cc7F)c7ccc4[nH]7)C=C6)C=C5)cc3)s2)cc(OC)c1
REMARK SMILES IDX 19 1 18 2 17 3 15 4 16 5 14 6 10 7 11 8 92 9 12 10 13 11
REMARK SMILES IDX 7 12 8 13 9 14 6 15 5 17 3 18 4 19 97 20 94 21 93 22 2 23
REMARK SMILES IDX 1 24 95 25 96 26 20 27 21 28 22 29 23 30 24 31 25 32 26 33
REMARK SMILES IDX 27 34 91 35 28 36 90 37 29 38 30 39 31 40 84 41 32 42 89 43
REMARK SMILES IDX 83 44 85 45 33 46 88 47 82 48 81 49 34 51 68 52 47 53 67 54
REMARK SMILES IDX 48 55 51 56 66 57 86 58 49 59 50 60 65 62 87 63 52 64 35 65
REMARK SMILES IDX 36 66 45 67 37 68 38 69 44 70 46 71 39 72 40 73 41 74 42 75
REMARK SMILES IDX 43 76 69 77 70 78 79 79 71 80 72 81 78 82 80 83 73 84 74 85
REMARK SMILES IDX 75 86 76 87 77 88 53 89 54 90 63 91 55 92 56 93 62 94 64 95
REMARK SMILES IDX 57 96 58 97 59 98 60 99 61 100
REMARK H PARENT 6 16 85 50 51 61
REMARK Flexibility Score: inf
ROOT
ATOM      1  C   UNL A   1      34.698  30.371  27.626  1.00  0.00     0.202 C 
ENDROOT
BRANCH   1   2
ATOM      2  C   UNL A   1      33.783  29.576  26.685  1.00  0.00     0.261 C 
BRANCH   2   3
ATOM      3  O   UNL A   1      32.404  29.594  27.097  1.00  0.00    -0.459 OA
BRANCH   3   4
ATOM      4  C   UNL A   1      31.722  28.415  26.976  1.00  0.00     0.348 C 
ATOM      5  O   UNL A   1      31.086  27.894  27.886  1.00  0.00    -0.245 OA
BRANCH   4   6
ATOM      6  C   UNL A   1      31.766  27.932  25.600  1.00  0.00     0.116 A 
ATOM      7  C   UNL A   1      32.190  26.414  23.676  1.00  0.00     0.141 A 
ATOM      8  C   UNL A   1      31.572  27.589  23.302  1.00  0.00     0.038 A 
ATOM      9  S   UNL A   1      32.573  26.426  25.334  1.00  0.00    -0.115 S 
ATOM     10  C   UNL A   1      31.246  28.442  24.413  1.00  0.00    -0.024 A 
ATOM     11  C   UNL A   1      30.461  29.702  24.229  1.00  0.00     0.046 C 
BRANCH   7  12
ATOM     12  S   UNL A   1      32.530  24.926  22.761  1.00  0.00     0.271 S 
ATOM     13  O   UNL A   1      32.594  25.295  21.363  1.00  0.00    -0.200 OA
ATOM     14  O   UNL A   1      31.554  23.962  23.225  1.00  0.00    -0.200 OA
BRANCH  12  15
ATOM     15  N   UNL A   1      34.075  24.336  23.178  1.00  0.00    -0.279 N 
ATOM     16  H   UNL A   1      34.884  24.861  22.977  1.00  0.00     0.180 HD
BRANCH  15  17
ATOM     17  C   UNL A   1      34.173  23.058  23.828  1.00  0.00     0.056 A 
ATOM     18  C   UNL A   1      35.460  21.422  25.074  1.00  0.00     0.124 A 
ATOM     19  C   UNL A   1      35.345  22.676  24.477  1.00  0.00     0.073 A 
ATOM     20  C   UNL A   1      34.406  20.518  24.988  1.00  0.00     0.093 A 
ATOM     21  C   UNL A   1      33.258  20.853  24.267  1.00  0.00     0.124 A 
ATOM     22  C   UNL A   1      33.132  22.135  23.713  1.00  0.00     0.073 A 
BRANCH  18  23
ATOM     23  O   UNL A   1      36.637  21.194  25.732  1.00  0.00    -0.497 OA
ATOM     24  C   UNL A   1      37.706  20.732  24.912  1.00  0.00     0.278 C 
ENDBRANCH  18  23
BRANCH  21  25
ATOM     25  O   UNL A   1      32.205  20.004  24.047  1.00  0.00    -0.497 OA
ATOM     26  C   UNL A   1      32.150  19.408  22.751  1.00  0.00     0.278 C 
ENDBRANCH  21  25
ENDBRANCH  15  17
ENDBRANCH  12  15
ENDBRANCH   7  12
ENDBRANCH   4   6
ENDBRANCH   3   4
ENDBRANCH   2   3
ENDBRANCH   1   2
BRANCH   1  27
ATOM     27  O   UNL A   1      34.182  31.612  28.107  1.00  0.00    -0.374 OA
BRANCH  27  28
ATOM     28  C   UNL A   1      35.108  32.679  28.302  1.00  0.00     0.202 C 
BRANCH  28  29
ATOM     29  C   UNL A   1      35.423  33.038  29.757  1.00  0.00     0.261 C 
BRANCH  29  30
ATOM     30  O   UNL A   1      36.725  32.577  30.164  1.00  0.00    -0.460 OA
BRANCH  30  31
ATOM     31  C   UNL A   1      36.742  31.323  30.677  1.00  0.00     0.338 C 
ATOM     32  O   UNL A   1      35.905  30.810  31.401  1.00  0.00    -0.246 OA
BRANCH  31  33
ATOM     33  C   UNL A   1      37.920  30.583  30.195  1.00  0.00     0.060 A 
ATOM     34  C   UNL A   1      38.888  30.190  31.126  1.00  0.00     0.016 A 
ATOM     35  C   UNL A   1      38.145  30.422  28.827  1.00  0.00     0.016 A 
ATOM     36  C   UNL A   1      40.105  29.666  30.681  1.00  0.00     0.010 A 
ATOM     37  C   UNL A   1      39.364  29.897  28.385  1.00  0.00     0.010 A 
ATOM     38  C   UNL A   1      40.364  29.543  29.307  1.00  0.00    -0.014 A 
BRANCH  38  39
ATOM     39  C   UNL A   1      41.705  29.116  28.832  1.00  0.00     0.031 A 
ATOM     40  C   UNL A   1      42.821  30.121  28.727  1.00  0.00     0.074 A 
ATOM     41  C   UNL A   1      41.923  27.833  28.492  1.00  0.00     0.049 A 
ATOM     42  N   UNL A   1      44.050  29.951  28.310  1.00  0.00    -0.248 NA
ATOM     43  C   UNL A   1      42.512  31.498  29.141  1.00  0.00     0.031 C 
ATOM     44  C   UNL A   1      40.927  26.764  28.557  1.00  0.00     0.029 A 
ATOM     45  N   UNL A   1      43.051  27.213  28.015  1.00  0.00    -0.354 N 
ATOM     46  C   UNL A   1      44.662  31.195  28.409  1.00  0.00     0.074 A 
ATOM     47  C   UNL A   1      43.658  32.118  28.897  1.00  0.00     0.031 C 
ATOM     48  C   UNL A   1      41.487  25.619  28.130  1.00  0.00     0.029 A 
ATOM     49  C   UNL A   1      42.870  25.880  27.736  1.00  0.00     0.049 A 
ATOM     50  H   UNL A   1      43.907  27.680  27.886  1.00  0.00     0.167 HD
ATOM     51  C   UNL A   1      45.944  31.535  28.130  1.00  0.00     0.037 A 
ATOM     52  C   UNL A   1      43.717  24.975  27.208  1.00  0.00     0.037 A 
ATOM     53  C   UNL A   1      46.942  30.615  27.648  1.00  0.00     0.049 A 
ATOM     54  C   UNL A   1      45.125  25.384  26.866  1.00  0.00     0.074 A 
ATOM     55  C   UNL A   1      48.275  30.863  27.364  1.00  0.00     0.029 A 
ATOM     56  N   UNL A   1      46.719  29.275  27.370  1.00  0.00    -0.354 N 
ATOM     57  N   UNL A   1      45.699  26.556  27.002  1.00  0.00    -0.248 NA
ATOM     58  C   UNL A   1      46.004  24.348  26.304  1.00  0.00     0.031 C 
ATOM     59  C   UNL A   1      48.846  29.681  26.876  1.00  0.00     0.029 A 
ATOM     60  C   UNL A   1      47.881  28.687  26.899  1.00  0.00     0.049 A 
ATOM     61  H   UNL A   1      45.859  28.810  27.490  1.00  0.00     0.167 HD
ATOM     62  C   UNL A   1      47.011  26.391  26.571  1.00  0.00     0.074 A 
ATOM     63  C   UNL A   1      47.148  25.005  26.173  1.00  0.00     0.031 C 
ATOM     64  C   UNL A   1      48.012  27.304  26.515  1.00  0.00     0.037 A 
BRANCH  51  65
ATOM     65  C   UNL A   1      46.343  32.972  28.327  1.00  0.00     0.058 A 
ATOM     66  C   UNL A   1      46.865  33.430  29.546  1.00  0.00     0.135 A 
ATOM     67  C   UNL A   1      46.241  33.891  27.270  1.00  0.00     0.135 A 
ATOM     68  F   UNL A   1      46.972  32.596  30.592  1.00  0.00    -0.206 F 
ATOM     69  C   UNL A   1      47.247  34.757  29.720  1.00  0.00     0.059 A 
ATOM     70  C   UNL A   1      46.639  35.217  27.415  1.00  0.00     0.059 A 
ATOM     71  F   UNL A   1      45.749  33.505  26.083  1.00  0.00    -0.206 F 
ATOM     72  C   UNL A   1      47.126  35.644  28.650  1.00  0.00     0.060 A 
BRANCH  72  73
ATOM     73  S   UNL A   1      47.621  37.364  28.891  1.00  0.00     0.124 S 
ATOM     74  O   UNL A   1      46.372  37.961  29.357  1.00  0.00    -0.237 OA
ATOM     75  O   UNL A   1      48.680  37.251  29.888  1.00  0.00    -0.237 OA
ATOM     76  O   UNL A   1      48.057  37.782  27.562  1.00  0.00    -0.744 OA
ENDBRANCH  72  73
ENDBRANCH  51  65
BRANCH  52  77
ATOM     77  C   UNL A   1      43.253  23.582  26.973  1.00  0.00     0.058 A 
ATOM     78  C   UNL A   1      42.985  23.119  25.678  1.00  0.00     0.135 A 
ATOM     79  C   UNL A   1      43.083  22.686  28.040  1.00  0.00     0.135 A 
ATOM     80  F   UNL A   1      43.125  23.941  24.628  1.00  0.00    -0.206 F 
ATOM     81  C   UNL A   1      42.556  21.815  25.446  1.00  0.00     0.059 A 
ATOM     82  C   UNL A   1      42.678  21.373  27.832  1.00  0.00     0.059 A 
ATOM     83  F   UNL A   1      43.340  23.081  29.297  1.00  0.00    -0.206 F 
ATOM     84  C   UNL A   1      42.409  20.949  26.531  1.00  0.00     0.060 A 
BRANCH  84  85
ATOM     85  S   UNL A   1      41.909  19.242  26.217  1.00  0.00     0.124 S 
ATOM     86  O   UNL A   1      40.465  19.383  26.066  1.00  0.00    -0.237 OA
ATOM     87  O   UNL A   1      42.652  18.924  25.001  1.00  0.00    -0.237 OA
ATOM     88  O   UNL A   1      42.355  18.539  27.416  1.00  0.00    -0.744 OA
ENDBRANCH  84  85
ENDBRANCH  52  77
BRANCH  64  89
ATOM     89  C   UNL A   1      49.359  26.833  26.043  1.00  0.00     0.058 A 
ATOM     90  C   UNL A   1      49.769  26.987  24.710  1.00  0.00     0.135 A 
ATOM     91  C   UNL A   1      50.274  26.276  26.951  1.00  0.00     0.135 A 
ATOM     92  F   UNL A   1      48.931  27.508  23.801  1.00  0.00    -0.206 F 
ATOM     93  C   UNL A   1      51.035  26.591  24.290  1.00  0.00     0.059 A 
ATOM     94  C   UNL A   1      51.553  25.894  26.558  1.00  0.00     0.059 A 
ATOM     95  F   UNL A   1      49.934  26.115  28.240  1.00  0.00    -0.206 F 
ATOM     96  C   UNL A   1      51.922  26.047  25.222  1.00  0.00     0.060 A 
BRANCH  96  97
ATOM     97  S   UNL A   1      53.577  25.577  24.676  1.00  0.00     0.124 S 
ATOM     98  O   UNL A   1      53.511  25.874  23.249  1.00  0.00    -0.237 OA
ATOM     99  O   UNL A   1      54.431  26.458  25.467  1.00  0.00    -0.237 OA
ATOM    100  O   UNL A   1      53.659  24.161  25.020  1.00  0.00    -0.744 OA
ENDBRANCH  96  97
ENDBRANCH  64  89
ENDBRANCH  38  39
ENDBRANCH  31  33
ENDBRANCH  30  31
ENDBRANCH  29  30
ENDBRANCH  28  29
ENDBRANCH  27  28
ENDBRANCH   1  27
TORSDOF 22
ENDMDL
MODEL 2
REMARK VINA RESULT:     -10.4      6.147     12.230
REMARK SMILES COc1cc(NS(=O)(=O)c2cc(C)c(C(=O)OCCOCCOC(=O)c3ccc(-c4c5nc(c(-c6c(F)cc(S(=O)(=O)[O-])cc6F)c6ccc([nH]6)c(-c6c(F)cc(S(=O)(=O)[O-])cc6F)c6nc(c(-c7c(F)cc(S(=O)(=O)[O-])cc7F)c7ccc4[nH]7)C=C6)C=C5)cc3)s2)cc(OC)c1
REMARK SMILES IDX 19 1 18 2 17 3 15 4 16 5 14 6 10 7 11 8 92 9 12 10 13 11
REMARK SMILES IDX 7 12 8 13 9 14 6 15 5 17 3 18 4 19 97 20 94 21 93 22 2 23
REMARK SMILES IDX 1 24 95 25 96 26 20 27 21 28 22 29 23 30 24 31 25 32 26 33
REMARK SMILES IDX 27 34 91 35 28 36 90 37 29 38 30 39 31 40 84 41 32 42 89 43
REMARK SMILES IDX 83 44 85 45 33 46 88 47 82 48 81 49 34 51 68 52 47 53 67 54
REMARK SMILES IDX 48 55 51 56 66 57 86 58 49 59 50 60 65 62 87 63 52 64 35 65
REMARK SMILES IDX 36 66 45 67 37 68 38 69 44 70 46 71 39 72 40 73 41 74 42 75
REMARK SMILES IDX 43 76 69 77 70 78 79 79 71 80 72 81 78 82 80 83 73 84 74 85
REMARK SMILES IDX 75 86 76 87 77 88 53 89 54 90 63 91 55 92 56 93 62 94 64 95
REMARK SMILES IDX 57 96 58 97 59 98 60 99 61 100
REMARK H PARENT 6 16 85 50 51 61
REMARK Flexibility Score: inf
ROOT
ATOM      1  C   UNL A   1      45.618  22.732  26.664  1.00  0.00     0.202 C 
ENDROOT
BRANCH   1   2
ATOM      2  C   UNL A   1      44.295  22.129  26.174  1.00  0.00     0.261 C 
BRANCH   2   3
ATOM      3  O   UNL A   1      43.148  22.916  26.546  1.00  0.00    -0.459 OA
BRANCH   3   4
ATOM      4  C   UNL A   1      42.336  22.383  27.509  1.00  0.00     0.348 C 
ATOM      5  O   UNL A   1      42.579  22.425  28.711  1.00  0.00    -0.245 OA
BRANCH   4   6
ATOM      6  C   UNL A   1      41.107  21.865  26.919  1.00  0.00     0.116 A 
ATOM      7  C   UNL A   1      38.778  21.825  26.047  1.00  0.00     0.141 A 
ATOM      8  C   UNL A   1      39.423  20.615  25.900  1.00  0.00     0.038 A 
ATOM      9  S   UNL A   1      39.751  22.938  26.890  1.00  0.00    -0.115 S 
ATOM     10  C   UNL A   1      40.797  20.645  26.324  1.00  0.00    -0.024 A 
ATOM     11  C   UNL A   1      41.702  19.470  26.129  1.00  0.00     0.046 C 
BRANCH   7  12
ATOM     12  S   UNL A   1      37.212  22.402  25.428  1.00  0.00     0.271 S 
ATOM     13  O   UNL A   1      37.253  22.268  23.986  1.00  0.00    -0.200 OA
ATOM     14  O   UNL A   1      37.013  23.697  26.042  1.00  0.00    -0.200 OA
BRANCH  12  15
ATOM     15  N   UNL A   1      35.965  21.375  25.974  1.00  0.00    -0.279 N 
ATOM     16  H   UNL A   1      36.042  20.908  26.838  1.00  0.00     0.180 HD
BRANCH  15  17
ATOM     17  C   UNL A   1      34.800  21.205  25.150  1.00  0.00     0.056 A 
ATOM     18  C   UNL A   1      32.984  22.153  23.850  1.00  0.00     0.124 A 
ATOM     19  C   UNL A   1      34.137  22.308  24.616  1.00  0.00     0.073 A 
ATOM     20  C   UNL A   1      32.458  20.881  23.646  1.00  0.00     0.093 A 
ATOM     21  C   UNL A   1      33.062  19.774  24.246  1.00  0.00     0.124 A 
ATOM     22  C   UNL A   1      34.249  19.935  24.973  1.00  0.00     0.073 A 
BRANCH  18  23
ATOM     23  O   UNL A   1      32.466  23.307  23.333  1.00  0.00    -0.497 OA
ATOM     24  C   UNL A   1      33.221  24.483  23.606  1.00  0.00     0.278 C 
ENDBRANCH  18  23
BRANCH  21  25
ATOM     25  O   UNL A   1      32.573  18.494  24.182  1.00  0.00    -0.497 OA
ATOM     26  C   UNL A   1      32.527  17.913  22.879  1.00  0.00     0.278 C 
ENDBRANCH  21  25
ENDBRANCH  15  17
ENDBRANCH  12  15
ENDBRANCH   7  12
ENDBRANCH   4   6
ENDBRANCH   3   4
ENDBRANCH   2   3
ENDBRANCH   1   2
BRANCH   1  27
ATOM     27  O   UNL A   1      46.392  23.429  25.688  1.00  0.00    -0.374 OA
BRANCH  27  28
ATOM     28  C   UNL A   1      46.003  24.764  25.370  1.00  0.00     0.202 C 
BRANCH  28  29
ATOM     29  C   UNL A   1      44.619  24.928  24.736  1.00  0.00     0.261 C 
BRANCH  29  30
ATOM     30  O   UNL A   1      44.012  26.190  25.069  1.00  0.00    -0.460 OA
BRANCH  30  31
ATOM     31  C   UNL A   1      42.750  26.095  25.554  1.00  0.00     0.338 C 
ATOM     32  O   UNL A   1      41.799  25.536  25.034  1.00  0.00    -0.246 OA
BRANCH  31  33
ATOM     33  C   UNL A   1      42.656  26.731  26.879  1.00  0.00     0.060 A 
ATOM     34  C   UNL A   1      41.712  26.241  27.789  1.00  0.00     0.016 A 
ATOM     35  C   UNL A   1      43.374  27.895  27.159  1.00  0.00     0.016 A 
ATOM     36  C   UNL A   1      41.460  26.943  28.971  1.00  0.00     0.010 A 
ATOM     37  C   UNL A   1      43.119  28.594  28.344  1.00  0.00     0.010 A 
ATOM     38  C   UNL A   1      42.140  28.140  29.244  1.00  0.00    -0.014 A 
BRANCH  38  39
ATOM     39  C   UNL A   1      41.776  28.956  30.430  1.00  0.00     0.031 A 
ATOM     40  C   UNL A   1      42.571  28.831  31.702  1.00  0.00     0.074 A 
ATOM     41  C   UNL A   1      40.734  29.805  30.370  1.00  0.00     0.049 A 
ATOM     42  N   UNL A   1      42.395  29.435  32.850  1.00  0.00    -0.248 NA
ATOM     43  C   UNL A   1      43.710  27.901  31.681  1.00  0.00     0.031 C 
ATOM     44  C   UNL A   1      39.891  30.023  29.195  1.00  0.00     0.029 A 
ATOM     45  N   UNL A   1      40.202  30.636  31.324  1.00  0.00    -0.354 N 
ATOM     46  C   UNL A   1      43.398  28.961  33.688  1.00  0.00     0.074 A 
ATOM     47  C   UNL A   1      44.159  27.994  32.925  1.00  0.00     0.031 C 
ATOM     48  C   UNL A   1      38.943  30.925  29.499  1.00  0.00     0.029 A 
ATOM     49  C   UNL A   1      39.094  31.327  30.896  1.00  0.00     0.049 A 
ATOM     50  H   UNL A   1      40.578  30.728  32.229  1.00  0.00     0.167 HD
ATOM     51  C   UNL A   1      43.664  29.307  34.971  1.00  0.00     0.037 A 
ATOM     52  C   UNL A   1      38.283  32.176  31.557  1.00  0.00     0.037 A 
ATOM     53  C   UNL A   1      42.907  30.270  35.728  1.00  0.00     0.049 A 
ATOM     54  C   UNL A   1      38.574  32.514  32.996  1.00  0.00     0.074 A 
ATOM     55  C   UNL A   1      43.121  30.705  37.026  1.00  0.00     0.029 A 
ATOM     56  N   UNL A   1      41.787  30.943  35.262  1.00  0.00    -0.354 N 
ATOM     57  N   UNL A   1      39.549  32.085  33.762  1.00  0.00    -0.248 NA
ATOM     58  C   UNL A   1      37.659  33.455  33.659  1.00  0.00     0.031 C 
ATOM     59  C   UNL A   1      42.106  31.611  37.357  1.00  0.00     0.029 A 
ATOM     60  C   UNL A   1      41.287  31.773  36.252  1.00  0.00     0.049 A 
ATOM     61  H   UNL A   1      41.405  30.844  34.361  1.00  0.00     0.167 HD
ATOM     62  C   UNL A   1      39.381  32.725  34.985  1.00  0.00     0.074 A 
ATOM     63  C   UNL A   1      38.215  33.574  34.857  1.00  0.00     0.031 C 
ATOM     64  C   UNL A   1      40.130  32.623  36.111  1.00  0.00     0.037 A 
BRANCH  51  65
ATOM     65  C   UNL A   1      44.822  28.626  35.650  1.00  0.00     0.058 A 
ATOM     66  C   UNL A   1      46.114  29.174  35.626  1.00  0.00     0.135 A 
ATOM     67  C   UNL A   1      44.628  27.434  36.366  1.00  0.00     0.135 A 
ATOM     68  F   UNL A   1      46.357  30.305  34.946  1.00  0.00    -0.206 F 
ATOM     69  C   UNL A   1      47.179  28.550  36.268  1.00  0.00     0.059 A 
ATOM     70  C   UNL A   1      45.674  26.805  37.035  1.00  0.00     0.059 A 
ATOM     71  F   UNL A   1      43.413  26.869  36.421  1.00  0.00    -0.206 F 
ATOM     72  C   UNL A   1      46.951  27.363  36.966  1.00  0.00     0.060 A 
BRANCH  72  73
ATOM     73  S   UNL A   1      48.343  26.561  37.789  1.00  0.00     0.124 S 
ATOM     74  O   UNL A   1      48.290  25.222  37.209  1.00  0.00    -0.237 OA
ATOM     75  O   UNL A   1      49.472  27.386  37.374  1.00  0.00    -0.237 OA
ATOM     76  O   UNL A   1      47.996  26.645  39.204  1.00  0.00    -0.744 OA
ENDBRANCH  72  73
ENDBRANCH  51  65
BRANCH  52  77
ATOM     77  C   UNL A   1      37.114  32.772  30.860  1.00  0.00     0.058 A 
ATOM     78  C   UNL A   1      35.828  32.237  31.018  1.00  0.00     0.135 A 
ATOM     79  C   UNL A   1      37.260  33.896  30.032  1.00  0.00     0.135 A 
ATOM     80  F   UNL A   1      35.640  31.158  31.793  1.00  0.00    -0.206 F 
ATOM     81  C   UNL A   1      34.726  32.791  30.374  1.00  0.00     0.059 A 
ATOM     82  C   UNL A   1      36.171  34.480  29.396  1.00  0.00     0.059 A 
ATOM     83  F   UNL A   1      38.470  34.450  29.859  1.00  0.00    -0.206 F 
ATOM     84  C   UNL A   1      34.908  33.915  29.567  1.00  0.00     0.060 A 
BRANCH  84  85
ATOM     85  S   UNL A   1      33.464  34.663  28.782  1.00  0.00     0.124 S 
ATOM     86  O   UNL A   1      32.621  34.953  29.937  1.00  0.00    -0.237 OA
ATOM     87  O   UNL A   1      34.045  35.820  28.108  1.00  0.00    -0.237 OA
ATOM     88  O   UNL A   1      32.983  33.608  27.895  1.00  0.00    -0.744 OA
ENDBRANCH  84  85
ENDBRANCH  52  77
BRANCH  64  89
ATOM     89  C   UNL A   1      39.741  33.475  37.287  1.00  0.00     0.058 A 
ATOM     90  C   UNL A   1      38.766  33.060  38.208  1.00  0.00     0.135 A 
ATOM     91  C   UNL A   1      40.397  34.693  37.529  1.00  0.00     0.135 A 
ATOM     92  F   UNL A   1      38.106  31.907  38.020  1.00  0.00    -0.206 F 
ATOM     93  C   UNL A   1      38.444  33.832  39.320  1.00  0.00     0.059 A 
ATOM     94  C   UNL A   1      40.106  35.470  38.646  1.00  0.00     0.059 A 
ATOM     95  F   UNL A   1      41.344  35.130  36.682  1.00  0.00    -0.206 F 
ATOM     96  C   UNL A   1      39.121  35.036  39.532  1.00  0.00     0.060 A 
BRANCH  96  97
ATOM     97  S   UNL A   1      38.726  36.009  41.000  1.00  0.00     0.124 S 
ATOM     98  O   UNL A   1      39.955  35.882  41.777  1.00  0.00    -0.237 OA
ATOM     99  O   UNL A   1      38.465  37.332  40.440  1.00  0.00    -0.237 OA
ATOM    100  O   UNL A   1      37.559  35.328  41.554  1.00  0.00    -0.744 OA
ENDBRANCH  96  97
ENDBRANCH  64  89
ENDBRANCH  38  39
ENDBRANCH  31  33
ENDBRANCH  30  31
ENDBRANCH  29  30
ENDBRANCH  28  29
ENDBRANCH  27  28
ENDBRANCH   1  27
TORSDOF 22
ENDMDL
MODEL 3
REMARK VINA RESULT:     -10.3      6.293      8.549
REMARK SMILES COc1cc(NS(=O)(=O)c2cc(C)c(C(=O)OCCOCCOC(=O)c3ccc(-c4c5nc(c(-c6c(F)cc(S(=O)(=O)[O-])cc6F)c6ccc([nH]6)c(-c6c(F)cc(S(=O)(=O)[O-])cc6F)c6nc(c(-c7c(F)cc(S(=O)(=O)[O-])cc7F)c7ccc4[nH]7)C=C6)C=C5)cc3)s2)cc(OC)c1
REMARK SMILES IDX 19 1 18 2 17 3 15 4 16 5 14 6 10 7 11 8 92 9 12 10 13 11
REMARK SMILES IDX 7 12 8 13 9 14 6 15 5 17 3 18 4 19 97 20 94 21 93 22 2 23
REMARK SMILES IDX 1 24 95 25 96 26 20 27 21 28 22 29 23 30 24 31 25 32 26 33
REMARK SMILES IDX 27 34 91 35 28 36 90 37 29 38 30 39 31 40 84 41 32 42 89 43
REMARK SMILES IDX 83 44 85 45 33 46 88 47 82 48 81 49 34 51 68 52 47 53 67 54
REMARK SMILES IDX 48 55 51 56 66 57 86 58 49 59 50 60 65 62 87 63 52 64 35 65
REMARK SMILES IDX 36 66 45 67 37 68 38 69 44 70 46 71 39 72 40 73 41 74 42 75
REMARK SMILES IDX 43 76 69 77 70 78 79 79 71 80 72 81 78 82 80 83 73 84 74 85
REMARK SMILES IDX 75 86 76 87 77 88 53 89 54 90 63 91 55 92 56 93 62 94 64 95
REMARK SMILES IDX 57 96 58 97 59 98 60 99 61 100
REMARK H PARENT 6 16 85 50 51 61
REMARK Flexibility Score: inf
ROOT
ATOM      1  C   UNL A   1      34.370  31.001  27.735  1.00  0.00     0.202 C 
ENDROOT
BRANCH   1   2
ATOM      2  C   UNL A   1      34.057  29.764  26.884  1.00  0.00     0.261 C 
BRANCH   2   3
ATOM      3  O   UNL A   1      32.731  29.789  26.322  1.00  0.00    -0.459 OA
BRANCH   3   4
ATOM      4  C   UNL A   1      32.058  28.599  26.309  1.00  0.00     0.348 C 
ATOM      5  O   UNL A   1      31.480  28.127  27.282  1.00  0.00    -0.245 OA
BRANCH   4   6
ATOM      6  C   UNL A   1      32.031  28.036  24.963  1.00  0.00     0.116 A 
ATOM      7  C   UNL A   1      32.559  26.528  23.058  1.00  0.00     0.141 A 
ATOM      8  C   UNL A   1      31.608  27.476  22.740  1.00  0.00     0.038 A 
ATOM      9  S   UNL A   1      33.157  26.767  24.633  1.00  0.00    -0.115 S 
ATOM     10  C   UNL A   1      31.231  28.303  23.855  1.00  0.00    -0.024 A 
ATOM     11  C   UNL A   1      30.126  29.305  23.748  1.00  0.00     0.046 C 
BRANCH   7  12
ATOM     12  S   UNL A   1      33.143  25.107  22.160  1.00  0.00     0.271 S 
ATOM     13  O   UNL A   1      34.287  24.591  22.882  1.00  0.00    -0.200 OA
ATOM     14  O   UNL A   1      33.277  25.552  20.788  1.00  0.00    -0.200 OA
BRANCH  12  15
ATOM     15  N   UNL A   1      31.958  23.881  22.190  1.00  0.00    -0.279 N 
ATOM     16  H   UNL A   1      31.272  23.828  21.485  1.00  0.00     0.180 HD
BRANCH  15  17
ATOM     17  C   UNL A   1      31.981  22.926  23.264  1.00  0.00     0.056 A 
ATOM     18  C   UNL A   1      31.703  22.393  25.614  1.00  0.00     0.124 A 
ATOM     19  C   UNL A   1      31.644  23.305  24.562  1.00  0.00     0.073 A 
ATOM     20  C   UNL A   1      32.145  21.096  25.378  1.00  0.00     0.093 A 
ATOM     21  C   UNL A   1      32.568  20.725  24.100  1.00  0.00     0.124 A 
ATOM     22  C   UNL A   1      32.457  21.633  23.038  1.00  0.00     0.073 A 
BRANCH  18  23
ATOM     23  O   UNL A   1      31.288  22.872  26.825  1.00  0.00    -0.497 OA
ATOM     24  C   UNL A   1      29.880  23.033  26.961  1.00  0.00     0.278 C 
ENDBRANCH  18  23
BRANCH  21  25
ATOM     25  O   UNL A   1      33.103  19.503  23.784  1.00  0.00    -0.497 OA
ATOM     26  C   UNL A   1      33.189  18.568  24.859  1.00  0.00     0.278 C 
ENDBRANCH  21  25
ENDBRANCH  15  17
ENDBRANCH  12  15
ENDBRANCH   7  12
ENDBRANCH   4   6
ENDBRANCH   3   4
ENDBRANCH   2   3
ENDBRANCH   1   2
BRANCH   1  27
ATOM     27  O   UNL A   1      33.403  32.050  27.701  1.00  0.00    -0.374 OA
BRANCH  27  28
ATOM     28  C   UNL A   1      33.874  33.386  27.876  1.00  0.00     0.202 C 
BRANCH  28  29
ATOM     29  C   UNL A   1      32.822  34.421  28.282  1.00  0.00     0.261 C 
BRANCH  29  30
ATOM     30  O   UNL A   1      33.352  35.416  29.178  1.00  0.00    -0.460 OA
BRANCH  30  31
ATOM     31  C   UNL A   1      33.041  35.219  30.483  1.00  0.00     0.338 C 
ATOM     32  O   UNL A   1      31.951  35.360  31.011  1.00  0.00    -0.246 OA
BRANCH  31  33
ATOM     33  C   UNL A   1      34.215  34.737  31.228  1.00  0.00     0.060 A 
ATOM     34  C   UNL A   1      35.487  34.958  30.687  1.00  0.00     0.016 A 
ATOM     35  C   UNL A   1      34.056  33.937  32.361  1.00  0.00     0.016 A 
ATOM     36  C   UNL A   1      36.602  34.344  31.263  1.00  0.00     0.010 A 
ATOM     37  C   UNL A   1      35.174  33.324  32.935  1.00  0.00     0.010 A 
ATOM     38  C   UNL A   1      36.451  33.498  32.373  1.00  0.00    -0.014 A 
BRANCH  38  39
ATOM     39  C   UNL A   1      37.613  32.738  32.901  1.00  0.00     0.031 A 
ATOM     40  C   UNL A   1      38.235  33.132  34.214  1.00  0.00     0.074 A 
ATOM     41  C   UNL A   1      38.111  31.700  32.206  1.00  0.00     0.049 A 
ATOM     42  N   UNL A   1      39.268  32.612  34.829  1.00  0.00    -0.248 NA
ATOM     43  C   UNL A   1      37.618  34.260  34.927  1.00  0.00     0.031 C 
ATOM     44  C   UNL A   1      37.593  31.216  30.927  1.00  0.00     0.029 A 
ATOM     45  N   UNL A   1      39.172  30.871  32.474  1.00  0.00    -0.354 N 
ATOM     46  C   UNL A   1      39.427  33.347  35.997  1.00  0.00     0.074 A 
ATOM     47  C   UNL A   1      38.402  34.371  35.991  1.00  0.00     0.031 C 
ATOM     48  C   UNL A   1      38.340  30.177  30.518  1.00  0.00     0.029 A 
ATOM     49  C   UNL A   1      39.406  29.942  31.490  1.00  0.00     0.049 A 
ATOM     50  H   UNL A   1      39.714  30.938  33.293  1.00  0.00     0.167 HD
ATOM     51  C   UNL A   1      40.335  33.179  36.989  1.00  0.00     0.037 A 
ATOM     52  C   UNL A   1      40.377  29.014  31.376  1.00  0.00     0.037 A 
ATOM     53  C   UNL A   1      41.352  32.159  36.995  1.00  0.00     0.049 A 
ATOM     54  C   UNL A   1      41.402  28.872  32.471  1.00  0.00     0.074 A 
ATOM     55  C   UNL A   1      42.300  31.894  37.970  1.00  0.00     0.029 A 
ATOM     56  N   UNL A   1      41.562  31.240  35.977  1.00  0.00    -0.354 N 
ATOM     57  N   UNL A   1      41.514  29.551  33.587  1.00  0.00    -0.248 NA
ATOM     58  C   UNL A   1      42.429  27.835  32.293  1.00  0.00     0.031 C 
ATOM     59  C   UNL A   1      43.107  30.842  37.523  1.00  0.00     0.029 A 
ATOM     60  C   UNL A   1      42.635  30.422  36.289  1.00  0.00     0.049 A 
ATOM     61  H   UNL A   1      41.027  31.180  35.153  1.00  0.00     0.167 HD
ATOM     62  C   UNL A   1      42.604  29.005  34.257  1.00  0.00     0.074 A 
ATOM     63  C   UNL A   1      43.115  27.937  33.423  1.00  0.00     0.031 C 
ATOM     64  C   UNL A   1      43.130  29.354  35.457  1.00  0.00     0.037 A 
BRANCH  51  65
ATOM     65  C   UNL A   1      40.282  34.131  38.152  1.00  0.00     0.058 A 
ATOM     66  C   UNL A   1      41.040  35.312  38.172  1.00  0.00     0.135 A 
ATOM     67  C   UNL A   1      39.431  33.880  39.241  1.00  0.00     0.135 A 
ATOM     68  F   UNL A   1      41.878  35.595  37.162  1.00  0.00    -0.206 F 
ATOM     69  C   UNL A   1      40.977  36.198  39.243  1.00  0.00     0.059 A 
ATOM     70  C   UNL A   1      39.334  34.764  40.311  1.00  0.00     0.059 A 
ATOM     71  F   UNL A   1      38.684  32.766  39.271  1.00  0.00    -0.206 F 
ATOM     72  C   UNL A   1      40.124  35.913  40.310  1.00  0.00     0.060 A 
BRANCH  72  73
ATOM     73  S   UNL A   1      40.055  37.069  41.696  1.00  0.00     0.124 S 
ATOM     74  O   UNL A   1      39.303  38.177  41.112  1.00  0.00    -0.237 OA
ATOM     75  O   UNL A   1      39.355  36.297  42.716  1.00  0.00    -0.237 OA
ATOM     76  O   UNL A   1      41.461  37.346  41.977  1.00  0.00    -0.744 OA
ENDBRANCH  72  73
ENDBRANCH  51  65
BRANCH  52  77
ATOM     77  C   UNL A   1      40.424  28.140  30.175  1.00  0.00     0.058 A 
ATOM     78  C   UNL A   1      41.394  28.329  29.181  1.00  0.00     0.135 A 
ATOM     79  C   UNL A   1      39.506  27.092  30.006  1.00  0.00     0.135 A 
ATOM     80  F   UNL A   1      42.287  29.323  29.295  1.00  0.00    -0.206 F 
ATOM     81  C   UNL A   1      41.450  27.513  28.055  1.00  0.00     0.059 A 
ATOM     82  C   UNL A   1      39.556  26.249  28.902  1.00  0.00     0.059 A 
ATOM     83  F   UNL A   1      38.567  26.865  30.937  1.00  0.00    -0.206 F 
ATOM     84  C   UNL A   1      40.528  26.473  27.927  1.00  0.00     0.060 A 
BRANCH  84  85
ATOM     85  S   UNL A   1      40.644  25.382  26.493  1.00  0.00     0.124 S 
ATOM     86  O   UNL A   1      41.747  24.509  26.878  1.00  0.00    -0.237 OA
ATOM     87  O   UNL A   1      39.321  24.766  26.466  1.00  0.00    -0.237 OA
ATOM     88  O   UNL A   1      40.919  26.304  25.394  1.00  0.00    -0.744 OA
ENDBRANCH  84  85
ENDBRANCH  52  77
BRANCH  64  89
ATOM     89  C   UNL A   1      44.296  28.553  35.967  1.00  0.00     0.058 A 
ATOM     90  C   UNL A   1      45.621  28.914  35.679  1.00  0.00     0.135 A 
ATOM     91  C   UNL A   1      44.084  27.446  36.804  1.00  0.00     0.135 A 
ATOM     92  F   UNL A   1      45.878  29.961  34.879  1.00  0.00    -0.206 F 
ATOM     93  C   UNL A   1      46.696  28.196  36.193  1.00  0.00     0.059 A 
ATOM     94  C   UNL A   1      45.144  26.727  37.347  1.00  0.00     0.059 A 
ATOM     95  F   UNL A   1      42.835  27.064  37.117  1.00  0.00    -0.206 F 
ATOM     96  C   UNL A   1      46.448  27.104  37.028  1.00  0.00     0.060 A 
BRANCH  96  97
ATOM     97  S   UNL A   1      47.851  26.205  37.723  1.00  0.00     0.124 S 
ATOM     98  O   UNL A   1      47.804  24.957  36.968  1.00  0.00    -0.237 OA
ATOM     99  O   UNL A   1      48.973  27.088  37.417  1.00  0.00    -0.237 OA
ATOM    100  O   UNL A   1      47.516  26.096  39.139  1.00  0.00    -0.744 OA
ENDBRANCH  96  97
ENDBRANCH  64  89
ENDBRANCH  38  39
ENDBRANCH  31  33
ENDBRANCH  30  31
ENDBRANCH  29  30
ENDBRANCH  28  29
ENDBRANCH  27  28
ENDBRANCH   1  27
TORSDOF 22
ENDMDL
