MODEL 1
REMARK VINA RESULT:     -10.6      0.000      0.000
REMARK SMILES O=C(OCCOCCOC(=O)c1cc(-c2cccc(OC(F)(F)F)c2)cnc1Cl)c1ccc(-c2c3nc(c(-c4c(F)cc(S(=O)(=O)[O-])cc4F)c4ccc([nH]4)c(-c4c(F)cc(S(=O)(=O)[O-])cc4F)c4nc(c(-c5c(F)cc(S(=O)(=O)[O-])cc5F)c5ccc2[nH]5)C=C4)C=C3)cc1
REMARK SMILES IDX 6 1 5 2 4 3 3 4 2 5 1 6 30 7 31 8 95 9 32 10 94 11 33 12
REMARK SMILES IDX 34 13 35 14 88 15 36 16 93 17 87 18 89 19 37 20 92 21 86 22
REMARK SMILES IDX 85 23 38 25 72 26 51 27 71 28 52 29 55 30 70 31 90 32 53 33
REMARK SMILES IDX 54 34 69 36 91 37 56 38 39 39 40 40 49 41 41 42 42 43 48 44
REMARK SMILES IDX 50 45 43 46 44 47 45 48 46 49 47 50 73 51 74 52 83 53 75 54
REMARK SMILES IDX 76 55 82 56 84 57 77 58 78 59 79 60 80 61 81 62 57 63 58 64
REMARK SMILES IDX 67 65 59 66 60 67 66 68 68 69 61 70 62 71 63 72 64 73 65 74
REMARK SMILES IDX 7 75 8 76 9 77 10 78 11 79 12 80 13 81 28 82 14 83 27 84
REMARK SMILES IDX 29 85 26 86 15 87 16 88 25 89 17 90 19 91 18 92 20 93 21 94
REMARK SMILES IDX 22 95 23 96 24 97
REMARK H PARENT 89 24 55 35
REMARK Flexibility Score: inf
ROOT
ATOM      1  O   UNL A   1      38.524  22.057  26.168  1.00  0.00    -0.374 OA
ENDROOT
BRANCH   1   2
ATOM      2  C   UNL A   1      39.872  21.738  26.510  1.00  0.00     0.202 C 
BRANCH   2   3
ATOM      3  C   UNL A   1      40.740  22.941  26.886  1.00  0.00     0.261 C 
BRANCH   3   4
ATOM      4  O   UNL A   1      40.128  24.158  26.425  1.00  0.00    -0.460 OA
BRANCH   4   5
ATOM      5  C   UNL A   1      40.637  25.412  26.433  1.00  0.00     0.338 C 
ATOM      6  O   UNL A   1      41.184  25.828  25.413  1.00  0.00    -0.246 OA
BRANCH   5   7
ATOM      7  C   UNL A   1      40.576  26.320  27.618  1.00  0.00     0.060 A 
ATOM      8  C   UNL A   1      39.676  26.185  28.675  1.00  0.00     0.016 A 
ATOM      9  C   UNL A   1      41.560  27.319  27.715  1.00  0.00     0.016 A 
ATOM     10  C   UNL A   1      39.695  27.045  29.760  1.00  0.00     0.010 A 
ATOM     11  C   UNL A   1      41.618  28.164  28.829  1.00  0.00     0.010 A 
ATOM     12  C   UNL A   1      40.670  28.033  29.848  1.00  0.00    -0.014 A 
BRANCH  12  13
ATOM     13  C   UNL A   1      40.608  28.954  30.995  1.00  0.00     0.031 A 
ATOM     14  C   UNL A   1      39.555  30.019  30.997  1.00  0.00     0.074 A 
ATOM     15  C   UNL A   1      41.393  28.725  32.064  1.00  0.00     0.049 A 
ATOM     16  N   UNL A   1      39.315  30.939  31.890  1.00  0.00    -0.248 NA
ATOM     17  C   UNL A   1      38.638  30.039  29.845  1.00  0.00     0.031 C 
ATOM     18  C   UNL A   1      42.358  27.627  32.179  1.00  0.00     0.029 A 
ATOM     19  N   UNL A   1      41.481  29.372  33.266  1.00  0.00    -0.354 N 
ATOM     20  C   UNL A   1      38.234  31.660  31.401  1.00  0.00     0.074 A 
ATOM     21  C   UNL A   1      37.866  31.076  30.131  1.00  0.00     0.031 C 
ATOM     22  C   UNL A   1      42.923  27.664  33.396  1.00  0.00     0.029 A 
ATOM     23  C   UNL A   1      42.411  28.823  34.118  1.00  0.00     0.049 A 
ATOM     24  H   UNL A   1      40.932  30.155  33.500  1.00  0.00     0.167 HD
ATOM     25  C   UNL A   1      37.616  32.720  31.969  1.00  0.00     0.037 A 
ATOM     26  C   UNL A   1      42.819  29.238  35.332  1.00  0.00     0.037 A 
ATOM     27  C   UNL A   1      38.020  33.279  33.231  1.00  0.00     0.049 A 
ATOM     28  C   UNL A   1      42.179  30.477  35.899  1.00  0.00     0.074 A 
ATOM     29  C   UNL A   1      37.534  34.399  33.879  1.00  0.00     0.029 A 
ATOM     30  N   UNL A   1      39.017  32.746  34.039  1.00  0.00    -0.354 N 
ATOM     31  N   UNL A   1      41.207  31.203  35.394  1.00  0.00    -0.248 NA
ATOM     32  C   UNL A   1      42.696  30.965  37.181  1.00  0.00     0.031 C 
ATOM     33  C   UNL A   1      38.265  34.564  35.060  1.00  0.00     0.029 A 
ATOM     34  C   UNL A   1      39.174  33.521  35.173  1.00  0.00     0.049 A 
ATOM     35  H   UNL A   1      39.538  31.935  33.833  1.00  0.00     0.167 HD
ATOM     36  C   UNL A   1      40.988  32.231  36.303  1.00  0.00     0.074 A 
ATOM     37  C   UNL A   1      41.916  32.017  37.398  1.00  0.00     0.031 C 
ATOM     38  C   UNL A   1      40.109  33.261  36.241  1.00  0.00     0.037 A 
BRANCH  25  39
ATOM     39  C   UNL A   1      36.507  33.366  31.188  1.00  0.00     0.058 A 
ATOM     40  C   UNL A   1      36.759  34.183  30.075  1.00  0.00     0.135 A 
ATOM     41  C   UNL A   1      35.171  33.198  31.588  1.00  0.00     0.135 A 
ATOM     42  F   UNL A   1      38.019  34.404  29.669  1.00  0.00    -0.206 F 
ATOM     43  C   UNL A   1      35.728  34.838  29.405  1.00  0.00     0.059 A 
ATOM     44  C   UNL A   1      34.123  33.824  30.919  1.00  0.00     0.059 A 
ATOM     45  F   UNL A   1      34.875  32.439  32.654  1.00  0.00    -0.206 F 
ATOM     46  C   UNL A   1      34.414  34.657  29.841  1.00  0.00     0.060 A 
BRANCH  46  47
ATOM     47  S   UNL A   1      33.090  35.539  28.986  1.00  0.00     0.124 S 
ATOM     48  O   UNL A   1      32.307  36.048  30.109  1.00  0.00    -0.237 OA
ATOM     49  O   UNL A   1      33.824  36.542  28.221  1.00  0.00    -0.237 OA
ATOM     50  O   UNL A   1      32.444  34.499  28.192  1.00  0.00    -0.744 OA
ENDBRANCH  46  47
ENDBRANCH  25  39
BRANCH  26  51
ATOM     51  C   UNL A   1      43.908  28.519  36.050  1.00  0.00     0.058 A 
ATOM     52  C   UNL A   1      43.637  27.438  36.903  1.00  0.00     0.135 A 
ATOM     53  C   UNL A   1      45.251  28.902  35.898  1.00  0.00     0.135 A 
ATOM     54  F   UNL A   1      42.372  27.034  37.090  1.00  0.00    -0.206 F 
ATOM     55  C   UNL A   1      44.653  26.775  37.588  1.00  0.00     0.059 A 
ATOM     56  C   UNL A   1      46.285  28.239  36.549  1.00  0.00     0.059 A 
ATOM     57  F   UNL A   1      45.571  29.924  35.087  1.00  0.00    -0.206 F 
ATOM     58  C   UNL A   1      45.975  27.184  37.405  1.00  0.00     0.060 A 
BRANCH  58  59
ATOM     59  S   UNL A   1      47.291  26.304  38.276  1.00  0.00     0.124 S 
ATOM     60  O   UNL A   1      46.839  26.397  39.659  1.00  0.00    -0.237 OA
ATOM     61  O   UNL A   1      47.228  24.978  37.670  1.00  0.00    -0.237 OA
ATOM     62  O   UNL A   1      48.485  27.078  37.948  1.00  0.00    -0.744 OA
ENDBRANCH  58  59
ENDBRANCH  26  51
BRANCH  38  63
ATOM     63  C   UNL A   1      40.097  34.211  37.402  1.00  0.00     0.058 A 
ATOM     64  C   UNL A   1      39.182  34.070  38.455  1.00  0.00     0.135 A 
ATOM     65  C   UNL A   1      41.056  35.232  37.487  1.00  0.00     0.135 A 
ATOM     66  F   UNL A   1      38.244  33.111  38.412  1.00  0.00    -0.206 F 
ATOM     67  C   UNL A   1      39.208  34.923  39.551  1.00  0.00     0.059 A 
ATOM     68  C   UNL A   1      41.116  36.081  38.585  1.00  0.00     0.059 A 
ATOM     69  F   UNL A   1      41.958  35.399  36.507  1.00  0.00    -0.206 F 
ATOM     70  C   UNL A   1      40.180  35.924  39.609  1.00  0.00     0.060 A 
BRANCH  70  71
ATOM     71  S   UNL A   1      40.235  36.994  41.060  1.00  0.00     0.124 S 
ATOM     72  O   UNL A   1      39.248  36.361  41.928  1.00  0.00    -0.237 OA
ATOM     73  O   UNL A   1      41.626  36.875  41.486  1.00  0.00    -0.237 OA
ATOM     74  O   UNL A   1      39.859  38.302  40.530  1.00  0.00    -0.744 OA
ENDBRANCH  70  71
ENDBRANCH  38  63
ENDBRANCH  12  13
ENDBRANCH   5   7
ENDBRANCH   4   5
ENDBRANCH   3   4
ENDBRANCH   2   3
ENDBRANCH   1   2
BRANCH   1  75
ATOM     75  C   UNL A   1      37.973  21.333  25.058  1.00  0.00     0.202 C 
BRANCH  75  76
ATOM     76  C   UNL A   1      36.481  21.112  25.298  1.00  0.00     0.261 C 
BRANCH  76  77
ATOM     77  O   UNL A   1      35.936  22.348  25.789  1.00  0.00    -0.460 OA
BRANCH  77  78
ATOM     78  C   UNL A   1      34.585  22.416  25.850  1.00  0.00     0.341 C 
ATOM     79  O   UNL A   1      33.827  21.727  26.511  1.00  0.00    -0.246 OA
BRANCH  78  80
ATOM     80  C   UNL A   1      34.174  23.656  25.185  1.00  0.00     0.098 A 
ATOM     81  C   UNL A   1      33.797  24.746  25.987  1.00  0.00     0.029 A 
ATOM     82  C   UNL A   1      34.213  23.826  23.811  1.00  0.00     0.143 A 
ATOM     83  C   UNL A   1      33.531  25.984  25.396  1.00  0.00     0.001 A 
ATOM     84  N   UNL A   1      33.947  25.005  23.202  1.00  0.00    -0.243 NA
ATOM     85  Cl  UNL A   1      34.537  22.568  22.684  1.00  0.00    -0.061 Cl
ATOM     86  C   UNL A   1      33.628  26.047  24.005  1.00  0.00     0.121 A 
BRANCH  83  87
ATOM     87  C   UNL A   1      33.141  27.169  26.163  1.00  0.00    -0.013 A 
ATOM     88  C   UNL A   1      31.891  27.200  26.799  1.00  0.00     0.009 A 
ATOM     89  C   UNL A   1      33.955  28.319  26.206  1.00  0.00     0.055 A 
ATOM     90  C   UNL A   1      31.446  28.355  27.435  1.00  0.00     0.004 A 
ATOM     91  C   UNL A   1      33.508  29.485  26.839  1.00  0.00     0.130 A 
ATOM     92  C   UNL A   1      32.249  29.493  27.445  1.00  0.00     0.047 A 
BRANCH  91  93
ATOM     93  O   UNL A   1      34.167  30.678  26.924  1.00  0.00    -0.406 OA
BRANCH  93  94
ATOM     94  C   UNL A   1      35.345  30.743  27.707  1.00  0.00     0.573 C 
ATOM     95  F   UNL A   1      35.593  32.007  28.107  1.00  0.00    -0.132 F 
ATOM     96  F   UNL A   1      35.251  29.941  28.791  1.00  0.00    -0.132 F 
ATOM     97  F   UNL A   1      36.386  30.317  26.961  1.00  0.00    -0.132 F 
ENDBRANCH  93  94
ENDBRANCH  91  93
ENDBRANCH  83  87
ENDBRANCH  78  80
ENDBRANCH  77  78
ENDBRANCH  76  77
ENDBRANCH  75  76
ENDBRANCH   1  75
TORSDOF 20
ENDMDL
MODEL 2
REMARK VINA RESULT:     -10.2      1.713      2.159
REMARK SMILES O=C(OCCOCCOC(=O)c1cc(-c2cccc(OC(F)(F)F)c2)cnc1Cl)c1ccc(-c2c3nc(c(-c4c(F)cc(S(=O)(=O)[O-])cc4F)c4ccc([nH]4)c(-c4c(F)cc(S(=O)(=O)[O-])cc4F)c4nc(c(-c5c(F)cc(S(=O)(=O)[O-])cc5F)c5ccc2[nH]5)C=C4)C=C3)cc1
REMARK SMILES IDX 6 1 5 2 4 3 3 4 2 5 1 6 30 7 31 8 95 9 32 10 94 11 33 12
REMARK SMILES IDX 34 13 35 14 88 15 36 16 93 17 87 18 89 19 37 20 92 21 86 22
REMARK SMILES IDX 85 23 38 25 72 26 51 27 71 28 52 29 55 30 70 31 90 32 53 33
REMARK SMILES IDX 54 34 69 36 91 37 56 38 39 39 40 40 49 41 41 42 42 43 48 44
REMARK SMILES IDX 50 45 43 46 44 47 45 48 46 49 47 50 73 51 74 52 83 53 75 54
REMARK SMILES IDX 76 55 82 56 84 57 77 58 78 59 79 60 80 61 81 62 57 63 58 64
REMARK SMILES IDX 67 65 59 66 60 67 66 68 68 69 61 70 62 71 63 72 64 73 65 74
REMARK SMILES IDX 7 75 8 76 9 77 10 78 11 79 12 80 13 81 28 82 14 83 27 84
REMARK SMILES IDX 29 85 26 86 15 87 16 88 25 89 17 90 19 91 18 92 20 93 21 94
REMARK SMILES IDX 22 95 23 96 24 97
REMARK H PARENT 89 24 55 35
REMARK Flexibility Score: inf
ROOT
ATOM      1  O   UNL A   1      38.690  22.301  26.376  1.00  0.00    -0.374 OA
ENDROOT
BRANCH   1   2
ATOM      2  C   UNL A   1      40.063  21.914  26.378  1.00  0.00     0.202 C 
BRANCH   2   3
ATOM      3  C   UNL A   1      41.053  23.062  26.589  1.00  0.00     0.261 C 
BRANCH   3   4
ATOM      4  O   UNL A   1      40.469  24.305  26.161  1.00  0.00    -0.460 OA
BRANCH   4   5
ATOM      5  C   UNL A   1      40.997  25.550  26.230  1.00  0.00     0.338 C 
ATOM      6  O   UNL A   1      41.601  25.984  25.250  1.00  0.00    -0.246 OA
BRANCH   5   7
ATOM      7  C   UNL A   1      40.889  26.428  27.434  1.00  0.00     0.060 A 
ATOM      8  C   UNL A   1      40.048  26.183  28.520  1.00  0.00     0.016 A 
ATOM      9  C   UNL A   1      41.768  27.521  27.515  1.00  0.00     0.016 A 
ATOM     10  C   UNL A   1      40.020  27.023  29.621  1.00  0.00     0.010 A 
ATOM     11  C   UNL A   1      41.782  28.348  28.643  1.00  0.00     0.010 A 
ATOM     12  C   UNL A   1      40.892  28.105  29.694  1.00  0.00    -0.014 A 
BRANCH  12  13
ATOM     13  C   UNL A   1      40.780  28.995  30.860  1.00  0.00     0.031 A 
ATOM     14  C   UNL A   1      39.697  30.029  30.866  1.00  0.00     0.074 A 
ATOM     15  C   UNL A   1      41.550  28.764  31.940  1.00  0.00     0.049 A 
ATOM     16  N   UNL A   1      39.413  30.920  31.774  1.00  0.00    -0.248 NA
ATOM     17  C   UNL A   1      38.803  30.051  29.696  1.00  0.00     0.031 C 
ATOM     18  C   UNL A   1      42.544  27.691  32.048  1.00  0.00     0.029 A 
ATOM     19  N   UNL A   1      41.595  29.383  33.158  1.00  0.00    -0.354 N 
ATOM     20  C   UNL A   1      38.321  31.622  31.280  1.00  0.00     0.074 A 
ATOM     21  C   UNL A   1      37.996  31.059  29.989  1.00  0.00     0.031 C 
ATOM     22  C   UNL A   1      43.084  27.714  33.277  1.00  0.00     0.029 A 
ATOM     23  C   UNL A   1      42.523  28.840  34.016  1.00  0.00     0.049 A 
ATOM     24  H   UNL A   1      41.019  30.144  33.399  1.00  0.00     0.167 HD
ATOM     25  C   UNL A   1      37.661  32.650  31.860  1.00  0.00     0.037 A 
ATOM     26  C   UNL A   1      42.895  29.237  35.247  1.00  0.00     0.037 A 
ATOM     27  C   UNL A   1      38.023  33.189  33.143  1.00  0.00     0.049 A 
ATOM     28  C   UNL A   1      42.208  30.443  35.830  1.00  0.00     0.074 A 
ATOM     29  C   UNL A   1      37.492  34.279  33.807  1.00  0.00     0.029 A 
ATOM     30  N   UNL A   1      39.020  32.665  33.959  1.00  0.00    -0.354 N 
ATOM     31  N   UNL A   1      41.226  31.154  35.323  1.00  0.00    -0.248 NA
ATOM     32  C   UNL A   1      42.685  30.916  37.134  1.00  0.00     0.031 C 
ATOM     33  C   UNL A   1      38.195  34.436  35.007  1.00  0.00     0.029 A 
ATOM     34  C   UNL A   1      39.131  33.417  35.114  1.00  0.00     0.049 A 
ATOM     35  H   UNL A   1      39.567  31.875  33.744  1.00  0.00     0.167 HD
ATOM     36  C   UNL A   1      40.959  32.152  36.250  1.00  0.00     0.074 A 
ATOM     37  C   UNL A   1      41.870  31.939  37.360  1.00  0.00     0.031 C 
ATOM     38  C   UNL A   1      40.051  33.158  36.195  1.00  0.00     0.037 A 
BRANCH  25  39
ATOM     39  C   UNL A   1      36.550  33.282  31.072  1.00  0.00     0.058 A 
ATOM     40  C   UNL A   1      36.800  34.108  29.964  1.00  0.00     0.135 A 
ATOM     41  C   UNL A   1      35.213  33.093  31.459  1.00  0.00     0.135 A 
ATOM     42  F   UNL A   1      38.060  34.350  29.571  1.00  0.00    -0.206 F 
ATOM     43  C   UNL A   1      35.765  34.750  29.288  1.00  0.00     0.059 A 
ATOM     44  C   UNL A   1      34.162  33.706  30.783  1.00  0.00     0.059 A 
ATOM     45  F   UNL A   1      34.919  32.325  32.519  1.00  0.00    -0.206 F 
ATOM     46  C   UNL A   1      34.450  34.548  29.711  1.00  0.00     0.060 A 
BRANCH  46  47
ATOM     47  S   UNL A   1      33.121  35.414  28.848  1.00  0.00     0.124 S 
ATOM     48  O   UNL A   1      33.874  36.361  28.030  1.00  0.00    -0.237 OA
ATOM     49  O   UNL A   1      32.463  34.333  28.120  1.00  0.00    -0.237 OA
ATOM     50  O   UNL A   1      32.339  36.004  29.930  1.00  0.00    -0.744 OA
ENDBRANCH  46  47
ENDBRANCH  25  39
BRANCH  26  51
ATOM     51  C   UNL A   1      43.990  28.533  35.971  1.00  0.00     0.058 A 
ATOM     52  C   UNL A   1      43.724  27.482  36.862  1.00  0.00     0.135 A 
ATOM     53  C   UNL A   1      45.333  28.900  35.785  1.00  0.00     0.135 A 
ATOM     54  F   UNL A   1      42.459  27.094  37.082  1.00  0.00    -0.206 F 
ATOM     55  C   UNL A   1      44.746  26.833  37.552  1.00  0.00     0.059 A 
ATOM     56  C   UNL A   1      46.372  28.249  36.441  1.00  0.00     0.059 A 
ATOM     57  F   UNL A   1      45.648  29.892  34.937  1.00  0.00    -0.206 F 
ATOM     58  C   UNL A   1      46.068  27.225  37.335  1.00  0.00     0.060 A 
BRANCH  58  59
ATOM     59  S   UNL A   1      47.390  26.362  38.213  1.00  0.00     0.124 S 
ATOM     60  O   UNL A   1      47.386  25.065  37.547  1.00  0.00    -0.237 OA
ATOM     61  O   UNL A   1      48.545  27.214  37.945  1.00  0.00    -0.237 OA
ATOM     62  O   UNL A   1      46.930  26.363  39.597  1.00  0.00    -0.744 OA
ENDBRANCH  58  59
ENDBRANCH  26  51
BRANCH  38  63
ATOM     63  C   UNL A   1      39.989  34.079  37.377  1.00  0.00     0.058 A 
ATOM     64  C   UNL A   1      40.735  35.267  37.420  1.00  0.00     0.135 A 
ATOM     65  C   UNL A   1      39.123  33.799  38.445  1.00  0.00     0.135 A 
ATOM     66  F   UNL A   1      41.580  35.571  36.424  1.00  0.00    -0.206 F 
ATOM     67  C   UNL A   1      40.636  36.141  38.496  1.00  0.00     0.059 A 
ATOM     68  C   UNL A   1      38.990  34.671  39.519  1.00  0.00     0.059 A 
ATOM     69  F   UNL A   1      38.383  32.680  38.442  1.00  0.00    -0.206 F 
ATOM     70  C   UNL A   1      39.758  35.836  39.539  1.00  0.00     0.060 A 
BRANCH  70  71
ATOM     71  S   UNL A   1      39.602  37.002  40.906  1.00  0.00     0.124 S 
ATOM     72  O   UNL A   1      38.719  36.275  41.812  1.00  0.00    -0.237 OA
ATOM     73  O   UNL A   1      40.984  37.153  41.350  1.00  0.00    -0.237 OA
ATOM     74  O   UNL A   1      39.021  38.185  40.277  1.00  0.00    -0.744 OA
ENDBRANCH  70  71
ENDBRANCH  38  63
ENDBRANCH  12  13
ENDBRANCH   5   7
ENDBRANCH   4   5
ENDBRANCH   3   4
ENDBRANCH   2   3
ENDBRANCH   1   2
BRANCH   1  75
ATOM     75  C   UNL A   1      37.924  21.877  25.239  1.00  0.00     0.202 C 
BRANCH  75  76
ATOM     76  C   UNL A   1      36.527  21.470  25.704  1.00  0.00     0.261 C 
BRANCH  76  77
ATOM     77  O   UNL A   1      35.861  22.658  26.163  1.00  0.00    -0.460 OA
BRANCH  77  78
ATOM     78  C   UNL A   1      34.575  22.501  26.556  1.00  0.00     0.341 C 
ATOM     79  O   UNL A   1      34.160  22.003  27.588  1.00  0.00    -0.246 OA
BRANCH  78  80
ATOM     80  C   UNL A   1      33.735  23.285  25.645  1.00  0.00     0.098 A 
ATOM     81  C   UNL A   1      33.654  24.673  25.846  1.00  0.00     0.029 A 
ATOM     82  C   UNL A   1      33.083  22.735  24.555  1.00  0.00     0.143 A 
ATOM     83  C   UNL A   1      32.976  25.471  24.921  1.00  0.00     0.001 A 
ATOM     84  N   UNL A   1      32.403  23.473  23.647  1.00  0.00    -0.243 NA
ATOM     85  Cl  UNL A   1      32.983  21.048  24.231  1.00  0.00    -0.061 Cl
ATOM     86  C   UNL A   1      32.379  24.812  23.845  1.00  0.00     0.121 A 
BRANCH  83  87
ATOM     87  C   UNL A   1      32.854  26.924  25.055  1.00  0.00    -0.013 A 
ATOM     88  C   UNL A   1      33.813  27.632  25.794  1.00  0.00     0.009 A 
ATOM     89  C   UNL A   1      31.745  27.621  24.534  1.00  0.00     0.055 A 
ATOM     90  C   UNL A   1      33.659  28.994  26.037  1.00  0.00     0.004 A 
ATOM     91  C   UNL A   1      31.583  28.989  24.782  1.00  0.00     0.130 A 
ATOM     92  C   UNL A   1      32.544  29.664  25.540  1.00  0.00     0.047 A 
BRANCH  91  93
ATOM     93  O   UNL A   1      30.547  29.781  24.377  1.00  0.00    -0.406 OA
BRANCH  93  94
ATOM     94  C   UNL A   1      30.015  29.584  23.080  1.00  0.00     0.573 C 
ATOM     95  F   UNL A   1      29.331  28.423  23.006  1.00  0.00    -0.132 F 
ATOM     96  F   UNL A   1      29.201  30.605  22.730  1.00  0.00    -0.132 F 
ATOM     97  F   UNL A   1      31.033  29.539  22.195  1.00  0.00    -0.132 F 
ENDBRANCH  93  94
ENDBRANCH  91  93
ENDBRANCH  83  87
ENDBRANCH  78  80
ENDBRANCH  77  78
ENDBRANCH  76  77
ENDBRANCH  75  76
ENDBRANCH   1  75
TORSDOF 20
ENDMDL
MODEL 3
REMARK VINA RESULT:     -10.1      5.515     10.373
REMARK SMILES O=C(OCCOCCOC(=O)c1cc(-c2cccc(OC(F)(F)F)c2)cnc1Cl)c1ccc(-c2c3nc(c(-c4c(F)cc(S(=O)(=O)[O-])cc4F)c4ccc([nH]4)c(-c4c(F)cc(S(=O)(=O)[O-])cc4F)c4nc(c(-c5c(F)cc(S(=O)(=O)[O-])cc5F)c5ccc2[nH]5)C=C4)C=C3)cc1
REMARK SMILES IDX 6 1 5 2 4 3 3 4 2 5 1 6 30 7 31 8 95 9 32 10 94 11 33 12
REMARK SMILES IDX 34 13 35 14 88 15 36 16 93 17 87 18 89 19 37 20 92 21 86 22
REMARK SMILES IDX 85 23 38 25 72 26 51 27 71 28 52 29 55 30 70 31 90 32 53 33
REMARK SMILES IDX 54 34 69 36 91 37 56 38 39 39 40 40 49 41 41 42 42 43 48 44
REMARK SMILES IDX 50 45 43 46 44 47 45 48 46 49 47 50 73 51 74 52 83 53 75 54
REMARK SMILES IDX 76 55 82 56 84 57 77 58 78 59 79 60 80 61 81 62 57 63 58 64
REMARK SMILES IDX 67 65 59 66 60 67 66 68 68 69 61 70 62 71 63 72 64 73 65 74
REMARK SMILES IDX 7 75 8 76 9 77 10 78 11 79 12 80 13 81 28 82 14 83 27 84
REMARK SMILES IDX 29 85 26 86 15 87 16 88 25 89 17 90 19 91 18 92 20 93 21 94
REMARK SMILES IDX 22 95 23 96 24 97
REMARK H PARENT 89 24 55 35
REMARK Flexibility Score: inf
ROOT
ATOM      1  O   UNL A   1      33.161  26.895  25.245  1.00  0.00    -0.374 OA
ENDROOT
BRANCH   1   2
ATOM      2  C   UNL A   1      33.836  27.430  26.383  1.00  0.00     0.202 C 
BRANCH   2   3
ATOM      3  C   UNL A   1      33.067  28.524  27.128  1.00  0.00     0.261 C 
BRANCH   3   4
ATOM      4  O   UNL A   1      33.763  29.778  27.025  1.00  0.00    -0.460 OA
BRANCH   4   5
ATOM      5  C   UNL A   1      34.533  30.392  27.955  1.00  0.00     0.338 C 
ATOM      6  O   UNL A   1      34.021  31.266  28.653  1.00  0.00    -0.246 OA
BRANCH   5   7
ATOM      7  C   UNL A   1      35.975  30.070  28.177  1.00  0.00     0.060 A 
ATOM      8  C   UNL A   1      36.982  30.250  27.229  1.00  0.00     0.016 A 
ATOM      9  C   UNL A   1      36.349  29.648  29.463  1.00  0.00     0.016 A 
ATOM     10  C   UNL A   1      38.307  29.959  27.511  1.00  0.00     0.010 A 
ATOM     11  C   UNL A   1      37.690  29.397  29.774  1.00  0.00     0.010 A 
ATOM     12  C   UNL A   1      38.670  29.539  28.787  1.00  0.00    -0.014 A 
BRANCH  12  13
ATOM     13  C   UNL A   1      40.082  29.191  29.015  1.00  0.00     0.031 A 
ATOM     14  C   UNL A   1      40.956  30.181  29.719  1.00  0.00     0.074 A 
ATOM     15  C   UNL A   1      40.507  27.948  28.720  1.00  0.00     0.049 A 
ATOM     16  N   UNL A   1      42.221  30.095  30.022  1.00  0.00    -0.248 NA
ATOM     17  C   UNL A   1      40.312  31.432  30.156  1.00  0.00     0.031 C 
ATOM     18  C   UNL A   1      39.672  26.889  28.142  1.00  0.00     0.029 A 
ATOM     19  N   UNL A   1      41.725  27.352  28.895  1.00  0.00    -0.354 N 
ATOM     20  C   UNL A   1      42.532  31.285  30.667  1.00  0.00     0.074 A 
ATOM     21  C   UNL A   1      41.326  32.081  30.708  1.00  0.00     0.031 C 
ATOM     22  C   UNL A   1      40.399  25.766  28.034  1.00  0.00     0.029 A 
ATOM     23  C   UNL A   1      41.763  26.044  28.471  1.00  0.00     0.049 A 
ATOM     24  H   UNL A   1      42.501  27.814  29.287  1.00  0.00     0.167 HD
ATOM     25  C   UNL A   1      43.727  31.671  31.171  1.00  0.00     0.037 A 
ATOM     26  C   UNL A   1      42.799  25.186  28.414  1.00  0.00     0.037 A 
ATOM     27  C   UNL A   1      44.908  30.853  31.100  1.00  0.00     0.049 A 
ATOM     28  C   UNL A   1      44.139  25.675  28.894  1.00  0.00     0.074 A 
ATOM     29  C   UNL A   1      46.196  31.156  31.496  1.00  0.00     0.029 A 
ATOM     30  N   UNL A   1      44.933  29.558  30.595  1.00  0.00    -0.354 N 
ATOM     31  N   UNL A   1      44.445  26.833  29.433  1.00  0.00    -0.248 NA
ATOM     32  C   UNL A   1      45.274  24.759  28.745  1.00  0.00     0.031 C 
ATOM     33  C   UNL A   1      47.009  30.057  31.194  1.00  0.00     0.029 A 
ATOM     34  C   UNL A   1      46.218  29.052  30.655  1.00  0.00     0.049 A 
ATOM     35  H   UNL A   1      44.151  29.073  30.245  1.00  0.00     0.167 HD
ATOM     36  C   UNL A   1      45.808  26.783  29.697  1.00  0.00     0.074 A 
ATOM     37  C   UNL A   1      46.260  25.469  29.278  1.00  0.00     0.031 C 
ATOM     38  C   UNL A   1      46.617  27.731  30.231  1.00  0.00     0.037 A 
BRANCH  25  39
ATOM     39  C   UNL A   1      43.808  33.050  31.759  1.00  0.00     0.058 A 
ATOM     40  C   UNL A   1      43.483  33.307  33.100  1.00  0.00     0.135 A 
ATOM     41  C   UNL A   1      44.177  34.141  30.955  1.00  0.00     0.135 A 
ATOM     42  F   UNL A   1      43.092  32.307  33.906  1.00  0.00    -0.206 F 
ATOM     43  C   UNL A   1      43.488  34.602  33.615  1.00  0.00     0.059 A 
ATOM     44  C   UNL A   1      44.212  35.440  31.454  1.00  0.00     0.059 A 
ATOM     45  F   UNL A   1      44.484  33.953  29.662  1.00  0.00    -0.206 F 
ATOM     46  C   UNL A   1      43.847  35.662  32.780  1.00  0.00     0.060 A 
BRANCH  46  47
ATOM     47  S   UNL A   1      43.816  37.339  33.449  1.00  0.00     0.124 S 
ATOM     48  O   UNL A   1      42.668  37.272  34.349  1.00  0.00    -0.237 OA
ATOM     49  O   UNL A   1      45.121  37.443  34.095  1.00  0.00    -0.237 OA
ATOM     50  O   UNL A   1      43.637  38.175  32.266  1.00  0.00    -0.744 OA
ENDBRANCH  46  47
ENDBRANCH  25  39
BRANCH  26  51
ATOM     51  C   UNL A   1      42.621  23.823  27.840  1.00  0.00     0.058 A 
ATOM     52  C   UNL A   1      42.515  22.689  28.659  1.00  0.00     0.135 A 
ATOM     53  C   UNL A   1      42.554  23.627  26.451  1.00  0.00     0.135 A 
ATOM     54  F   UNL A   1      42.579  22.817  29.993  1.00  0.00    -0.206 F 
ATOM     55  C   UNL A   1      42.366  21.411  28.123  1.00  0.00     0.059 A 
ATOM     56  C   UNL A   1      42.377  22.365  25.892  1.00  0.00     0.059 A 
ATOM     57  F   UNL A   1      42.640  24.677  25.618  1.00  0.00    -0.206 F 
ATOM     58  C   UNL A   1      42.298  21.260  26.737  1.00  0.00     0.060 A 
BRANCH  58  59
ATOM     59  S   UNL A   1      42.078  19.605  26.048  1.00  0.00     0.124 S 
ATOM     60  O   UNL A   1      42.985  19.639  24.907  1.00  0.00    -0.237 OA
ATOM     61  O   UNL A   1      42.482  18.751  27.161  1.00  0.00    -0.237 OA
ATOM     62  O   UNL A   1      40.655  19.564  25.723  1.00  0.00    -0.744 OA
ENDBRANCH  58  59
ENDBRANCH  26  51
BRANCH  38  63
ATOM     63  C   UNL A   1      48.061  27.366  30.410  1.00  0.00     0.058 A 
ATOM     64  C   UNL A   1      49.041  27.782  29.497  1.00  0.00     0.135 A 
ATOM     65  C   UNL A   1      48.472  26.648  31.543  1.00  0.00     0.135 A 
ATOM     66  F   UNL A   1      48.692  28.465  28.396  1.00  0.00    -0.206 F 
ATOM     67  C   UNL A   1      50.383  27.483  29.694  1.00  0.00     0.059 A 
ATOM     68  C   UNL A   1      49.811  26.359  31.773  1.00  0.00     0.059 A 
ATOM     69  F   UNL A   1      47.570  26.238  32.449  1.00  0.00    -0.206 F 
ATOM     70  C   UNL A   1      50.759  26.774  30.837  1.00  0.00     0.060 A 
BRANCH  70  71
ATOM     71  S   UNL A   1      52.510  26.434  31.107  1.00  0.00     0.124 S 
ATOM     72  O   UNL A   1      52.949  26.074  29.763  1.00  0.00    -0.237 OA
ATOM     73  O   UNL A   1      53.002  27.710  31.617  1.00  0.00    -0.237 OA
ATOM     74  O   UNL A   1      52.497  25.343  32.077  1.00  0.00    -0.744 OA
ENDBRANCH  70  71
ENDBRANCH  38  63
ENDBRANCH  12  13
ENDBRANCH   5   7
ENDBRANCH   4   5
ENDBRANCH   3   4
ENDBRANCH   2   3
ENDBRANCH   1   2
BRANCH   1  75
ATOM     75  C   UNL A   1      32.940  27.812  24.163  1.00  0.00     0.202 C 
BRANCH  75  76
ATOM     76  C   UNL A   1      33.482  27.200  22.873  1.00  0.00     0.261 C 
BRANCH  76  77
ATOM     77  O   UNL A   1      33.723  25.806  23.125  1.00  0.00    -0.460 OA
BRANCH  77  78
ATOM     78  C   UNL A   1      33.040  24.937  22.344  1.00  0.00     0.341 C 
ATOM     79  O   UNL A   1      33.005  24.887  21.126  1.00  0.00    -0.246 OA
BRANCH  78  80
ATOM     80  C   UNL A   1      32.543  23.862  23.208  1.00  0.00     0.098 A 
ATOM     81  C   UNL A   1      33.317  22.696  23.330  1.00  0.00     0.029 A 
ATOM     82  C   UNL A   1      31.389  23.973  23.966  1.00  0.00     0.143 A 
ATOM     83  C   UNL A   1      32.947  21.709  24.248  1.00  0.00     0.001 A 
ATOM     84  N   UNL A   1      30.990  23.031  24.852  1.00  0.00    -0.243 NA
ATOM     85  Cl  UNL A   1      30.270  25.274  23.848  1.00  0.00    -0.061 Cl
ATOM     86  C   UNL A   1      31.780  21.939  24.978  1.00  0.00     0.121 A 
BRANCH  83  87
ATOM     87  C   UNL A   1      33.705  20.471  24.440  1.00  0.00    -0.013 A 
ATOM     88  C   UNL A   1      35.071  20.539  24.756  1.00  0.00     0.009 A 
ATOM     89  C   UNL A   1      33.118  19.207  24.227  1.00  0.00     0.055 A 
ATOM     90  C   UNL A   1      35.842  19.383  24.828  1.00  0.00     0.004 A 
ATOM     91  C   UNL A   1      33.892  18.043  24.292  1.00  0.00     0.130 A 
ATOM     92  C   UNL A   1      35.254  18.143  24.588  1.00  0.00     0.047 A 
BRANCH  91  93
ATOM     93  O   UNL A   1      33.470  16.763  24.072  1.00  0.00    -0.406 OA
BRANCH  93  94
ATOM     94  C   UNL A   1      33.278  15.914  25.188  1.00  0.00     0.573 C 
ATOM     95  F   UNL A   1      32.271  15.043  24.969  1.00  0.00    -0.132 F 
ATOM     96  F   UNL A   1      34.407  15.228  25.475  1.00  0.00    -0.132 F 
ATOM     97  F   UNL A   1      32.965  16.671  26.261  1.00  0.00    -0.132 F 
ENDBRANCH  93  94
ENDBRANCH  91  93
ENDBRANCH  83  87
ENDBRANCH  78  80
ENDBRANCH  77  78
ENDBRANCH  76  77
ENDBRANCH  75  76
ENDBRANCH   1  75
TORSDOF 20
ENDMDL
