MODEL 1
REMARK VINA RESULT:     -10.1      0.000      0.000
REMARK SMILES CC(C)[C@H](NS(=O)(=O)c1cccc(F)c1)C(=O)OCCOCCOC(=O)c1ccc(-c2c3nc(c(-c4c(F)cc(S(=O)(=O)[O-])cc4F)c4ccc([nH]4)c(-c4c(F)cc(S(=O)(=O)[O-])cc4F)c4nc(c(-c5c(F)cc(S(=O)(=O)[O-])cc5F)c5ccc2[nH]5)C=C4)C=C3)cc1
REMARK SMILES IDX 21 1 20 2 19 3 18 4 16 5 17 6 4 7 2 8 1 9 3 10 5 11 6 13
REMARK SMILES IDX 7 14 8 15 9 16 10 17 15 18 11 19 13 20 12 21 14 22 22 23
REMARK SMILES IDX 23 24 24 25 25 26 26 27 27 28 28 29 92 30 29 31 91 32 30 33
REMARK SMILES IDX 31 34 32 35 85 36 33 37 90 38 84 39 86 40 34 41 89 42 83 43
REMARK SMILES IDX 82 44 35 46 69 47 48 48 68 49 49 50 52 51 67 52 87 53 50 54
REMARK SMILES IDX 51 55 66 57 88 58 53 59 36 60 37 61 46 62 38 63 39 64 45 65
REMARK SMILES IDX 47 66 40 67 41 68 42 69 43 70 44 71 70 72 71 73 80 74 72 75
REMARK SMILES IDX 73 76 79 77 81 78 74 79 75 80 76 81 77 82 78 83 54 84 55 85
REMARK SMILES IDX 64 86 56 87 57 88 63 89 65 90 58 91 59 92 60 93 61 94 62 95
REMARK H PARENT 5 12 86 45 52 56
REMARK Flexibility Score: inf
ROOT
ATOM      1  O   UNL A   1      34.523  32.306  27.913  1.00  0.00    -0.374 OA
ENDROOT
BRANCH   1   2
ATOM      2  C   UNL A   1      33.280  31.755  27.495  1.00  0.00     0.202 C 
BRANCH   2   3
ATOM      3  C   UNL A   1      33.169  30.232  27.387  1.00  0.00     0.261 C 
BRANCH   3   4
ATOM      4  O   UNL A   1      32.057  29.788  26.596  1.00  0.00    -0.462 OA
BRANCH   4   5
ATOM      5  C   UNL A   1      31.716  28.474  26.756  1.00  0.00     0.324 C 
ATOM      6  O   UNL A   1      31.272  27.976  27.785  1.00  0.00    -0.250 OA
BRANCH   5   7
ATOM      7  C   UNL A   1      32.009  27.658  25.495  1.00  0.00     0.182 C 
BRANCH   7   8
ATOM      8  C   UNL A   1      33.528  27.436  25.328  1.00  0.00     0.012 C 
ATOM      9  C   UNL A   1      33.962  25.965  25.312  1.00  0.00     0.009 C 
ATOM     10  C   UNL A   1      33.999  28.117  24.036  1.00  0.00     0.009 C 
ENDBRANCH   7   8
BRANCH   7  11
ATOM     11  N   UNL A   1      31.297  28.234  24.311  1.00  0.00    -0.197 NA
ATOM     12  H   UNL A   1      32.021  28.632  23.713  1.00  0.00     0.142 HD
BRANCH  11  13
ATOM     13  S   UNL A   1      30.312  27.319  23.300  1.00  0.00     0.241 S 
ATOM     14  O   UNL A   1      29.104  27.028  24.039  1.00  0.00    -0.207 OA
ATOM     15  O   UNL A   1      30.260  28.011  22.034  1.00  0.00    -0.207 OA
BRANCH  13  16
ATOM     16  C   UNL A   1      31.166  25.783  23.062  1.00  0.00     0.085 A 
ATOM     17  C   UNL A   1      32.172  25.686  22.090  1.00  0.00     0.022 A 
ATOM     18  C   UNL A   1      30.831  24.683  23.853  1.00  0.00     0.061 A 
ATOM     19  C   UNL A   1      32.873  24.488  21.937  1.00  0.00     0.004 A 
ATOM     20  C   UNL A   1      31.544  23.502  23.691  1.00  0.00     0.124 A 
ATOM     21  C   UNL A   1      32.564  23.396  22.748  1.00  0.00     0.039 A 
ATOM     22  F   UNL A   1      31.258  22.448  24.466  1.00  0.00    -0.207 F 
ENDBRANCH  13  16
ENDBRANCH  11  13
ENDBRANCH   7  11
ENDBRANCH   5   7
ENDBRANCH   4   5
ENDBRANCH   3   4
ENDBRANCH   2   3
ENDBRANCH   1   2
BRANCH   1  23
ATOM     23  C   UNL A   1      34.612  32.898  29.207  1.00  0.00     0.202 C 
BRANCH  23  24
ATOM     24  C   UNL A   1      35.342  32.136  30.322  1.00  0.00     0.261 C 
BRANCH  24  25
ATOM     25  O   UNL A   1      35.894  30.876  29.900  1.00  0.00    -0.460 OA
BRANCH  25  26
ATOM     26  C   UNL A   1      36.702  30.295  30.822  1.00  0.00     0.338 C 
ATOM     27  O   UNL A   1      36.358  29.698  31.830  1.00  0.00    -0.246 OA
BRANCH  26  28
ATOM     28  C   UNL A   1      38.106  30.315  30.375  1.00  0.00     0.060 A 
ATOM     29  C   UNL A   1      38.343  30.206  28.999  1.00  0.00     0.016 A 
ATOM     30  C   UNL A   1      39.163  30.285  31.284  1.00  0.00     0.016 A 
ATOM     31  C   UNL A   1      39.637  29.995  28.531  1.00  0.00     0.010 A 
ATOM     32  C   UNL A   1      40.464  30.070  30.811  1.00  0.00     0.010 A 
ATOM     33  C   UNL A   1      40.699  29.875  29.438  1.00  0.00    -0.014 A 
BRANCH  33  34
ATOM     34  C   UNL A   1      42.010  29.382  28.947  1.00  0.00     0.031 A 
ATOM     35  C   UNL A   1      43.184  30.326  28.921  1.00  0.00     0.074 A 
ATOM     36  C   UNL A   1      42.170  28.092  28.598  1.00  0.00     0.049 A 
ATOM     37  N   UNL A   1      44.417  30.102  28.550  1.00  0.00    -0.248 NA
ATOM     38  C   UNL A   1      42.936  31.704  29.377  1.00  0.00     0.031 C 
ATOM     39  C   UNL A   1      41.118  27.077  28.620  1.00  0.00     0.029 A 
ATOM     40  N   UNL A   1      43.281  27.415  28.161  1.00  0.00    -0.354 N 
ATOM     41  C   UNL A   1      45.091  31.307  28.721  1.00  0.00     0.074 A 
ATOM     42  C   UNL A   1      44.124  32.267  29.202  1.00  0.00     0.031 C 
ATOM     43  C   UNL A   1      41.635  25.904  28.216  1.00  0.00     0.029 A 
ATOM     44  C   UNL A   1      43.046  26.091  27.879  1.00  0.00     0.049 A 
ATOM     45  H   UNL A   1      44.165  27.839  28.060  1.00  0.00     0.167 HD
ATOM     46  C   UNL A   1      46.400  31.581  28.511  1.00  0.00     0.037 A 
ATOM     47  C   UNL A   1      43.870  25.141  27.394  1.00  0.00     0.037 A 
ATOM     48  C   UNL A   1      47.363  30.616  28.047  1.00  0.00     0.049 A 
ATOM     49  C   UNL A   1      45.313  25.482  27.129  1.00  0.00     0.074 A 
ATOM     50  C   UNL A   1      48.716  30.795  27.815  1.00  0.00     0.029 A 
ATOM     51  N   UNL A   1      47.079  29.291  27.749  1.00  0.00    -0.354 N 
ATOM     52  N   UNL A   1      45.936  26.625  27.301  1.00  0.00    -0.248 NA
ATOM     53  C   UNL A   1      46.169  24.405  26.614  1.00  0.00     0.031 C 
ATOM     54  C   UNL A   1      49.240  29.593  27.331  1.00  0.00     0.029 A 
ATOM     55  C   UNL A   1      48.228  28.647  27.318  1.00  0.00     0.049 A 
ATOM     56  H   UNL A   1      46.193  28.871  27.830  1.00  0.00     0.167 HD
ATOM     57  C   UNL A   1      47.262  26.394  26.946  1.00  0.00     0.074 A 
ATOM     58  C   UNL A   1      47.353  25.002  26.559  1.00  0.00     0.031 C 
ATOM     59  C   UNL A   1      48.308  27.258  26.945  1.00  0.00     0.037 A 
BRANCH  46  60
ATOM     60  C   UNL A   1      46.880  32.983  28.769  1.00  0.00     0.058 A 
ATOM     61  C   UNL A   1      47.277  33.371  30.058  1.00  0.00     0.135 A 
ATOM     62  C   UNL A   1      46.866  33.965  27.765  1.00  0.00     0.135 A 
ATOM     63  F   UNL A   1      47.319  32.471  31.053  1.00  0.00    -0.206 F 
ATOM     64  C   UNL A   1      47.617  34.688  30.350  1.00  0.00     0.059 A 
ATOM     65  C   UNL A   1      47.226  35.284  28.029  1.00  0.00     0.059 A 
ATOM     66  F   UNL A   1      46.517  33.642  26.510  1.00  0.00    -0.206 F 
ATOM     67  C   UNL A   1      47.582  35.639  29.329  1.00  0.00     0.060 A 
BRANCH  67  68
ATOM     68  S   UNL A   1      48.025  37.344  29.728  1.00  0.00     0.124 S 
ATOM     69  O   UNL A   1      46.722  37.997  29.747  1.00  0.00    -0.237 OA
ATOM     70  O   UNL A   1      48.682  37.193  31.023  1.00  0.00    -0.237 OA
ATOM     71  O   UNL A   1      48.907  37.730  28.629  1.00  0.00    -0.744 OA
ENDBRANCH  67  68
ENDBRANCH  46  60
BRANCH  47  72
ATOM     72  C   UNL A   1      43.348  23.773  27.134  1.00  0.00     0.058 A 
ATOM     73  C   UNL A   1      43.065  22.895  28.191  1.00  0.00     0.135 A 
ATOM     74  C   UNL A   1      43.137  23.309  25.827  1.00  0.00     0.135 A 
ATOM     75  F   UNL A   1      43.255  23.286  29.462  1.00  0.00    -0.206 F 
ATOM     76  C   UNL A   1      42.615  21.599  27.963  1.00  0.00     0.059 A 
ATOM     77  C   UNL A   1      42.660  22.026  25.573  1.00  0.00     0.059 A 
ATOM     78  F   UNL A   1      43.379  24.117  24.783  1.00  0.00    -0.206 F 
ATOM     79  C   UNL A   1      42.418  21.173  26.649  1.00  0.00     0.060 A 
BRANCH  79  80
ATOM     80  S   UNL A   1      41.841  19.484  26.376  1.00  0.00     0.124 S 
ATOM     81  O   UNL A   1      42.467  18.780  27.491  1.00  0.00    -0.237 OA
ATOM     82  O   UNL A   1      40.392  19.639  26.456  1.00  0.00    -0.237 OA
ATOM     83  O   UNL A   1      42.364  19.157  25.053  1.00  0.00    -0.744 OA
ENDBRANCH  79  80
ENDBRANCH  47  72
BRANCH  59  84
ATOM     84  C   UNL A   1      49.658  26.720  26.553  1.00  0.00     0.058 A 
ATOM     85  C   UNL A   1      50.524  26.201  27.529  1.00  0.00     0.135 A 
ATOM     86  C   UNL A   1      50.120  26.768  25.228  1.00  0.00     0.135 A 
ATOM     87  F   UNL A   1      50.139  26.140  28.814  1.00  0.00    -0.206 F 
ATOM     88  C   UNL A   1      51.802  25.755  27.208  1.00  0.00     0.059 A 
ATOM     89  C   UNL A   1      51.384  26.299  24.879  1.00  0.00     0.059 A 
ATOM     90  F   UNL A   1      49.330  27.248  24.255  1.00  0.00    -0.206 F 
ATOM     91  C   UNL A   1      52.223  25.806  25.879  1.00  0.00     0.060 A 
BRANCH  91  92
ATOM     92  S   UNL A   1      53.866  25.180  25.474  1.00  0.00     0.124 S 
ATOM     93  O   UNL A   1      54.428  26.285  24.706  1.00  0.00    -0.237 OA
ATOM     94  O   UNL A   1      54.450  24.962  26.794  1.00  0.00    -0.237 OA
ATOM     95  O   UNL A   1      53.587  23.964  24.713  1.00  0.00    -0.744 OA
ENDBRANCH  91  92
ENDBRANCH  59  84
ENDBRANCH  33  34
ENDBRANCH  26  28
ENDBRANCH  25  26
ENDBRANCH  24  25
ENDBRANCH  23  24
ENDBRANCH   1  23
TORSDOF 21
ENDMDL
MODEL 2
REMARK VINA RESULT:     -10.1      1.368      2.098
REMARK SMILES CC(C)[C@H](NS(=O)(=O)c1cccc(F)c1)C(=O)OCCOCCOC(=O)c1ccc(-c2c3nc(c(-c4c(F)cc(S(=O)(=O)[O-])cc4F)c4ccc([nH]4)c(-c4c(F)cc(S(=O)(=O)[O-])cc4F)c4nc(c(-c5c(F)cc(S(=O)(=O)[O-])cc5F)c5ccc2[nH]5)C=C4)C=C3)cc1
REMARK SMILES IDX 21 1 20 2 19 3 18 4 16 5 17 6 4 7 2 8 1 9 3 10 5 11 6 13
REMARK SMILES IDX 7 14 8 15 9 16 10 17 15 18 11 19 13 20 12 21 14 22 22 23
REMARK SMILES IDX 23 24 24 25 25 26 26 27 27 28 28 29 92 30 29 31 91 32 30 33
REMARK SMILES IDX 31 34 32 35 85 36 33 37 90 38 84 39 86 40 34 41 89 42 83 43
REMARK SMILES IDX 82 44 35 46 69 47 48 48 68 49 49 50 52 51 67 52 87 53 50 54
REMARK SMILES IDX 51 55 66 57 88 58 53 59 36 60 37 61 46 62 38 63 39 64 45 65
REMARK SMILES IDX 47 66 40 67 41 68 42 69 43 70 44 71 70 72 71 73 80 74 72 75
REMARK SMILES IDX 73 76 79 77 81 78 74 79 75 80 76 81 77 82 78 83 54 84 55 85
REMARK SMILES IDX 64 86 56 87 57 88 63 89 65 90 58 91 59 92 60 93 61 94 62 95
REMARK H PARENT 5 12 86 45 52 56
REMARK Flexibility Score: inf
ROOT
ATOM      1  O   UNL A   1      33.487  31.671  27.985  1.00  0.00    -0.374 OA
ENDROOT
BRANCH   1   2
ATOM      2  C   UNL A   1      33.436  30.482  27.204  1.00  0.00     0.202 C 
BRANCH   2   3
ATOM      3  C   UNL A   1      32.064  29.991  26.732  1.00  0.00     0.261 C 
BRANCH   3   4
ATOM      4  O   UNL A   1      32.108  28.738  26.034  1.00  0.00    -0.462 OA
BRANCH   4   5
ATOM      5  C   UNL A   1      31.423  27.716  26.632  1.00  0.00     0.324 C 
ATOM      6  O   UNL A   1      31.049  27.700  27.798  1.00  0.00    -0.250 OA
BRANCH   5   7
ATOM      7  C   UNL A   1      31.218  26.540  25.673  1.00  0.00     0.182 C 
BRANCH   7   8
ATOM      8  C   UNL A   1      30.703  27.035  24.304  1.00  0.00     0.012 C 
ATOM      9  C   UNL A   1      31.628  26.725  23.122  1.00  0.00     0.009 C 
ATOM     10  C   UNL A   1      29.318  26.429  24.037  1.00  0.00     0.009 C 
ENDBRANCH   7   8
BRANCH   7  11
ATOM     11  N   UNL A   1      30.415  25.457  26.323  1.00  0.00    -0.197 NA
ATOM     12  H   UNL A   1      29.605  25.307  25.722  1.00  0.00     0.142 HD
BRANCH  11  13
ATOM     13  S   UNL A   1      31.038  23.929  26.653  1.00  0.00     0.241 S 
ATOM     14  O   UNL A   1      32.091  24.104  27.626  1.00  0.00    -0.207 OA
ATOM     15  O   UNL A   1      29.908  23.072  26.926  1.00  0.00    -0.207 OA
BRANCH  13  16
ATOM     16  C   UNL A   1      31.798  23.386  25.145  1.00  0.00     0.085 A 
ATOM     17  C   UNL A   1      31.022  23.230  23.988  1.00  0.00     0.022 A 
ATOM     18  C   UNL A   1      33.168  23.125  25.125  1.00  0.00     0.061 A 
ATOM     19  C   UNL A   1      31.632  22.847  22.792  1.00  0.00     0.004 A 
ATOM     20  C   UNL A   1      33.759  22.751  23.924  1.00  0.00     0.124 A 
ATOM     21  C   UNL A   1      33.007  22.616  22.759  1.00  0.00     0.039 A 
ATOM     22  F   UNL A   1      35.079  22.530  23.880  1.00  0.00    -0.207 F 
ENDBRANCH  13  16
ENDBRANCH  11  13
ENDBRANCH   7  11
ENDBRANCH   5   7
ENDBRANCH   4   5
ENDBRANCH   3   4
ENDBRANCH   2   3
ENDBRANCH   1   2
BRANCH   1  23
ATOM     23  C   UNL A   1      34.687  32.441  27.985  1.00  0.00     0.202 C 
BRANCH  23  24
ATOM     24  C   UNL A   1      35.531  32.498  29.266  1.00  0.00     0.261 C 
BRANCH  24  25
ATOM     25  O   UNL A   1      35.809  31.206  29.837  1.00  0.00    -0.460 OA
BRANCH  25  26
ATOM     26  C   UNL A   1      36.887  31.191  30.661  1.00  0.00     0.338 C 
ATOM     27  O   UNL A   1      36.963  31.671  31.780  1.00  0.00    -0.246 OA
BRANCH  26  28
ATOM     28  C   UNL A   1      37.961  30.350  30.104  1.00  0.00     0.060 A 
ATOM     29  C   UNL A   1      38.935  29.879  30.994  1.00  0.00     0.016 A 
ATOM     30  C   UNL A   1      38.098  30.154  28.730  1.00  0.00     0.016 A 
ATOM     31  C   UNL A   1      40.088  29.272  30.506  1.00  0.00     0.010 A 
ATOM     32  C   UNL A   1      39.260  29.545  28.240  1.00  0.00     0.010 A 
ATOM     33  C   UNL A   1      40.281  29.147  29.123  1.00  0.00    -0.014 A 
BRANCH  33  34
ATOM     34  C   UNL A   1      41.620  28.753  28.618  1.00  0.00     0.031 A 
ATOM     35  C   UNL A   1      42.713  29.789  28.557  1.00  0.00     0.074 A 
ATOM     36  C   UNL A   1      41.879  27.474  28.288  1.00  0.00     0.049 A 
ATOM     37  N   UNL A   1      43.955  29.659  28.168  1.00  0.00    -0.248 NA
ATOM     38  C   UNL A   1      42.361  31.150  28.993  1.00  0.00     0.031 C 
ATOM     39  C   UNL A   1      40.914  26.378  28.345  1.00  0.00     0.029 A 
ATOM     40  N   UNL A   1      43.035  26.882  27.845  1.00  0.00    -0.354 N 
ATOM     41  C   UNL A   1      44.530  30.917  28.308  1.00  0.00     0.074 A 
ATOM     42  C   UNL A   1      43.496  31.805  28.788  1.00  0.00     0.031 C 
ATOM     43  C   UNL A   1      41.518  25.244  27.953  1.00  0.00     0.029 A 
ATOM     44  C   UNL A   1      42.904  25.538  27.589  1.00  0.00     0.049 A 
ATOM     45  H   UNL A   1      43.879  27.375  27.722  1.00  0.00     0.167 HD
ATOM     46  C   UNL A   1      45.810  31.293  28.071  1.00  0.00     0.037 A 
ATOM     47  C   UNL A   1      43.795  24.649  27.106  1.00  0.00     0.037 A 
ATOM     48  C   UNL A   1      46.841  30.400  27.607  1.00  0.00     0.049 A 
ATOM     49  C   UNL A   1      45.201  25.102  26.811  1.00  0.00     0.074 A 
ATOM     50  C   UNL A   1      48.171  30.685  27.349  1.00  0.00     0.029 A 
ATOM     51  N   UNL A   1      46.661  29.051  27.336  1.00  0.00    -0.354 N 
ATOM     52  N   UNL A   1      45.732  26.294  26.953  1.00  0.00    -0.248 NA
ATOM     53  C   UNL A   1      46.134  24.088  26.300  1.00  0.00     0.031 C 
ATOM     54  C   UNL A   1      48.784  29.520  26.877  1.00  0.00     0.029 A 
ATOM     55  C   UNL A   1      47.852  28.496  26.897  1.00  0.00     0.049 A 
ATOM     56  H   UNL A   1      45.813  28.563  27.439  1.00  0.00     0.167 HD
ATOM     57  C   UNL A   1      47.066  26.165  26.580  1.00  0.00     0.074 A 
ATOM     58  C   UNL A   1      47.264  24.778  26.214  1.00  0.00     0.031 C 
ATOM     59  C   UNL A   1      48.039  27.110  26.546  1.00  0.00     0.037 A 
BRANCH  46  60
ATOM     60  C   UNL A   1      46.178  32.734  28.297  1.00  0.00     0.058 A 
ATOM     61  C   UNL A   1      46.089  33.661  27.247  1.00  0.00     0.135 A 
ATOM     62  C   UNL A   1      46.699  33.179  29.522  1.00  0.00     0.135 A 
ATOM     63  F   UNL A   1      45.589  33.291  26.057  1.00  0.00    -0.206 F 
ATOM     64  C   UNL A   1      46.530  34.973  27.395  1.00  0.00     0.059 A 
ATOM     65  C   UNL A   1      47.122  34.494  29.701  1.00  0.00     0.059 A 
ATOM     66  F   UNL A   1      46.783  32.339  30.566  1.00  0.00    -0.206 F 
ATOM     67  C   UNL A   1      47.051  35.378  28.625  1.00  0.00     0.060 A 
BRANCH  67  68
ATOM     68  S   UNL A   1      47.618  37.084  28.797  1.00  0.00     0.124 S 
ATOM     69  O   UNL A   1      47.758  37.210  30.242  1.00  0.00    -0.237 OA
ATOM     70  O   UNL A   1      48.863  37.070  28.034  1.00  0.00    -0.237 OA
ATOM     71  O   UNL A   1      46.536  37.862  28.198  1.00  0.00    -0.744 OA
ENDBRANCH  67  68
ENDBRANCH  46  60
BRANCH  47  72
ATOM     72  C   UNL A   1      43.382  23.239  26.878  1.00  0.00     0.058 A 
ATOM     73  C   UNL A   1      43.182  22.362  27.955  1.00  0.00     0.135 A 
ATOM     74  C   UNL A   1      43.195  22.734  25.582  1.00  0.00     0.135 A 
ATOM     75  F   UNL A   1      43.354  22.792  29.216  1.00  0.00    -0.206 F 
ATOM     76  C   UNL A   1      42.835  21.030  27.757  1.00  0.00     0.059 A 
ATOM     77  C   UNL A   1      42.820  21.412  25.359  1.00  0.00     0.059 A 
ATOM     78  F   UNL A   1      43.360  23.538  24.520  1.00  0.00    -0.206 F 
ATOM     79  C   UNL A   1      42.660  20.563  26.453  1.00  0.00     0.060 A 
BRANCH  79  80
ATOM     80  S   UNL A   1      42.217  18.829  26.219  1.00  0.00     0.124 S 
ATOM     81  O   UNL A   1      40.838  18.943  25.751  1.00  0.00    -0.237 OA
ATOM     82  O   UNL A   1      43.192  18.397  25.223  1.00  0.00    -0.237 OA
ATOM     83  O   UNL A   1      42.384  18.254  27.550  1.00  0.00    -0.744 OA
ENDBRANCH  79  80
ENDBRANCH  47  72
BRANCH  59  84
ATOM     84  C   UNL A   1      49.422  26.677  26.141  1.00  0.00     0.058 A 
ATOM     85  C   UNL A   1      50.289  26.104  27.084  1.00  0.00     0.135 A 
ATOM     86  C   UNL A   1      49.911  26.878  24.840  1.00  0.00     0.135 A 
ATOM     87  F   UNL A   1      49.878  25.897  28.346  1.00  0.00    -0.206 F 
ATOM     88  C   UNL A   1      51.594  25.751  26.757  1.00  0.00     0.059 A 
ATOM     89  C   UNL A   1      51.204  26.505  24.482  1.00  0.00     0.059 A 
ATOM     90  F   UNL A   1      49.121  27.416  23.898  1.00  0.00    -0.206 F 
ATOM     91  C   UNL A   1      52.042  25.953  25.451  1.00  0.00     0.060 A 
BRANCH  91  92
ATOM     92  S   UNL A   1      53.723  25.446  25.031  1.00  0.00     0.124 S 
ATOM     93  O   UNL A   1      54.505  26.117  26.063  1.00  0.00    -0.237 OA
ATOM     94  O   UNL A   1      53.644  23.992  25.139  1.00  0.00    -0.237 OA
ATOM     95  O   UNL A   1      53.902  25.957  23.675  1.00  0.00    -0.744 OA
ENDBRANCH  91  92
ENDBRANCH  59  84
ENDBRANCH  33  34
ENDBRANCH  26  28
ENDBRANCH  25  26
ENDBRANCH  24  25
ENDBRANCH  23  24
ENDBRANCH   1  23
TORSDOF 21
ENDMDL
MODEL 3
REMARK VINA RESULT:     -10.0      6.534     12.224
REMARK SMILES CC(C)[C@H](NS(=O)(=O)c1cccc(F)c1)C(=O)OCCOCCOC(=O)c1ccc(-c2c3nc(c(-c4c(F)cc(S(=O)(=O)[O-])cc4F)c4ccc([nH]4)c(-c4c(F)cc(S(=O)(=O)[O-])cc4F)c4nc(c(-c5c(F)cc(S(=O)(=O)[O-])cc5F)c5ccc2[nH]5)C=C4)C=C3)cc1
REMARK SMILES IDX 21 1 20 2 19 3 18 4 16 5 17 6 4 7 2 8 1 9 3 10 5 11 6 13
REMARK SMILES IDX 7 14 8 15 9 16 10 17 15 18 11 19 13 20 12 21 14 22 22 23
REMARK SMILES IDX 23 24 24 25 25 26 26 27 27 28 28 29 92 30 29 31 91 32 30 33
REMARK SMILES IDX 31 34 32 35 85 36 33 37 90 38 84 39 86 40 34 41 89 42 83 43
REMARK SMILES IDX 82 44 35 46 69 47 48 48 68 49 49 50 52 51 67 52 87 53 50 54
REMARK SMILES IDX 51 55 66 57 88 58 53 59 36 60 37 61 46 62 38 63 39 64 45 65
REMARK SMILES IDX 47 66 40 67 41 68 42 69 43 70 44 71 70 72 71 73 80 74 72 75
REMARK SMILES IDX 73 76 79 77 81 78 74 79 75 80 76 81 77 82 78 83 54 84 55 85
REMARK SMILES IDX 64 86 56 87 57 88 63 89 65 90 58 91 59 92 60 93 61 94 62 95
REMARK H PARENT 5 12 86 45 52 56
REMARK Flexibility Score: inf
ROOT
ATOM      1  O   UNL A   1      39.797  20.736  26.564  1.00  0.00    -0.374 OA
ENDROOT
BRANCH   1   2
ATOM      2  C   UNL A   1      38.688  20.743  25.673  1.00  0.00     0.202 C 
BRANCH   2   3
ATOM      3  C   UNL A   1      37.985  22.078  25.411  1.00  0.00     0.261 C 
BRANCH   3   4
ATOM      4  O   UNL A   1      36.568  21.956  25.215  1.00  0.00    -0.462 OA
BRANCH   4   5
ATOM      5  C   UNL A   1      36.104  22.429  24.019  1.00  0.00     0.324 C 
ATOM      6  O   UNL A   1      36.799  22.710  23.050  1.00  0.00    -0.250 OA
BRANCH   5   7
ATOM      7  C   UNL A   1      34.586  22.624  24.041  1.00  0.00     0.182 C 
BRANCH   7   8
ATOM      8  C   UNL A   1      34.229  24.106  24.284  1.00  0.00     0.012 C 
ATOM      9  C   UNL A   1      32.776  24.476  23.964  1.00  0.00     0.009 C 
ATOM     10  C   UNL A   1      34.535  24.467  25.744  1.00  0.00     0.009 C 
ENDBRANCH   7   8
BRANCH   7  11
ATOM     11  N   UNL A   1      33.936  21.635  24.956  1.00  0.00    -0.197 NA
ATOM     12  H   UNL A   1      33.601  22.169  25.757  1.00  0.00     0.142 HD
BRANCH  11  13
ATOM     13  S   UNL A   1      32.651  20.656  24.482  1.00  0.00     0.241 S 
ATOM     14  O   UNL A   1      31.600  20.839  25.457  1.00  0.00    -0.207 OA
ATOM     15  O   UNL A   1      32.421  20.924  23.082  1.00  0.00    -0.207 OA
BRANCH  13  16
ATOM     16  C   UNL A   1      33.235  18.989  24.643  1.00  0.00     0.085 A 
ATOM     17  C   UNL A   1      34.576  18.688  24.367  1.00  0.00     0.022 A 
ATOM     18  C   UNL A   1      32.349  17.991  25.051  1.00  0.00     0.061 A 
ATOM     19  C   UNL A   1      35.041  17.383  24.538  1.00  0.00     0.004 A 
ATOM     20  C   UNL A   1      32.832  16.699  25.223  1.00  0.00     0.124 A 
ATOM     21  C   UNL A   1      34.168  16.388  24.977  1.00  0.00     0.039 A 
ATOM     22  F   UNL A   1      32.004  15.737  25.647  1.00  0.00    -0.207 F 
ENDBRANCH  13  16
ENDBRANCH  11  13
ENDBRANCH   7  11
ENDBRANCH   5   7
ENDBRANCH   4   5
ENDBRANCH   3   4
ENDBRANCH   2   3
ENDBRANCH   1   2
BRANCH   1  23
ATOM     23  C   UNL A   1      40.103  21.924  27.290  1.00  0.00     0.202 C 
BRANCH  23  24
ATOM     24  C   UNL A   1      41.353  22.727  26.906  1.00  0.00     0.261 C 
BRANCH  24  25
ATOM     25  O   UNL A   1      41.063  23.994  26.288  1.00  0.00    -0.460 OA
BRANCH  25  26
ATOM     26  C   UNL A   1      41.983  24.956  26.553  1.00  0.00     0.338 C 
ATOM     27  O   UNL A   1      43.101  25.056  26.075  1.00  0.00    -0.246 OA
BRANCH  26  28
ATOM     28  C   UNL A   1      41.404  26.017  27.397  1.00  0.00     0.060 A 
ATOM     29  C   UNL A   1      42.094  27.234  27.462  1.00  0.00     0.016 A 
ATOM     30  C   UNL A   1      40.303  25.777  28.219  1.00  0.00     0.016 A 
ATOM     31  C   UNL A   1      41.728  28.191  28.403  1.00  0.00     0.010 A 
ATOM     32  C   UNL A   1      39.939  26.740  29.168  1.00  0.00     0.010 A 
ATOM     33  C   UNL A   1      40.681  27.929  29.297  1.00  0.00    -0.014 A 
BRANCH  33  34
ATOM     34  C   UNL A   1      40.486  28.833  30.459  1.00  0.00     0.031 A 
ATOM     35  C   UNL A   1      41.394  28.695  31.654  1.00  0.00     0.074 A 
ATOM     36  C   UNL A   1      39.560  29.809  30.420  1.00  0.00     0.049 A 
ATOM     37  N   UNL A   1      41.412  29.387  32.762  1.00  0.00    -0.248 NA
ATOM     38  C   UNL A   1      42.419  27.640  31.589  1.00  0.00     0.031 C 
ATOM     39  C   UNL A   1      38.653  30.064  29.303  1.00  0.00     0.029 A 
ATOM     40  N   UNL A   1      39.236  30.771  31.344  1.00  0.00    -0.354 N 
ATOM     41  C   UNL A   1      42.442  28.851  33.529  1.00  0.00     0.074 A 
ATOM     42  C   UNL A   1      43.007  27.757  32.772  1.00  0.00     0.031 C 
ATOM     43  C   UNL A   1      37.874  31.117  29.606  1.00  0.00     0.029 A 
ATOM     44  C   UNL A   1      38.207  31.591  30.949  1.00  0.00     0.049 A 
ATOM     45  H   UNL A   1      39.699  30.864  32.209  1.00  0.00     0.167 HD
ATOM     46  C   UNL A   1      42.885  29.247  34.746  1.00  0.00     0.037 A 
ATOM     47  C   UNL A   1      37.595  32.601  31.600  1.00  0.00     0.037 A 
ATOM     48  C   UNL A   1      42.329  30.348  35.488  1.00  0.00     0.049 A 
ATOM     49  C   UNL A   1      38.080  32.995  32.970  1.00  0.00     0.074 A 
ATOM     50  C   UNL A   1      42.718  30.833  36.725  1.00  0.00     0.029 A 
ATOM     51  N   UNL A   1      41.270  31.138  35.065  1.00  0.00    -0.354 N 
ATOM     52  N   UNL A   1      39.059  32.482  33.679  1.00  0.00    -0.248 NA
ATOM     53  C   UNL A   1      37.386  34.111  33.627  1.00  0.00     0.031 C 
ATOM     54  C   UNL A   1      41.864  31.885  37.071  1.00  0.00     0.029 A 
ATOM     55  C   UNL A   1      40.982  32.095  36.024  1.00  0.00     0.049 A 
ATOM     56  H   UNL A   1      40.793  31.033  34.210  1.00  0.00     0.167 HD
ATOM     57  C   UNL A   1      39.117  33.233  34.849  1.00  0.00     0.074 A 
ATOM     58  C   UNL A   1      38.082  34.240  34.749  1.00  0.00     0.031 C 
ATOM     59  C   UNL A   1      39.955  33.100  35.908  1.00  0.00     0.037 A 
BRANCH  46  60
ATOM     60  C   UNL A   1      44.023  28.485  35.367  1.00  0.00     0.058 A 
ATOM     61  C   UNL A   1      43.769  27.381  36.196  1.00  0.00     0.135 A 
ATOM     62  C   UNL A   1      45.357  28.895  35.214  1.00  0.00     0.135 A 
ATOM     63  F   UNL A   1      42.513  26.940  36.369  1.00  0.00    -0.206 F 
ATOM     64  C   UNL A   1      44.794  26.728  36.874  1.00  0.00     0.059 A 
ATOM     65  C   UNL A   1      46.402  28.240  35.863  1.00  0.00     0.059 A 
ATOM     66  F   UNL A   1      45.658  29.930  34.413  1.00  0.00    -0.206 F 
ATOM     67  C   UNL A   1      46.107  27.170  36.705  1.00  0.00     0.060 A 
BRANCH  67  68
ATOM     68  S   UNL A   1      47.422  26.309  37.594  1.00  0.00     0.124 S 
ATOM     69  O   UNL A   1      48.457  26.204  36.572  1.00  0.00    -0.237 OA
ATOM     70  O   UNL A   1      47.701  27.230  38.692  1.00  0.00    -0.237 OA
ATOM     71  O   UNL A   1      46.797  25.050  37.989  1.00  0.00    -0.744 OA
ENDBRANCH  67  68
ENDBRANCH  46  60
BRANCH  47  72
ATOM     72  C   UNL A   1      36.460  33.313  30.956  1.00  0.00     0.058 A 
ATOM     73  C   UNL A   1      36.669  34.161  29.858  1.00  0.00     0.135 A 
ATOM     74  C   UNL A   1      35.148  33.176  31.434  1.00  0.00     0.135 A 
ATOM     75  F   UNL A   1      37.906  34.334  29.365  1.00  0.00    -0.206 F 
ATOM     76  C   UNL A   1      35.624  34.866  29.271  1.00  0.00     0.059 A 
ATOM     77  C   UNL A   1      34.080  33.848  30.845  1.00  0.00     0.059 A 
ATOM     78  F   UNL A   1      34.895  32.365  32.473  1.00  0.00    -0.206 F 
ATOM     79  C   UNL A   1      34.332  34.705  29.775  1.00  0.00     0.060 A 
BRANCH  79  80
ATOM     80  S   UNL A   1      32.992  35.635  29.003  1.00  0.00     0.124 S 
ATOM     81  O   UNL A   1      33.729  36.700  28.328  1.00  0.00    -0.237 OA
ATOM     82  O   UNL A   1      32.385  34.634  28.132  1.00  0.00    -0.237 OA
ATOM     83  O   UNL A   1      32.175  36.057  30.136  1.00  0.00    -0.744 OA
ENDBRANCH  79  80
ENDBRANCH  47  72
BRANCH  59  84
ATOM     84  C   UNL A   1      39.824  34.092  37.033  1.00  0.00     0.058 A 
ATOM     85  C   UNL A   1      38.982  33.818  38.123  1.00  0.00     0.135 A 
ATOM     86  C   UNL A   1      40.480  35.333  37.008  1.00  0.00     0.135 A 
ATOM     87  F   UNL A   1      38.323  32.651  38.193  1.00  0.00    -0.206 F 
ATOM     88  C   UNL A   1      38.790  34.740  39.146  1.00  0.00     0.059 A 
ATOM     89  C   UNL A   1      40.326  36.259  38.037  1.00  0.00     0.059 A 
ATOM     90  F   UNL A   1      41.300  35.642  35.993  1.00  0.00    -0.206 F 
ATOM     91  C   UNL A   1      39.468  35.959  39.095  1.00  0.00     0.060 A 
BRANCH  91  92
ATOM     92  S   UNL A   1      39.244  37.124  40.455  1.00  0.00     0.124 S 
ATOM     93  O   UNL A   1      38.783  36.249  41.527  1.00  0.00    -0.237 OA
ATOM     94  O   UNL A   1      40.587  37.674  40.617  1.00  0.00    -0.237 OA
ATOM     95  O   UNL A   1      38.251  38.061  39.938  1.00  0.00    -0.744 OA
ENDBRANCH  91  92
ENDBRANCH  59  84
ENDBRANCH  33  34
ENDBRANCH  26  28
ENDBRANCH  25  26
ENDBRANCH  24  25
ENDBRANCH  23  24
ENDBRANCH   1  23
TORSDOF 21
ENDMDL
