MODEL 1
REMARK VINA RESULT:     -12.6      0.000      0.000
REMARK SMILES Cc1ccnc(C(=O)c2[nH]c3cc(Cl)c(F)cc3c2CC(=O)OCCOCCOC(=O)c2ccc(-c3c4nc(c(-c5c(F)cc(S(=O)(=O)[O-])cc5F)c5ccc([nH]5)c(-c5c(F)cc(S(=O)(=O)[O-])cc5F)c5nc(c(-c6c(F)cc(S(=O)(=O)[O-])cc6F)c6ccc3[nH]6)C=C5)C=C4)cc2)c1
REMARK SMILES IDX 26 1 25 2 24 3 23 4 21 5 22 6 20 7 19 8 9 9 10 10 11 11
REMARK SMILES IDX 18 13 12 14 17 15 13 16 15 17 14 18 16 19 7 20 8 21 6 22
REMARK SMILES IDX 1 23 2 24 3 25 98 26 4 27 5 28 27 29 28 30 29 31 30 32 31 33
REMARK SMILES IDX 32 34 33 35 97 36 34 37 96 38 35 39 36 40 37 41 90 42 38 43
REMARK SMILES IDX 95 44 89 45 91 46 39 47 94 48 88 49 87 50 40 52 74 53 53 54
REMARK SMILES IDX 73 55 54 56 57 57 72 58 92 59 55 60 56 61 71 63 93 64 58 65
REMARK SMILES IDX 41 66 42 67 51 68 43 69 44 70 50 71 52 72 45 73 46 74 47 75
REMARK SMILES IDX 48 76 49 77 75 78 76 79 85 80 77 81 78 82 84 83 86 84 79 85
REMARK SMILES IDX 80 86 81 87 82 88 83 89 59 90 60 91 69 92 61 93 62 94 68 95
REMARK SMILES IDX 70 96 63 97 64 98 65 99 66 100 67 101
REMARK H PARENT 10 12 91 51 57 62
REMARK Flexibility Score: inf
ROOT
ATOM      1  O   UNL A   1      40.290  20.896  26.485  1.00  0.00    -0.374 OA
ENDROOT
BRANCH   1   2
ATOM      2  C   UNL A   1      39.652  22.170  26.473  1.00  0.00     0.202 C 
BRANCH   2   3
ATOM      3  C   UNL A   1      38.299  22.052  25.765  1.00  0.00     0.261 C 
BRANCH   3   4
ATOM      4  O   UNL A   1      37.597  23.334  25.743  1.00  0.00    -0.463 OA
BRANCH   4   5
ATOM      5  C   UNL A   1      36.344  23.306  25.223  1.00  0.00     0.310 C 
ATOM      6  O   UNL A   1      36.108  23.492  24.034  1.00  0.00    -0.252 OA
BRANCH   5   7
ATOM      7  C   UNL A   1      35.225  22.969  26.204  1.00  0.00     0.161 C 
BRANCH   7   8
ATOM      8  C   UNL A   1      33.967  22.220  25.773  1.00  0.00     0.000 A 
ATOM      9  C   UNL A   1      32.594  22.550  25.935  1.00  0.00     0.093 A 
ATOM     10  N   UNL A   1      31.903  21.368  25.721  1.00  0.00    -0.351 N 
ATOM     11  C   UNL A   1      32.726  20.343  25.332  1.00  0.00     0.048 A 
ATOM     12  H   UNL A   1      30.929  21.274  25.835  1.00  0.00     0.167 HD
ATOM     13  C   UNL A   1      34.020  20.851  25.293  1.00  0.00     0.007 A 
ATOM     14  C   UNL A   1      32.416  19.003  25.053  1.00  0.00     0.050 A 
ATOM     15  C   UNL A   1      35.063  19.977  24.908  1.00  0.00     0.051 A 
ATOM     16  C   UNL A   1      33.467  18.157  24.687  1.00  0.00     0.078 A 
ATOM     17  C   UNL A   1      34.766  18.643  24.601  1.00  0.00     0.142 A 
ATOM     18  Cl  UNL A   1      33.126  16.497  24.364  1.00  0.00    -0.081 Cl
ATOM     19  F   UNL A   1      35.771  17.829  24.243  1.00  0.00    -0.205 F 
BRANCH   9  20
ATOM     20  C   UNL A   1      31.836  23.687  26.497  1.00  0.00     0.227 C 
ATOM     21  O   UNL A   1      31.359  23.573  27.627  1.00  0.00    -0.285 OA
BRANCH  20  22
ATOM     22  C   UNL A   1      31.469  24.958  25.728  1.00  0.00     0.113 A 
ATOM     23  C   UNL A   1      31.487  26.572  22.289  1.00  0.00     0.044 C 
ATOM     24  C   UNL A   1      31.205  26.342  23.755  1.00  0.00    -0.047 A 
ATOM     25  C   UNL A   1      31.132  27.461  24.573  1.00  0.00     0.023 A 
ATOM     26  C   UNL A   1      31.245  25.053  24.352  1.00  0.00     0.036 A 
ATOM     27  C   UNL A   1      31.182  27.264  25.936  1.00  0.00     0.112 A 
ATOM     28  N   UNL A   1      31.381  26.061  26.523  1.00  0.00    -0.253 NA
ENDBRANCH  20  22
ENDBRANCH   9  20
ENDBRANCH   7   8
ENDBRANCH   5   7
ENDBRANCH   4   5
ENDBRANCH   3   4
ENDBRANCH   2   3
ENDBRANCH   1   2
BRANCH   1  29
ATOM     29  C   UNL A   1      41.672  20.969  26.807  1.00  0.00     0.202 C 
BRANCH  29  30
ATOM     30  C   UNL A   1      42.547  20.168  25.842  1.00  0.00     0.261 C 
BRANCH  30  31
ATOM     31  O   UNL A   1      43.440  21.106  25.283  1.00  0.00    -0.460 OA
BRANCH  31  32
ATOM     32  C   UNL A   1      44.788  20.973  25.288  1.00  0.00     0.338 C 
ATOM     33  O   UNL A   1      45.476  20.015  25.323  1.00  0.00    -0.246 OA
BRANCH  32  34
ATOM     34  C   UNL A   1      45.094  22.434  25.249  1.00  0.00     0.060 A 
ATOM     35  C   UNL A   1      45.506  22.873  26.515  1.00  0.00     0.016 A 
ATOM     36  C   UNL A   1      44.166  23.168  24.485  1.00  0.00     0.016 A 
ATOM     37  C   UNL A   1      44.723  23.823  27.141  1.00  0.00     0.010 A 
ATOM     38  C   UNL A   1      43.419  24.166  25.105  1.00  0.00     0.010 A 
ATOM     39  C   UNL A   1      43.658  24.441  26.451  1.00  0.00    -0.014 A 
BRANCH  39  40
ATOM     40  C   UNL A   1      43.134  25.625  27.118  1.00  0.00     0.031 A 
ATOM     41  C   UNL A   1      44.104  26.737  26.962  1.00  0.00     0.074 A 
ATOM     42  C   UNL A   1      41.982  25.845  27.770  1.00  0.00     0.049 A 
ATOM     43  N   UNL A   1      44.917  27.196  27.855  1.00  0.00    -0.248 NA
ATOM     44  C   UNL A   1      44.361  27.196  25.589  1.00  0.00     0.031 C 
ATOM     45  C   UNL A   1      40.748  25.070  27.810  1.00  0.00     0.029 A 
ATOM     46  N   UNL A   1      41.690  26.943  28.526  1.00  0.00    -0.354 N 
ATOM     47  C   UNL A   1      45.703  28.119  27.184  1.00  0.00     0.074 A 
ATOM     48  C   UNL A   1      45.440  27.951  25.777  1.00  0.00     0.031 C 
ATOM     49  C   UNL A   1      39.776  25.830  28.375  1.00  0.00     0.029 A 
ATOM     50  C   UNL A   1      40.353  27.082  28.851  1.00  0.00     0.049 A 
ATOM     51  H   UNL A   1      42.377  27.585  28.817  1.00  0.00     0.167 HD
ATOM     52  C   UNL A   1      46.385  29.097  27.831  1.00  0.00     0.037 A 
ATOM     53  C   UNL A   1      39.789  28.198  29.380  1.00  0.00     0.037 A 
ATOM     54  C   UNL A   1      46.527  28.836  29.235  1.00  0.00     0.049 A 
ATOM     55  C   UNL A   1      40.873  29.003  30.015  1.00  0.00     0.074 A 
ATOM     56  C   UNL A   1      47.129  27.833  29.975  1.00  0.00     0.029 A 
ATOM     57  N   UNL A   1      45.683  29.482  30.106  1.00  0.00    -0.354 N 
ATOM     58  N   UNL A   1      41.514  28.658  31.097  1.00  0.00    -0.248 NA
ATOM     59  C   UNL A   1      41.524  30.031  29.213  1.00  0.00     0.031 C 
ATOM     60  C   UNL A   1      46.279  27.634  31.103  1.00  0.00     0.029 A 
ATOM     61  C   UNL A   1      45.221  28.537  30.991  1.00  0.00     0.049 A 
ATOM     62  H   UNL A   1      45.452  30.438  30.097  1.00  0.00     0.167 HD
ATOM     63  C   UNL A   1      42.811  29.114  30.910  1.00  0.00     0.074 A 
ATOM     64  C   UNL A   1      42.733  30.031  29.779  1.00  0.00     0.031 C 
ATOM     65  C   UNL A   1      43.875  28.511  31.519  1.00  0.00     0.037 A 
BRANCH  52  66
ATOM     66  C   UNL A   1      46.632  30.430  27.194  1.00  0.00     0.058 A 
ATOM     67  C   UNL A   1      47.930  30.959  27.134  1.00  0.00     0.135 A 
ATOM     68  C   UNL A   1      45.582  31.311  26.844  1.00  0.00     0.135 A 
ATOM     69  F   UNL A   1      48.988  30.210  27.484  1.00  0.00    -0.206 F 
ATOM     70  C   UNL A   1      48.167  32.284  26.774  1.00  0.00     0.059 A 
ATOM     71  C   UNL A   1      45.799  32.611  26.418  1.00  0.00     0.059 A 
ATOM     72  F   UNL A   1      44.293  30.977  26.993  1.00  0.00    -0.206 F 
ATOM     73  C   UNL A   1      47.092  33.102  26.427  1.00  0.00     0.060 A 
BRANCH  73  74
ATOM     74  S   UNL A   1      47.377  34.842  26.071  1.00  0.00     0.124 S 
ATOM     75  O   UNL A   1      48.026  35.283  27.299  1.00  0.00    -0.237 OA
ATOM     76  O   UNL A   1      48.224  34.776  24.885  1.00  0.00    -0.237 OA
ATOM     77  O   UNL A   1      46.031  35.363  25.844  1.00  0.00    -0.744 OA
ENDBRANCH  73  74
ENDBRANCH  52  66
BRANCH  53  78
ATOM     78  C   UNL A   1      38.459  28.791  29.072  1.00  0.00     0.058 A 
ATOM     79  C   UNL A   1      37.510  29.001  30.089  1.00  0.00     0.135 A 
ATOM     80  C   UNL A   1      38.211  29.439  27.846  1.00  0.00     0.135 A 
ATOM     81  F   UNL A   1      37.675  28.439  31.297  1.00  0.00    -0.206 F 
ATOM     82  C   UNL A   1      36.415  29.856  29.922  1.00  0.00     0.059 A 
ATOM     83  C   UNL A   1      37.119  30.283  27.653  1.00  0.00     0.059 A 
ATOM     84  F   UNL A   1      39.078  29.355  26.827  1.00  0.00    -0.206 F 
ATOM     85  C   UNL A   1      36.243  30.512  28.705  1.00  0.00     0.060 A 
BRANCH  85  86
ATOM     86  S   UNL A   1      34.950  31.764  28.546  1.00  0.00     0.124 S 
ATOM     87  O   UNL A   1      35.562  32.716  27.627  1.00  0.00    -0.237 OA
ATOM     88  O   UNL A   1      33.835  30.988  28.014  1.00  0.00    -0.237 OA
ATOM     89  O   UNL A   1      34.773  32.242  29.916  1.00  0.00    -0.744 OA
ENDBRANCH  85  86
ENDBRANCH  53  78
BRANCH  65  90
ATOM     90  C   UNL A   1      43.596  27.560  32.653  1.00  0.00     0.058 A 
ATOM     91  C   UNL A   1      43.626  26.159  32.537  1.00  0.00     0.135 A 
ATOM     92  C   UNL A   1      43.405  28.092  33.939  1.00  0.00     0.135 A 
ATOM     93  F   UNL A   1      43.917  25.568  31.368  1.00  0.00    -0.206 F 
ATOM     94  C   UNL A   1      43.418  25.328  33.638  1.00  0.00     0.059 A 
ATOM     95  C   UNL A   1      43.232  27.281  35.058  1.00  0.00     0.059 A 
ATOM     96  F   UNL A   1      43.429  29.423  34.127  1.00  0.00    -0.206 F 
ATOM     97  C   UNL A   1      43.222  25.898  34.896  1.00  0.00     0.060 A 
BRANCH  97  98
ATOM     98  S   UNL A   1      43.030  24.814  36.327  1.00  0.00     0.124 S 
ATOM     99  O   UNL A   1      44.170  23.915  36.187  1.00  0.00    -0.237 OA
ATOM    100  O   UNL A   1      43.095  25.755  37.443  1.00  0.00    -0.237 OA
ATOM    101  O   UNL A   1      41.721  24.200  36.117  1.00  0.00    -0.744 OA
ENDBRANCH  97  98
ENDBRANCH  65  90
ENDBRANCH  39  40
ENDBRANCH  32  34
ENDBRANCH  31  32
ENDBRANCH  30  31
ENDBRANCH  29  30
ENDBRANCH   1  29
TORSDOF 20
ENDMDL
MODEL 2
REMARK VINA RESULT:     -12.6      3.242      9.833
REMARK SMILES Cc1ccnc(C(=O)c2[nH]c3cc(Cl)c(F)cc3c2CC(=O)OCCOCCOC(=O)c2ccc(-c3c4nc(c(-c5c(F)cc(S(=O)(=O)[O-])cc5F)c5ccc([nH]5)c(-c5c(F)cc(S(=O)(=O)[O-])cc5F)c5nc(c(-c6c(F)cc(S(=O)(=O)[O-])cc6F)c6ccc3[nH]6)C=C5)C=C4)cc2)c1
REMARK SMILES IDX 26 1 25 2 24 3 23 4 21 5 22 6 20 7 19 8 9 9 10 10 11 11
REMARK SMILES IDX 18 13 12 14 17 15 13 16 15 17 14 18 16 19 7 20 8 21 6 22
REMARK SMILES IDX 1 23 2 24 3 25 98 26 4 27 5 28 27 29 28 30 29 31 30 32 31 33
REMARK SMILES IDX 32 34 33 35 97 36 34 37 96 38 35 39 36 40 37 41 90 42 38 43
REMARK SMILES IDX 95 44 89 45 91 46 39 47 94 48 88 49 87 50 40 52 74 53 53 54
REMARK SMILES IDX 73 55 54 56 57 57 72 58 92 59 55 60 56 61 71 63 93 64 58 65
REMARK SMILES IDX 41 66 42 67 51 68 43 69 44 70 50 71 52 72 45 73 46 74 47 75
REMARK SMILES IDX 48 76 49 77 75 78 76 79 85 80 77 81 78 82 84 83 86 84 79 85
REMARK SMILES IDX 80 86 81 87 82 88 83 89 59 90 60 91 69 92 61 93 62 94 68 95
REMARK SMILES IDX 70 96 63 97 64 98 65 99 66 100 67 101
REMARK H PARENT 10 12 91 51 57 62
REMARK Flexibility Score: inf
ROOT
ATOM      1  O   UNL A   1      32.082  29.798  25.952  1.00  0.00    -0.374 OA
ENDROOT
BRANCH   1   2
ATOM      2  C   UNL A   1      32.846  28.679  25.511  1.00  0.00     0.202 C 
BRANCH   2   3
ATOM      3  C   UNL A   1      32.532  27.469  26.397  1.00  0.00     0.261 C 
BRANCH   3   4
ATOM      4  O   UNL A   1      31.116  27.114  26.328  1.00  0.00    -0.463 OA
BRANCH   4   5
ATOM      5  C   UNL A   1      30.851  25.839  25.946  1.00  0.00     0.310 C 
ATOM      6  O   UNL A   1      31.047  24.868  26.670  1.00  0.00    -0.252 OA
BRANCH   5   7
ATOM      7  C   UNL A   1      30.227  25.676  24.563  1.00  0.00     0.161 C 
BRANCH   7   8
ATOM      8  C   UNL A   1      30.576  26.600  23.401  1.00  0.00     0.000 A 
ATOM      9  C   UNL A   1      31.754  26.687  22.610  1.00  0.00     0.093 A 
ATOM     10  N   UNL A   1      31.688  27.921  21.983  1.00  0.00    -0.351 N 
ATOM     11  C   UNL A   1      30.510  28.574  22.235  1.00  0.00     0.048 A 
ATOM     12  H   UNL A   1      32.408  28.289  21.420  1.00  0.00     0.167 HD
ATOM     13  C   UNL A   1      29.759  27.753  23.069  1.00  0.00     0.007 A 
ATOM     14  C   UNL A   1      30.081  29.842  21.813  1.00  0.00     0.050 A 
ATOM     15  C   UNL A   1      28.481  28.209  23.471  1.00  0.00     0.051 A 
ATOM     16  C   UNL A   1      28.820  30.273  22.235  1.00  0.00     0.078 A 
ATOM     17  C   UNL A   1      28.028  29.461  23.037  1.00  0.00     0.142 A 
ATOM     18  Cl  UNL A   1      28.272  31.838  21.758  1.00  0.00    -0.081 Cl
ATOM     19  F   UNL A   1      26.815  29.877  23.434  1.00  0.00    -0.205 F 
BRANCH   9  20
ATOM     20  C   UNL A   1      33.034  25.954  22.531  1.00  0.00     0.227 C 
ATOM     21  O   UNL A   1      33.740  26.109  21.533  1.00  0.00    -0.285 OA
BRANCH  20  22
ATOM     22  C   UNL A   1      33.498  24.894  23.535  1.00  0.00     0.113 A 
ATOM     23  C   UNL A   1      36.329  23.919  25.872  1.00  0.00     0.044 C 
ATOM     24  C   UNL A   1      34.984  23.923  25.186  1.00  0.00    -0.047 A 
ATOM     25  C   UNL A   1      34.361  22.697  24.997  1.00  0.00     0.023 A 
ATOM     26  C   UNL A   1      34.457  25.071  24.536  1.00  0.00     0.036 A 
ATOM     27  C   UNL A   1      33.301  22.644  24.118  1.00  0.00     0.112 A 
ATOM     28  N   UNL A   1      32.884  23.691  23.367  1.00  0.00    -0.253 NA
ENDBRANCH  20  22
ENDBRANCH   9  20
ENDBRANCH   7   8
ENDBRANCH   5   7
ENDBRANCH   4   5
ENDBRANCH   3   4
ENDBRANCH   2   3
ENDBRANCH   1   2
BRANCH   1  29
ATOM     29  C   UNL A   1      32.471  30.264  27.237  1.00  0.00     0.202 C 
BRANCH  29  30
ATOM     30  C   UNL A   1      33.080  31.666  27.197  1.00  0.00     0.261 C 
BRANCH  30  31
ATOM     31  O   UNL A   1      34.452  31.483  27.467  1.00  0.00    -0.460 OA
BRANCH  31  32
ATOM     32  C   UNL A   1      35.275  32.454  27.931  1.00  0.00     0.338 C 
ATOM     33  O   UNL A   1      35.388  33.589  27.627  1.00  0.00    -0.246 OA
BRANCH  32  34
ATOM     34  C   UNL A   1      35.986  31.601  28.928  1.00  0.00     0.060 A 
ATOM     35  C   UNL A   1      37.199  32.201  29.297  1.00  0.00     0.016 A 
ATOM     36  C   UNL A   1      35.911  30.227  28.627  1.00  0.00     0.016 A 
ATOM     37  C   UNL A   1      38.359  31.511  29.006  1.00  0.00     0.010 A 
ATOM     38  C   UNL A   1      37.087  29.520  28.392  1.00  0.00     0.010 A 
ATOM     39  C   UNL A   1      38.305  30.188  28.519  1.00  0.00    -0.014 A 
BRANCH  39  40
ATOM     40  C   UNL A   1      39.583  29.492  28.559  1.00  0.00     0.031 A 
ATOM     41  C   UNL A   1      39.995  29.319  29.974  1.00  0.00     0.074 A 
ATOM     42  C   UNL A   1      40.361  28.999  27.583  1.00  0.00     0.049 A 
ATOM     43  N   UNL A   1      40.896  29.987  30.613  1.00  0.00    -0.248 NA
ATOM     44  C   UNL A   1      39.120  28.488  30.814  1.00  0.00     0.031 C 
ATOM     45  C   UNL A   1      40.078  28.748  26.175  1.00  0.00     0.029 A 
ATOM     46  N   UNL A   1      41.638  28.541  27.734  1.00  0.00    -0.354 N 
ATOM     47  C   UNL A   1      40.801  29.554  31.926  1.00  0.00     0.074 A 
ATOM     48  C   UNL A   1      39.593  28.774  32.024  1.00  0.00     0.031 C 
ATOM     49  C   UNL A   1      41.078  27.989  25.660  1.00  0.00     0.029 A 
ATOM     50  C   UNL A   1      42.124  27.817  26.661  1.00  0.00     0.049 A 
ATOM     51  H   UNL A   1      42.170  28.714  28.544  1.00  0.00     0.167 HD
ATOM     52  C   UNL A   1      41.816  29.700  32.814  1.00  0.00     0.037 A 
ATOM     53  C   UNL A   1      43.256  27.068  26.672  1.00  0.00     0.037 A 
ATOM     54  C   UNL A   1      42.788  30.667  32.387  1.00  0.00     0.049 A 
ATOM     55  C   UNL A   1      44.119  27.557  27.787  1.00  0.00     0.074 A 
ATOM     56  C   UNL A   1      42.745  32.022  32.109  1.00  0.00     0.029 A 
ATOM     57  N   UNL A   1      43.956  30.212  31.824  1.00  0.00    -0.354 N 
ATOM     58  N   UNL A   1      44.728  28.710  27.800  1.00  0.00    -0.248 NA
ATOM     59  C   UNL A   1      43.993  26.910  29.086  1.00  0.00     0.031 C 
ATOM     60  C   UNL A   1      43.634  32.211  31.011  1.00  0.00     0.029 A 
ATOM     61  C   UNL A   1      44.177  30.964  30.696  1.00  0.00     0.049 A 
ATOM     62  H   UNL A   1      44.524  29.484  32.164  1.00  0.00     0.167 HD
ATOM     63  C   UNL A   1      44.701  29.118  29.126  1.00  0.00     0.074 A 
ATOM     64  C   UNL A   1      44.322  27.930  29.882  1.00  0.00     0.031 C 
ATOM     65  C   UNL A   1      44.733  30.440  29.468  1.00  0.00     0.037 A 
BRANCH  52  66
ATOM     66  C   UNL A   1      42.043  28.708  33.912  1.00  0.00     0.058 A 
ATOM     67  C   UNL A   1      42.516  27.420  33.620  1.00  0.00     0.135 A 
ATOM     68  C   UNL A   1      41.583  28.919  35.233  1.00  0.00     0.135 A 
ATOM     69  F   UNL A   1      42.937  27.113  32.383  1.00  0.00    -0.206 F 
ATOM     70  C   UNL A   1      42.509  26.402  34.571  1.00  0.00     0.059 A 
ATOM     71  C   UNL A   1      41.631  27.942  36.213  1.00  0.00     0.059 A 
ATOM     72  F   UNL A   1      40.978  30.057  35.603  1.00  0.00    -0.206 F 
ATOM     73  C   UNL A   1      42.056  26.674  35.862  1.00  0.00     0.060 A 
BRANCH  73  74
ATOM     74  S   UNL A   1      41.938  25.340  37.063  1.00  0.00     0.124 S 
ATOM     75  O   UNL A   1      41.853  24.175  36.190  1.00  0.00    -0.237 OA
ATOM     76  O   UNL A   1      43.182  25.492  37.811  1.00  0.00    -0.237 OA
ATOM     77  O   UNL A   1      40.724  25.664  37.807  1.00  0.00    -0.744 OA
ENDBRANCH  73  74
ENDBRANCH  52  66
BRANCH  53  78
ATOM     78  C   UNL A   1      43.491  25.746  26.030  1.00  0.00     0.058 A 
ATOM     79  C   UNL A   1      44.694  25.476  25.353  1.00  0.00     0.135 A 
ATOM     80  C   UNL A   1      42.681  24.633  26.326  1.00  0.00     0.135 A 
ATOM     81  F   UNL A   1      45.538  26.475  25.047  1.00  0.00    -0.206 F 
ATOM     82  C   UNL A   1      45.102  24.174  25.047  1.00  0.00     0.059 A 
ATOM     83  C   UNL A   1      43.059  23.328  26.018  1.00  0.00     0.059 A 
ATOM     84  F   UNL A   1      41.540  24.766  27.018  1.00  0.00    -0.206 F 
ATOM     85  C   UNL A   1      44.286  23.103  25.407  1.00  0.00     0.060 A 
BRANCH  85  86
ATOM     86  S   UNL A   1      44.893  21.414  25.195  1.00  0.00     0.124 S 
ATOM     87  O   UNL A   1      43.869  20.637  25.884  1.00  0.00    -0.237 OA
ATOM     88  O   UNL A   1      44.927  21.281  23.742  1.00  0.00    -0.237 OA
ATOM     89  O   UNL A   1      46.201  21.441  25.845  1.00  0.00    -0.744 OA
ENDBRANCH  85  86
ENDBRANCH  53  78
BRANCH  65  90
ATOM     90  C   UNL A   1      45.133  31.435  28.410  1.00  0.00     0.058 A 
ATOM     91  C   UNL A   1      44.286  31.875  27.377  1.00  0.00     0.135 A 
ATOM     92  C   UNL A   1      46.388  32.057  28.519  1.00  0.00     0.135 A 
ATOM     93  F   UNL A   1      43.030  31.418  27.271  1.00  0.00    -0.206 F 
ATOM     94  C   UNL A   1      44.693  32.845  26.461  1.00  0.00     0.059 A 
ATOM     95  C   UNL A   1      46.799  33.052  27.637  1.00  0.00     0.059 A 
ATOM     96  F   UNL A   1      47.218  31.726  29.523  1.00  0.00    -0.206 F 
ATOM     97  C   UNL A   1      45.952  33.430  26.598  1.00  0.00     0.060 A 
BRANCH  97  98
ATOM     98  S   UNL A   1      46.439  34.738  25.453  1.00  0.00     0.124 S 
ATOM     99  O   UNL A   1      46.079  35.943  26.193  1.00  0.00    -0.237 OA
ATOM    100  O   UNL A   1      47.871  34.495  25.292  1.00  0.00    -0.237 OA
ATOM    101  O   UNL A   1      45.633  34.469  24.265  1.00  0.00    -0.744 OA
ENDBRANCH  97  98
ENDBRANCH  65  90
ENDBRANCH  39  40
ENDBRANCH  32  34
ENDBRANCH  31  32
ENDBRANCH  30  31
ENDBRANCH  29  30
ENDBRANCH   1  29
TORSDOF 20
ENDMDL
MODEL 3
REMARK VINA RESULT:     -12.0      1.428      2.031
REMARK SMILES Cc1ccnc(C(=O)c2[nH]c3cc(Cl)c(F)cc3c2CC(=O)OCCOCCOC(=O)c2ccc(-c3c4nc(c(-c5c(F)cc(S(=O)(=O)[O-])cc5F)c5ccc([nH]5)c(-c5c(F)cc(S(=O)(=O)[O-])cc5F)c5nc(c(-c6c(F)cc(S(=O)(=O)[O-])cc6F)c6ccc3[nH]6)C=C5)C=C4)cc2)c1
REMARK SMILES IDX 26 1 25 2 24 3 23 4 21 5 22 6 20 7 19 8 9 9 10 10 11 11
REMARK SMILES IDX 18 13 12 14 17 15 13 16 15 17 14 18 16 19 7 20 8 21 6 22
REMARK SMILES IDX 1 23 2 24 3 25 98 26 4 27 5 28 27 29 28 30 29 31 30 32 31 33
REMARK SMILES IDX 32 34 33 35 97 36 34 37 96 38 35 39 36 40 37 41 90 42 38 43
REMARK SMILES IDX 95 44 89 45 91 46 39 47 94 48 88 49 87 50 40 52 74 53 53 54
REMARK SMILES IDX 73 55 54 56 57 57 72 58 92 59 55 60 56 61 71 63 93 64 58 65
REMARK SMILES IDX 41 66 42 67 51 68 43 69 44 70 50 71 52 72 45 73 46 74 47 75
REMARK SMILES IDX 48 76 49 77 75 78 76 79 85 80 77 81 78 82 84 83 86 84 79 85
REMARK SMILES IDX 80 86 81 87 82 88 83 89 59 90 60 91 69 92 61 93 62 94 68 95
REMARK SMILES IDX 70 96 63 97 64 98 65 99 66 100 67 101
REMARK H PARENT 10 12 91 51 57 62
REMARK Flexibility Score: inf
ROOT
ATOM      1  O   UNL A   1      41.415  19.613  25.429  1.00  0.00    -0.374 OA
ENDROOT
BRANCH   1   2
ATOM      2  C   UNL A   1      40.411  20.025  26.353  1.00  0.00     0.202 C 
BRANCH   2   3
ATOM      3  C   UNL A   1      39.643  21.215  25.769  1.00  0.00     0.261 C 
BRANCH   3   4
ATOM      4  O   UNL A   1      38.209  21.099  26.024  1.00  0.00    -0.463 OA
BRANCH   4   5
ATOM      5  C   UNL A   1      37.494  20.460  25.065  1.00  0.00     0.310 C 
ATOM      6  O   UNL A   1      37.828  19.381  24.585  1.00  0.00    -0.252 OA
BRANCH   5   7
ATOM      7  C   UNL A   1      36.193  21.137  24.644  1.00  0.00     0.161 C 
BRANCH   7   8
ATOM      8  C   UNL A   1      34.834  20.684  25.171  1.00  0.00     0.000 A 
ATOM      9  C   UNL A   1      33.951  21.295  26.101  1.00  0.00     0.093 A 
ATOM     10  N   UNL A   1      33.081  20.293  26.500  1.00  0.00    -0.351 N 
ATOM     11  C   UNL A   1      33.281  19.123  25.814  1.00  0.00     0.048 A 
ATOM     12  H   UNL A   1      32.396  20.408  27.198  1.00  0.00     0.167 HD
ATOM     13  C   UNL A   1      34.329  19.344  24.927  1.00  0.00     0.007 A 
ATOM     14  C   UNL A   1      32.632  17.886  25.945  1.00  0.00     0.050 A 
ATOM     15  C   UNL A   1      34.725  18.274  24.090  1.00  0.00     0.051 A 
ATOM     16  C   UNL A   1      33.050  16.843  25.116  1.00  0.00     0.078 A 
ATOM     17  C   UNL A   1      34.070  17.041  24.192  1.00  0.00     0.142 A 
ATOM     18  Cl  UNL A   1      32.294  15.300  25.271  1.00  0.00    -0.081 Cl
ATOM     19  F   UNL A   1      34.464  16.038  23.393  1.00  0.00    -0.205 F 
BRANCH   9  20
ATOM     20  C   UNL A   1      33.930  22.558  26.870  1.00  0.00     0.227 C 
ATOM     21  O   UNL A   1      34.287  22.533  28.049  1.00  0.00    -0.285 OA
BRANCH  20  22
ATOM     22  C   UNL A   1      33.360  23.883  26.358  1.00  0.00     0.113 A 
ATOM     23  C   UNL A   1      30.222  25.557  25.025  1.00  0.00     0.044 C 
ATOM     24  C   UNL A   1      31.622  25.372  25.557  1.00  0.00    -0.047 A 
ATOM     25  C   UNL A   1      32.604  26.230  25.080  1.00  0.00     0.023 A 
ATOM     26  C   UNL A   1      32.009  24.241  26.325  1.00  0.00     0.036 A 
ATOM     27  C   UNL A   1      33.920  25.890  25.311  1.00  0.00     0.112 A 
ATOM     28  N   UNL A   1      34.315  24.738  25.899  1.00  0.00    -0.253 NA
ENDBRANCH  20  22
ENDBRANCH   9  20
ENDBRANCH   7   8
ENDBRANCH   5   7
ENDBRANCH   4   5
ENDBRANCH   3   4
ENDBRANCH   2   3
ENDBRANCH   1   2
BRANCH   1  29
ATOM     29  C   UNL A   1      42.565  19.070  26.065  1.00  0.00     0.202 C 
BRANCH  29  30
ATOM     30  C   UNL A   1      43.870  19.520  25.407  1.00  0.00     0.261 C 
BRANCH  30  31
ATOM     31  O   UNL A   1      43.700  20.895  25.148  1.00  0.00    -0.460 OA
BRANCH  31  32
ATOM     32  C   UNL A   1      44.376  21.882  25.785  1.00  0.00     0.338 C 
ATOM     33  O   UNL A   1      45.500  22.233  25.705  1.00  0.00    -0.246 OA
BRANCH  32  34
ATOM     34  C   UNL A   1      43.229  22.350  26.619  1.00  0.00     0.060 A 
ATOM     35  C   UNL A   1      42.441  23.251  25.890  1.00  0.00     0.016 A 
ATOM     36  C   UNL A   1      43.593  22.609  27.954  1.00  0.00     0.016 A 
ATOM     37  C   UNL A   1      42.340  24.540  26.376  1.00  0.00     0.010 A 
ATOM     38  C   UNL A   1      43.435  23.896  28.461  1.00  0.00     0.010 A 
ATOM     39  C   UNL A   1      42.869  24.872  27.642  1.00  0.00    -0.014 A 
BRANCH  39  40
ATOM     40  C   UNL A   1      42.417  26.160  28.148  1.00  0.00     0.031 A 
ATOM     41  C   UNL A   1      43.451  27.184  27.855  1.00  0.00     0.074 A 
ATOM     42  C   UNL A   1      41.282  26.530  28.761  1.00  0.00     0.049 A 
ATOM     43  N   UNL A   1      44.292  27.706  28.685  1.00  0.00    -0.248 NA
ATOM     44  C   UNL A   1      43.730  27.447  26.436  1.00  0.00     0.031 C 
ATOM     45  C   UNL A   1      40.005  25.840  28.895  1.00  0.00     0.029 A 
ATOM     46  N   UNL A   1      41.057  27.731  29.368  1.00  0.00    -0.354 N 
ATOM     47  C   UNL A   1      45.129  28.487  27.905  1.00  0.00     0.074 A 
ATOM     48  C   UNL A   1      44.852  28.155  26.530  1.00  0.00     0.031 C 
ATOM     49  C   UNL A   1      39.081  26.722  29.353  1.00  0.00     0.029 A 
ATOM     50  C   UNL A   1      39.732  27.989  29.667  1.00  0.00     0.049 A 
ATOM     51  H   UNL A   1      41.782  28.363  29.578  1.00  0.00     0.167 HD
ATOM     52  C   UNL A   1      45.869  29.499  28.423  1.00  0.00     0.037 A 
ATOM     53  C   UNL A   1      39.236  29.195  30.045  1.00  0.00     0.037 A 
ATOM     54  C   UNL A   1      46.000  29.412  29.850  1.00  0.00     0.049 A 
ATOM     55  C   UNL A   1      40.368  30.010  30.576  1.00  0.00     0.074 A 
ATOM     56  C   UNL A   1      46.544  28.480  30.716  1.00  0.00     0.029 A 
ATOM     57  N   UNL A   1      45.197  30.213  30.627  1.00  0.00    -0.354 N 
ATOM     58  N   UNL A   1      40.990  29.770  31.697  1.00  0.00    -0.248 NA
ATOM     59  C   UNL A   1      41.075  30.886  29.652  1.00  0.00     0.031 C 
ATOM     60  C   UNL A   1      45.687  28.478  31.856  1.00  0.00     0.029 A 
ATOM     61  C   UNL A   1      44.684  29.419  31.624  1.00  0.00     0.049 A 
ATOM     62  H   UNL A   1      45.023  31.172  30.493  1.00  0.00     0.167 HD
ATOM     63  C   UNL A   1      42.312  30.121  31.459  1.00  0.00     0.074 A 
ATOM     64  C   UNL A   1      42.284  30.888  30.219  1.00  0.00     0.031 C 
ATOM     65  C   UNL A   1      43.340  29.541  32.145  1.00  0.00     0.037 A 
BRANCH  52  66
ATOM     66  C   UNL A   1      46.191  30.721  27.621  1.00  0.00     0.058 A 
ATOM     67  C   UNL A   1      47.525  31.114  27.430  1.00  0.00     0.135 A 
ATOM     68  C   UNL A   1      45.204  31.654  27.226  1.00  0.00     0.135 A 
ATOM     69  F   UNL A   1      48.533  30.312  27.810  1.00  0.00    -0.206 F 
ATOM     70  C   UNL A   1      47.855  32.362  26.905  1.00  0.00     0.059 A 
ATOM     71  C   UNL A   1      45.507  32.871  26.639  1.00  0.00     0.059 A 
ATOM     72  F   UNL A   1      43.902  31.463  27.482  1.00  0.00    -0.206 F 
ATOM     73  C   UNL A   1      46.836  33.235  26.521  1.00  0.00     0.060 A 
BRANCH  73  74
ATOM     74  S   UNL A   1      47.251  34.888  25.947  1.00  0.00     0.124 S 
ATOM     75  O   UNL A   1      47.663  35.528  27.191  1.00  0.00    -0.237 OA
ATOM     76  O   UNL A   1      48.311  34.619  24.982  1.00  0.00    -0.237 OA
ATOM     77  O   UNL A   1      45.997  35.368  25.373  1.00  0.00    -0.744 OA
ENDBRANCH  73  74
ENDBRANCH  52  66
BRANCH  53  78
ATOM     78  C   UNL A   1      37.943  29.820  29.658  1.00  0.00     0.058 A 
ATOM     79  C   UNL A   1      37.100  30.396  30.626  1.00  0.00     0.135 A 
ATOM     80  C   UNL A   1      37.654  30.137  28.316  1.00  0.00     0.135 A 
ATOM     81  F   UNL A   1      37.313  30.166  31.932  1.00  0.00    -0.206 F 
ATOM     82  C   UNL A   1      36.074  31.285  30.290  1.00  0.00     0.059 A 
ATOM     83  C   UNL A   1      36.627  31.007  27.956  1.00  0.00     0.059 A 
ATOM     84  F   UNL A   1      38.424  29.689  27.314  1.00  0.00    -0.206 F 
ATOM     85  C   UNL A   1      35.862  31.603  28.949  1.00  0.00     0.060 A 
BRANCH  85  86
ATOM     86  S   UNL A   1      34.674  32.896  28.521  1.00  0.00     0.124 S 
ATOM     87  O   UNL A   1      34.404  33.500  29.821  1.00  0.00    -0.237 OA
ATOM     88  O   UNL A   1      35.436  33.713  27.582  1.00  0.00    -0.237 OA
ATOM     89  O   UNL A   1      33.562  32.152  27.933  1.00  0.00    -0.744 OA
ENDBRANCH  85  86
ENDBRANCH  53  78
BRANCH  65  90
ATOM     90  C   UNL A   1      43.009  28.761  33.391  1.00  0.00     0.058 A 
ATOM     91  C   UNL A   1      42.713  29.345  34.635  1.00  0.00     0.135 A 
ATOM     92  C   UNL A   1      42.872  27.366  33.288  1.00  0.00     0.135 A 
ATOM     93  F   UNL A   1      42.706  30.678  34.789  1.00  0.00    -0.206 F 
ATOM     94  C   UNL A   1      42.355  28.572  35.740  1.00  0.00     0.059 A 
ATOM     95  C   UNL A   1      42.481  26.580  34.369  1.00  0.00     0.059 A 
ATOM     96  F   UNL A   1      43.080  26.754  32.110  1.00  0.00    -0.206 F 
ATOM     97  C   UNL A   1      42.241  27.189  35.598  1.00  0.00     0.060 A 
BRANCH  97  98
ATOM     98  S   UNL A   1      41.703  26.206  37.014  1.00  0.00     0.124 S 
ATOM     99  O   UNL A   1      42.867  26.270  37.891  1.00  0.00    -0.237 OA
ATOM    100  O   UNL A   1      40.522  26.936  37.470  1.00  0.00    -0.237 OA
ATOM    101  O   UNL A   1      41.428  24.894  36.434  1.00  0.00    -0.744 OA
ENDBRANCH  97  98
ENDBRANCH  65  90
ENDBRANCH  39  40
ENDBRANCH  32  34
ENDBRANCH  31  32
ENDBRANCH  30  31
ENDBRANCH  29  30
ENDBRANCH   1  29
TORSDOF 20
ENDMDL
