MODEL 1
REMARK VINA RESULT:     -10.1      0.000      0.000
REMARK SMILES C[C@@H](C(=O)OCCOCCOC(=O)c1ccc(-c2c3nc(c(-c4c(F)cc(S(=O)(=O)[O-])cc4F)c4ccc([nH]4)c(-c4c(F)cc(S(=O)(=O)[O-])cc4F)c4nc(c(-c5c(F)cc(S(=O)(=O)[O-])cc5F)c5ccc2[nH]5)C=C4)C=C3)cc1)c1ccc(C[C@H]2CCCC2=O)cc1
REMARK SMILES IDX 8 1 7 2 6 3 5 4 3 5 4 6 2 7 1 8 80 9 81 10 92 11 82 12 91 13
REMARK SMILES IDX 83 14 84 15 85 16 86 17 89 18 87 19 88 20 90 21 9 22 10 23
REMARK SMILES IDX 11 24 12 25 13 26 14 27 15 28 79 29 16 30 78 31 17 32 18 33
REMARK SMILES IDX 19 34 72 35 20 36 77 37 71 38 73 39 21 40 76 41 70 42 69 43
REMARK SMILES IDX 22 45 56 46 35 47 55 48 36 49 39 50 54 51 74 52 37 53 38 54
REMARK SMILES IDX 53 56 75 57 40 58 23 59 24 60 33 61 25 62 26 63 32 64 34 65
REMARK SMILES IDX 27 66 28 67 29 68 30 69 31 70 57 71 58 72 67 73 59 74 60 75
REMARK SMILES IDX 66 76 68 77 61 78 62 79 63 80 64 81 65 82 41 83 42 84 51 85
REMARK SMILES IDX 43 86 44 87 50 88 52 89 45 90 46 91 47 92 48 93 49 94
REMARK H PARENT 73 44 39 55
REMARK Flexibility Score: inf
ROOT
ATOM      1  O   UNL A   1      39.152  22.288  26.675  1.00  0.00    -0.374 OA
ENDROOT
BRANCH   1   2
ATOM      2  C   UNL A   1      38.126  22.605  25.729  1.00  0.00     0.202 C 
BRANCH   2   3
ATOM      3  C   UNL A   1      37.014  21.564  25.567  1.00  0.00     0.261 C 
BRANCH   3   4
ATOM      4  O   UNL A   1      35.843  22.174  24.994  1.00  0.00    -0.463 OA
BRANCH   4   5
ATOM      5  C   UNL A   1      34.726  22.175  25.769  1.00  0.00     0.313 C 
ATOM      6  O   UNL A   1      34.721  21.927  26.969  1.00  0.00    -0.252 OA
BRANCH   5   7
ATOM      7  C   UNL A   1      33.466  22.576  24.989  1.00  0.00     0.126 C 
ATOM      8  C   UNL A   1      33.502  22.324  23.478  1.00  0.00     0.025 C 
BRANCH   7   9
ATOM      9  C   UNL A   1      33.082  24.027  25.266  1.00  0.00    -0.034 A 
ATOM     10  C   UNL A   1      31.768  24.378  25.604  1.00  0.00     0.005 A 
ATOM     11  C   UNL A   1      34.036  25.046  25.177  1.00  0.00     0.005 A 
ATOM     12  C   UNL A   1      31.402  25.705  25.808  1.00  0.00     0.004 A 
ATOM     13  C   UNL A   1      33.659  26.385  25.329  1.00  0.00     0.004 A 
ATOM     14  C   UNL A   1      32.329  26.728  25.605  1.00  0.00    -0.047 A 
BRANCH  14  15
ATOM     15  C   UNL A   1      31.878  28.168  25.613  1.00  0.00     0.047 C 
BRANCH  15  16
ATOM     16  C   UNL A   1      32.147  28.941  26.915  1.00  0.00     0.060 C 
ATOM     17  C   UNL A   1      33.362  28.502  27.739  1.00  0.00     0.012 C 
ATOM     18  C   UNL A   1      32.440  30.407  26.683  1.00  0.00     0.136 C 
ATOM     19  C   UNL A   1      34.494  29.463  27.392  1.00  0.00     0.009 C 
ATOM     20  C   UNL A   1      33.827  30.804  27.120  1.00  0.00     0.076 C 
ATOM     21  O   UNL A   1      31.629  31.195  26.210  1.00  0.00    -0.299 OA
ENDBRANCH  15  16
ENDBRANCH  14  15
ENDBRANCH   7   9
ENDBRANCH   5   7
ENDBRANCH   4   5
ENDBRANCH   3   4
ENDBRANCH   2   3
ENDBRANCH   1   2
BRANCH   1  22
ATOM     22  C   UNL A   1      40.308  21.622  26.172  1.00  0.00     0.202 C 
BRANCH  22  23
ATOM     23  C   UNL A   1      41.643  22.366  26.242  1.00  0.00     0.261 C 
BRANCH  23  24
ATOM     24  O   UNL A   1      41.468  23.785  26.143  1.00  0.00    -0.460 OA
BRANCH  24  25
ATOM     25  C   UNL A   1      42.495  24.501  26.656  1.00  0.00     0.338 C 
ATOM     26  O   UNL A   1      43.676  24.427  26.343  1.00  0.00    -0.246 OA
BRANCH  25  27
ATOM     27  C   UNL A   1      41.972  25.559  27.537  1.00  0.00     0.060 A 
ATOM     28  C   UNL A   1      42.703  26.752  27.601  1.00  0.00     0.016 A 
ATOM     29  C   UNL A   1      40.826  25.379  28.315  1.00  0.00     0.016 A 
ATOM     30  C   UNL A   1      42.328  27.747  28.496  1.00  0.00     0.010 A 
ATOM     31  C   UNL A   1      40.455  26.377  29.219  1.00  0.00     0.010 A 
ATOM     32  C   UNL A   1      41.232  27.544  29.342  1.00  0.00    -0.014 A 
BRANCH  32  33
ATOM     33  C   UNL A   1      41.011  28.479  30.469  1.00  0.00     0.031 A 
ATOM     34  C   UNL A   1      41.901  28.372  31.677  1.00  0.00     0.074 A 
ATOM     35  C   UNL A   1      40.069  29.435  30.392  1.00  0.00     0.049 A 
ATOM     36  N   UNL A   1      41.887  29.069  32.781  1.00  0.00    -0.248 NA
ATOM     37  C   UNL A   1      42.948  27.336  31.633  1.00  0.00     0.031 C 
ATOM     38  C   UNL A   1      39.184  29.658  29.249  1.00  0.00     0.029 A 
ATOM     39  N   UNL A   1      39.703  30.399  31.295  1.00  0.00    -0.354 N 
ATOM     40  C   UNL A   1      42.910  28.553  33.568  1.00  0.00     0.074 A 
ATOM     41  C   UNL A   1      43.509  27.465  32.826  1.00  0.00     0.031 C 
ATOM     42  C   UNL A   1      38.370  30.691  29.525  1.00  0.00     0.029 A 
ATOM     43  C   UNL A   1      38.655  31.180  30.872  1.00  0.00     0.049 A 
ATOM     44  H   UNL A   1      40.148  30.519  32.166  1.00  0.00     0.167 HD
ATOM     45  C   UNL A   1      43.318  28.957  34.794  1.00  0.00     0.037 A 
ATOM     46  C   UNL A   1      37.993  32.165  31.510  1.00  0.00     0.037 A 
ATOM     47  C   UNL A   1      42.719  30.048  35.517  1.00  0.00     0.049 A 
ATOM     48  C   UNL A   1      38.425  32.555  32.900  1.00  0.00     0.074 A 
ATOM     49  C   UNL A   1      43.070  30.555  36.755  1.00  0.00     0.029 A 
ATOM     50  N   UNL A   1      41.638  30.795  35.071  1.00  0.00    -0.354 N 
ATOM     51  N   UNL A   1      39.410  32.076  33.624  1.00  0.00    -0.248 NA
ATOM     52  C   UNL A   1      37.660  33.622  33.560  1.00  0.00     0.031 C 
ATOM     53  C   UNL A   1      42.169  31.574  37.080  1.00  0.00     0.029 A 
ATOM     54  C   UNL A   1      41.291  31.740  36.020  1.00  0.00     0.049 A 
ATOM     55  H   UNL A   1      41.184  30.671  34.205  1.00  0.00     0.167 HD
ATOM     56  C   UNL A   1      39.400  32.802  34.810  1.00  0.00     0.074 A 
ATOM     57  C   UNL A   1      38.318  33.760  34.703  1.00  0.00     0.031 C 
ATOM     58  C   UNL A   1      40.215  32.691  35.890  1.00  0.00     0.037 A 
BRANCH  45  59
ATOM     59  C   UNL A   1      44.443  28.200  35.442  1.00  0.00     0.058 A 
ATOM     60  C   UNL A   1      45.790  28.500  35.180  1.00  0.00     0.135 A 
ATOM     61  C   UNL A   1      44.168  27.180  36.367  1.00  0.00     0.135 A 
ATOM     62  F   UNL A   1      46.109  29.452  34.289  1.00  0.00    -0.206 F 
ATOM     63  C   UNL A   1      46.823  27.801  35.795  1.00  0.00     0.059 A 
ATOM     64  C   UNL A   1      45.186  26.487  37.015  1.00  0.00     0.059 A 
ATOM     65  F   UNL A   1      42.900  26.848  36.651  1.00  0.00    -0.206 F 
ATOM     66  C   UNL A   1      46.512  26.796  36.713  1.00  0.00     0.060 A 
BRANCH  66  67
ATOM     67  S   UNL A   1      47.864  25.908  37.513  1.00  0.00     0.124 S 
ATOM     68  O   UNL A   1      47.134  24.981  38.373  1.00  0.00    -0.237 OA
ATOM     69  O   UNL A   1      48.557  25.306  36.379  1.00  0.00    -0.237 OA
ATOM     70  O   UNL A   1      48.599  26.960  38.208  1.00  0.00    -0.744 OA
ENDBRANCH  66  67
ENDBRANCH  45  59
BRANCH  46  71
ATOM     71  C   UNL A   1      36.846  32.842  30.848  1.00  0.00     0.058 A 
ATOM     72  C   UNL A   1      37.050  33.884  29.932  1.00  0.00     0.135 A 
ATOM     73  C   UNL A   1      35.523  32.459  31.120  1.00  0.00     0.135 A 
ATOM     74  F   UNL A   1      38.295  34.292  29.647  1.00  0.00    -0.206 F 
ATOM     75  C   UNL A   1      35.982  34.535  29.320  1.00  0.00     0.059 A 
ATOM     76  C   UNL A   1      34.441  33.077  30.501  1.00  0.00     0.059 A 
ATOM     77  F   UNL A   1      35.274  31.460  31.980  1.00  0.00    -0.206 F 
ATOM     78  C   UNL A   1      34.681  34.122  29.609  1.00  0.00     0.060 A 
BRANCH  78  79
ATOM     79  S   UNL A   1      33.305  34.943  28.776  1.00  0.00     0.124 S 
ATOM     80  O   UNL A   1      32.444  35.288  29.900  1.00  0.00    -0.237 OA
ATOM     81  O   UNL A   1      33.972  36.059  28.113  1.00  0.00    -0.237 OA
ATOM     82  O   UNL A   1      32.791  33.909  27.881  1.00  0.00    -0.744 OA
ENDBRANCH  78  79
ENDBRANCH  46  71
BRANCH  58  83
ATOM     83  C   UNL A   1      39.994  33.651  37.027  1.00  0.00     0.058 A 
ATOM     84  C   UNL A   1      40.720  34.847  37.137  1.00  0.00     0.135 A 
ATOM     85  C   UNL A   1      39.002  33.394  37.987  1.00  0.00     0.135 A 
ATOM     86  F   UNL A   1      41.683  35.136  36.248  1.00  0.00    -0.206 F 
ATOM     87  C   UNL A   1      40.486  35.744  38.173  1.00  0.00     0.059 A 
ATOM     88  C   UNL A   1      38.732  34.291  39.015  1.00  0.00     0.059 A 
ATOM     89  F   UNL A   1      38.270  32.270  37.921  1.00  0.00    -0.206 F 
ATOM     90  C   UNL A   1      39.489  35.459  39.107  1.00  0.00     0.060 A 
BRANCH  90  91
ATOM     91  S   UNL A   1      39.173  36.648  40.428  1.00  0.00     0.124 S 
ATOM     92  O   UNL A   1      38.260  35.899  41.285  1.00  0.00    -0.237 OA
ATOM     93  O   UNL A   1      40.509  36.874  40.971  1.00  0.00    -0.237 OA
ATOM     94  O   UNL A   1      38.587  37.787  39.727  1.00  0.00    -0.744 OA
ENDBRANCH  90  91
ENDBRANCH  58  83
ENDBRANCH  32  33
ENDBRANCH  25  27
ENDBRANCH  24  25
ENDBRANCH  23  24
ENDBRANCH  22  23
ENDBRANCH   1  22
TORSDOF 20
ENDMDL
MODEL 2
REMARK VINA RESULT:     -10.0      1.765      9.231
REMARK SMILES C[C@@H](C(=O)OCCOCCOC(=O)c1ccc(-c2c3nc(c(-c4c(F)cc(S(=O)(=O)[O-])cc4F)c4ccc([nH]4)c(-c4c(F)cc(S(=O)(=O)[O-])cc4F)c4nc(c(-c5c(F)cc(S(=O)(=O)[O-])cc5F)c5ccc2[nH]5)C=C4)C=C3)cc1)c1ccc(C[C@H]2CCCC2=O)cc1
REMARK SMILES IDX 8 1 7 2 6 3 5 4 3 5 4 6 2 7 1 8 80 9 81 10 92 11 82 12 91 13
REMARK SMILES IDX 83 14 84 15 85 16 86 17 89 18 87 19 88 20 90 21 9 22 10 23
REMARK SMILES IDX 11 24 12 25 13 26 14 27 15 28 79 29 16 30 78 31 17 32 18 33
REMARK SMILES IDX 19 34 72 35 20 36 77 37 71 38 73 39 21 40 76 41 70 42 69 43
REMARK SMILES IDX 22 45 56 46 35 47 55 48 36 49 39 50 54 51 74 52 37 53 38 54
REMARK SMILES IDX 53 56 75 57 40 58 23 59 24 60 33 61 25 62 26 63 32 64 34 65
REMARK SMILES IDX 27 66 28 67 29 68 30 69 31 70 57 71 58 72 67 73 59 74 60 75
REMARK SMILES IDX 66 76 68 77 61 78 62 79 63 80 64 81 65 82 41 83 42 84 51 85
REMARK SMILES IDX 43 86 44 87 50 88 52 89 45 90 46 91 47 92 48 93 49 94
REMARK H PARENT 73 44 39 55
REMARK Flexibility Score: inf
ROOT
ATOM      1  O   UNL A   1      39.935  22.197  27.017  1.00  0.00    -0.374 OA
ENDROOT
BRANCH   1   2
ATOM      2  C   UNL A   1      38.858  22.397  26.095  1.00  0.00     0.202 C 
BRANCH   2   3
ATOM      3  C   UNL A   1      38.217  23.788  26.100  1.00  0.00     0.261 C 
BRANCH   3   4
ATOM      4  O   UNL A   1      36.786  23.675  25.988  1.00  0.00    -0.463 OA
BRANCH   4   5
ATOM      5  C   UNL A   1      36.292  23.551  24.727  1.00  0.00     0.313 C 
ATOM      6  O   UNL A   1      36.984  23.376  23.730  1.00  0.00    -0.252 OA
BRANCH   5   7
ATOM      7  C   UNL A   1      34.758  23.600  24.687  1.00  0.00     0.126 C 
ATOM      8  C   UNL A   1      34.084  24.448  25.771  1.00  0.00     0.025 C 
BRANCH   7   9
ATOM      9  C   UNL A   1      34.160  22.197  24.676  1.00  0.00    -0.034 A 
ATOM     10  C   UNL A   1      33.144  21.847  23.775  1.00  0.00     0.005 A 
ATOM     11  C   UNL A   1      34.607  21.225  25.577  1.00  0.00     0.005 A 
ATOM     12  C   UNL A   1      32.561  20.584  23.795  1.00  0.00     0.004 A 
ATOM     13  C   UNL A   1      33.985  19.972  25.634  1.00  0.00     0.004 A 
ATOM     14  C   UNL A   1      32.928  19.656  24.771  1.00  0.00    -0.047 A 
BRANCH  14  15
ATOM     15  C   UNL A   1      32.146  18.376  24.928  1.00  0.00     0.047 C 
BRANCH  15  16
ATOM     16  C   UNL A   1      32.772  17.131  24.277  1.00  0.00     0.060 C 
ATOM     17  C   UNL A   1      34.066  17.345  23.485  1.00  0.00     0.012 C 
ATOM     18  C   UNL A   1      33.191  16.083  25.284  1.00  0.00     0.136 C 
ATOM     19  C   UNL A   1      35.213  16.957  24.413  1.00  0.00     0.009 C 
ATOM     20  C   UNL A   1      34.677  15.829  25.282  1.00  0.00     0.076 C 
ATOM     21  O   UNL A   1      32.404  15.488  26.011  1.00  0.00    -0.299 OA
ENDBRANCH  15  16
ENDBRANCH  14  15
ENDBRANCH   7   9
ENDBRANCH   5   7
ENDBRANCH   4   5
ENDBRANCH   3   4
ENDBRANCH   2   3
ENDBRANCH   1   2
BRANCH   1  22
ATOM     22  C   UNL A   1      41.156  21.693  26.480  1.00  0.00     0.202 C 
BRANCH  22  23
ATOM     23  C   UNL A   1      42.136  22.702  25.879  1.00  0.00     0.261 C 
BRANCH  23  24
ATOM     24  O   UNL A   1      42.396  23.792  26.772  1.00  0.00    -0.460 OA
BRANCH  24  25
ATOM     25  C   UNL A   1      42.224  25.012  26.213  1.00  0.00     0.338 C 
ATOM     26  O   UNL A   1      42.267  25.291  25.023  1.00  0.00    -0.246 OA
BRANCH  25  27
ATOM     27  C   UNL A   1      41.772  25.968  27.238  1.00  0.00     0.060 A 
ATOM     28  C   UNL A   1      42.452  27.190  27.312  1.00  0.00     0.016 A 
ATOM     29  C   UNL A   1      40.744  25.666  28.134  1.00  0.00     0.016 A 
ATOM     30  C   UNL A   1      42.152  28.090  28.327  1.00  0.00     0.010 A 
ATOM     31  C   UNL A   1      40.448  26.570  29.157  1.00  0.00     0.010 A 
ATOM     32  C   UNL A   1      41.183  27.763  29.281  1.00  0.00    -0.014 A 
BRANCH  32  33
ATOM     33  C   UNL A   1      41.067  28.595  30.501  1.00  0.00     0.031 A 
ATOM     34  C   UNL A   1      39.974  29.627  30.566  1.00  0.00     0.074 A 
ATOM     35  C   UNL A   1      41.887  28.396  31.547  1.00  0.00     0.049 A 
ATOM     36  N   UNL A   1      39.689  30.473  31.519  1.00  0.00    -0.248 NA
ATOM     37  C   UNL A   1      39.084  29.718  29.395  1.00  0.00     0.031 C 
ATOM     38  C   UNL A   1      42.949  27.392  31.608  1.00  0.00     0.029 A 
ATOM     39  N   UNL A   1      41.953  29.032  32.760  1.00  0.00    -0.354 N 
ATOM     40  C   UNL A   1      38.598  31.203  31.063  1.00  0.00     0.074 A 
ATOM     41  C   UNL A   1      38.287  30.720  29.735  1.00  0.00     0.031 C 
ATOM     42  C   UNL A   1      43.566  27.484  32.798  1.00  0.00     0.029 A 
ATOM     43  C   UNL A   1      42.966  28.573  33.567  1.00  0.00     0.049 A 
ATOM     44  H   UNL A   1      41.335  29.750  33.027  1.00  0.00     0.167 HD
ATOM     45  C   UNL A   1      37.912  32.182  31.699  1.00  0.00     0.037 A 
ATOM     46  C   UNL A   1      43.370  28.997  34.780  1.00  0.00     0.037 A 
ATOM     47  C   UNL A   1      38.226  32.648  33.024  1.00  0.00     0.049 A 
ATOM     48  C   UNL A   1      42.630  30.131  35.441  1.00  0.00     0.074 A 
ATOM     49  C   UNL A   1      37.580  33.617  33.771  1.00  0.00     0.029 A 
ATOM     50  N   UNL A   1      39.279  32.182  33.798  1.00  0.00    -0.354 N 
ATOM     51  N   UNL A   1      41.584  30.798  35.010  1.00  0.00    -0.248 NA
ATOM     52  C   UNL A   1      43.120  30.569  36.755  1.00  0.00     0.031 C 
ATOM     53  C   UNL A   1      38.275  33.774  34.975  1.00  0.00     0.029 A 
ATOM     54  C   UNL A   1      39.319  32.863  35.002  1.00  0.00     0.049 A 
ATOM     55  H   UNL A   1      39.906  31.471  33.530  1.00  0.00     0.167 HD
ATOM     56  C   UNL A   1      41.275  31.713  36.011  1.00  0.00     0.074 A 
ATOM     57  C   UNL A   1      42.238  31.507  37.074  1.00  0.00     0.031 C 
ATOM     58  C   UNL A   1      40.282  32.636  36.051  1.00  0.00     0.037 A 
BRANCH  45  59
ATOM     59  C   UNL A   1      36.777  32.835  30.960  1.00  0.00     0.058 A 
ATOM     60  C   UNL A   1      35.435  32.531  31.240  1.00  0.00     0.135 A 
ATOM     61  C   UNL A   1      37.037  33.807  29.980  1.00  0.00     0.135 A 
ATOM     62  F   UNL A   1      35.130  31.594  32.152  1.00  0.00    -0.206 F 
ATOM     63  C   UNL A   1      34.392  33.150  30.559  1.00  0.00     0.059 A 
ATOM     64  C   UNL A   1      36.009  34.459  29.307  1.00  0.00     0.059 A 
ATOM     65  F   UNL A   1      38.300  34.133  29.669  1.00  0.00    -0.206 F 
ATOM     66  C   UNL A   1      34.688  34.114  29.594  1.00  0.00     0.060 A 
BRANCH  66  67
ATOM     67  S   UNL A   1      33.324  34.919  28.729  1.00  0.00     0.124 S 
ATOM     68  O   UNL A   1      32.473  35.326  29.844  1.00  0.00    -0.237 OA
ATOM     69  O   UNL A   1      33.998  36.001  28.020  1.00  0.00    -0.237 OA
ATOM     70  O   UNL A   1      32.784  33.859  27.883  1.00  0.00    -0.744 OA
ENDBRANCH  66  67
ENDBRANCH  45  59
BRANCH  46  71
ATOM     71  C   UNL A   1      44.538  28.358  35.443  1.00  0.00     0.058 A 
ATOM     72  C   UNL A   1      44.370  27.291  36.336  1.00  0.00     0.135 A 
ATOM     73  C   UNL A   1      45.846  28.803  35.193  1.00  0.00     0.135 A 
ATOM     74  F   UNL A   1      43.140  26.836  36.614  1.00  0.00    -0.206 F 
ATOM     75  C   UNL A   1      45.456  26.697  36.974  1.00  0.00     0.059 A 
ATOM     76  C   UNL A   1      46.949  28.209  35.798  1.00  0.00     0.059 A 
ATOM     77  F   UNL A   1      46.062  29.814  34.338  1.00  0.00    -0.206 F 
ATOM     78  C   UNL A   1      46.743  27.162  36.696  1.00  0.00     0.060 A 
BRANCH  78  79
ATOM     79  S   UNL A   1      48.148  26.355  37.494  1.00  0.00     0.124 S 
ATOM     80  O   UNL A   1      47.481  25.359  38.323  1.00  0.00    -0.237 OA
ATOM     81  O   UNL A   1      48.893  25.839  36.349  1.00  0.00    -0.237 OA
ATOM     82  O   UNL A   1      48.796  27.447  38.214  1.00  0.00    -0.744 OA
ENDBRANCH  78  79
ENDBRANCH  46  71
BRANCH  58  83
ATOM     83  C   UNL A   1      40.161  33.471  37.298  1.00  0.00     0.058 A 
ATOM     84  C   UNL A   1      39.303  33.112  38.348  1.00  0.00     0.135 A 
ATOM     85  C   UNL A   1      40.958  34.615  37.464  1.00  0.00     0.135 A 
ATOM     86  F   UNL A   1      38.515  32.030  38.237  1.00  0.00    -0.206 F 
ATOM     87  C   UNL A   1      39.221  33.871  39.510  1.00  0.00     0.059 A 
ATOM     88  C   UNL A   1      40.914  35.373  38.629  1.00  0.00     0.059 A 
ATOM     89  F   UNL A   1      41.807  34.996  36.494  1.00  0.00    -0.206 F 
ATOM     90  C   UNL A   1      40.033  35.000  39.642  1.00  0.00     0.060 A 
BRANCH  90  91
ATOM     91  S   UNL A   1      39.941  35.957  41.169  1.00  0.00     0.124 S 
ATOM     92  O   UNL A   1      41.001  36.940  40.964  1.00  0.00    -0.237 OA
ATOM     93  O   UNL A   1      38.578  36.478  41.131  1.00  0.00    -0.237 OA
ATOM     94  O   UNL A   1      40.198  34.965  42.209  1.00  0.00    -0.744 OA
ENDBRANCH  90  91
ENDBRANCH  58  83
ENDBRANCH  32  33
ENDBRANCH  25  27
ENDBRANCH  24  25
ENDBRANCH  23  24
ENDBRANCH  22  23
ENDBRANCH   1  22
TORSDOF 20
ENDMDL
MODEL 3
REMARK VINA RESULT:      -9.8      1.808      4.187
REMARK SMILES C[C@@H](C(=O)OCCOCCOC(=O)c1ccc(-c2c3nc(c(-c4c(F)cc(S(=O)(=O)[O-])cc4F)c4ccc([nH]4)c(-c4c(F)cc(S(=O)(=O)[O-])cc4F)c4nc(c(-c5c(F)cc(S(=O)(=O)[O-])cc5F)c5ccc2[nH]5)C=C4)C=C3)cc1)c1ccc(C[C@H]2CCCC2=O)cc1
REMARK SMILES IDX 8 1 7 2 6 3 5 4 3 5 4 6 2 7 1 8 80 9 81 10 92 11 82 12 91 13
REMARK SMILES IDX 83 14 84 15 85 16 86 17 89 18 87 19 88 20 90 21 9 22 10 23
REMARK SMILES IDX 11 24 12 25 13 26 14 27 15 28 79 29 16 30 78 31 17 32 18 33
REMARK SMILES IDX 19 34 72 35 20 36 77 37 71 38 73 39 21 40 76 41 70 42 69 43
REMARK SMILES IDX 22 45 56 46 35 47 55 48 36 49 39 50 54 51 74 52 37 53 38 54
REMARK SMILES IDX 53 56 75 57 40 58 23 59 24 60 33 61 25 62 26 63 32 64 34 65
REMARK SMILES IDX 27 66 28 67 29 68 30 69 31 70 57 71 58 72 67 73 59 74 60 75
REMARK SMILES IDX 66 76 68 77 61 78 62 79 63 80 64 81 65 82 41 83 42 84 51 85
REMARK SMILES IDX 43 86 44 87 50 88 52 89 45 90 46 91 47 92 48 93 49 94
REMARK H PARENT 73 44 39 55
REMARK Flexibility Score: inf
ROOT
ATOM      1  O   UNL A   1      40.209  21.511  26.851  1.00  0.00    -0.374 OA
ENDROOT
BRANCH   1   2
ATOM      2  C   UNL A   1      39.173  22.434  26.498  1.00  0.00     0.202 C 
BRANCH   2   3
ATOM      3  C   UNL A   1      38.191  21.964  25.420  1.00  0.00     0.261 C 
BRANCH   3   4
ATOM      4  O   UNL A   1      37.561  23.097  24.795  1.00  0.00    -0.463 OA
BRANCH   4   5
ATOM      5  C   UNL A   1      36.379  23.498  25.332  1.00  0.00     0.313 C 
ATOM      6  O   UNL A   1      36.246  23.899  26.483  1.00  0.00    -0.252 OA
BRANCH   5   7
ATOM      7  C   UNL A   1      35.223  23.448  24.321  1.00  0.00     0.126 C 
ATOM      8  C   UNL A   1      34.206  24.591  24.408  1.00  0.00     0.025 C 
BRANCH   7   9
ATOM      9  C   UNL A   1      34.503  22.104  24.370  1.00  0.00    -0.034 A 
ATOM     10  C   UNL A   1      33.438  21.820  23.505  1.00  0.00     0.005 A 
ATOM     11  C   UNL A   1      34.886  21.124  25.291  1.00  0.00     0.005 A 
ATOM     12  C   UNL A   1      32.745  20.615  23.579  1.00  0.00     0.004 A 
ATOM     13  C   UNL A   1      34.157  19.934  25.403  1.00  0.00     0.004 A 
ATOM     14  C   UNL A   1      33.054  19.689  24.575  1.00  0.00    -0.047 A 
BRANCH  14  15
ATOM     15  C   UNL A   1      32.165  18.488  24.791  1.00  0.00     0.047 C 
BRANCH  15  16
ATOM     16  C   UNL A   1      32.694  17.160  24.225  1.00  0.00     0.060 C 
ATOM     17  C   UNL A   1      33.966  17.231  23.374  1.00  0.00     0.012 C 
ATOM     18  C   UNL A   1      33.094  16.174  25.302  1.00  0.00     0.136 C 
ATOM     19  C   UNL A   1      35.126  16.854  24.290  1.00  0.00     0.009 C 
ATOM     20  C   UNL A   1      34.562  15.834  25.268  1.00  0.00     0.076 C 
ATOM     21  O   UNL A   1      32.305  15.688  26.103  1.00  0.00    -0.299 OA
ENDBRANCH  15  16
ENDBRANCH  14  15
ENDBRANCH   7   9
ENDBRANCH   5   7
ENDBRANCH   4   5
ENDBRANCH   3   4
ENDBRANCH   2   3
ENDBRANCH   1   2
BRANCH   1  22
ATOM     22  C   UNL A   1      41.299  21.388  25.940  1.00  0.00     0.202 C 
BRANCH  22  23
ATOM     23  C   UNL A   1      42.455  22.380  26.076  1.00  0.00     0.261 C 
BRANCH  23  24
ATOM     24  O   UNL A   1      42.085  23.694  25.637  1.00  0.00    -0.460 OA
BRANCH  24  25
ATOM     25  C   UNL A   1      42.982  24.653  25.961  1.00  0.00     0.338 C 
ATOM     26  O   UNL A   1      44.074  24.848  25.444  1.00  0.00    -0.246 OA
BRANCH  25  27
ATOM     27  C   UNL A   1      42.379  25.592  26.921  1.00  0.00     0.060 A 
ATOM     28  C   UNL A   1      42.918  26.884  26.971  1.00  0.00     0.016 A 
ATOM     29  C   UNL A   1      41.347  25.214  27.783  1.00  0.00     0.016 A 
ATOM     30  C   UNL A   1      42.473  27.785  27.931  1.00  0.00     0.010 A 
ATOM     31  C   UNL A   1      40.906  26.119  28.752  1.00  0.00     0.010 A 
ATOM     32  C   UNL A   1      41.499  27.390  28.856  1.00  0.00    -0.014 A 
BRANCH  32  33
ATOM     33  C   UNL A   1      41.235  28.250  30.031  1.00  0.00     0.031 A 
ATOM     34  C   UNL A   1      42.101  28.088  31.250  1.00  0.00     0.074 A 
ATOM     35  C   UNL A   1      40.274  29.189  29.991  1.00  0.00     0.049 A 
ATOM     36  N   UNL A   1      42.049  28.716  32.394  1.00  0.00    -0.248 NA
ATOM     37  C   UNL A   1      43.171  27.077  31.168  1.00  0.00     0.031 C 
ATOM     38  C   UNL A   1      39.409  29.463  28.845  1.00  0.00     0.029 A 
ATOM     39  N   UNL A   1      39.868  30.089  30.943  1.00  0.00    -0.354 N 
ATOM     40  C   UNL A   1      43.066  28.174  33.171  1.00  0.00     0.074 A 
ATOM     41  C   UNL A   1      43.704  27.146  32.378  1.00  0.00     0.031 C 
ATOM     42  C   UNL A   1      38.567  30.461  29.164  1.00  0.00     0.029 A 
ATOM     43  C   UNL A   1      38.813  30.873  30.545  1.00  0.00     0.049 A 
ATOM     44  H   UNL A   1      40.292  30.165  31.829  1.00  0.00     0.167 HD
ATOM     45  C   UNL A   1      43.439  28.511  34.428  1.00  0.00     0.037 A 
ATOM     46  C   UNL A   1      38.116  31.803  31.226  1.00  0.00     0.037 A 
ATOM     47  C   UNL A   1      42.801  29.543  35.202  1.00  0.00     0.049 A 
ATOM     48  C   UNL A   1      38.511  32.117  32.646  1.00  0.00     0.074 A 
ATOM     49  C   UNL A   1      43.116  29.982  36.476  1.00  0.00     0.029 A 
ATOM     50  N   UNL A   1      41.715  30.294  34.778  1.00  0.00    -0.354 N 
ATOM     51  N   UNL A   1      39.490  31.615  33.362  1.00  0.00    -0.248 NA
ATOM     52  C   UNL A   1      37.709  33.126  33.352  1.00  0.00     0.031 C 
ATOM     53  C   UNL A   1      42.186  30.960  36.842  1.00  0.00     0.029 A 
ATOM     54  C   UNL A   1      41.327  31.172  35.774  1.00  0.00     0.049 A 
ATOM     55  H   UNL A   1      41.282  30.214  33.897  1.00  0.00     0.167 HD
ATOM     56  C   UNL A   1      39.440  32.267  34.589  1.00  0.00     0.074 A 
ATOM     57  C   UNL A   1      38.340  33.207  34.515  1.00  0.00     0.031 C 
ATOM     58  C   UNL A   1      40.233  32.107  35.678  1.00  0.00     0.037 A 
BRANCH  45  59
ATOM     59  C   UNL A   1      44.566  27.739  35.055  1.00  0.00     0.058 A 
ATOM     60  C   UNL A   1      44.347  26.542  35.756  1.00  0.00     0.135 A 
ATOM     61  C   UNL A   1      45.891  28.186  34.921  1.00  0.00     0.135 A 
ATOM     62  F   UNL A   1      43.099  26.080  35.931  1.00  0.00    -0.206 F 
ATOM     63  C   UNL A   1      45.399  25.828  36.322  1.00  0.00     0.059 A 
ATOM     64  C   UNL A   1      46.960  27.474  35.455  1.00  0.00     0.059 A 
ATOM     65  F   UNL A   1      46.157  29.326  34.266  1.00  0.00    -0.206 F 
ATOM     66  C   UNL A   1      46.703  26.301  36.165  1.00  0.00     0.060 A 
BRANCH  66  67
ATOM     67  S   UNL A   1      48.058  25.357  36.893  1.00  0.00     0.124 S 
ATOM     68  O   UNL A   1      47.439  24.047  37.067  1.00  0.00    -0.237 OA
ATOM     69  O   UNL A   1      49.086  25.440  35.861  1.00  0.00    -0.237 OA
ATOM     70  O   UNL A   1      48.353  26.079  38.127  1.00  0.00    -0.744 OA
ENDBRANCH  66  67
ENDBRANCH  45  59
BRANCH  46  71
ATOM     71  C   UNL A   1      36.969  32.497  30.581  1.00  0.00     0.058 A 
ATOM     72  C   UNL A   1      37.173  33.545  29.672  1.00  0.00     0.135 A 
ATOM     73  C   UNL A   1      35.646  32.122  30.861  1.00  0.00     0.135 A 
ATOM     74  F   UNL A   1      38.419  33.945  29.379  1.00  0.00    -0.206 F 
ATOM     75  C   UNL A   1      36.106  34.210  29.076  1.00  0.00     0.059 A 
ATOM     76  C   UNL A   1      34.563  32.755  30.257  1.00  0.00     0.059 A 
ATOM     77  F   UNL A   1      35.396  31.117  31.714  1.00  0.00    -0.206 F 
ATOM     78  C   UNL A   1      34.804  33.805  29.373  1.00  0.00     0.060 A 
BRANCH  78  79
ATOM     79  S   UNL A   1      33.427  34.645  28.560  1.00  0.00     0.124 S 
ATOM     80  O   UNL A   1      32.970  33.624  27.627  1.00  0.00    -0.237 OA
ATOM     81  O   UNL A   1      32.538  34.931  29.682  1.00  0.00    -0.237 OA
ATOM     82  O   UNL A   1      34.059  35.815  27.956  1.00  0.00    -0.744 OA
ENDBRANCH  78  79
ENDBRANCH  46  71
BRANCH  58  83
ATOM     83  C   UNL A   1      39.968  32.992  36.865  1.00  0.00     0.058 A 
ATOM     84  C   UNL A   1      38.994  32.672  37.823  1.00  0.00     0.135 A 
ATOM     85  C   UNL A   1      40.740  34.146  37.074  1.00  0.00     0.135 A 
ATOM     86  F   UNL A   1      38.225  31.583  37.667  1.00  0.00    -0.206 F 
ATOM     87  C   UNL A   1      38.778  33.479  38.935  1.00  0.00     0.059 A 
ATOM     88  C   UNL A   1      40.561  34.951  38.194  1.00  0.00     0.059 A 
ATOM     89  F   UNL A   1      41.695  34.491  36.195  1.00  0.00    -0.206 F 
ATOM     90  C   UNL A   1      39.569  34.616  39.114  1.00  0.00     0.060 A 
BRANCH  90  91
ATOM     91  S   UNL A   1      39.301  35.636  40.578  1.00  0.00     0.124 S 
ATOM     92  O   UNL A   1      38.148  34.978  41.187  1.00  0.00    -0.237 OA
ATOM     93  O   UNL A   1      40.564  35.492  41.295  1.00  0.00    -0.237 OA
ATOM     94  O   UNL A   1      39.047  36.964  40.027  1.00  0.00    -0.744 OA
ENDBRANCH  90  91
ENDBRANCH  58  83
ENDBRANCH  32  33
ENDBRANCH  25  27
ENDBRANCH  24  25
ENDBRANCH  23  24
ENDBRANCH  22  23
ENDBRANCH   1  22
TORSDOF 20
ENDMDL
