MODEL 1
REMARK VINA RESULT:     -10.3      0.000      0.000
REMARK SMILES O=C(OCCOCCOC(=O)c1ccccc1Sc1ccc(S(=O)(=O)N2CCCC2)cc1[N+](=O)[O-])c1ccc(-c2c3nc(c(-c4c(F)cc(S(=O)(=O)[O-])cc4F)c4ccc([nH]4)c(-c4c(F)cc(S(=O)(=O)[O-])cc4F)c4nc(c(-c5c(F)cc(S(=O)(=O)[O-])cc5F)c5ccc2[nH]5)C=C4)C=C3)cc1
REMARK SMILES IDX 7 1 6 2 5 3 4 4 3 5 2 6 1 7 36 8 37 9 101 10 38 11 100 12
REMARK SMILES IDX 39 13 40 14 41 15 94 16 42 17 99 18 93 19 95 20 43 21 98 22
REMARK SMILES IDX 92 23 91 24 44 26 78 27 57 28 77 29 58 30 61 31 76 32 96 33
REMARK SMILES IDX 59 34 60 35 75 37 97 38 62 39 45 40 46 41 55 42 47 43 48 44
REMARK SMILES IDX 54 45 56 46 49 47 50 48 51 49 52 50 53 51 79 52 80 53 89 54
REMARK SMILES IDX 81 55 82 56 88 57 90 58 83 59 84 60 85 61 86 62 87 63 63 64
REMARK SMILES IDX 64 65 73 66 65 67 66 68 72 69 74 70 67 71 68 72 69 73 70 74
REMARK SMILES IDX 71 75 8 76 9 77 10 78 11 79 12 80 13 81 17 82 14 83 16 84
REMARK SMILES IDX 15 85 18 86 19 87 20 88 32 89 21 90 31 91 22 92 33 93 34 94
REMARK SMILES IDX 35 95 23 96 24 97 25 98 26 99 27 100 30 101 28 102 29 103
REMARK H PARENT 95 25 61 36
REMARK Flexibility Score: inf
ROOT
ATOM      1  C   UNL A   1      43.346  19.415  26.035  1.00  0.00     0.202 C 
ENDROOT
BRANCH   1   2
ATOM      2  O   UNL A   1      43.926  18.812  24.886  1.00  0.00    -0.374 OA
BRANCH   2   3
ATOM      3  C   UNL A   1      45.064  19.515  24.410  1.00  0.00     0.202 C 
BRANCH   3   4
ATOM      4  C   UNL A   1      45.589  20.572  25.392  1.00  0.00     0.261 C 
BRANCH   4   5
ATOM      5  O   UNL A   1      45.477  21.926  24.900  1.00  0.00    -0.460 OA
BRANCH   5   6
ATOM      6  C   UNL A   1      44.409  22.760  24.810  1.00  0.00     0.338 C 
ATOM      7  O   UNL A   1      43.764  22.736  23.762  1.00  0.00    -0.246 OA
BRANCH   6   8
ATOM      8  C   UNL A   1      44.048  23.814  25.827  1.00  0.00     0.060 A 
ATOM      9  C   UNL A   1      44.108  25.199  25.629  1.00  0.00     0.016 A 
ATOM     10  C   UNL A   1      43.493  23.364  27.043  1.00  0.00     0.016 A 
ATOM     11  C   UNL A   1      43.607  26.104  26.564  1.00  0.00     0.010 A 
ATOM     12  C   UNL A   1      43.070  24.264  28.030  1.00  0.00     0.010 A 
ATOM     13  C   UNL A   1      43.160  25.641  27.798  1.00  0.00    -0.014 A 
BRANCH  13  14
ATOM     14  C   UNL A   1      43.196  26.594  28.926  1.00  0.00     0.031 A 
ATOM     15  C   UNL A   1      44.378  26.475  29.836  1.00  0.00     0.074 A 
ATOM     16  C   UNL A   1      42.288  27.568  29.085  1.00  0.00     0.049 A 
ATOM     17  N   UNL A   1      44.676  27.174  30.891  1.00  0.00    -0.248 NA
ATOM     18  C   UNL A   1      45.380  25.453  29.481  1.00  0.00     0.031 C 
ATOM     19  C   UNL A   1      41.217  27.845  28.147  1.00  0.00     0.029 A 
ATOM     20  N   UNL A   1      42.103  28.500  30.070  1.00  0.00    -0.354 N 
ATOM     21  C   UNL A   1      45.902  26.684  31.318  1.00  0.00     0.074 A 
ATOM     22  C   UNL A   1      46.293  25.628  30.418  1.00  0.00     0.031 C 
ATOM     23  C   UNL A   1      40.434  28.826  28.617  1.00  0.00     0.029 A 
ATOM     24  C   UNL A   1      40.946  29.233  29.917  1.00  0.00     0.049 A 
ATOM     25  H   UNL A   1      42.734  28.634  30.814  1.00  0.00     0.167 HD
ATOM     26  C   UNL A   1      46.621  27.079  32.388  1.00  0.00     0.037 A 
ATOM     27  C   UNL A   1      40.353  30.102  30.757  1.00  0.00     0.037 A 
ATOM     28  C   UNL A   1      46.142  28.069  33.308  1.00  0.00     0.049 A 
ATOM     29  C   UNL A   1      41.086  30.423  32.027  1.00  0.00     0.074 A 
ATOM     30  C   UNL A   1      46.720  28.511  34.479  1.00  0.00     0.029 A 
ATOM     31  N   UNL A   1      44.933  28.746  33.168  1.00  0.00    -0.354 N 
ATOM     32  N   UNL A   1      42.237  29.941  32.441  1.00  0.00    -0.248 NA
ATOM     33  C   UNL A   1      40.477  31.399  32.934  1.00  0.00     0.031 C 
ATOM     34  C   UNL A   1      45.827  29.401  35.083  1.00  0.00     0.029 A 
ATOM     35  C   UNL A   1      44.728  29.578  34.250  1.00  0.00     0.049 A 
ATOM     36  H   UNL A   1      44.315  28.646  32.408  1.00  0.00     0.167 HD
ATOM     37  C   UNL A   1      42.513  30.581  33.638  1.00  0.00     0.074 A 
ATOM     38  C   UNL A   1      41.398  31.478  33.889  1.00  0.00     0.031 C 
ATOM     39  C   UNL A   1      43.595  30.453  34.447  1.00  0.00     0.037 A 
BRANCH  26  40
ATOM     40  C   UNL A   1      47.897  26.331  32.644  1.00  0.00     0.058 A 
ATOM     41  C   UNL A   1      49.090  26.633  31.964  1.00  0.00     0.135 A 
ATOM     42  C   UNL A   1      47.892  25.211  33.489  1.00  0.00     0.135 A 
ATOM     43  F   UNL A   1      49.136  27.663  31.103  1.00  0.00    -0.206 F 
ATOM     44  C   UNL A   1      50.215  25.823  32.075  1.00  0.00     0.059 A 
ATOM     45  C   UNL A   1      49.015  24.405  33.640  1.00  0.00     0.059 A 
ATOM     46  F   UNL A   1      46.772  24.860  34.141  1.00  0.00    -0.206 F 
ATOM     47  C   UNL A   1      50.163  24.704  32.909  1.00  0.00     0.060 A 
BRANCH  47  48
ATOM     48  S   UNL A   1      51.609  23.627  33.000  1.00  0.00     0.124 S 
ATOM     49  O   UNL A   1      52.543  24.322  32.119  1.00  0.00    -0.237 OA
ATOM     50  O   UNL A   1      51.935  23.665  34.422  1.00  0.00    -0.237 OA
ATOM     51  O   UNL A   1      51.112  22.347  32.506  1.00  0.00    -0.744 OA
ENDBRANCH  47  48
ENDBRANCH  26  40
BRANCH  27  52
ATOM     52  C   UNL A   1      39.017  30.666  30.420  1.00  0.00     0.058 A 
ATOM     53  C   UNL A   1      37.829  29.963  30.662  1.00  0.00     0.135 A 
ATOM     54  C   UNL A   1      38.900  31.976  29.920  1.00  0.00     0.135 A 
ATOM     55  F   UNL A   1      37.877  28.709  31.135  1.00  0.00    -0.206 F 
ATOM     56  C   UNL A   1      36.578  30.539  30.435  1.00  0.00     0.059 A 
ATOM     57  C   UNL A   1      37.665  32.579  29.702  1.00  0.00     0.059 A 
ATOM     58  F   UNL A   1      40.003  32.703  29.682  1.00  0.00    -0.206 F 
ATOM     59  C   UNL A   1      36.506  31.853  29.966  1.00  0.00     0.060 A 
BRANCH  59  60
ATOM     60  S   UNL A   1      34.881  32.620  29.766  1.00  0.00     0.124 S 
ATOM     61  O   UNL A   1      34.289  31.794  28.720  1.00  0.00    -0.237 OA
ATOM     62  O   UNL A   1      34.309  32.470  31.100  1.00  0.00    -0.237 OA
ATOM     63  O   UNL A   1      35.201  33.991  29.382  1.00  0.00    -0.744 OA
ENDBRANCH  59  60
ENDBRANCH  27  52
BRANCH  39  64
ATOM     64  C   UNL A   1      43.649  31.332  35.657  1.00  0.00     0.058 A 
ATOM     65  C   UNL A   1      44.223  32.610  35.613  1.00  0.00     0.135 A 
ATOM     66  C   UNL A   1      42.987  30.936  36.830  1.00  0.00     0.135 A 
ATOM     67  F   UNL A   1      44.874  33.024  34.516  1.00  0.00    -0.206 F 
ATOM     68  C   UNL A   1      44.130  33.475  36.696  1.00  0.00     0.059 A 
ATOM     69  C   UNL A   1      42.856  31.795  37.912  1.00  0.00     0.059 A 
ATOM     70  F   UNL A   1      42.416  29.723  36.908  1.00  0.00    -0.206 F 
ATOM     71  C   UNL A   1      43.429  33.063  37.833  1.00  0.00     0.060 A 
BRANCH  71  72
ATOM     72  S   UNL A   1      43.225  34.235  39.188  1.00  0.00     0.124 S 
ATOM     73  O   UNL A   1      41.790  34.150  39.436  1.00  0.00    -0.237 OA
ATOM     74  O   UNL A   1      44.086  33.667  40.221  1.00  0.00    -0.237 OA
ATOM     75  O   UNL A   1      43.690  35.497  38.617  1.00  0.00    -0.744 OA
ENDBRANCH  71  72
ENDBRANCH  39  64
ENDBRANCH  13  14
ENDBRANCH   6   8
ENDBRANCH   5   6
ENDBRANCH   4   5
ENDBRANCH   3   4
ENDBRANCH   2   3
ENDBRANCH   1   2
BRANCH   1  76
ATOM     76  C   UNL A   1      41.894  19.102  26.067  1.00  0.00     0.261 C 
BRANCH  76  77
ATOM     77  O   UNL A   1      41.188  20.255  25.661  1.00  0.00    -0.460 OA
BRANCH  77  78
ATOM     78  C   UNL A   1      39.851  20.107  25.662  1.00  0.00     0.339 C 
ATOM     79  O   UNL A   1      39.188  19.105  25.527  1.00  0.00    -0.246 OA
BRANCH  78  80
ATOM     80  C   UNL A   1      39.336  21.411  26.029  1.00  0.00     0.074 A 
ATOM     81  C   UNL A   1      40.202  22.138  26.876  1.00  0.00     0.017 A 
ATOM     82  C   UNL A   1      38.121  21.922  25.555  1.00  0.00     0.027 A 
ATOM     83  C   UNL A   1      39.862  23.414  27.293  1.00  0.00     0.001 A 
ATOM     84  C   UNL A   1      37.804  23.217  26.019  1.00  0.00     0.016 A 
ATOM     85  C   UNL A   1      38.654  23.951  26.869  1.00  0.00     0.001 A 
BRANCH  82  86
ATOM     86  S   UNL A   1      36.833  21.171  24.536  1.00  0.00    -0.082 SA
BRANCH  86  87
ATOM     87  C   UNL A   1      35.352  22.170  24.343  1.00  0.00     0.090 A 
ATOM     88  C   UNL A   1      35.451  23.256  23.441  1.00  0.00     0.024 A 
ATOM     89  C   UNL A   1      34.133  22.066  25.056  1.00  0.00     0.284 A 
ATOM     90  C   UNL A   1      34.362  24.115  23.177  1.00  0.00     0.023 A 
ATOM     91  C   UNL A   1      33.041  22.953  24.814  1.00  0.00     0.108 A 
ATOM     92  C   UNL A   1      33.137  23.937  23.834  1.00  0.00     0.089 A 
BRANCH  89  93
ATOM     93  N   UNL A   1      33.877  20.976  26.009  1.00  0.00     0.063 N 
ATOM     94  O   UNL A   1      33.973  21.253  27.213  1.00  0.00    -0.258 OA
ATOM     95  O   UNL A   1      33.618  19.850  25.570  1.00  0.00    -0.258 OA
ENDBRANCH  89  93
BRANCH  92  96
ATOM     96  S   UNL A   1      31.702  24.822  23.197  1.00  0.00     0.243 S 
ATOM     97  O   UNL A   1      32.116  25.390  21.934  1.00  0.00    -0.207 OA
ATOM     98  O   UNL A   1      30.611  23.871  23.281  1.00  0.00    -0.207 OA
BRANCH  96  99
ATOM     99  N   UNL A   1      31.332  26.059  24.251  1.00  0.00    -0.198 NA
ATOM    100  C   UNL A   1      32.020  27.356  24.283  1.00  0.00     0.102 C 
ATOM    101  C   UNL A   1      30.672  25.860  25.537  1.00  0.00     0.102 C 
ATOM    102  C   UNL A   1      32.278  27.633  25.767  1.00  0.00     0.018 C 
ATOM    103  C   UNL A   1      31.669  26.457  26.516  1.00  0.00     0.018 C 
ENDBRANCH  96  99
ENDBRANCH  92  96
ENDBRANCH  86  87
ENDBRANCH  82  86
ENDBRANCH  78  80
ENDBRANCH  77  78
ENDBRANCH  76  77
ENDBRANCH   1  76
TORSDOF 22
ENDMDL
MODEL 2
REMARK VINA RESULT:     -10.3      4.137     10.324
REMARK SMILES O=C(OCCOCCOC(=O)c1ccccc1Sc1ccc(S(=O)(=O)N2CCCC2)cc1[N+](=O)[O-])c1ccc(-c2c3nc(c(-c4c(F)cc(S(=O)(=O)[O-])cc4F)c4ccc([nH]4)c(-c4c(F)cc(S(=O)(=O)[O-])cc4F)c4nc(c(-c5c(F)cc(S(=O)(=O)[O-])cc5F)c5ccc2[nH]5)C=C4)C=C3)cc1
REMARK SMILES IDX 7 1 6 2 5 3 4 4 3 5 2 6 1 7 36 8 37 9 101 10 38 11 100 12
REMARK SMILES IDX 39 13 40 14 41 15 94 16 42 17 99 18 93 19 95 20 43 21 98 22
REMARK SMILES IDX 92 23 91 24 44 26 78 27 57 28 77 29 58 30 61 31 76 32 96 33
REMARK SMILES IDX 59 34 60 35 75 37 97 38 62 39 45 40 46 41 55 42 47 43 48 44
REMARK SMILES IDX 54 45 56 46 49 47 50 48 51 49 52 50 53 51 79 52 80 53 89 54
REMARK SMILES IDX 81 55 82 56 88 57 90 58 83 59 84 60 85 61 86 62 87 63 63 64
REMARK SMILES IDX 64 65 73 66 65 67 66 68 72 69 74 70 67 71 68 72 69 73 70 74
REMARK SMILES IDX 71 75 8 76 9 77 10 78 11 79 12 80 13 81 17 82 14 83 16 84
REMARK SMILES IDX 15 85 18 86 19 87 20 88 32 89 21 90 31 91 22 92 33 93 34 94
REMARK SMILES IDX 35 95 23 96 24 97 25 98 26 99 27 100 30 101 28 102 29 103
REMARK H PARENT 95 25 61 36
REMARK Flexibility Score: inf
ROOT
ATOM      1  C   UNL A   1      34.810  30.866  27.420  1.00  0.00     0.202 C 
ENDROOT
BRANCH   1   2
ATOM      2  O   UNL A   1      35.512  31.808  28.221  1.00  0.00    -0.374 OA
BRANCH   2   3
ATOM      3  C   UNL A   1      34.647  32.622  28.999  1.00  0.00     0.202 C 
BRANCH   3   4
ATOM      4  C   UNL A   1      34.996  32.638  30.493  1.00  0.00     0.261 C 
BRANCH   4   5
ATOM      5  O   UNL A   1      35.444  31.361  30.997  1.00  0.00    -0.460 OA
BRANCH   5   6
ATOM      6  C   UNL A   1      36.521  31.025  31.755  1.00  0.00     0.338 C 
ATOM      7  O   UNL A   1      36.486  31.332  32.947  1.00  0.00    -0.246 OA
BRANCH   6   8
ATOM      8  C   UNL A   1      37.809  30.451  31.220  1.00  0.00     0.060 A 
ATOM      9  C   UNL A   1      38.778  29.772  31.969  1.00  0.00     0.016 A 
ATOM     10  C   UNL A   1      37.999  30.503  29.824  1.00  0.00     0.016 A 
ATOM     11  C   UNL A   1      39.864  29.134  31.372  1.00  0.00     0.010 A 
ATOM     12  C   UNL A   1      39.134  29.945  29.220  1.00  0.00     0.010 A 
ATOM     13  C   UNL A   1      40.086  29.287  30.007  1.00  0.00    -0.014 A 
BRANCH  13  14
ATOM     14  C   UNL A   1      41.473  29.121  29.528  1.00  0.00     0.031 A 
ATOM     15  C   UNL A   1      41.813  27.770  28.984  1.00  0.00     0.074 A 
ATOM     16  C   UNL A   1      42.355  30.132  29.489  1.00  0.00     0.049 A 
ATOM     17  N   UNL A   1      42.938  27.342  28.491  1.00  0.00    -0.248 NA
ATOM     18  C   UNL A   1      40.720  26.780  28.955  1.00  0.00     0.031 C 
ATOM     19  C   UNL A   1      42.039  31.503  29.841  1.00  0.00     0.029 A 
ATOM     20  N   UNL A   1      43.679  30.183  29.147  1.00  0.00    -0.354 N 
ATOM     21  C   UNL A   1      42.684  26.039  28.086  1.00  0.00     0.074 A 
ATOM     22  C   UNL A   1      41.308  25.741  28.391  1.00  0.00     0.031 C 
ATOM     23  C   UNL A   1      43.141  32.263  29.772  1.00  0.00     0.029 A 
ATOM     24  C   UNL A   1      44.257  31.411  29.388  1.00  0.00     0.049 A 
ATOM     25  H   UNL A   1      44.169  29.418  28.767  1.00  0.00     0.167 HD
ATOM     26  C   UNL A   1      43.547  25.168  27.524  1.00  0.00     0.037 A 
ATOM     27  C   UNL A   1      45.550  31.784  29.340  1.00  0.00     0.037 A 
ATOM     28  C   UNL A   1      44.933  25.481  27.329  1.00  0.00     0.049 A 
ATOM     29  C   UNL A   1      46.534  30.757  28.861  1.00  0.00     0.074 A 
ATOM     30  C   UNL A   1      45.942  24.672  26.851  1.00  0.00     0.029 A 
ATOM     31  N   UNL A   1      45.508  26.709  27.647  1.00  0.00    -0.354 N 
ATOM     32  N   UNL A   1      46.296  29.516  28.497  1.00  0.00    -0.248 NA
ATOM     33  C   UNL A   1      47.940  31.158  28.761  1.00  0.00     0.031 C 
ATOM     34  C   UNL A   1      47.139  25.388  26.947  1.00  0.00     0.029 A 
ATOM     35  C   UNL A   1      46.867  26.670  27.408  1.00  0.00     0.049 A 
ATOM     36  H   UNL A   1      45.017  27.490  27.992  1.00  0.00     0.167 HD
ATOM     37  C   UNL A   1      47.513  28.995  28.090  1.00  0.00     0.074 A 
ATOM     38  C   UNL A   1      48.491  30.057  28.263  1.00  0.00     0.031 C 
ATOM     39  C   UNL A   1      47.795  27.762  27.600  1.00  0.00     0.037 A 
BRANCH  26  40
ATOM     40  C   UNL A   1      43.011  23.796  27.234  1.00  0.00     0.058 A 
ATOM     41  C   UNL A   1      42.927  22.802  28.225  1.00  0.00     0.135 A 
ATOM     42  C   UNL A   1      42.696  23.434  25.916  1.00  0.00     0.135 A 
ATOM     43  F   UNL A   1      43.266  23.081  29.495  1.00  0.00    -0.206 F 
ATOM     44  C   UNL A   1      42.599  21.487  27.909  1.00  0.00     0.059 A 
ATOM     45  C   UNL A   1      42.335  22.133  25.583  1.00  0.00     0.059 A 
ATOM     46  F   UNL A   1      42.787  24.336  24.926  1.00  0.00    -0.206 F 
ATOM     47  C   UNL A   1      42.315  21.161  26.582  1.00  0.00     0.060 A 
BRANCH  47  48
ATOM     48  S   UNL A   1      41.948  19.442  26.175  1.00  0.00     0.124 S 
ATOM     49  O   UNL A   1      42.456  18.749  27.356  1.00  0.00    -0.237 OA
ATOM     50  O   UNL A   1      40.496  19.459  26.030  1.00  0.00    -0.237 OA
ATOM     51  O   UNL A   1      42.697  19.216  24.943  1.00  0.00    -0.744 OA
ENDBRANCH  47  48
ENDBRANCH  26  40
BRANCH  27  52
ATOM     52  C   UNL A   1      45.945  33.149  29.786  1.00  0.00     0.058 A 
ATOM     53  C   UNL A   1      46.311  33.423  31.111  1.00  0.00     0.135 A 
ATOM     54  C   UNL A   1      46.046  34.202  28.858  1.00  0.00     0.135 A 
ATOM     55  F   UNL A   1      46.233  32.459  32.041  1.00  0.00    -0.206 F 
ATOM     56  C   UNL A   1      46.776  34.681  31.497  1.00  0.00     0.059 A 
ATOM     57  C   UNL A   1      46.522  35.461  29.215  1.00  0.00     0.059 A 
ATOM     58  F   UNL A   1      45.722  33.996  27.572  1.00  0.00    -0.206 F 
ATOM     59  C   UNL A   1      46.889  35.691  30.539  1.00  0.00     0.060 A 
BRANCH  59  60
ATOM     60  S   UNL A   1      47.579  37.287  31.031  1.00  0.00     0.124 S 
ATOM     61  O   UNL A   1      47.761  37.943  29.741  1.00  0.00    -0.237 OA
ATOM     62  O   UNL A   1      46.520  37.827  31.879  1.00  0.00    -0.237 OA
ATOM     63  O   UNL A   1      48.806  36.923  31.732  1.00  0.00    -0.744 OA
ENDBRANCH  59  60
ENDBRANCH  27  52
BRANCH  39  64
ATOM     64  C   UNL A   1      49.208  27.503  27.177  1.00  0.00     0.058 A 
ATOM     65  C   UNL A   1      50.175  27.047  28.083  1.00  0.00     0.135 A 
ATOM     66  C   UNL A   1      49.548  27.580  25.817  1.00  0.00     0.135 A 
ATOM     67  F   UNL A   1      49.894  26.969  29.393  1.00  0.00    -0.206 F 
ATOM     68  C   UNL A   1      51.437  26.664  27.651  1.00  0.00     0.059 A 
ATOM     69  C   UNL A   1      50.794  27.173  25.360  1.00  0.00     0.059 A 
ATOM     70  F   UNL A   1      48.646  28.003  24.917  1.00  0.00    -0.206 F 
ATOM     71  C   UNL A   1      51.730  26.715  26.285  1.00  0.00     0.060 A 
BRANCH  71  72
ATOM     72  S   UNL A   1      53.335  26.113  25.727  1.00  0.00     0.124 S 
ATOM     73  O   UNL A   1      52.956  25.264  24.603  1.00  0.00    -0.237 OA
ATOM     74  O   UNL A   1      54.028  27.351  25.385  1.00  0.00    -0.237 OA
ATOM     75  O   UNL A   1      53.859  25.410  26.896  1.00  0.00    -0.744 OA
ENDBRANCH  71  72
ENDBRANCH  39  64
ENDBRANCH  13  14
ENDBRANCH   6   8
ENDBRANCH   5   6
ENDBRANCH   4   5
ENDBRANCH   3   4
ENDBRANCH   2   3
ENDBRANCH   1   2
BRANCH   1  76
ATOM     76  C   UNL A   1      33.351  31.122  27.536  1.00  0.00     0.261 C 
BRANCH  76  77
ATOM     77  O   UNL A   1      32.729  30.650  26.360  1.00  0.00    -0.460 OA
BRANCH  77  78
ATOM     78  C   UNL A   1      31.499  31.153  26.151  1.00  0.00     0.339 C 
ATOM     79  O   UNL A   1      31.011  32.184  26.554  1.00  0.00    -0.246 OA
BRANCH  78  80
ATOM     80  C   UNL A   1      30.895  30.262  25.181  1.00  0.00     0.074 A 
ATOM     81  C   UNL A   1      30.083  30.929  24.237  1.00  0.00     0.017 A 
ATOM     82  C   UNL A   1      31.127  28.881  25.152  1.00  0.00     0.027 A 
ATOM     83  C   UNL A   1      29.456  30.217  23.228  1.00  0.00     0.001 A 
ATOM     84  C   UNL A   1      30.456  28.191  24.120  1.00  0.00     0.016 A 
ATOM     85  C   UNL A   1      29.638  28.841  23.176  1.00  0.00     0.001 A 
BRANCH  82  86
ATOM     86  S   UNL A   1      32.054  27.808  26.270  1.00  0.00    -0.082 SA
BRANCH  86  87
ATOM     87  C   UNL A   1      32.607  26.262  25.540  1.00  0.00     0.090 A 
ATOM     88  C   UNL A   1      33.724  26.350  24.676  1.00  0.00     0.024 A 
ATOM     89  C   UNL A   1      32.002  24.987  25.642  1.00  0.00     0.284 A 
ATOM     90  C   UNL A   1      34.278  25.215  24.045  1.00  0.00     0.023 A 
ATOM     91  C   UNL A   1      32.541  23.842  24.980  1.00  0.00     0.108 A 
ATOM     92  C   UNL A   1      33.711  23.947  24.232  1.00  0.00     0.089 A 
BRANCH  89  93
ATOM     93  N   UNL A   1      30.848  24.738  26.519  1.00  0.00     0.063 N 
ATOM     94  O   UNL A   1      29.931  25.570  26.484  1.00  0.00    -0.258 OA
ATOM     95  O   UNL A   1      30.866  23.748  27.259  1.00  0.00    -0.258 OA
ENDBRANCH  89  93
BRANCH  92  96
ATOM     96  S   UNL A   1      34.662  22.511  23.703  1.00  0.00     0.243 S 
ATOM     97  O   UNL A   1      33.702  21.449  23.510  1.00  0.00    -0.207 OA
ATOM     98  O   UNL A   1      35.490  22.994  22.615  1.00  0.00    -0.207 OA
BRANCH  96  99
ATOM     99  N   UNL A   1      35.703  22.083  24.933  1.00  0.00    -0.198 NA
ATOM    100  C   UNL A   1      36.548  23.031  25.672  1.00  0.00     0.102 C 
ATOM    101  C   UNL A   1      36.267  20.747  25.093  1.00  0.00     0.102 C 
ATOM    102  C   UNL A   1      37.923  22.361  25.748  1.00  0.00     0.018 C 
ATOM    103  C   UNL A   1      37.763  21.014  25.060  1.00  0.00     0.018 C 
ENDBRANCH  96  99
ENDBRANCH  92  96
ENDBRANCH  86  87
ENDBRANCH  82  86
ENDBRANCH  78  80
ENDBRANCH  77  78
ENDBRANCH  76  77
ENDBRANCH   1  76
TORSDOF 22
ENDMDL
MODEL 3
REMARK VINA RESULT:     -10.1      2.645      8.888
REMARK SMILES O=C(OCCOCCOC(=O)c1ccccc1Sc1ccc(S(=O)(=O)N2CCCC2)cc1[N+](=O)[O-])c1ccc(-c2c3nc(c(-c4c(F)cc(S(=O)(=O)[O-])cc4F)c4ccc([nH]4)c(-c4c(F)cc(S(=O)(=O)[O-])cc4F)c4nc(c(-c5c(F)cc(S(=O)(=O)[O-])cc5F)c5ccc2[nH]5)C=C4)C=C3)cc1
REMARK SMILES IDX 7 1 6 2 5 3 4 4 3 5 2 6 1 7 36 8 37 9 101 10 38 11 100 12
REMARK SMILES IDX 39 13 40 14 41 15 94 16 42 17 99 18 93 19 95 20 43 21 98 22
REMARK SMILES IDX 92 23 91 24 44 26 78 27 57 28 77 29 58 30 61 31 76 32 96 33
REMARK SMILES IDX 59 34 60 35 75 37 97 38 62 39 45 40 46 41 55 42 47 43 48 44
REMARK SMILES IDX 54 45 56 46 49 47 50 48 51 49 52 50 53 51 79 52 80 53 89 54
REMARK SMILES IDX 81 55 82 56 88 57 90 58 83 59 84 60 85 61 86 62 87 63 63 64
REMARK SMILES IDX 64 65 73 66 65 67 66 68 72 69 74 70 67 71 68 72 69 73 70 74
REMARK SMILES IDX 71 75 8 76 9 77 10 78 11 79 12 80 13 81 17 82 14 83 16 84
REMARK SMILES IDX 15 85 18 86 19 87 20 88 32 89 21 90 31 91 22 92 33 93 34 94
REMARK SMILES IDX 35 95 23 96 24 97 25 98 26 99 27 100 30 101 28 102 29 103
REMARK H PARENT 95 25 61 36
REMARK Flexibility Score: inf
ROOT
ATOM      1  C   UNL A   1      34.631  26.502  25.452  1.00  0.00     0.202 C 
ENDROOT
BRANCH   1   2
ATOM      2  O   UNL A   1      33.641  27.216  26.180  1.00  0.00    -0.374 OA
BRANCH   2   3
ATOM      3  C   UNL A   1      33.436  28.532  25.685  1.00  0.00     0.202 C 
BRANCH   3   4
ATOM      4  C   UNL A   1      32.803  29.483  26.710  1.00  0.00     0.261 C 
BRANCH   4   5
ATOM      5  O   UNL A   1      33.459  30.768  26.789  1.00  0.00    -0.460 OA
BRANCH   5   6
ATOM      6  C   UNL A   1      34.300  31.288  27.720  1.00  0.00     0.338 C 
ATOM      7  O   UNL A   1      34.008  32.388  28.189  1.00  0.00    -0.246 OA
BRANCH   6   8
ATOM      8  C   UNL A   1      35.633  30.697  28.107  1.00  0.00     0.060 A 
ATOM      9  C   UNL A   1      35.934  29.331  28.183  1.00  0.00     0.016 A 
ATOM     10  C   UNL A   1      36.700  31.600  28.295  1.00  0.00     0.016 A 
ATOM     11  C   UNL A   1      37.231  28.869  28.393  1.00  0.00     0.010 A 
ATOM     12  C   UNL A   1      37.992  31.150  28.599  1.00  0.00     0.010 A 
ATOM     13  C   UNL A   1      38.247  29.776  28.680  1.00  0.00    -0.014 A 
BRANCH  13  14
ATOM     14  C   UNL A   1      39.405  29.270  29.443  1.00  0.00     0.031 A 
ATOM     15  C   UNL A   1      39.708  29.994  30.716  1.00  0.00     0.074 A 
ATOM     16  C   UNL A   1      40.094  28.176  29.082  1.00  0.00     0.049 A 
ATOM     17  N   UNL A   1      40.648  29.770  31.586  1.00  0.00    -0.248 NA
ATOM     18  C   UNL A   1      38.798  31.098  31.077  1.00  0.00     0.031 C 
ATOM     19  C   UNL A   1      39.747  27.330  27.955  1.00  0.00     0.029 A 
ATOM     20  N   UNL A   1      41.212  27.581  29.600  1.00  0.00    -0.354 N 
ATOM     21  C   UNL A   1      40.436  30.695  32.598  1.00  0.00     0.074 A 
ATOM     22  C   UNL A   1      39.287  31.487  32.238  1.00  0.00     0.031 C 
ATOM     23  C   UNL A   1      40.662  26.362  27.806  1.00  0.00     0.029 A 
ATOM     24  C   UNL A   1      41.682  26.540  28.829  1.00  0.00     0.049 A 
ATOM     25  H   UNL A   1      41.638  27.869  30.440  1.00  0.00     0.167 HD
ATOM     26  C   UNL A   1      41.163  30.870  33.721  1.00  0.00     0.037 A 
ATOM     27  C   UNL A   1      42.829  25.841  28.924  1.00  0.00     0.037 A 
ATOM     28  C   UNL A   1      42.355  30.120  33.985  1.00  0.00     0.049 A 
ATOM     29  C   UNL A   1      43.716  26.150  30.095  1.00  0.00     0.074 A 
ATOM     30  C   UNL A   1      43.239  30.244  35.037  1.00  0.00     0.029 A 
ATOM     31  N   UNL A   1      42.849  29.118  33.153  1.00  0.00    -0.354 N 
ATOM     32  N   UNL A   1      43.524  27.042  31.041  1.00  0.00    -0.248 NA
ATOM     33  C   UNL A   1      44.948  25.370  30.238  1.00  0.00     0.031 C 
ATOM     34  C   UNL A   1      44.303  29.368  34.802  1.00  0.00     0.029 A 
ATOM     35  C   UNL A   1      44.045  28.638  33.647  1.00  0.00     0.049 A 
ATOM     36  H   UNL A   1      42.409  28.799  32.332  1.00  0.00     0.167 HD
ATOM     37  C   UNL A   1      44.591  26.909  31.915  1.00  0.00     0.074 A 
ATOM     38  C   UNL A   1      45.433  25.855  31.376  1.00  0.00     0.031 C 
ATOM     39  C   UNL A   1      44.842  27.582  33.066  1.00  0.00     0.037 A 
BRANCH  26  40
ATOM     40  C   UNL A   1      40.733  31.992  34.621  1.00  0.00     0.058 A 
ATOM     41  C   UNL A   1      41.156  33.317  34.418  1.00  0.00     0.135 A 
ATOM     42  C   UNL A   1      39.990  31.713  35.778  1.00  0.00     0.135 A 
ATOM     43  F   UNL A   1      41.914  33.631  33.354  1.00  0.00    -0.206 F 
ATOM     44  C   UNL A   1      40.901  34.313  35.355  1.00  0.00     0.059 A 
ATOM     45  C   UNL A   1      39.695  32.700  36.712  1.00  0.00     0.059 A 
ATOM     46  F   UNL A   1      39.585  30.460  36.035  1.00  0.00    -0.206 F 
ATOM     47  C   UNL A   1      40.178  33.991  36.505  1.00  0.00     0.060 A 
BRANCH  47  48
ATOM     48  S   UNL A   1      39.902  35.277  37.740  1.00  0.00     0.124 S 
ATOM     49  O   UNL A   1      38.641  34.842  38.335  1.00  0.00    -0.237 OA
ATOM     50  O   UNL A   1      41.079  35.149  38.592  1.00  0.00    -0.237 OA
ATOM     51  O   UNL A   1      39.833  36.501  36.948  1.00  0.00    -0.744 OA
ENDBRANCH  47  48
ENDBRANCH  26  40
BRANCH  27  52
ATOM     52  C   UNL A   1      43.180  24.845  27.873  1.00  0.00     0.058 A 
ATOM     53  C   UNL A   1      43.860  25.205  26.702  1.00  0.00     0.135 A 
ATOM     54  C   UNL A   1      42.910  23.478  28.068  1.00  0.00     0.135 A 
ATOM     55  F   UNL A   1      44.143  26.494  26.461  1.00  0.00    -0.206 F 
ATOM     56  C   UNL A   1      44.272  24.251  25.772  1.00  0.00     0.059 A 
ATOM     57  C   UNL A   1      43.325  22.504  27.163  1.00  0.00     0.059 A 
ATOM     58  F   UNL A   1      42.273  23.071  29.177  1.00  0.00    -0.206 F 
ATOM     59  C   UNL A   1      44.011  22.900  26.017  1.00  0.00     0.060 A 
BRANCH  59  60
ATOM     60  S   UNL A   1      44.631  21.665  24.852  1.00  0.00     0.124 S 
ATOM     61  O   UNL A   1      44.502  22.366  23.579  1.00  0.00    -0.237 OA
ATOM     62  O   UNL A   1      45.993  21.454  25.331  1.00  0.00    -0.237 OA
ATOM     63  O   UNL A   1      43.726  20.536  25.044  1.00  0.00    -0.744 OA
ENDBRANCH  59  60
ENDBRANCH  27  52
BRANCH  39  64
ATOM     64  C   UNL A   1      46.054  27.173  33.844  1.00  0.00     0.058 A 
ATOM     65  C   UNL A   1      47.291  27.808  33.666  1.00  0.00     0.135 A 
ATOM     66  C   UNL A   1      45.929  26.229  34.876  1.00  0.00     0.135 A 
ATOM     67  F   UNL A   1      47.457  28.707  32.685  1.00  0.00    -0.206 F 
ATOM     68  C   UNL A   1      48.367  27.527  34.499  1.00  0.00     0.059 A 
ATOM     69  C   UNL A   1      46.981  25.956  35.738  1.00  0.00     0.059 A 
ATOM     70  F   UNL A   1      44.757  25.606  35.083  1.00  0.00    -0.206 F 
ATOM     71  C   UNL A   1      48.195  26.612  35.542  1.00  0.00     0.060 A 
BRANCH  71  72
ATOM     72  S   UNL A   1      49.567  26.338  36.678  1.00  0.00     0.124 S 
ATOM     73  O   UNL A   1      50.170  25.130  36.125  1.00  0.00    -0.237 OA
ATOM     74  O   UNL A   1      50.344  27.564  36.527  1.00  0.00    -0.237 OA
ATOM     75  O   UNL A   1      48.909  26.176  37.972  1.00  0.00    -0.744 OA
ENDBRANCH  71  72
ENDBRANCH  39  64
ENDBRANCH  13  14
ENDBRANCH   6   8
ENDBRANCH   5   6
ENDBRANCH   4   5
ENDBRANCH   3   4
ENDBRANCH   2   3
ENDBRANCH   1   2
BRANCH   1  76
ATOM     76  C   UNL A   1      34.135  25.130  25.174  1.00  0.00     0.261 C 
BRANCH  76  77
ATOM     77  O   UNL A   1      35.243  24.256  25.169  1.00  0.00    -0.460 OA
BRANCH  77  78
ATOM     78  C   UNL A   1      35.263  23.392  26.200  1.00  0.00     0.339 C 
ATOM     79  O   UNL A   1      34.704  23.459  27.271  1.00  0.00    -0.246 OA
BRANCH  78  80
ATOM     80  C   UNL A   1      35.988  22.240  25.703  1.00  0.00     0.074 A 
ATOM     81  C   UNL A   1      37.381  22.454  25.607  1.00  0.00     0.017 A 
ATOM     82  C   UNL A   1      35.377  21.019  25.390  1.00  0.00     0.027 A 
ATOM     83  C   UNL A   1      38.215  21.437  25.172  1.00  0.00     0.001 A 
ATOM     84  C   UNL A   1      36.259  20.016  24.933  1.00  0.00     0.016 A 
ATOM     85  C   UNL A   1      37.649  20.217  24.826  1.00  0.00     0.001 A 
BRANCH  82  86
ATOM     86  S   UNL A   1      33.638  20.532  25.367  1.00  0.00    -0.082 SA
BRANCH  86  87
ATOM     87  C   UNL A   1      32.476  21.902  25.342  1.00  0.00     0.090 A 
ATOM     88  C   UNL A   1      31.977  22.315  26.600  1.00  0.00     0.024 A 
ATOM     89  C   UNL A   1      31.920  22.551  24.213  1.00  0.00     0.284 A 
ATOM     90  C   UNL A   1      31.071  23.389  26.735  1.00  0.00     0.023 A 
ATOM     91  C   UNL A   1      30.979  23.617  24.344  1.00  0.00     0.108 A 
ATOM     92  C   UNL A   1      30.602  24.072  25.605  1.00  0.00     0.089 A 
BRANCH  89  93
ATOM     93  N   UNL A   1      32.357  22.245  22.843  1.00  0.00     0.063 N 
ATOM     94  O   UNL A   1      33.081  23.082  22.287  1.00  0.00    -0.258 OA
ATOM     95  O   UNL A   1      31.958  21.203  22.310  1.00  0.00    -0.258 OA
ENDBRANCH  89  93
BRANCH  92  96
ATOM     96  S   UNL A   1      29.747  25.638  25.861  1.00  0.00     0.243 S 
ATOM     97  O   UNL A   1      28.484  25.302  26.477  1.00  0.00    -0.207 OA
ATOM     98  O   UNL A   1      30.716  26.486  26.527  1.00  0.00    -0.207 OA
BRANCH  96  99
ATOM     99  N   UNL A   1      29.456  26.332  24.373  1.00  0.00    -0.198 NA
ATOM    100  C   UNL A   1      30.364  27.274  23.706  1.00  0.00     0.102 C 
ATOM    101  C   UNL A   1      28.125  26.494  23.798  1.00  0.00     0.102 C 
ATOM    102  C   UNL A   1      29.461  28.398  23.189  1.00  0.00     0.018 C 
ATOM    103  C   UNL A   1      28.044  27.995  23.572  1.00  0.00     0.018 C 
ENDBRANCH  96  99
ENDBRANCH  92  96
ENDBRANCH  86  87
ENDBRANCH  82  86
ENDBRANCH  78  80
ENDBRANCH  77  78
ENDBRANCH  76  77
ENDBRANCH   1  76
TORSDOF 22
ENDMDL
