MODEL 1
REMARK VINA RESULT:     -12.0      0.000      0.000
REMARK SMILES O=C(OCCOCCOC(=O)[C@H]1CC=CC[C@@H]1C(=O)N[C@@H]1CCCN(c2ccccc2F)C1=O)c1ccc(-c2c3nc(c(-c4c(F)cc(S(=O)(=O)[O-])cc4F)c4ccc([nH]4)c(-c4c(F)cc(S(=O)(=O)[O-])cc4F)c4nc(c(-c5c(F)cc(S(=O)(=O)[O-])cc5F)c5ccc2[nH]5)C=C4)C=C3)cc1
REMARK SMILES IDX 6 1 5 2 4 3 3 4 2 5 1 6 35 7 36 8 100 9 37 10 99 11 38 12
REMARK SMILES IDX 39 13 40 14 93 15 41 16 98 17 92 18 94 19 42 20 97 21 91 22
REMARK SMILES IDX 90 23 43 25 77 26 56 27 76 28 57 29 60 30 75 31 95 32 58 33
REMARK SMILES IDX 59 34 74 36 96 37 61 38 44 39 45 40 54 41 46 42 47 43 53 44
REMARK SMILES IDX 55 45 48 46 49 47 50 48 51 49 52 50 78 51 79 52 88 53 80 54
REMARK SMILES IDX 81 55 87 56 89 57 82 58 83 59 84 60 85 61 86 62 62 63 63 64
REMARK SMILES IDX 72 65 64 66 65 67 71 68 73 69 66 70 67 71 68 72 69 73 70 74
REMARK SMILES IDX 7 75 8 76 9 77 10 78 11 79 12 80 13 81 17 82 14 83 16 84
REMARK SMILES IDX 15 85 18 86 19 87 20 88 21 90 22 91 33 92 23 93 25 94 34 95
REMARK SMILES IDX 24 96 26 97 27 98 31 99 28 100 30 101 32 102 29 103
REMARK H PARENT 94 24 60 35 20 89
REMARK Flexibility Score: inf
ROOT
ATOM      1  O   UNL A   1      37.457  22.216  25.604  1.00  0.00    -0.374 OA
ENDROOT
BRANCH   1   2
ATOM      2  C   UNL A   1      38.819  21.910  25.921  1.00  0.00     0.202 C 
BRANCH   2   3
ATOM      3  C   UNL A   1      39.638  22.937  26.734  1.00  0.00     0.261 C 
BRANCH   3   4
ATOM      4  O   UNL A   1      39.331  24.309  26.432  1.00  0.00    -0.460 OA
BRANCH   4   5
ATOM      5  C   UNL A   1      40.172  25.375  26.414  1.00  0.00     0.338 C 
ATOM      6  O   UNL A   1      40.832  25.582  25.397  1.00  0.00    -0.246 OA
BRANCH   5   7
ATOM      7  C   UNL A   1      40.380  26.282  27.587  1.00  0.00     0.060 A 
ATOM      8  C   UNL A   1      39.591  26.279  28.733  1.00  0.00     0.016 A 
ATOM      9  C   UNL A   1      41.484  27.156  27.563  1.00  0.00     0.016 A 
ATOM     10  C   UNL A   1      39.820  27.132  29.788  1.00  0.00     0.010 A 
ATOM     11  C   UNL A   1      41.744  28.018  28.640  1.00  0.00     0.010 A 
ATOM     12  C   UNL A   1      40.887  28.015  29.741  1.00  0.00    -0.014 A 
BRANCH  12  13
ATOM     13  C   UNL A   1      40.894  29.022  30.811  1.00  0.00     0.031 A 
ATOM     14  C   UNL A   1      39.810  30.053  30.788  1.00  0.00     0.074 A 
ATOM     15  C   UNL A   1      41.645  28.790  31.905  1.00  0.00     0.049 A 
ATOM     16  N   UNL A   1      39.511  30.956  31.678  1.00  0.00    -0.248 NA
ATOM     17  C   UNL A   1      38.908  30.036  29.620  1.00  0.00     0.031 C 
ATOM     18  C   UNL A   1      42.571  27.662  32.061  1.00  0.00     0.029 A 
ATOM     19  N   UNL A   1      41.686  29.425  33.114  1.00  0.00    -0.354 N 
ATOM     20  C   UNL A   1      38.403  31.624  31.173  1.00  0.00     0.074 A 
ATOM     21  C   UNL A   1      38.076  31.025  29.901  1.00  0.00     0.031 C 
ATOM     22  C   UNL A   1      43.050  27.660  33.314  1.00  0.00     0.029 A 
ATOM     23  C   UNL A   1      42.523  28.821  34.023  1.00  0.00     0.049 A 
ATOM     24  H   UNL A   1      41.167  30.237  33.316  1.00  0.00     0.167 HD
ATOM     25  C   UNL A   1      37.731  32.653  31.732  1.00  0.00     0.037 A 
ATOM     26  C   UNL A   1      42.837  29.188  35.280  1.00  0.00     0.037 A 
ATOM     27  C   UNL A   1      38.103  33.226  32.996  1.00  0.00     0.049 A 
ATOM     28  C   UNL A   1      42.173  30.420  35.825  1.00  0.00     0.074 A 
ATOM     29  C   UNL A   1      37.612  34.358  33.614  1.00  0.00     0.029 A 
ATOM     30  N   UNL A   1      39.073  32.691  33.837  1.00  0.00    -0.354 N 
ATOM     31  N   UNL A   1      41.224  31.149  35.279  1.00  0.00    -0.248 NA
ATOM     32  C   UNL A   1      42.630  30.904  37.131  1.00  0.00     0.031 C 
ATOM     33  C   UNL A   1      38.312  34.528  34.814  1.00  0.00     0.029 A 
ATOM     34  C   UNL A   1      39.204  33.475  34.967  1.00  0.00     0.049 A 
ATOM     35  H   UNL A   1      39.590  31.874  33.654  1.00  0.00     0.167 HD
ATOM     36  C   UNL A   1      40.971  32.179  36.174  1.00  0.00     0.074 A 
ATOM     37  C   UNL A   1      41.852  31.964  37.307  1.00  0.00     0.031 C 
ATOM     38  C   UNL A   1      40.101  33.215  36.068  1.00  0.00     0.037 A 
BRANCH  25  39
ATOM     39  C   UNL A   1      36.617  33.257  30.927  1.00  0.00     0.058 A 
ATOM     40  C   UNL A   1      35.283  33.070  31.324  1.00  0.00     0.135 A 
ATOM     41  C   UNL A   1      36.858  34.066  29.805  1.00  0.00     0.135 A 
ATOM     42  F   UNL A   1      34.997  32.328  32.405  1.00  0.00    -0.206 F 
ATOM     43  C   UNL A   1      34.229  33.665  30.641  1.00  0.00     0.059 A 
ATOM     44  C   UNL A   1      35.819  34.688  29.118  1.00  0.00     0.059 A 
ATOM     45  F   UNL A   1      38.118  34.315  29.411  1.00  0.00    -0.206 F 
ATOM     46  C   UNL A   1      34.506  34.477  29.540  1.00  0.00     0.060 A 
BRANCH  46  47
ATOM     47  S   UNL A   1      33.131  35.311  28.719  1.00  0.00     0.124 S 
ATOM     48  O   UNL A   1      33.824  36.300  27.902  1.00  0.00    -0.237 OA
ATOM     49  O   UNL A   1      32.496  34.215  27.992  1.00  0.00    -0.237 OA
ATOM     50  O   UNL A   1      32.349  35.847  29.830  1.00  0.00    -0.744 OA
ENDBRANCH  46  47
ENDBRANCH  25  39
BRANCH  26  51
ATOM     51  C   UNL A   1      43.848  28.414  36.052  1.00  0.00     0.058 A 
ATOM     52  C   UNL A   1      43.455  27.346  36.878  1.00  0.00     0.135 A 
ATOM     53  C   UNL A   1      45.211  28.742  36.024  1.00  0.00     0.135 A 
ATOM     54  F   UNL A   1      42.165  26.984  36.944  1.00  0.00    -0.206 F 
ATOM     55  C   UNL A   1      44.365  26.664  37.678  1.00  0.00     0.059 A 
ATOM     56  C   UNL A   1      46.147  28.055  36.796  1.00  0.00     0.059 A 
ATOM     57  F   UNL A   1      45.643  29.742  35.240  1.00  0.00    -0.206 F 
ATOM     58  C   UNL A   1      45.709  27.029  37.636  1.00  0.00     0.060 A 
BRANCH  58  59
ATOM     59  S   UNL A   1      46.873  26.143  38.696  1.00  0.00     0.124 S 
ATOM     60  O   UNL A   1      47.614  27.249  39.303  1.00  0.00    -0.237 OA
ATOM     61  O   UNL A   1      45.974  25.418  39.595  1.00  0.00    -0.237 OA
ATOM     62  O   UNL A   1      47.623  25.320  37.764  1.00  0.00    -0.744 OA
ENDBRANCH  58  59
ENDBRANCH  26  51
BRANCH  38  63
ATOM     63  C   UNL A   1      40.055  34.183  37.211  1.00  0.00     0.058 A 
ATOM     64  C   UNL A   1      39.179  33.965  38.285  1.00  0.00     0.135 A 
ATOM     65  C   UNL A   1      40.809  35.365  37.196  1.00  0.00     0.135 A 
ATOM     66  F   UNL A   1      38.434  32.849  38.337  1.00  0.00    -0.206 F 
ATOM     67  C   UNL A   1      39.036  34.902  39.299  1.00  0.00     0.059 A 
ATOM     68  C   UNL A   1      40.699  36.305  38.214  1.00  0.00     0.059 A 
ATOM     69  F   UNL A   1      41.667  35.607  36.191  1.00  0.00    -0.206 F 
ATOM     70  C   UNL A   1      39.795  36.071  39.251  1.00  0.00     0.060 A 
BRANCH  70  71
ATOM     71  S   UNL A   1      39.600  37.277  40.578  1.00  0.00     0.124 S 
ATOM     72  O   UNL A   1      40.987  37.613  40.880  1.00  0.00    -0.237 OA
ATOM     73  O   UNL A   1      38.819  38.326  39.929  1.00  0.00    -0.237 OA
ATOM     74  O   UNL A   1      38.893  36.529  41.613  1.00  0.00    -0.744 OA
ENDBRANCH  70  71
ENDBRANCH  38  63
ENDBRANCH  12  13
ENDBRANCH   5   7
ENDBRANCH   4   5
ENDBRANCH   3   4
ENDBRANCH   2   3
ENDBRANCH   1   2
BRANCH   1  75
ATOM     75  C   UNL A   1      36.963  21.826  24.319  1.00  0.00     0.202 C 
BRANCH  75  76
ATOM     76  C   UNL A   1      36.581  23.043  23.480  1.00  0.00     0.261 C 
BRANCH  76  77
ATOM     77  O   UNL A   1      35.177  22.938  23.217  1.00  0.00    -0.463 OA
BRANCH  77  78
ATOM     78  C   UNL A   1      34.400  23.779  23.931  1.00  0.00     0.310 C 
ATOM     79  O   UNL A   1      34.702  24.926  24.257  1.00  0.00    -0.252 OA
BRANCH  78  80
ATOM     80  C   UNL A   1      33.089  23.142  24.322  1.00  0.00     0.115 C 
ATOM     81  C   UNL A   1      33.067  21.602  24.342  1.00  0.00     0.043 C 
ATOM     82  C   UNL A   1      32.608  23.774  25.626  1.00  0.00     0.097 C 
ATOM     83  C   UNL A   1      33.476  20.981  25.635  1.00  0.00    -0.030 C 
ATOM     84  C   UNL A   1      33.354  23.167  26.836  1.00  0.00     0.041 C 
ATOM     85  C   UNL A   1      33.635  21.694  26.755  1.00  0.00    -0.030 C 
BRANCH  82  86
ATOM     86  C   UNL A   1      31.095  23.635  25.735  1.00  0.00     0.224 C 
ATOM     87  O   UNL A   1      30.556  22.608  26.153  1.00  0.00    -0.275 OA
ATOM     88  N   UNL A   1      30.275  24.664  25.380  1.00  0.00    -0.344 N 
ATOM     89  H   UNL A   1      29.317  24.475  25.510  1.00  0.00     0.164 HD
BRANCH  88  90
ATOM     90  C   UNL A   1      30.553  26.005  24.840  1.00  0.00     0.172 C 
ATOM     91  C   UNL A   1      31.155  25.854  23.449  1.00  0.00     0.037 C 
ATOM     92  C   UNL A   1      31.444  26.816  25.826  1.00  0.00     0.249 C 
ATOM     93  C   UNL A   1      31.633  27.196  22.933  1.00  0.00     0.025 C 
ATOM     94  N   UNL A   1      32.302  27.775  25.268  1.00  0.00    -0.308 N 
ATOM     95  O   UNL A   1      31.245  26.704  27.041  1.00  0.00    -0.272 OA
ATOM     96  C   UNL A   1      32.708  27.732  23.860  1.00  0.00     0.126 C 
BRANCH  94  97
ATOM     97  C   UNL A   1      33.013  28.693  26.115  1.00  0.00     0.080 A 
ATOM     98  C   UNL A   1      34.278  28.341  26.612  1.00  0.00     0.029 A 
ATOM     99  C   UNL A   1      32.509  29.961  26.451  1.00  0.00     0.146 A 
ATOM    100  C   UNL A   1      35.027  29.244  27.378  1.00  0.00     0.002 A 
ATOM    101  C   UNL A   1      33.255  30.865  27.207  1.00  0.00     0.041 A 
ATOM    102  F   UNL A   1      31.249  30.307  26.143  1.00  0.00    -0.205 F 
ATOM    103  C   UNL A   1      34.521  30.510  27.665  1.00  0.00     0.003 A 
ENDBRANCH  94  97
ENDBRANCH  88  90
ENDBRANCH  82  86
ENDBRANCH  78  80
ENDBRANCH  77  78
ENDBRANCH  76  77
ENDBRANCH  75  76
ENDBRANCH   1  75
TORSDOF 20
ENDMDL
MODEL 2
REMARK VINA RESULT:     -11.6      6.792     11.942
REMARK SMILES O=C(OCCOCCOC(=O)[C@H]1CC=CC[C@@H]1C(=O)N[C@@H]1CCCN(c2ccccc2F)C1=O)c1ccc(-c2c3nc(c(-c4c(F)cc(S(=O)(=O)[O-])cc4F)c4ccc([nH]4)c(-c4c(F)cc(S(=O)(=O)[O-])cc4F)c4nc(c(-c5c(F)cc(S(=O)(=O)[O-])cc5F)c5ccc2[nH]5)C=C4)C=C3)cc1
REMARK SMILES IDX 6 1 5 2 4 3 3 4 2 5 1 6 35 7 36 8 100 9 37 10 99 11 38 12
REMARK SMILES IDX 39 13 40 14 93 15 41 16 98 17 92 18 94 19 42 20 97 21 91 22
REMARK SMILES IDX 90 23 43 25 77 26 56 27 76 28 57 29 60 30 75 31 95 32 58 33
REMARK SMILES IDX 59 34 74 36 96 37 61 38 44 39 45 40 54 41 46 42 47 43 53 44
REMARK SMILES IDX 55 45 48 46 49 47 50 48 51 49 52 50 78 51 79 52 88 53 80 54
REMARK SMILES IDX 81 55 87 56 89 57 82 58 83 59 84 60 85 61 86 62 62 63 63 64
REMARK SMILES IDX 72 65 64 66 65 67 71 68 73 69 66 70 67 71 68 72 69 73 70 74
REMARK SMILES IDX 7 75 8 76 9 77 10 78 11 79 12 80 13 81 17 82 14 83 16 84
REMARK SMILES IDX 15 85 18 86 19 87 20 88 21 90 22 91 33 92 23 93 25 94 34 95
REMARK SMILES IDX 24 96 26 97 27 98 31 99 28 100 30 101 32 102 29 103
REMARK H PARENT 94 24 60 35 20 89
REMARK Flexibility Score: inf
ROOT
ATOM      1  O   UNL A   1      33.042  31.296  27.269  1.00  0.00    -0.374 OA
ENDROOT
BRANCH   1   2
ATOM      2  C   UNL A   1      34.081  31.944  28.008  1.00  0.00     0.202 C 
BRANCH   2   3
ATOM      3  C   UNL A   1      35.467  31.266  28.086  1.00  0.00     0.261 C 
BRANCH   3   4
ATOM      4  O   UNL A   1      35.983  31.129  29.421  1.00  0.00    -0.460 OA
BRANCH   4   5
ATOM      5  C   UNL A   1      36.713  30.109  29.939  1.00  0.00     0.338 C 
ATOM      6  O   UNL A   1      36.154  29.308  30.687  1.00  0.00    -0.246 OA
BRANCH   5   7
ATOM      7  C   UNL A   1      38.180  29.934  29.692  1.00  0.00     0.060 A 
ATOM      8  C   UNL A   1      38.751  29.767  28.434  1.00  0.00     0.016 A 
ATOM      9  C   UNL A   1      39.053  30.007  30.794  1.00  0.00     0.016 A 
ATOM     10  C   UNL A   1      40.106  29.612  28.253  1.00  0.00     0.010 A 
ATOM     11  C   UNL A   1      40.439  29.871  30.625  1.00  0.00     0.010 A 
ATOM     12  C   UNL A   1      40.955  29.647  29.348  1.00  0.00    -0.014 A 
BRANCH  12  13
ATOM     13  C   UNL A   1      42.338  29.244  29.061  1.00  0.00     0.031 A 
ATOM     14  C   UNL A   1      42.557  27.845  28.575  1.00  0.00     0.074 A 
ATOM     15  C   UNL A   1      43.273  30.205  28.936  1.00  0.00     0.049 A 
ATOM     16  N   UNL A   1      43.646  27.290  28.125  1.00  0.00    -0.248 NA
ATOM     17  C   UNL A   1      41.375  26.964  28.549  1.00  0.00     0.031 C 
ATOM     18  C   UNL A   1      43.048  31.632  29.197  1.00  0.00     0.029 A 
ATOM     19  N   UNL A   1      44.560  30.149  28.479  1.00  0.00    -0.354 N 
ATOM     20  C   UNL A   1      43.287  25.993  27.781  1.00  0.00     0.074 A 
ATOM     21  C   UNL A   1      41.880  25.840  28.068  1.00  0.00     0.031 C 
ATOM     22  C   UNL A   1      44.146  32.319  28.847  1.00  0.00     0.029 A 
ATOM     23  C   UNL A   1      45.171  31.379  28.408  1.00  0.00     0.049 A 
ATOM     24  H   UNL A   1      45.007  29.309  28.225  1.00  0.00     0.167 HD
ATOM     25  C   UNL A   1      44.077  25.021  27.276  1.00  0.00     0.037 A 
ATOM     26  C   UNL A   1      46.429  31.695  28.047  1.00  0.00     0.037 A 
ATOM     27  C   UNL A   1      45.477  25.217  27.020  1.00  0.00     0.049 A 
ATOM     28  C   UNL A   1      47.328  30.569  27.619  1.00  0.00     0.074 A 
ATOM     29  C   UNL A   1      46.429  24.288  26.650  1.00  0.00     0.029 A 
ATOM     30  N   UNL A   1      46.119  26.447  27.109  1.00  0.00    -0.354 N 
ATOM     31  N   UNL A   1      47.024  29.303  27.438  1.00  0.00    -0.248 NA
ATOM     32  C   UNL A   1      48.736  30.894  27.376  1.00  0.00     0.031 C 
ATOM     33  C   UNL A   1      47.657  24.952  26.553  1.00  0.00     0.029 A 
ATOM     34  C   UNL A   1      47.461  26.302  26.813  1.00  0.00     0.049 A 
ATOM     35  H   UNL A   1      45.683  27.295  27.349  1.00  0.00     0.167 HD
ATOM     36  C   UNL A   1      48.204  28.677  27.061  1.00  0.00     0.074 A 
ATOM     37  C   UNL A   1      49.221  29.712  27.017  1.00  0.00     0.031 C 
ATOM     38  C   UNL A   1      48.434  27.368  26.785  1.00  0.00     0.037 A 
BRANCH  25  39
ATOM     39  C   UNL A   1      43.453  23.670  27.077  1.00  0.00     0.058 A 
ATOM     40  C   UNL A   1      43.144  23.224  25.783  1.00  0.00     0.135 A 
ATOM     41  C   UNL A   1      43.215  22.792  28.147  1.00  0.00     0.135 A 
ATOM     42  F   UNL A   1      43.376  24.012  24.722  1.00  0.00    -0.206 F 
ATOM     43  C   UNL A   1      42.624  21.955  25.554  1.00  0.00     0.059 A 
ATOM     44  C   UNL A   1      42.714  21.509  27.939  1.00  0.00     0.059 A 
ATOM     45  F   UNL A   1      43.536  23.152  29.400  1.00  0.00    -0.206 F 
ATOM     46  C   UNL A   1      42.416  21.101  26.638  1.00  0.00     0.060 A 
BRANCH  46  47
ATOM     47  S   UNL A   1      41.822  19.427  26.313  1.00  0.00     0.124 S 
ATOM     48  O   UNL A   1      42.533  19.090  25.085  1.00  0.00    -0.237 OA
ATOM     49  O   UNL A   1      42.246  18.711  27.513  1.00  0.00    -0.237 OA
ATOM     50  O   UNL A   1      40.378  19.601  26.178  1.00  0.00    -0.744 OA
ENDBRANCH  46  47
ENDBRANCH  25  39
BRANCH  26  51
ATOM     51  C   UNL A   1      46.897  33.106  28.132  1.00  0.00     0.058 A 
ATOM     52  C   UNL A   1      46.762  33.973  27.034  1.00  0.00     0.135 A 
ATOM     53  C   UNL A   1      47.525  33.610  29.280  1.00  0.00     0.135 A 
ATOM     54  F   UNL A   1      46.167  33.550  25.909  1.00  0.00    -0.206 F 
ATOM     55  C   UNL A   1      47.270  35.268  27.054  1.00  0.00     0.059 A 
ATOM     56  C   UNL A   1      48.018  34.913  29.335  1.00  0.00     0.059 A 
ATOM     57  F   UNL A   1      47.665  32.830  30.363  1.00  0.00    -0.206 F 
ATOM     58  C   UNL A   1      47.903  35.728  28.207  1.00  0.00     0.060 A 
BRANCH  58  59
ATOM     59  S   UNL A   1      48.571  37.407  28.208  1.00  0.00     0.124 S 
ATOM     60  O   UNL A   1      49.704  37.267  29.123  1.00  0.00    -0.237 OA
ATOM     61  O   UNL A   1      48.919  37.595  26.799  1.00  0.00    -0.237 OA
ATOM     62  O   UNL A   1      47.465  38.213  28.693  1.00  0.00    -0.744 OA
ENDBRANCH  58  59
ENDBRANCH  26  51
BRANCH  38  63
ATOM     63  C   UNL A   1      49.832  26.990  26.405  1.00  0.00     0.058 A 
ATOM     64  C   UNL A   1      50.229  27.018  25.059  1.00  0.00     0.135 A 
ATOM     65  C   UNL A   1      50.744  26.514  27.358  1.00  0.00     0.135 A 
ATOM     66  F   UNL A   1      49.386  27.460  24.113  1.00  0.00    -0.206 F 
ATOM     67  C   UNL A   1      51.481  26.564  24.668  1.00  0.00     0.059 A 
ATOM     68  C   UNL A   1      52.012  26.079  26.991  1.00  0.00     0.059 A 
ATOM     69  F   UNL A   1      50.407  26.481  28.658  1.00  0.00    -0.206 F 
ATOM     70  C   UNL A   1      52.363  26.091  25.641  1.00  0.00     0.060 A 
BRANCH  70  71
ATOM     71  S   UNL A   1      53.988  25.509  25.116  1.00  0.00     0.124 S 
ATOM     72  O   UNL A   1      53.874  24.071  25.339  1.00  0.00    -0.237 OA
ATOM     73  O   UNL A   1      54.031  25.934  23.720  1.00  0.00    -0.237 OA
ATOM     74  O   UNL A   1      54.903  26.214  26.007  1.00  0.00    -0.744 OA
ENDBRANCH  70  71
ENDBRANCH  38  63
ENDBRANCH  12  13
ENDBRANCH   5   7
ENDBRANCH   4   5
ENDBRANCH   3   4
ENDBRANCH   2   3
ENDBRANCH   1   2
BRANCH   1  75
ATOM     75  C   UNL A   1      33.283  29.968  26.794  1.00  0.00     0.202 C 
BRANCH  75  76
ATOM     76  C   UNL A   1      32.171  29.015  27.225  1.00  0.00     0.261 C 
BRANCH  76  77
ATOM     77  O   UNL A   1      31.418  28.700  26.048  1.00  0.00    -0.463 OA
BRANCH  77  78
ATOM     78  C   UNL A   1      31.471  27.405  25.669  1.00  0.00     0.310 C 
ATOM     79  O   UNL A   1      31.755  26.459  26.401  1.00  0.00    -0.252 OA
BRANCH  78  80
ATOM     80  C   UNL A   1      31.159  27.234  24.203  1.00  0.00     0.115 C 
ATOM     81  C   UNL A   1      30.842  28.524  23.424  1.00  0.00     0.043 C 
ATOM     82  C   UNL A   1      32.261  26.392  23.564  1.00  0.00     0.097 C 
ATOM     83  C   UNL A   1      32.027  29.218  22.841  1.00  0.00    -0.030 C 
ATOM     84  C   UNL A   1      33.511  27.255  23.276  1.00  0.00     0.041 C 
ATOM     85  C   UNL A   1      33.240  28.655  22.802  1.00  0.00    -0.030 C 
BRANCH  82  86
ATOM     86  C   UNL A   1      31.721  25.702  22.317  1.00  0.00     0.224 C 
ATOM     87  O   UNL A   1      31.338  26.332  21.330  1.00  0.00    -0.275 OA
ATOM     88  N   UNL A   1      31.657  24.343  22.248  1.00  0.00    -0.344 N 
ATOM     89  H   UNL A   1      31.313  24.002  21.391  1.00  0.00     0.164 HD
BRANCH  88  90
ATOM     90  C   UNL A   1      32.007  23.289  23.215  1.00  0.00     0.172 C 
ATOM     91  C   UNL A   1      31.165  23.481  24.470  1.00  0.00     0.037 C 
ATOM     92  C   UNL A   1      33.541  23.281  23.482  1.00  0.00     0.249 C 
ATOM     93  C   UNL A   1      31.625  22.539  25.563  1.00  0.00     0.025 C 
ATOM     94  N   UNL A   1      33.964  22.850  24.748  1.00  0.00    -0.308 N 
ATOM     95  O   UNL A   1      34.311  23.489  22.539  1.00  0.00    -0.272 OA
ATOM     96  C   UNL A   1      33.070  22.845  25.909  1.00  0.00     0.126 C 
BRANCH  94  97
ATOM     97  C   UNL A   1      35.361  22.631  25.009  1.00  0.00     0.080 A 
ATOM     98  C   UNL A   1      36.182  23.719  25.349  1.00  0.00     0.029 A 
ATOM     99  C   UNL A   1      35.949  21.356  24.971  1.00  0.00     0.146 A 
ATOM    100  C   UNL A   1      37.529  23.526  25.681  1.00  0.00     0.002 A 
ATOM    101  C   UNL A   1      37.289  21.161  25.310  1.00  0.00     0.041 A 
ATOM    102  F   UNL A   1      35.269  20.295  24.509  1.00  0.00    -0.205 F 
ATOM    103  C   UNL A   1      38.079  22.247  25.674  1.00  0.00     0.003 A 
ENDBRANCH  94  97
ENDBRANCH  88  90
ENDBRANCH  82  86
ENDBRANCH  78  80
ENDBRANCH  77  78
ENDBRANCH  76  77
ENDBRANCH  75  76
ENDBRANCH   1  75
TORSDOF 20
ENDMDL
MODEL 3
REMARK VINA RESULT:     -11.5      0.964      8.040
REMARK SMILES O=C(OCCOCCOC(=O)[C@H]1CC=CC[C@@H]1C(=O)N[C@@H]1CCCN(c2ccccc2F)C1=O)c1ccc(-c2c3nc(c(-c4c(F)cc(S(=O)(=O)[O-])cc4F)c4ccc([nH]4)c(-c4c(F)cc(S(=O)(=O)[O-])cc4F)c4nc(c(-c5c(F)cc(S(=O)(=O)[O-])cc5F)c5ccc2[nH]5)C=C4)C=C3)cc1
REMARK SMILES IDX 6 1 5 2 4 3 3 4 2 5 1 6 35 7 36 8 100 9 37 10 99 11 38 12
REMARK SMILES IDX 39 13 40 14 93 15 41 16 98 17 92 18 94 19 42 20 97 21 91 22
REMARK SMILES IDX 90 23 43 25 77 26 56 27 76 28 57 29 60 30 75 31 95 32 58 33
REMARK SMILES IDX 59 34 74 36 96 37 61 38 44 39 45 40 54 41 46 42 47 43 53 44
REMARK SMILES IDX 55 45 48 46 49 47 50 48 51 49 52 50 78 51 79 52 88 53 80 54
REMARK SMILES IDX 81 55 87 56 89 57 82 58 83 59 84 60 85 61 86 62 62 63 63 64
REMARK SMILES IDX 72 65 64 66 65 67 71 68 73 69 66 70 67 71 68 72 69 73 70 74
REMARK SMILES IDX 7 75 8 76 9 77 10 78 11 79 12 80 13 81 17 82 14 83 16 84
REMARK SMILES IDX 15 85 18 86 19 87 20 88 21 90 22 91 33 92 23 93 25 94 34 95
REMARK SMILES IDX 24 96 26 97 27 98 31 99 28 100 30 101 32 102 29 103
REMARK H PARENT 94 24 60 35 20 89
REMARK Flexibility Score: inf
ROOT
ATOM      1  O   UNL A   1      38.588  22.292  26.070  1.00  0.00    -0.374 OA
ENDROOT
BRANCH   1   2
ATOM      2  C   UNL A   1      39.814  21.582  26.274  1.00  0.00     0.202 C 
BRANCH   2   3
ATOM      3  C   UNL A   1      41.071  22.380  26.686  1.00  0.00     0.261 C 
BRANCH   3   4
ATOM      4  O   UNL A   1      40.998  23.787  26.396  1.00  0.00    -0.460 OA
BRANCH   4   5
ATOM      5  C   UNL A   1      41.799  24.782  26.856  1.00  0.00     0.338 C 
ATOM      6  O   UNL A   1      42.955  24.844  26.441  1.00  0.00    -0.246 OA
BRANCH   5   7
ATOM      7  C   UNL A   1      41.366  25.780  27.886  1.00  0.00     0.060 A 
ATOM      8  C   UNL A   1      42.086  26.920  28.228  1.00  0.00     0.016 A 
ATOM      9  C   UNL A   1      40.118  25.592  28.510  1.00  0.00     0.016 A 
ATOM     10  C   UNL A   1      41.648  27.811  29.181  1.00  0.00     0.010 A 
ATOM     11  C   UNL A   1      39.647  26.501  29.469  1.00  0.00     0.010 A 
ATOM     12  C   UNL A   1      40.435  27.598  29.817  1.00  0.00    -0.014 A 
BRANCH  12  13
ATOM     13  C   UNL A   1      40.185  28.480  30.965  1.00  0.00     0.031 A 
ATOM     14  C   UNL A   1      41.200  28.476  32.066  1.00  0.00     0.074 A 
ATOM     15  C   UNL A   1      39.267  29.457  30.836  1.00  0.00     0.049 A 
ATOM     16  N   UNL A   1      41.287  29.249  33.110  1.00  0.00    -0.248 NA
ATOM     17  C   UNL A   1      42.292  27.491  31.951  1.00  0.00     0.031 C 
ATOM     18  C   UNL A   1      38.390  29.632  29.672  1.00  0.00     0.029 A 
ATOM     19  N   UNL A   1      38.979  30.527  31.635  1.00  0.00    -0.354 N 
ATOM     20  C   UNL A   1      42.429  28.836  33.784  1.00  0.00     0.074 A 
ATOM     21  C   UNL A   1      43.008  27.746  33.034  1.00  0.00     0.031 C 
ATOM     22  C   UNL A   1      37.698  30.773  29.814  1.00  0.00     0.029 A 
ATOM     23  C   UNL A   1      38.028  31.368  31.105  1.00  0.00     0.049 A 
ATOM     24  H   UNL A   1      39.410  30.681  32.506  1.00  0.00     0.167 HD
ATOM     25  C   UNL A   1      42.935  29.330  34.935  1.00  0.00     0.037 A 
ATOM     26  C   UNL A   1      37.478  32.481  31.624  1.00  0.00     0.037 A 
ATOM     27  C   UNL A   1      42.316  30.408  35.653  1.00  0.00     0.049 A 
ATOM     28  C   UNL A   1      37.969  32.928  32.973  1.00  0.00     0.074 A 
ATOM     29  C   UNL A   1      42.629  30.913  36.899  1.00  0.00     0.029 A 
ATOM     30  N   UNL A   1      41.243  31.150  35.170  1.00  0.00    -0.354 N 
ATOM     31  N   UNL A   1      38.958  32.440  33.687  1.00  0.00    -0.248 NA
ATOM     32  C   UNL A   1      37.262  34.047  33.603  1.00  0.00     0.031 C 
ATOM     33  C   UNL A   1      41.720  31.938  37.186  1.00  0.00     0.029 A 
ATOM     34  C   UNL A   1      40.872  32.104  36.098  1.00  0.00     0.049 A 
ATOM     35  H   UNL A   1      40.812  31.015  34.297  1.00  0.00     0.167 HD
ATOM     36  C   UNL A   1      38.993  33.190  34.854  1.00  0.00     0.074 A 
ATOM     37  C   UNL A   1      37.939  34.181  34.737  1.00  0.00     0.031 C 
ATOM     38  C   UNL A   1      39.811  33.069  35.930  1.00  0.00     0.037 A 
BRANCH  25  39
ATOM     39  C   UNL A   1      44.140  28.636  35.502  1.00  0.00     0.058 A 
ATOM     40  C   UNL A   1      43.979  27.518  36.334  1.00  0.00     0.135 A 
ATOM     41  C   UNL A   1      45.449  29.031  35.182  1.00  0.00     0.135 A 
ATOM     42  F   UNL A   1      42.750  27.082  36.651  1.00  0.00    -0.206 F 
ATOM     43  C   UNL A   1      45.071  26.812  36.827  1.00  0.00     0.059 A 
ATOM     44  C   UNL A   1      46.557  28.327  35.647  1.00  0.00     0.059 A 
ATOM     45  F   UNL A   1      45.658  30.066  34.352  1.00  0.00    -0.206 F 
ATOM     46  C   UNL A   1      46.358  27.221  36.474  1.00  0.00     0.060 A 
BRANCH  46  47
ATOM     47  S   UNL A   1      47.760  26.241  37.053  1.00  0.00     0.124 S 
ATOM     48  O   UNL A   1      47.365  24.893  36.662  1.00  0.00    -0.237 OA
ATOM     49  O   UNL A   1      48.872  26.822  36.306  1.00  0.00    -0.237 OA
ATOM     50  O   UNL A   1      47.782  26.499  38.491  1.00  0.00    -0.744 OA
ENDBRANCH  46  47
ENDBRANCH  25  39
BRANCH  26  51
ATOM     51  C   UNL A   1      36.391  33.187  30.893  1.00  0.00     0.058 A 
ATOM     52  C   UNL A   1      36.692  34.116  29.881  1.00  0.00     0.135 A 
ATOM     53  C   UNL A   1      35.039  32.992  31.208  1.00  0.00     0.135 A 
ATOM     54  F   UNL A   1      37.968  34.343  29.533  1.00  0.00    -0.206 F 
ATOM     55  C   UNL A   1      35.702  34.855  29.243  1.00  0.00     0.059 A 
ATOM     56  C   UNL A   1      34.024  33.700  30.564  1.00  0.00     0.059 A 
ATOM     57  F   UNL A   1      34.693  32.105  32.155  1.00  0.00    -0.206 F 
ATOM     58  C   UNL A   1      34.370  34.646  29.596  1.00  0.00     0.060 A 
BRANCH  58  59
ATOM     59  S   UNL A   1      33.098  35.627  28.768  1.00  0.00     0.124 S 
ATOM     60  O   UNL A   1      33.911  36.501  27.923  1.00  0.00    -0.237 OA
ATOM     61  O   UNL A   1      32.335  34.599  28.060  1.00  0.00    -0.237 OA
ATOM     62  O   UNL A   1      32.404  36.279  29.864  1.00  0.00    -0.744 OA
ENDBRANCH  58  59
ENDBRANCH  26  51
BRANCH  38  63
ATOM     63  C   UNL A   1      39.602  34.037  37.055  1.00  0.00     0.058 A 
ATOM     64  C   UNL A   1      40.269  35.271  37.056  1.00  0.00     0.135 A 
ATOM     65  C   UNL A   1      38.817  33.703  38.168  1.00  0.00     0.135 A 
ATOM     66  F   UNL A   1      41.036  35.628  36.014  1.00  0.00    -0.206 F 
ATOM     67  C   UNL A   1      40.182  36.136  38.139  1.00  0.00     0.059 A 
ATOM     68  C   UNL A   1      38.695  34.565  39.251  1.00  0.00     0.059 A 
ATOM     69  F   UNL A   1      38.154  32.535  38.201  1.00  0.00    -0.206 F 
ATOM     70  C   UNL A   1      39.397  35.770  39.233  1.00  0.00     0.060 A 
BRANCH  70  71
ATOM     71  S   UNL A   1      39.291  36.907  40.630  1.00  0.00     0.124 S 
ATOM     72  O   UNL A   1      40.699  37.182  40.896  1.00  0.00    -0.237 OA
ATOM     73  O   UNL A   1      38.523  38.014  40.069  1.00  0.00    -0.237 OA
ATOM     74  O   UNL A   1      38.598  36.126  41.649  1.00  0.00    -0.744 OA
ENDBRANCH  70  71
ENDBRANCH  38  63
ENDBRANCH  12  13
ENDBRANCH   5   7
ENDBRANCH   4   5
ENDBRANCH   3   4
ENDBRANCH   2   3
ENDBRANCH   1   2
BRANCH   1  75
ATOM     75  C   UNL A   1      37.693  21.809  25.063  1.00  0.00     0.202 C 
BRANCH  75  76
ATOM     76  C   UNL A   1      36.914  22.954  24.420  1.00  0.00     0.261 C 
BRANCH  76  77
ATOM     77  O   UNL A   1      35.881  22.356  23.627  1.00  0.00    -0.463 OA
BRANCH  77  78
ATOM     78  C   UNL A   1      34.769  23.106  23.483  1.00  0.00     0.310 C 
ATOM     79  O   UNL A   1      34.730  24.240  23.008  1.00  0.00    -0.252 OA
BRANCH  78  80
ATOM     80  C   UNL A   1      33.541  22.400  24.001  1.00  0.00     0.115 C 
ATOM     81  C   UNL A   1      33.750  20.956  24.495  1.00  0.00     0.043 C 
ATOM     82  C   UNL A   1      32.856  23.300  25.027  1.00  0.00     0.097 C 
ATOM     83  C   UNL A   1      34.132  20.828  25.931  1.00  0.00    -0.030 C 
ATOM     84  C   UNL A   1      33.574  23.219  26.393  1.00  0.00     0.041 C 
ATOM     85  C   UNL A   1      34.081  21.859  26.781  1.00  0.00    -0.030 C 
BRANCH  82  86
ATOM     86  C   UNL A   1      31.377  22.942  25.115  1.00  0.00     0.224 C 
ATOM     87  O   UNL A   1      30.987  21.858  25.552  1.00  0.00    -0.275 OA
ATOM     88  N   UNL A   1      30.422  23.831  24.721  1.00  0.00    -0.344 N 
ATOM     89  H   UNL A   1      29.500  23.507  24.841  1.00  0.00     0.164 HD
BRANCH  88  90
ATOM     90  C   UNL A   1      30.511  25.185  24.151  1.00  0.00     0.172 C 
ATOM     91  C   UNL A   1      31.274  25.110  22.834  1.00  0.00     0.037 C 
ATOM     92  C   UNL A   1      31.133  26.172  25.182  1.00  0.00     0.249 C 
ATOM     93  C   UNL A   1      31.556  26.502  22.307  1.00  0.00     0.025 C 
ATOM     94  N   UNL A   1      31.859  27.256  24.668  1.00  0.00    -0.308 N 
ATOM     95  O   UNL A   1      30.829  26.058  26.375  1.00  0.00    -0.272 OA
ATOM     96  C   UNL A   1      32.413  27.250  23.311  1.00  0.00     0.126 C 
BRANCH  94  97
ATOM     97  C   UNL A   1      32.300  28.311  25.539  1.00  0.00     0.080 A 
ATOM     98  C   UNL A   1      31.563  29.504  25.612  1.00  0.00     0.029 A 
ATOM     99  C   UNL A   1      33.435  28.193  26.360  1.00  0.00     0.146 A 
ATOM    100  C   UNL A   1      31.926  30.520  26.506  1.00  0.00     0.002 A 
ATOM    101  C   UNL A   1      33.793  29.201  27.257  1.00  0.00     0.041 A 
ATOM    102  F   UNL A   1      34.271  27.151  26.236  1.00  0.00    -0.205 F 
ATOM    103  C   UNL A   1      33.032  30.363  27.336  1.00  0.00     0.003 A 
ENDBRANCH  94  97
ENDBRANCH  88  90
ENDBRANCH  82  86
ENDBRANCH  78  80
ENDBRANCH  77  78
ENDBRANCH  76  77
ENDBRANCH  75  76
ENDBRANCH   1  75
TORSDOF 20
ENDMDL
