MODEL 1
REMARK VINA RESULT:     -11.5      0.000      0.000
REMARK SMILES O=C(OCCOCCOC(=O)[C@H]1O[C@@H](Oc2c(-c3cc(O)c(O)c(O)c3)oc3cc(O)cc(O)c3c2=O)[C@H](O)[C@@H](O)[C@@H]1O)c1ccc(-c2c3nc(c(-c4c(F)cc(S(=O)(=O)[O-])cc4F)c4ccc([nH]4)c(-c4c(F)cc(S(=O)(=O)[O-])cc4F)c4nc(c(-c5c(F)cc(S(=O)(=O)[O-])cc5F)c5ccc2[nH]5)C=C4)C=C3)cc1
REMARK SMILES IDX 7 1 6 2 5 3 4 4 3 5 2 6 1 7 44 8 45 9 109 10 46 11 108 12
REMARK SMILES IDX 47 13 48 14 49 15 102 16 50 17 107 18 101 19 103 20 51 21
REMARK SMILES IDX 106 22 100 23 99 24 52 26 86 27 65 28 85 29 66 30 69 31
REMARK SMILES IDX 84 32 104 33 67 34 68 35 83 37 105 38 70 39 53 40 54 41
REMARK SMILES IDX 63 42 55 43 56 44 62 45 64 46 57 47 58 48 59 49 60 50 61 51
REMARK SMILES IDX 87 52 88 53 97 54 89 55 90 56 96 57 98 58 91 59 92 60 93 61
REMARK SMILES IDX 94 62 95 63 71 64 72 65 81 66 73 67 74 68 80 69 82 70 75 71
REMARK SMILES IDX 76 72 77 73 78 74 79 75 8 76 9 77 10 78 11 79 12 80 13 81
REMARK SMILES IDX 42 82 14 83 40 84 38 85 43 86 15 88 16 89 17 90 36 91 27 92
REMARK SMILES IDX 35 93 37 94 28 95 33 96 29 97 32 98 30 99 18 100 19 101
REMARK SMILES IDX 26 102 20 103 24 104 22 105 21 106 25 108 23 110 34 112
REMARK SMILES IDX 31 114 41 116 39 118
REMARK H PARENT 103 25 69 36 43 87 21 107 25 109 23 111 34 113 31 115 41 117
REMARK H PARENT 39 119
REMARK Flexibility Score: inf
ROOT
ATOM      1  C   UNL A   1      36.613  21.291  25.276  1.00  0.00     0.202 C 
ENDROOT
BRANCH   1   2
ATOM      2  O   UNL A   1      37.670  20.386  24.959  1.00  0.00    -0.374 OA
BRANCH   2   3
ATOM      3  C   UNL A   1      38.912  20.605  25.608  1.00  0.00     0.202 C 
BRANCH   3   4
ATOM      4  C   UNL A   1      39.733  19.358  25.907  1.00  0.00     0.261 C 
BRANCH   4   5
ATOM      5  O   UNL A   1      41.063  19.533  25.385  1.00  0.00    -0.460 OA
BRANCH   5   6
ATOM      6  C   UNL A   1      42.186  19.760  26.107  1.00  0.00     0.338 C 
ATOM      7  O   UNL A   1      42.898  18.825  26.457  1.00  0.00    -0.246 OA
BRANCH   6   8
ATOM      8  C   UNL A   1      42.605  21.146  26.419  1.00  0.00     0.060 A 
ATOM      9  C   UNL A   1      42.952  21.538  27.706  1.00  0.00     0.016 A 
ATOM     10  C   UNL A   1      42.728  22.074  25.384  1.00  0.00     0.016 A 
ATOM     11  C   UNL A   1      43.292  22.824  28.019  1.00  0.00     0.010 A 
ATOM     12  C   UNL A   1      43.208  23.354  25.664  1.00  0.00     0.010 A 
ATOM     13  C   UNL A   1      43.506  23.714  26.986  1.00  0.00    -0.014 A 
BRANCH  13  14
ATOM     14  C   UNL A   1      44.083  25.003  27.368  1.00  0.00     0.031 A 
ATOM     15  C   UNL A   1      43.182  26.025  27.959  1.00  0.00     0.074 A 
ATOM     16  C   UNL A   1      45.420  25.152  27.286  1.00  0.00     0.049 A 
ATOM     17  N   UNL A   1      43.427  27.277  28.203  1.00  0.00    -0.248 NA
ATOM     18  C   UNL A   1      41.822  25.585  28.324  1.00  0.00     0.031 C 
ATOM     19  C   UNL A   1      46.368  24.106  26.869  1.00  0.00     0.029 A 
ATOM     20  N   UNL A   1      46.223  26.219  27.571  1.00  0.00    -0.354 N 
ATOM     21  C   UNL A   1      42.233  27.799  28.672  1.00  0.00     0.074 A 
ATOM     22  C   UNL A   1      41.274  26.721  28.729  1.00  0.00     0.031 C 
ATOM     23  C   UNL A   1      47.618  24.583  26.940  1.00  0.00     0.029 A 
ATOM     24  C   UNL A   1      47.549  25.993  27.280  1.00  0.00     0.049 A 
ATOM     25  H   UNL A   1      45.887  27.065  27.946  1.00  0.00     0.167 HD
ATOM     26  C   UNL A   1      41.984  29.087  28.983  1.00  0.00     0.037 A 
ATOM     27  C   UNL A   1      48.571  26.864  27.208  1.00  0.00     0.037 A 
ATOM     28  C   UNL A   1      43.000  30.101  28.924  1.00  0.00     0.049 A 
ATOM     29  C   UNL A   1      48.242  28.305  27.479  1.00  0.00     0.074 A 
ATOM     30  C   UNL A   1      42.891  31.451  29.186  1.00  0.00     0.029 A 
ATOM     31  N   UNL A   1      44.325  29.860  28.572  1.00  0.00    -0.354 N 
ATOM     32  N   UNL A   1      47.096  28.826  27.860  1.00  0.00    -0.248 NA
ATOM     33  C   UNL A   1      49.313  29.282  27.274  1.00  0.00     0.031 C 
ATOM     34  C   UNL A   1      44.138  32.035  28.942  1.00  0.00     0.029 A 
ATOM     35  C   UNL A   1      45.037  31.042  28.577  1.00  0.00     0.049 A 
ATOM     36  H   UNL A   1      44.699  28.976  28.354  1.00  0.00     0.167 HD
ATOM     37  C   UNL A   1      47.306  30.193  27.937  1.00  0.00     0.074 A 
ATOM     38  C   UNL A   1      48.701  30.413  27.597  1.00  0.00     0.031 C 
ATOM     39  C   UNL A   1      46.434  31.185  28.240  1.00  0.00     0.037 A 
BRANCH  26  40
ATOM     40  C   UNL A   1      40.571  29.466  29.299  1.00  0.00     0.058 A 
ATOM     41  C   UNL A   1      40.127  29.703  30.606  1.00  0.00     0.135 A 
ATOM     42  C   UNL A   1      39.642  29.600  28.254  1.00  0.00     0.135 A 
ATOM     43  F   UNL A   1      40.963  29.543  31.645  1.00  0.00    -0.206 F 
ATOM     44  C   UNL A   1      38.808  30.065  30.869  1.00  0.00     0.059 A 
ATOM     45  C   UNL A   1      38.326  29.981  28.490  1.00  0.00     0.059 A 
ATOM     46  F   UNL A   1      40.010  29.352  26.987  1.00  0.00    -0.206 F 
ATOM     47  C   UNL A   1      37.918  30.209  29.803  1.00  0.00     0.060 A 
BRANCH  47  48
ATOM     48  S   UNL A   1      36.224  30.722  30.155  1.00  0.00     0.124 S 
ATOM     49  O   UNL A   1      35.504  30.150  29.021  1.00  0.00    -0.237 OA
ATOM     50  O   UNL A   1      35.973  30.094  31.447  1.00  0.00    -0.237 OA
ATOM     51  O   UNL A   1      36.306  32.180  30.174  1.00  0.00    -0.744 OA
ENDBRANCH  47  48
ENDBRANCH  26  40
BRANCH  27  52
ATOM     52  C   UNL A   1      49.917  26.434  26.739  1.00  0.00     0.058 A 
ATOM     53  C   UNL A   1      50.246  26.417  25.376  1.00  0.00     0.135 A 
ATOM     54  C   UNL A   1      50.901  26.000  27.646  1.00  0.00     0.135 A 
ATOM     55  F   UNL A   1      49.347  26.820  24.465  1.00  0.00    -0.206 F 
ATOM     56  C   UNL A   1      51.481  25.955  24.928  1.00  0.00     0.059 A 
ATOM     57  C   UNL A   1      52.155  25.568  27.226  1.00  0.00     0.059 A 
ATOM     58  F   UNL A   1      50.653  26.004  28.966  1.00  0.00    -0.206 F 
ATOM     59  C   UNL A   1      52.426  25.526  25.861  1.00  0.00     0.060 A 
BRANCH  59  60
ATOM     60  S   UNL A   1      54.018  24.913  25.270  1.00  0.00     0.124 S 
ATOM     61  O   UNL A   1      54.287  25.821  24.160  1.00  0.00    -0.237 OA
ATOM     62  O   UNL A   1      54.868  25.074  26.446  1.00  0.00    -0.237 OA
ATOM     63  O   UNL A   1      53.730  23.531  24.899  1.00  0.00    -0.744 OA
ENDBRANCH  59  60
ENDBRANCH  27  52
BRANCH  39  64
ATOM     64  C   UNL A   1      46.977  32.578  28.228  1.00  0.00     0.058 A 
ATOM     65  C   UNL A   1      47.683  33.091  29.326  1.00  0.00     0.135 A 
ATOM     66  C   UNL A   1      46.867  33.368  27.074  1.00  0.00     0.135 A 
ATOM     67  F   UNL A   1      47.797  32.372  30.453  1.00  0.00    -0.206 F 
ATOM     68  C   UNL A   1      48.264  34.349  29.280  1.00  0.00     0.059 A 
ATOM     69  C   UNL A   1      47.466  34.617  26.997  1.00  0.00     0.059 A 
ATOM     70  F   UNL A   1      46.205  32.909  26.000  1.00  0.00    -0.206 F 
ATOM     71  C   UNL A   1      48.159  35.099  28.106  1.00  0.00     0.060 A 
BRANCH  71  72
ATOM     72  S   UNL A   1      48.988  36.698  28.031  1.00  0.00     0.124 S 
ATOM     73  O   UNL A   1      50.219  36.424  28.765  1.00  0.00    -0.237 OA
ATOM     74  O   UNL A   1      49.138  36.903  26.594  1.00  0.00    -0.237 OA
ATOM     75  O   UNL A   1      48.049  37.599  28.693  1.00  0.00    -0.744 OA
ENDBRANCH  71  72
ENDBRANCH  39  64
ENDBRANCH  13  14
ENDBRANCH   6   8
ENDBRANCH   5   6
ENDBRANCH   4   5
ENDBRANCH   3   4
ENDBRANCH   2   3
ENDBRANCH   1   2
BRANCH   1  76
ATOM     76  C   UNL A   1      35.285  20.582  25.036  1.00  0.00     0.261 C 
BRANCH  76  77
ATOM     77  O   UNL A   1      34.236  21.357  25.644  1.00  0.00    -0.461 OA
BRANCH  77  78
ATOM     78  C   UNL A   1      33.214  21.703  24.801  1.00  0.00     0.338 C 
ATOM     79  O   UNL A   1      32.991  21.222  23.705  1.00  0.00    -0.249 OA
BRANCH  78  80
ATOM     80  C   UNL A   1      32.376  22.796  25.442  1.00  0.00     0.263 C 
ATOM     81  O   UNL A   1      31.481  23.194  24.403  1.00  0.00    -0.322 OA
ATOM     82  C   UNL A   1      31.551  22.267  26.612  1.00  0.00     0.186 C 
ATOM     83  C   UNL A   1      30.730  24.343  24.728  1.00  0.00     0.340 C 
ATOM     84  C   UNL A   1      30.583  23.332  27.105  1.00  0.00     0.181 C 
ATOM     85  C   UNL A   1      29.889  24.110  26.003  1.00  0.00     0.214 C 
BRANCH  82  86
ATOM     86  O   UNL A   1      32.326  21.959  27.773  1.00  0.00    -0.387 OA
ATOM     87  H   UNL A   1      32.561  21.018  27.764  1.00  0.00     0.211 HD
ENDBRANCH  82  86
BRANCH  83  88
ATOM     88  O   UNL A   1      29.870  24.776  23.651  1.00  0.00    -0.454 OA
BRANCH  88  89
ATOM     89  C   UNL A   1      29.915  26.136  23.349  1.00  0.00     0.214 A 
ATOM     90  C   UNL A   1      30.983  26.729  22.772  1.00  0.00     0.181 A 
ATOM     91  C   UNL A   1      28.667  26.948  23.528  1.00  0.00     0.239 A 
ATOM     92  O   UNL A   1      31.054  28.061  22.426  1.00  0.00    -0.452 OA
ATOM     93  C   UNL A   1      28.711  28.350  23.034  1.00  0.00     0.111 A 
ATOM     94  O   UNL A   1      27.663  26.436  24.015  1.00  0.00    -0.285 OA
ATOM     95  C   UNL A   1      29.914  28.816  22.500  1.00  0.00     0.146 A 
ATOM     96  C   UNL A   1      27.605  29.216  23.040  1.00  0.00     0.134 A 
ATOM     97  C   UNL A   1      30.018  30.105  21.972  1.00  0.00     0.094 A 
ATOM     98  C   UNL A   1      27.699  30.507  22.502  1.00  0.00     0.093 A 
ATOM     99  C   UNL A   1      28.908  30.936  21.964  1.00  0.00     0.123 A 
BRANCH  90 100
ATOM    100  C   UNL A   1      32.257  26.012  22.557  1.00  0.00     0.029 A 
ATOM    101  C   UNL A   1      33.247  26.066  23.561  1.00  0.00     0.062 A 
ATOM    102  C   UNL A   1      32.397  25.104  21.493  1.00  0.00     0.062 A 
ATOM    103  C   UNL A   1      34.260  25.111  23.573  1.00  0.00     0.162 A 
ATOM    104  C   UNL A   1      33.439  24.185  21.509  1.00  0.00     0.162 A 
ATOM    105  C   UNL A   1      34.360  24.173  22.551  1.00  0.00     0.200 A 
BRANCH 103 106
ATOM    106  O   UNL A   1      35.053  25.018  24.681  1.00  0.00    -0.504 OA
ATOM    107  H   UNL A   1      35.434  24.195  24.918  1.00  0.00     0.293 HD
ENDBRANCH 103 106
BRANCH 104 108
ATOM    108  O   UNL A   1      33.484  23.220  20.544  1.00  0.00    -0.504 OA
ATOM    109  H   UNL A   1      34.261  23.105  20.031  1.00  0.00     0.293 HD
ENDBRANCH 104 108
BRANCH 105 110
ATOM    110  O   UNL A   1      35.323  23.200  22.565  1.00  0.00    -0.502 OA
ATOM    111  H   UNL A   1      35.860  23.063  21.809  1.00  0.00     0.293 HD
ENDBRANCH 105 110
ENDBRANCH  90 100
BRANCH  96 112
ATOM    112  O   UNL A   1      26.398  28.814  23.539  1.00  0.00    -0.507 OA
ATOM    113  H   UNL A   1      25.946  29.350  24.161  1.00  0.00     0.293 HD
ENDBRANCH  96 112
BRANCH  99 114
ATOM    114  O   UNL A   1      29.045  32.166  21.395  1.00  0.00    -0.508 OA
ATOM    115  H   UNL A   1      29.603  32.278  20.650  1.00  0.00     0.293 HD
ENDBRANCH  99 114
ENDBRANCH  88  89
ENDBRANCH  83  88
BRANCH  84 116
ATOM    116  O   UNL A   1      29.618  22.673  27.966  1.00  0.00    -0.387 OA
ATOM    117  H   UNL A   1      30.043  21.923  28.413  1.00  0.00     0.211 HD
ENDBRANCH  84 116
BRANCH  85 118
ATOM    118  O   UNL A   1      29.387  25.337  26.552  1.00  0.00    -0.384 OA
ATOM    119  H   UNL A   1      29.498  25.329  27.515  1.00  0.00     0.211 HD
ENDBRANCH  85 118
ENDBRANCH  78  80
ENDBRANCH  77  78
ENDBRANCH  76  77
ENDBRANCH   1  76
TORSDOF 28
ENDMDL
MODEL 2
REMARK VINA RESULT:     -10.9      1.591      3.392
REMARK SMILES O=C(OCCOCCOC(=O)[C@H]1O[C@@H](Oc2c(-c3cc(O)c(O)c(O)c3)oc3cc(O)cc(O)c3c2=O)[C@H](O)[C@@H](O)[C@@H]1O)c1ccc(-c2c3nc(c(-c4c(F)cc(S(=O)(=O)[O-])cc4F)c4ccc([nH]4)c(-c4c(F)cc(S(=O)(=O)[O-])cc4F)c4nc(c(-c5c(F)cc(S(=O)(=O)[O-])cc5F)c5ccc2[nH]5)C=C4)C=C3)cc1
REMARK SMILES IDX 7 1 6 2 5 3 4 4 3 5 2 6 1 7 44 8 45 9 109 10 46 11 108 12
REMARK SMILES IDX 47 13 48 14 49 15 102 16 50 17 107 18 101 19 103 20 51 21
REMARK SMILES IDX 106 22 100 23 99 24 52 26 86 27 65 28 85 29 66 30 69 31
REMARK SMILES IDX 84 32 104 33 67 34 68 35 83 37 105 38 70 39 53 40 54 41
REMARK SMILES IDX 63 42 55 43 56 44 62 45 64 46 57 47 58 48 59 49 60 50 61 51
REMARK SMILES IDX 87 52 88 53 97 54 89 55 90 56 96 57 98 58 91 59 92 60 93 61
REMARK SMILES IDX 94 62 95 63 71 64 72 65 81 66 73 67 74 68 80 69 82 70 75 71
REMARK SMILES IDX 76 72 77 73 78 74 79 75 8 76 9 77 10 78 11 79 12 80 13 81
REMARK SMILES IDX 42 82 14 83 40 84 38 85 43 86 15 88 16 89 17 90 36 91 27 92
REMARK SMILES IDX 35 93 37 94 28 95 33 96 29 97 32 98 30 99 18 100 19 101
REMARK SMILES IDX 26 102 20 103 24 104 22 105 21 106 25 108 23 110 34 112
REMARK SMILES IDX 31 114 41 116 39 118
REMARK H PARENT 103 25 69 36 43 87 21 107 25 109 23 111 34 113 31 115 41 117
REMARK H PARENT 39 119
REMARK Flexibility Score: inf
ROOT
ATOM      1  C   UNL A   1      37.142  22.260  24.852  1.00  0.00     0.202 C 
ENDROOT
BRANCH   1   2
ATOM      2  O   UNL A   1      38.415  21.668  25.105  1.00  0.00    -0.374 OA
BRANCH   2   3
ATOM      3  C   UNL A   1      38.412  20.408  25.757  1.00  0.00     0.202 C 
BRANCH   3   4
ATOM      4  C   UNL A   1      39.634  19.532  25.511  1.00  0.00     0.261 C 
BRANCH   4   5
ATOM      5  O   UNL A   1      40.683  19.922  26.417  1.00  0.00    -0.460 OA
BRANCH   5   6
ATOM      6  C   UNL A   1      41.930  20.323  26.076  1.00  0.00     0.338 C 
ATOM      7  O   UNL A   1      42.663  19.584  25.426  1.00  0.00    -0.246 OA
BRANCH   6   8
ATOM      8  C   UNL A   1      42.397  21.685  26.421  1.00  0.00     0.060 A 
ATOM      9  C   UNL A   1      42.805  22.019  27.706  1.00  0.00     0.016 A 
ATOM     10  C   UNL A   1      42.502  22.648  25.416  1.00  0.00     0.016 A 
ATOM     11  C   UNL A   1      43.191  23.285  28.052  1.00  0.00     0.010 A 
ATOM     12  C   UNL A   1      43.026  23.905  25.723  1.00  0.00     0.010 A 
ATOM     13  C   UNL A   1      43.386  24.208  27.044  1.00  0.00    -0.014 A 
BRANCH  13  14
ATOM     14  C   UNL A   1      44.010  25.467  27.449  1.00  0.00     0.031 A 
ATOM     15  C   UNL A   1      43.181  26.452  28.189  1.00  0.00     0.074 A 
ATOM     16  C   UNL A   1      45.334  25.615  27.247  1.00  0.00     0.049 A 
ATOM     17  N   UNL A   1      43.462  27.685  28.487  1.00  0.00    -0.248 NA
ATOM     18  C   UNL A   1      41.860  25.995  28.656  1.00  0.00     0.031 C 
ATOM     19  C   UNL A   1      46.227  24.594  26.672  1.00  0.00     0.029 A 
ATOM     20  N   UNL A   1      46.173  26.658  27.519  1.00  0.00    -0.354 N 
ATOM     21  C   UNL A   1      42.326  28.180  29.103  1.00  0.00     0.074 A 
ATOM     22  C   UNL A   1      41.365  27.105  29.185  1.00  0.00     0.031 C 
ATOM     23  C   UNL A   1      47.483  25.061  26.651  1.00  0.00     0.029 A 
ATOM     24  C   UNL A   1      47.462  26.447  27.086  1.00  0.00     0.049 A 
ATOM     25  H   UNL A   1      45.884  27.480  27.978  1.00  0.00     0.167 HD
ATOM     26  C   UNL A   1      42.121  29.447  29.518  1.00  0.00     0.037 A 
ATOM     27  C   UNL A   1      48.481  27.316  26.969  1.00  0.00     0.037 A 
ATOM     28  C   UNL A   1      43.137  30.458  29.425  1.00  0.00     0.049 A 
ATOM     29  C   UNL A   1      48.194  28.738  27.362  1.00  0.00     0.074 A 
ATOM     30  C   UNL A   1      43.067  31.789  29.781  1.00  0.00     0.029 A 
ATOM     31  N   UNL A   1      44.418  30.235  28.931  1.00  0.00    -0.354 N 
ATOM     32  N   UNL A   1      47.096  29.238  27.886  1.00  0.00    -0.248 NA
ATOM     33  C   UNL A   1      49.251  29.722  27.117  1.00  0.00     0.031 C 
ATOM     34  C   UNL A   1      44.291  32.383  29.454  1.00  0.00     0.029 A 
ATOM     35  C   UNL A   1      45.140  31.411  28.940  1.00  0.00     0.049 A 
ATOM     36  H   UNL A   1      44.761  29.365  28.621  1.00  0.00     0.167 HD
ATOM     37  C   UNL A   1      47.327  30.596  28.029  1.00  0.00     0.074 A 
ATOM     38  C   UNL A   1      48.684  30.832  27.569  1.00  0.00     0.031 C 
ATOM     39  C   UNL A   1      46.499  31.570  28.478  1.00  0.00     0.037 A 
BRANCH  26  40
ATOM     40  C   UNL A   1      40.749  29.811  29.994  1.00  0.00     0.058 A 
ATOM     41  C   UNL A   1      39.668  29.981  29.120  1.00  0.00     0.135 A 
ATOM     42  C   UNL A   1      40.518  29.986  31.368  1.00  0.00     0.135 A 
ATOM     43  F   UNL A   1      39.845  29.870  27.793  1.00  0.00    -0.206 F 
ATOM     44  C   UNL A   1      38.400  30.309  29.592  1.00  0.00     0.059 A 
ATOM     45  C   UNL A   1      39.256  30.293  31.864  1.00  0.00     0.059 A 
ATOM     46  F   UNL A   1      41.529  29.866  32.243  1.00  0.00    -0.206 F 
ATOM     47  C   UNL A   1      38.203  30.454  30.966  1.00  0.00     0.060 A 
BRANCH  47  48
ATOM     48  S   UNL A   1      36.544  30.835  31.566  1.00  0.00     0.124 S 
ATOM     49  O   UNL A   1      35.790  29.675  31.099  1.00  0.00    -0.237 OA
ATOM     50  O   UNL A   1      36.748  30.918  33.008  1.00  0.00    -0.237 OA
ATOM     51  O   UNL A   1      36.224  32.098  30.907  1.00  0.00    -0.744 OA
ENDBRANCH  47  48
ENDBRANCH  26  40
BRANCH  27  52
ATOM     52  C   UNL A   1      49.770  26.911  26.345  1.00  0.00     0.058 A 
ATOM     53  C   UNL A   1      50.005  27.087  24.974  1.00  0.00     0.135 A 
ATOM     54  C   UNL A   1      50.791  26.310  27.104  1.00  0.00     0.135 A 
ATOM     55  F   UNL A   1      49.067  27.655  24.200  1.00  0.00    -0.206 F 
ATOM     56  C   UNL A   1      51.184  26.652  24.373  1.00  0.00     0.059 A 
ATOM     57  C   UNL A   1      51.992  25.900  26.533  1.00  0.00     0.059 A 
ATOM     58  F   UNL A   1      50.633  26.126  28.424  1.00  0.00    -0.206 F 
ATOM     59  C   UNL A   1      52.169  26.053  25.161  1.00  0.00     0.060 A 
BRANCH  59  60
ATOM     60  S   UNL A   1      53.686  25.477  24.370  1.00  0.00     0.124 S 
ATOM     61  O   UNL A   1      53.427  25.799  22.972  1.00  0.00    -0.237 OA
ATOM     62  O   UNL A   1      54.706  26.285  25.033  1.00  0.00    -0.237 OA
ATOM     63  O   UNL A   1      53.716  24.054  24.697  1.00  0.00    -0.744 OA
ENDBRANCH  59  60
ENDBRANCH  27  52
BRANCH  39  64
ATOM     64  C   UNL A   1      47.052  32.959  28.502  1.00  0.00     0.058 A 
ATOM     65  C   UNL A   1      47.834  33.410  29.576  1.00  0.00     0.135 A 
ATOM     66  C   UNL A   1      46.874  33.808  27.400  1.00  0.00     0.135 A 
ATOM     67  F   UNL A   1      48.015  32.633  30.655  1.00  0.00    -0.206 F 
ATOM     68  C   UNL A   1      48.422  34.665  29.556  1.00  0.00     0.059 A 
ATOM     69  C   UNL A   1      47.478  35.056  27.347  1.00  0.00     0.059 A 
ATOM     70  F   UNL A   1      46.139  33.409  26.350  1.00  0.00    -0.206 F 
ATOM     71  C   UNL A   1      48.247  35.476  28.432  1.00  0.00     0.060 A 
BRANCH  71  72
ATOM     72  S   UNL A   1      49.084  37.072  28.385  1.00  0.00     0.124 S 
ATOM     73  O   UNL A   1      50.473  36.668  28.198  1.00  0.00    -0.237 OA
ATOM     74  O   UNL A   1      48.452  37.721  27.239  1.00  0.00    -0.237 OA
ATOM     75  O   UNL A   1      48.769  37.659  29.683  1.00  0.00    -0.744 OA
ENDBRANCH  71  72
ENDBRANCH  39  64
ENDBRANCH  13  14
ENDBRANCH   6   8
ENDBRANCH   5   6
ENDBRANCH   4   5
ENDBRANCH   3   4
ENDBRANCH   2   3
ENDBRANCH   1   2
BRANCH   1  76
ATOM     76  C   UNL A   1      36.122  21.143  24.659  1.00  0.00     0.261 C 
BRANCH  76  77
ATOM     77  O   UNL A   1      34.871  21.561  25.234  1.00  0.00    -0.461 OA
BRANCH  77  78
ATOM     78  C   UNL A   1      34.142  22.423  24.459  1.00  0.00     0.338 C 
ATOM     79  O   UNL A   1      34.109  22.446  23.243  1.00  0.00    -0.249 OA
BRANCH  78  80
ATOM     80  C   UNL A   1      33.359  23.370  25.354  1.00  0.00     0.263 C 
ATOM     81  O   UNL A   1      33.027  24.458  24.492  1.00  0.00    -0.322 OA
ATOM     82  C   UNL A   1      32.062  22.738  25.853  1.00  0.00     0.186 C 
ATOM     83  C   UNL A   1      32.455  25.552  25.175  1.00  0.00     0.340 C 
ATOM     84  C   UNL A   1      31.214  23.768  26.581  1.00  0.00     0.181 C 
ATOM     85  C   UNL A   1      31.163  25.129  25.909  1.00  0.00     0.214 C 
BRANCH  82  86
ATOM     86  O   UNL A   1      32.258  21.716  26.833  1.00  0.00    -0.387 OA
ATOM     87  H   UNL A   1      31.723  21.915  27.618  1.00  0.00     0.211 HD
ENDBRANCH  82  86
BRANCH  83  88
ATOM     88  O   UNL A   1      32.176  26.674  24.308  1.00  0.00    -0.454 OA
BRANCH  88  89
ATOM     89  C   UNL A   1      32.382  27.935  24.864  1.00  0.00     0.214 A 
ATOM     90  C   UNL A   1      31.463  28.923  24.813  1.00  0.00     0.181 A 
ATOM     91  C   UNL A   1      33.614  28.156  25.692  1.00  0.00     0.239 A 
ATOM     92  O   UNL A   1      31.613  30.170  25.380  1.00  0.00    -0.452 OA
ATOM     93  C   UNL A   1      33.708  29.458  26.405  1.00  0.00     0.111 A 
ATOM     94  O   UNL A   1      34.455  27.269  25.794  1.00  0.00    -0.285 OA
ATOM     95  C   UNL A   1      32.683  30.386  26.207  1.00  0.00     0.146 A 
ATOM     96  C   UNL A   1      34.745  29.790  27.292  1.00  0.00     0.134 A 
ATOM     97  C   UNL A   1      32.678  31.610  26.880  1.00  0.00     0.094 A 
ATOM     98  C   UNL A   1      34.742  31.012  27.978  1.00  0.00     0.093 A 
ATOM     99  C   UNL A   1      33.698  31.908  27.770  1.00  0.00     0.123 A 
BRANCH  90 100
ATOM    100  C   UNL A   1      30.221  28.798  24.022  1.00  0.00     0.029 A 
ATOM    101  C   UNL A   1      29.578  27.545  23.958  1.00  0.00     0.062 A 
ATOM    102  C   UNL A   1      29.562  29.942  23.539  1.00  0.00     0.062 A 
ATOM    103  C   UNL A   1      28.241  27.481  23.571  1.00  0.00     0.162 A 
ATOM    104  C   UNL A   1      28.239  29.846  23.123  1.00  0.00     0.162 A 
ATOM    105  C   UNL A   1      27.572  28.626  23.153  1.00  0.00     0.200 A 
BRANCH 103 106
ATOM    106  O   UNL A   1      27.564  26.310  23.760  1.00  0.00    -0.504 OA
ATOM    107  H   UNL A   1      27.306  26.051  24.623  1.00  0.00     0.293 HD
ENDBRANCH 103 106
BRANCH 104 108
ATOM    108  O   UNL A   1      27.567  30.986  22.788  1.00  0.00    -0.504 OA
ATOM    109  H   UNL A   1      27.646  31.752  23.324  1.00  0.00     0.293 HD
ENDBRANCH 104 108
BRANCH 105 110
ATOM    110  O   UNL A   1      26.248  28.595  22.809  1.00  0.00    -0.502 OA
ATOM    111  H   UNL A   1      25.968  28.094  22.067  1.00  0.00     0.293 HD
ENDBRANCH 105 110
ENDBRANCH  90 100
BRANCH  96 112
ATOM    112  O   UNL A   1      35.770  28.920  27.535  1.00  0.00    -0.507 OA
ATOM    113  H   UNL A   1      36.659  29.207  27.456  1.00  0.00     0.293 HD
ENDBRANCH  96 112
BRANCH  99 114
ATOM    114  O   UNL A   1      33.625  33.093  28.439  1.00  0.00    -0.508 OA
ATOM    115  H   UNL A   1      32.799  33.399  28.761  1.00  0.00     0.293 HD
ENDBRANCH  99 114
ENDBRANCH  88  89
ENDBRANCH  83  88
BRANCH  84 116
ATOM    116  O   UNL A   1      29.882  23.207  26.725  1.00  0.00    -0.387 OA
ATOM    117  H   UNL A   1      29.839  22.356  26.262  1.00  0.00     0.211 HD
ENDBRANCH  84 116
BRANCH  85 118
ATOM    118  O   UNL A   1      30.745  26.103  26.875  1.00  0.00    -0.384 OA
ATOM    119  H   UNL A   1      31.122  25.882  27.741  1.00  0.00     0.211 HD
ENDBRANCH  85 118
ENDBRANCH  78  80
ENDBRANCH  77  78
ENDBRANCH  76  77
ENDBRANCH   1  76
TORSDOF 28
ENDMDL
MODEL 3
REMARK VINA RESULT:     -10.4      6.709     15.357
REMARK SMILES O=C(OCCOCCOC(=O)[C@H]1O[C@@H](Oc2c(-c3cc(O)c(O)c(O)c3)oc3cc(O)cc(O)c3c2=O)[C@H](O)[C@@H](O)[C@@H]1O)c1ccc(-c2c3nc(c(-c4c(F)cc(S(=O)(=O)[O-])cc4F)c4ccc([nH]4)c(-c4c(F)cc(S(=O)(=O)[O-])cc4F)c4nc(c(-c5c(F)cc(S(=O)(=O)[O-])cc5F)c5ccc2[nH]5)C=C4)C=C3)cc1
REMARK SMILES IDX 7 1 6 2 5 3 4 4 3 5 2 6 1 7 44 8 45 9 109 10 46 11 108 12
REMARK SMILES IDX 47 13 48 14 49 15 102 16 50 17 107 18 101 19 103 20 51 21
REMARK SMILES IDX 106 22 100 23 99 24 52 26 86 27 65 28 85 29 66 30 69 31
REMARK SMILES IDX 84 32 104 33 67 34 68 35 83 37 105 38 70 39 53 40 54 41
REMARK SMILES IDX 63 42 55 43 56 44 62 45 64 46 57 47 58 48 59 49 60 50 61 51
REMARK SMILES IDX 87 52 88 53 97 54 89 55 90 56 96 57 98 58 91 59 92 60 93 61
REMARK SMILES IDX 94 62 95 63 71 64 72 65 81 66 73 67 74 68 80 69 82 70 75 71
REMARK SMILES IDX 76 72 77 73 78 74 79 75 8 76 9 77 10 78 11 79 12 80 13 81
REMARK SMILES IDX 42 82 14 83 40 84 38 85 43 86 15 88 16 89 17 90 36 91 27 92
REMARK SMILES IDX 35 93 37 94 28 95 33 96 29 97 32 98 30 99 18 100 19 101
REMARK SMILES IDX 26 102 20 103 24 104 22 105 21 106 25 108 23 110 34 112
REMARK SMILES IDX 31 114 41 116 39 118
REMARK H PARENT 103 25 69 36 43 87 21 107 25 109 23 111 34 113 31 115 41 117
REMARK H PARENT 39 119
REMARK Flexibility Score: inf
ROOT
ATOM      1  C   UNL A   1      46.953  40.600  28.641  1.00  0.00     0.202 C 
ENDROOT
BRANCH   1   2
ATOM      2  O   UNL A   1      47.439  39.510  27.859  1.00  0.00    -0.374 OA
BRANCH   2   3
ATOM      3  C   UNL A   1      47.733  38.308  28.555  1.00  0.00     0.202 C 
BRANCH   3   4
ATOM      4  C   UNL A   1      47.088  38.161  29.926  1.00  0.00     0.261 C 
BRANCH   4   5
ATOM      5  O   UNL A   1      47.908  37.306  30.743  1.00  0.00    -0.460 OA
BRANCH   5   6
ATOM      6  C   UNL A   1      48.623  36.237  30.321  1.00  0.00     0.338 C 
ATOM      7  O   UNL A   1      49.849  36.269  30.326  1.00  0.00    -0.246 OA
BRANCH   6   8
ATOM      8  C   UNL A   1      47.933  34.990  29.917  1.00  0.00     0.060 A 
ATOM      9  C   UNL A   1      47.607  34.726  28.592  1.00  0.00     0.016 A 
ATOM     10  C   UNL A   1      47.664  34.014  30.878  1.00  0.00     0.016 A 
ATOM     11  C   UNL A   1      46.926  33.603  28.210  1.00  0.00     0.010 A 
ATOM     12  C   UNL A   1      47.095  32.802  30.483  1.00  0.00     0.010 A 
ATOM     13  C   UNL A   1      46.746  32.599  29.139  1.00  0.00    -0.014 A 
BRANCH  13  14
ATOM     14  C   UNL A   1      46.215  31.340  28.618  1.00  0.00     0.031 A 
ATOM     15  C   UNL A   1      44.758  31.087  28.750  1.00  0.00     0.074 A 
ATOM     16  C   UNL A   1      47.049  30.532  27.933  1.00  0.00     0.049 A 
ATOM     17  N   UNL A   1      44.103  29.988  28.527  1.00  0.00    -0.248 NA
ATOM     18  C   UNL A   1      43.922  32.220  29.190  1.00  0.00     0.031 C 
ATOM     19  C   UNL A   1      48.460  30.825  27.631  1.00  0.00     0.029 A 
ATOM     20  N   UNL A   1      46.839  29.320  27.340  1.00  0.00    -0.354 N 
ATOM     21  C   UNL A   1      42.793  30.266  28.878  1.00  0.00     0.074 A 
ATOM     22  C   UNL A   1      42.729  31.651  29.281  1.00  0.00     0.031 C 
ATOM     23  C   UNL A   1      48.976  29.827  26.902  1.00  0.00     0.029 A 
ATOM     24  C   UNL A   1      47.979  28.776  26.796  1.00  0.00     0.049 A 
ATOM     25  H   UNL A   1      45.958  28.879  27.306  1.00  0.00     0.167 HD
ATOM     26  C   UNL A   1      41.760  29.398  28.887  1.00  0.00     0.037 A 
ATOM     27  C   UNL A   1      48.206  27.528  26.351  1.00  0.00     0.037 A 
ATOM     28  C   UNL A   1      41.897  28.037  28.448  1.00  0.00     0.049 A 
ATOM     29  C   UNL A   1      47.058  26.563  26.453  1.00  0.00     0.074 A 
ATOM     30  C   UNL A   1      40.948  27.037  28.423  1.00  0.00     0.029 A 
ATOM     31  N   UNL A   1      43.077  27.492  27.953  1.00  0.00    -0.354 N 
ATOM     32  N   UNL A   1      45.825  26.795  26.848  1.00  0.00    -0.248 NA
ATOM     33  C   UNL A   1      47.327  25.168  26.096  1.00  0.00     0.031 C 
ATOM     34  C   UNL A   1      41.568  25.871  27.962  1.00  0.00     0.029 A 
ATOM     35  C   UNL A   1      42.891  26.158  27.651  1.00  0.00     0.049 A 
ATOM     36  H   UNL A   1      43.921  27.985  27.833  1.00  0.00     0.167 HD
ATOM     37  C   UNL A   1      45.172  25.575  26.792  1.00  0.00     0.074 A 
ATOM     38  C   UNL A   1      46.138  24.615  26.290  1.00  0.00     0.031 C 
ATOM     39  C   UNL A   1      43.900  25.261  27.138  1.00  0.00     0.037 A 
BRANCH  26  40
ATOM     40  C   UNL A   1      40.465  29.864  29.476  1.00  0.00     0.058 A 
ATOM     41  C   UNL A   1      40.312  30.141  30.841  1.00  0.00     0.135 A 
ATOM     42  C   UNL A   1      39.350  30.042  28.640  1.00  0.00     0.135 A 
ATOM     43  F   UNL A   1      41.334  29.942  31.691  1.00  0.00    -0.206 F 
ATOM     44  C   UNL A   1      39.098  30.583  31.359  1.00  0.00     0.059 A 
ATOM     45  C   UNL A   1      38.134  30.503  29.131  1.00  0.00     0.059 A 
ATOM     46  F   UNL A   1      39.437  29.759  27.331  1.00  0.00    -0.206 F 
ATOM     47  C   UNL A   1      38.018  30.769  30.494  1.00  0.00     0.060 A 
BRANCH  47  48
ATOM     48  S   UNL A   1      36.464  31.386  31.173  1.00  0.00     0.124 S 
ATOM     49  O   UNL A   1      35.819  31.930  29.981  1.00  0.00    -0.237 OA
ATOM     50  O   UNL A   1      35.863  30.175  31.721  1.00  0.00    -0.237 OA
ATOM     51  O   UNL A   1      36.890  32.374  32.160  1.00  0.00    -0.744 OA
ENDBRANCH  47  48
ENDBRANCH  26  40
BRANCH  27  52
ATOM     52  C   UNL A   1      49.565  27.099  25.920  1.00  0.00     0.058 A 
ATOM     53  C   UNL A   1      49.955  27.148  24.575  1.00  0.00     0.135 A 
ATOM     54  C   UNL A   1      50.501  26.602  26.847  1.00  0.00     0.135 A 
ATOM     55  F   UNL A   1      49.104  27.613  23.647  1.00  0.00    -0.206 F 
ATOM     56  C   UNL A   1      51.202  26.689  24.158  1.00  0.00     0.059 A 
ATOM     57  C   UNL A   1      51.766  26.171  26.460  1.00  0.00     0.059 A 
ATOM     58  F   UNL A   1      50.193  26.543  28.152  1.00  0.00    -0.206 F 
ATOM     59  C   UNL A   1      52.098  26.195  25.108  1.00  0.00     0.060 A 
BRANCH  59  60
ATOM     60  S   UNL A   1      53.706  25.587  24.557  1.00  0.00     0.124 S 
ATOM     61  O   UNL A   1      53.496  24.144  24.583  1.00  0.00    -0.237 OA
ATOM     62  O   UNL A   1      53.828  26.190  23.234  1.00  0.00    -0.237 OA
ATOM     63  O   UNL A   1      54.626  26.110  25.563  1.00  0.00    -0.744 OA
ENDBRANCH  59  60
ENDBRANCH  27  52
BRANCH  39  64
ATOM     64  C   UNL A   1      43.495  23.832  26.967  1.00  0.00     0.058 A 
ATOM     65  C   UNL A   1      43.415  22.963  28.065  1.00  0.00     0.135 A 
ATOM     66  C   UNL A   1      43.097  23.359  25.708  1.00  0.00     0.135 A 
ATOM     67  F   UNL A   1      43.801  23.374  29.283  1.00  0.00    -0.206 F 
ATOM     68  C   UNL A   1      42.953  21.665  27.918  1.00  0.00     0.059 A 
ATOM     69  C   UNL A   1      42.603  22.072  25.545  1.00  0.00     0.059 A 
ATOM     70  F   UNL A   1      43.151  24.163  24.633  1.00  0.00    -0.206 F 
ATOM     71  C   UNL A   1      42.538  21.232  26.656  1.00  0.00     0.060 A 
BRANCH  71  72
ATOM     72  S   UNL A   1      41.863  19.569  26.497  1.00  0.00     0.124 S 
ATOM     73  O   UNL A   1      40.432  19.841  26.415  1.00  0.00    -0.237 OA
ATOM     74  O   UNL A   1      42.490  19.096  25.266  1.00  0.00    -0.237 OA
ATOM     75  O   UNL A   1      42.308  18.903  27.717  1.00  0.00    -0.744 OA
ENDBRANCH  71  72
ENDBRANCH  39  64
ENDBRANCH  13  14
ENDBRANCH   6   8
ENDBRANCH   5   6
ENDBRANCH   4   5
ENDBRANCH   3   4
ENDBRANCH   2   3
ENDBRANCH   1   2
BRANCH   1  76
ATOM     76  C   UNL A   1      46.607  41.749  27.700  1.00  0.00     0.261 C 
BRANCH  76  77
ATOM     77  O   UNL A   1      45.705  41.259  26.693  1.00  0.00    -0.461 OA
BRANCH  77  78
ATOM     78  C   UNL A   1      45.845  41.843  25.462  1.00  0.00     0.338 C 
ATOM     79  O   UNL A   1      46.887  41.990  24.849  1.00  0.00    -0.249 OA
BRANCH  78  80
ATOM     80  C   UNL A   1      44.485  42.291  24.955  1.00  0.00     0.263 C 
ATOM     81  O   UNL A   1      44.539  42.030  23.553  1.00  0.00    -0.322 OA
ATOM     82  C   UNL A   1      43.353  41.461  25.556  1.00  0.00     0.186 C 
ATOM     83  C   UNL A   1      43.436  42.552  22.847  1.00  0.00     0.340 C 
ATOM     84  C   UNL A   1      42.031  41.801  24.886  1.00  0.00     0.181 C 
ATOM     85  C   UNL A   1      42.111  41.961  23.379  1.00  0.00     0.214 C 
BRANCH  82  86
ATOM     86  O   UNL A   1      43.106  41.734  26.937  1.00  0.00    -0.387 OA
ATOM     87  H   UNL A   1      42.292  41.287  27.214  1.00  0.00     0.211 HD
ENDBRANCH  82  86
BRANCH  83  88
ATOM     88  O   UNL A   1      43.526  42.338  21.421  1.00  0.00    -0.454 OA
BRANCH  88  89
ATOM     89  C   UNL A   1      43.509  43.487  20.634  1.00  0.00     0.214 A 
ATOM     90  C   UNL A   1      44.608  44.236  20.395  1.00  0.00     0.181 A 
ATOM     91  C   UNL A   1      42.250  43.823  19.890  1.00  0.00     0.239 A 
ATOM     92  O   UNL A   1      44.641  45.357  19.595  1.00  0.00    -0.452 OA
ATOM     93  C   UNL A   1      42.329  44.957  18.930  1.00  0.00     0.111 A 
ATOM     94  O   UNL A   1      41.240  43.145  20.050  1.00  0.00    -0.285 OA
ATOM     95  C   UNL A   1      43.538  45.650  18.838  1.00  0.00     0.146 A 
ATOM     96  C   UNL A   1      41.273  45.344  18.088  1.00  0.00     0.134 A 
ATOM     97  C   UNL A   1      43.703  46.696  17.926  1.00  0.00     0.094 A 
ATOM     98  C   UNL A   1      41.435  46.384  17.163  1.00  0.00     0.093 A 
ATOM     99  C   UNL A   1      42.656  47.045  17.086  1.00  0.00     0.123 A 
BRANCH  90 100
ATOM    100  C   UNL A   1      45.892  43.983  21.082  1.00  0.00     0.029 A 
ATOM    101  C   UNL A   1      46.733  42.960  20.598  1.00  0.00     0.062 A 
ATOM    102  C   UNL A   1      46.379  44.886  22.043  1.00  0.00     0.062 A 
ATOM    103  C   UNL A   1      48.080  42.957  20.954  1.00  0.00     0.162 A 
ATOM    104  C   UNL A   1      47.719  44.839  22.411  1.00  0.00     0.162 A 
ATOM    105  C   UNL A   1      48.574  43.891  21.858  1.00  0.00     0.200 A 
BRANCH 103 106
ATOM    106  O   UNL A   1      48.928  42.124  20.283  1.00  0.00    -0.504 OA
ATOM    107  H   UNL A   1      48.584  41.428  19.757  1.00  0.00     0.293 HD
ENDBRANCH 103 106
BRANCH 104 108
ATOM    108  O   UNL A   1      48.212  45.807  23.238  1.00  0.00    -0.504 OA
ATOM    109  H   UNL A   1      48.339  46.678  22.917  1.00  0.00     0.293 HD
ENDBRANCH 104 108
BRANCH 105 110
ATOM    110  O   UNL A   1      49.901  43.933  22.190  1.00  0.00    -0.502 OA
ATOM    111  H   UNL A   1      50.551  43.726  21.547  1.00  0.00     0.293 HD
ENDBRANCH 105 110
ENDBRANCH  90 100
BRANCH  96 112
ATOM    112  O   UNL A   1      40.071  44.696  18.124  1.00  0.00    -0.507 OA
ATOM    113  H   UNL A   1      40.042  43.759  18.124  1.00  0.00     0.293 HD
ENDBRANCH  96 112
BRANCH  99 114
ATOM    114  O   UNL A   1      42.881  48.038  16.180  1.00  0.00    -0.508 OA
ATOM    115  H   UNL A   1      43.713  48.103  15.753  1.00  0.00     0.293 HD
ENDBRANCH  99 114
ENDBRANCH  88  89
ENDBRANCH  83  88
BRANCH  84 116
ATOM    116  O   UNL A   1      41.083  40.764  25.251  1.00  0.00    -0.387 OA
ATOM    117  H   UNL A   1      40.552  41.063  26.007  1.00  0.00     0.211 HD
ENDBRANCH  84 116
BRANCH  85 118
ATOM    118  O   UNL A   1      40.969  42.706  22.934  1.00  0.00    -0.384 OA
ATOM    119  H   UNL A   1      40.652  43.273  23.654  1.00  0.00     0.211 HD
ENDBRANCH  85 118
ENDBRANCH  78  80
ENDBRANCH  77  78
ENDBRANCH  76  77
ENDBRANCH   1  76
TORSDOF 28
ENDMDL
