MODEL 1
REMARK VINA RESULT:     -11.8      0.000      0.000
REMARK SMILES Nc1nccc(N2CCC[C@@](Cc3ccc(F)cc3F)(C(=O)OCCOCCOC(=O)c3ccc(-c4c5nc(c(-c6c(F)cc(S(=O)(=O)[O-])cc6F)c6ccc([nH]6)c(-c6c(F)cc(S(=O)(=O)[O-])cc6F)c6nc(c(-c7c(F)cc(S(=O)(=O)[O-])cc7F)c7ccc4[nH]7)C=C6)C=C5)cc3)C2)n1
REMARK SMILES IDX 27 1 26 2 25 3 24 4 23 5 21 6 22 7 11 8 7 9 8 10 98 11 9 12
REMARK SMILES IDX 10 13 6 14 2 15 3 16 99 17 4 18 5 19 1 20 12 23 13 24 14 25
REMARK SMILES IDX 19 26 15 27 18 28 20 29 16 30 17 31 28 32 29 33 30 34 31 35
REMARK SMILES IDX 32 36 33 37 97 38 34 39 96 40 35 41 36 42 37 43 90 44 38 45
REMARK SMILES IDX 95 46 89 47 91 48 39 49 94 50 88 51 87 52 40 54 74 55 53 56
REMARK SMILES IDX 73 57 54 58 57 59 72 60 92 61 55 62 56 63 71 65 93 66 58 67
REMARK SMILES IDX 41 68 42 69 51 70 43 71 44 72 50 73 52 74 45 75 46 76 47 77
REMARK SMILES IDX 48 78 49 79 75 80 76 81 85 82 77 83 78 84 84 85 86 86 79 87
REMARK SMILES IDX 80 88 81 89 82 90 83 91 59 92 60 93 69 94 61 95 62 96 68 97
REMARK SMILES IDX 70 98 63 99 64 100 65 101 66 102 67 103
REMARK H PARENT 1 21 1 22 91 53 57 64
REMARK Flexibility Score: inf
ROOT
ATOM      1  C   UNL A   1      39.867  21.515  26.476  1.00  0.00     0.202 C 
ENDROOT
BRANCH   1   2
ATOM      2  O   UNL A   1      38.720  21.968  25.758  1.00  0.00    -0.374 OA
BRANCH   2   3
ATOM      3  C   UNL A   1      38.089  23.165  26.199  1.00  0.00     0.202 C 
BRANCH   3   4
ATOM      4  C   UNL A   1      36.866  23.659  25.419  1.00  0.00     0.261 C 
BRANCH   4   5
ATOM      5  O   UNL A   1      35.815  22.687  25.283  1.00  0.00    -0.463 OA
BRANCH   5   6
ATOM      6  C   UNL A   1      34.577  23.131  25.632  1.00  0.00     0.314 C 
ATOM      7  O   UNL A   1      34.246  23.408  26.781  1.00  0.00    -0.252 OA
BRANCH   6   8
ATOM      8  C   UNL A   1      33.596  23.196  24.462  1.00  0.00     0.090 C 
ATOM      9  N   UNL A   1      32.197  24.874  23.351  1.00  0.00    -0.355 N 
ATOM     10  C   UNL A   1      32.735  24.693  22.011  1.00  0.00     0.118 C 
ATOM     11  C   UNL A   1      33.131  24.671  24.455  1.00  0.00     0.137 C 
ATOM     12  C   UNL A   1      33.284  23.269  21.898  1.00  0.00     0.023 C 
ATOM     13  C   UNL A   1      34.210  22.893  23.069  1.00  0.00     0.023 C 
BRANCH   9  14
ATOM     14  C   UNL A   1      31.279  25.896  23.550  1.00  0.00     0.134 A 
ATOM     15  C   UNL A   1      29.121  26.618  23.792  1.00  0.00     0.221 A 
ATOM     16  N   UNL A   1      29.440  27.903  23.613  1.00  0.00    -0.222 NA
ATOM     17  N   UNL A   1      29.985  25.600  23.760  1.00  0.00    -0.196 NA
ATOM     18  C   UNL A   1      30.741  28.165  23.407  1.00  0.00     0.119 A 
ATOM     19  C   UNL A   1      31.711  27.195  23.384  1.00  0.00     0.067 A 
BRANCH  15  20
ATOM     20  N   UNL A   1      27.801  26.320  23.981  1.00  0.00    -0.368 N 
ATOM     21  H   UNL A   1      27.180  27.017  24.293  1.00  0.00     0.159 HD
ATOM     22  H   UNL A   1      27.472  25.410  23.806  1.00  0.00     0.159 HD
ENDBRANCH  15  20
ENDBRANCH   9  14
BRANCH   8  23
ATOM     23  C   UNL A   1      32.389  22.275  24.816  1.00  0.00     0.059 C 
BRANCH  23  24
ATOM     24  C   UNL A   1      32.564  20.814  24.468  1.00  0.00    -0.011 A 
ATOM     25  C   UNL A   1      32.246  20.333  23.189  1.00  0.00     0.010 A 
ATOM     26  C   UNL A   1      33.031  19.902  25.425  1.00  0.00     0.129 A 
ATOM     27  C   UNL A   1      32.336  18.970  22.907  1.00  0.00     0.040 A 
ATOM     28  C   UNL A   1      33.132  18.546  25.151  1.00  0.00     0.078 A 
ATOM     29  F   UNL A   1      33.385  20.334  26.644  1.00  0.00    -0.207 F 
ATOM     30  C   UNL A   1      32.769  18.089  23.893  1.00  0.00     0.126 A 
ATOM     31  F   UNL A   1      32.838  16.781  23.623  1.00  0.00    -0.207 F 
ENDBRANCH  23  24
ENDBRANCH   8  23
ENDBRANCH   6   8
ENDBRANCH   5   6
ENDBRANCH   4   5
ENDBRANCH   3   4
ENDBRANCH   2   3
ENDBRANCH   1   2
BRANCH   1  32
ATOM     32  C   UNL A   1      41.227  22.139  26.135  1.00  0.00     0.261 C 
BRANCH  32  33
ATOM     33  O   UNL A   1      41.659  23.127  27.093  1.00  0.00    -0.460 OA
BRANCH  33  34
ATOM     34  C   UNL A   1      42.055  24.302  26.546  1.00  0.00     0.338 C 
ATOM     35  O   UNL A   1      42.609  24.460  25.464  1.00  0.00    -0.246 OA
BRANCH  34  36
ATOM     36  C   UNL A   1      41.595  25.446  27.350  1.00  0.00     0.060 A 
ATOM     37  C   UNL A   1      42.411  26.585  27.395  1.00  0.00     0.016 A 
ATOM     38  C   UNL A   1      40.474  25.345  28.175  1.00  0.00     0.016 A 
ATOM     39  C   UNL A   1      42.134  27.605  28.303  1.00  0.00     0.010 A 
ATOM     40  C   UNL A   1      40.202  26.368  29.091  1.00  0.00     0.010 A 
ATOM     41  C   UNL A   1      41.054  27.485  29.186  1.00  0.00    -0.014 A 
BRANCH  41  42
ATOM     42  C   UNL A   1      40.897  28.465  30.290  1.00  0.00     0.031 A 
ATOM     43  C   UNL A   1      41.828  28.402  31.471  1.00  0.00     0.074 A 
ATOM     44  C   UNL A   1      39.958  29.425  30.223  1.00  0.00     0.049 A 
ATOM     45  N   UNL A   1      41.859  29.153  32.542  1.00  0.00    -0.248 NA
ATOM     46  C   UNL A   1      42.861  27.355  31.441  1.00  0.00     0.031 C 
ATOM     47  C   UNL A   1      39.021  29.609  29.117  1.00  0.00     0.029 A 
ATOM     48  N   UNL A   1      39.638  30.422  31.109  1.00  0.00    -0.354 N 
ATOM     49  C   UNL A   1      42.907  28.669  33.315  1.00  0.00     0.074 A 
ATOM     50  C   UNL A   1      43.473  27.544  32.601  1.00  0.00     0.031 C 
ATOM     51  C   UNL A   1      38.224  30.656  29.394  1.00  0.00     0.029 A 
ATOM     52  C   UNL A   1      38.577  31.196  30.706  1.00  0.00     0.049 A 
ATOM     53  H   UNL A   1      40.122  30.569  31.954  1.00  0.00     0.167 HD
ATOM     54  C   UNL A   1      43.362  29.125  34.508  1.00  0.00     0.037 A 
ATOM     55  C   UNL A   1      37.950  32.213  31.331  1.00  0.00     0.037 A 
ATOM     56  C   UNL A   1      42.796  30.242  35.217  1.00  0.00     0.049 A 
ATOM     57  C   UNL A   1      38.430  32.664  32.683  1.00  0.00     0.074 A 
ATOM     58  C   UNL A   1      43.203  30.794  36.420  1.00  0.00     0.029 A 
ATOM     59  N   UNL A   1      41.696  30.974  34.795  1.00  0.00    -0.354 N 
ATOM     60  N   UNL A   1      39.434  32.210  33.393  1.00  0.00    -0.248 NA
ATOM     61  C   UNL A   1      37.691  33.764  33.320  1.00  0.00     0.031 C 
ATOM     62  C   UNL A   1      42.322  31.831  36.746  1.00  0.00     0.029 A 
ATOM     63  C   UNL A   1      41.391  31.953  35.726  1.00  0.00     0.049 A 
ATOM     64  H   UNL A   1      41.204  30.819  33.957  1.00  0.00     0.167 HD
ATOM     65  C   UNL A   1      39.456  32.973  34.556  1.00  0.00     0.074 A 
ATOM     66  C   UNL A   1      38.370  33.927  34.449  1.00  0.00     0.031 C 
ATOM     67  C   UNL A   1      40.301  32.891  35.614  1.00  0.00     0.037 A 
BRANCH  54  68
ATOM     68  C   UNL A   1      44.515  28.390  35.133  1.00  0.00     0.058 A 
ATOM     69  C   UNL A   1      45.837  28.761  34.838  1.00  0.00     0.135 A 
ATOM     70  C   UNL A   1      44.315  27.313  36.010  1.00  0.00     0.135 A 
ATOM     71  F   UNL A   1      46.083  29.784  34.007  1.00  0.00    -0.206 F 
ATOM     72  C   UNL A   1      46.923  28.095  35.399  1.00  0.00     0.059 A 
ATOM     73  C   UNL A   1      45.386  26.648  36.598  1.00  0.00     0.059 A 
ATOM     74  F   UNL A   1      43.071  26.928  36.335  1.00  0.00    -0.206 F 
ATOM     75  C   UNL A   1      46.688  27.050  36.291  1.00  0.00     0.060 A 
BRANCH  75  76
ATOM     76  S   UNL A   1      48.066  26.192  37.081  1.00  0.00     0.124 S 
ATOM     77  O   UNL A   1      47.670  24.796  36.918  1.00  0.00    -0.237 OA
ATOM     78  O   UNL A   1      49.205  26.625  36.279  1.00  0.00    -0.237 OA
ATOM     79  O   UNL A   1      48.040  26.695  38.451  1.00  0.00    -0.744 OA
ENDBRANCH  75  76
ENDBRANCH  54  68
BRANCH  55  80
ATOM     80  C   UNL A   1      36.789  32.863  30.670  1.00  0.00     0.058 A 
ATOM     81  C   UNL A   1      36.972  33.917  29.762  1.00  0.00     0.135 A 
ATOM     82  C   UNL A   1      35.475  32.484  30.981  1.00  0.00     0.135 A 
ATOM     83  F   UNL A   1      38.211  34.316  29.438  1.00  0.00    -0.206 F 
ATOM     84  C   UNL A   1      35.893  34.600  29.209  1.00  0.00     0.059 A 
ATOM     85  C   UNL A   1      34.381  33.138  30.426  1.00  0.00     0.059 A 
ATOM     86  F   UNL A   1      35.253  31.472  31.833  1.00  0.00    -0.206 F 
ATOM     87  C   UNL A   1      34.601  34.205  29.551  1.00  0.00     0.060 A 
BRANCH  87  88
ATOM     88  S   UNL A   1      33.171  35.110  28.919  1.00  0.00     0.124 S 
ATOM     89  O   UNL A   1      33.800  36.291  28.341  1.00  0.00    -0.237 OA
ATOM     90  O   UNL A   1      32.605  34.157  27.969  1.00  0.00    -0.237 OA
ATOM     91  O   UNL A   1      32.365  35.343  30.114  1.00  0.00    -0.744 OA
ENDBRANCH  87  88
ENDBRANCH  55  80
BRANCH  67  92
ATOM     92  C   UNL A   1      40.094  33.856  36.748  1.00  0.00     0.058 A 
ATOM     93  C   UNL A   1      39.249  33.528  37.820  1.00  0.00     0.135 A 
ATOM     94  C   UNL A   1      40.675  35.133  36.736  1.00  0.00     0.135 A 
ATOM     95  F   UNL A   1      38.661  32.322  37.874  1.00  0.00    -0.206 F 
ATOM     96  C   UNL A   1      38.974  34.438  38.837  1.00  0.00     0.059 A 
ATOM     97  C   UNL A   1      40.431  36.051  37.753  1.00  0.00     0.059 A 
ATOM     98  F   UNL A   1      41.498  35.492  35.737  1.00  0.00    -0.206 F 
ATOM     99  C   UNL A   1      39.575  35.695  38.798  1.00  0.00     0.060 A 
BRANCH  99 100
ATOM    100  S   UNL A   1      39.231  36.914  40.086  1.00  0.00     0.124 S 
ATOM    101  O   UNL A   1      38.369  36.156  40.986  1.00  0.00    -0.237 OA
ATOM    102  O   UNL A   1      40.567  37.217  40.593  1.00  0.00    -0.237 OA
ATOM    103  O   UNL A   1      38.581  38.002  39.360  1.00  0.00    -0.744 OA
ENDBRANCH  99 100
ENDBRANCH  67  92
ENDBRANCH  41  42
ENDBRANCH  34  36
ENDBRANCH  33  34
ENDBRANCH  32  33
ENDBRANCH   1  32
TORSDOF 21
ENDMDL
MODEL 2
REMARK VINA RESULT:     -11.6      6.070     11.715
REMARK SMILES Nc1nccc(N2CCC[C@@](Cc3ccc(F)cc3F)(C(=O)OCCOCCOC(=O)c3ccc(-c4c5nc(c(-c6c(F)cc(S(=O)(=O)[O-])cc6F)c6ccc([nH]6)c(-c6c(F)cc(S(=O)(=O)[O-])cc6F)c6nc(c(-c7c(F)cc(S(=O)(=O)[O-])cc7F)c7ccc4[nH]7)C=C6)C=C5)cc3)C2)n1
REMARK SMILES IDX 27 1 26 2 25 3 24 4 23 5 21 6 22 7 11 8 7 9 8 10 98 11 9 12
REMARK SMILES IDX 10 13 6 14 2 15 3 16 99 17 4 18 5 19 1 20 12 23 13 24 14 25
REMARK SMILES IDX 19 26 15 27 18 28 20 29 16 30 17 31 28 32 29 33 30 34 31 35
REMARK SMILES IDX 32 36 33 37 97 38 34 39 96 40 35 41 36 42 37 43 90 44 38 45
REMARK SMILES IDX 95 46 89 47 91 48 39 49 94 50 88 51 87 52 40 54 74 55 53 56
REMARK SMILES IDX 73 57 54 58 57 59 72 60 92 61 55 62 56 63 71 65 93 66 58 67
REMARK SMILES IDX 41 68 42 69 51 70 43 71 44 72 50 73 52 74 45 75 46 76 47 77
REMARK SMILES IDX 48 78 49 79 75 80 76 81 85 82 77 83 78 84 84 85 86 86 79 87
REMARK SMILES IDX 80 88 81 89 82 90 83 91 59 92 60 93 69 94 61 95 62 96 68 97
REMARK SMILES IDX 70 98 63 99 64 100 65 101 66 102 67 103
REMARK H PARENT 1 21 1 22 91 53 57 64
REMARK Flexibility Score: inf
ROOT
ATOM      1  C   UNL A   1      34.236  31.546  27.974  1.00  0.00     0.202 C 
ENDROOT
BRANCH   1   2
ATOM      2  O   UNL A   1      33.091  32.059  27.294  1.00  0.00    -0.374 OA
BRANCH   2   3
ATOM      3  C   UNL A   1      32.097  31.132  26.873  1.00  0.00     0.202 C 
BRANCH   3   4
ATOM      4  C   UNL A   1      32.373  29.639  27.081  1.00  0.00     0.261 C 
BRANCH   4   5
ATOM      5  O   UNL A   1      31.675  28.774  26.169  1.00  0.00    -0.463 OA
BRANCH   5   6
ATOM      6  C   UNL A   1      32.476  27.981  25.407  1.00  0.00     0.314 C 
ATOM      7  O   UNL A   1      33.515  28.362  24.877  1.00  0.00    -0.252 OA
BRANCH   6   8
ATOM      8  C   UNL A   1      31.930  26.568  25.209  1.00  0.00     0.090 C 
ATOM      9  N   UNL A   1      32.761  24.263  25.320  1.00  0.00    -0.355 N 
ATOM     10  C   UNL A   1      31.794  23.774  26.290  1.00  0.00     0.118 C 
ATOM     11  C   UNL A   1      33.160  25.661  25.455  1.00  0.00     0.137 C 
ATOM     12  C   UNL A   1      30.529  24.629  26.187  1.00  0.00     0.023 C 
ATOM     13  C   UNL A   1      30.827  26.139  26.214  1.00  0.00     0.023 C 
BRANCH   9  14
ATOM     14  C   UNL A   1      33.780  23.406  24.928  1.00  0.00     0.134 A 
ATOM     15  C   UNL A   1      34.698  21.312  24.838  1.00  0.00     0.221 A 
ATOM     16  N   UNL A   1      35.899  21.762  24.465  1.00  0.00    -0.222 NA
ATOM     17  N   UNL A   1      33.633  22.079  25.086  1.00  0.00    -0.196 NA
ATOM     18  C   UNL A   1      36.012  23.092  24.315  1.00  0.00     0.119 A 
ATOM     19  C   UNL A   1      34.972  23.963  24.518  1.00  0.00     0.067 A 
BRANCH  15  20
ATOM     20  N   UNL A   1      34.562  19.965  25.019  1.00  0.00    -0.368 N 
ATOM     21  H   UNL A   1      34.162  19.618  25.849  1.00  0.00     0.159 HD
ATOM     22  H   UNL A   1      34.862  19.341  24.319  1.00  0.00     0.159 HD
ENDBRANCH  15  20
ENDBRANCH   9  14
BRANCH   8  23
ATOM     23  C   UNL A   1      31.487  26.444  23.720  1.00  0.00     0.059 C 
BRANCH  23  24
ATOM     24  C   UNL A   1      30.478  27.470  23.256  1.00  0.00    -0.011 A 
ATOM     25  C   UNL A   1      30.889  28.665  22.646  1.00  0.00     0.010 A 
ATOM     26  C   UNL A   1      29.104  27.257  23.443  1.00  0.00     0.129 A 
ATOM     27  C   UNL A   1      29.951  29.636  22.296  1.00  0.00     0.040 A 
ATOM     28  C   UNL A   1      28.164  28.214  23.090  1.00  0.00     0.078 A 
ATOM     29  F   UNL A   1      28.673  26.108  23.983  1.00  0.00    -0.207 F 
ATOM     30  C   UNL A   1      28.600  29.405  22.530  1.00  0.00     0.126 A 
ATOM     31  F   UNL A   1      27.706  30.346  22.207  1.00  0.00    -0.207 F 
ENDBRANCH  23  24
ENDBRANCH   8  23
ENDBRANCH   6   8
ENDBRANCH   5   6
ENDBRANCH   4   5
ENDBRANCH   3   4
ENDBRANCH   2   3
ENDBRANCH   1   2
BRANCH   1  32
ATOM     32  C   UNL A   1      34.666  32.227  29.281  1.00  0.00     0.261 C 
BRANCH  32  33
ATOM     33  O   UNL A   1      36.086  32.152  29.523  1.00  0.00    -0.460 OA
BRANCH  33  34
ATOM     34  C   UNL A   1      36.448  31.247  30.466  1.00  0.00     0.338 C 
ATOM     35  O   UNL A   1      35.856  30.997  31.509  1.00  0.00    -0.246 OA
BRANCH  34  36
ATOM     36  C   UNL A   1      37.597  30.443  30.021  1.00  0.00     0.060 A 
ATOM     37  C   UNL A   1      38.495  29.989  30.996  1.00  0.00     0.016 A 
ATOM     38  C   UNL A   1      37.881  30.279  28.664  1.00  0.00     0.016 A 
ATOM     39  C   UNL A   1      39.706  29.413  30.615  1.00  0.00     0.010 A 
ATOM     40  C   UNL A   1      39.101  29.706  28.284  1.00  0.00     0.010 A 
ATOM     41  C   UNL A   1      40.035  29.306  29.258  1.00  0.00    -0.014 A 
BRANCH  41  42
ATOM     42  C   UNL A   1      41.408  28.897  28.868  1.00  0.00     0.031 A 
ATOM     43  C   UNL A   1      42.520  29.910  28.907  1.00  0.00     0.074 A 
ATOM     44  C   UNL A   1      41.668  27.626  28.517  1.00  0.00     0.049 A 
ATOM     45  N   UNL A   1      43.784  29.766  28.599  1.00  0.00    -0.248 NA
ATOM     46  C   UNL A   1      42.161  31.266  29.353  1.00  0.00     0.031 C 
ATOM     47  C   UNL A   1      40.683  26.547  28.472  1.00  0.00     0.029 A 
ATOM     48  N   UNL A   1      42.841  27.030  28.127  1.00  0.00    -0.354 N 
ATOM     49  C   UNL A   1      44.370  31.008  28.809  1.00  0.00     0.074 A 
ATOM     50  C   UNL A   1      43.318  31.902  29.247  1.00  0.00     0.031 C 
ATOM     51  C   UNL A   1      41.293  25.418  28.071  1.00  0.00     0.029 A 
ATOM     52  C   UNL A   1      42.703  25.702  27.804  1.00  0.00     0.049 A 
ATOM     53  H   UNL A   1      43.700  27.509  28.083  1.00  0.00     0.167 HD
ATOM     54  C   UNL A   1      45.667  31.370  28.656  1.00  0.00     0.037 A 
ATOM     55  C   UNL A   1      43.606  24.819  27.331  1.00  0.00     0.037 A 
ATOM     56  C   UNL A   1      46.711  30.481  28.218  1.00  0.00     0.049 A 
ATOM     57  C   UNL A   1      45.027  25.256  27.109  1.00  0.00     0.074 A 
ATOM     58  C   UNL A   1      48.059  30.748  28.057  1.00  0.00     0.029 A 
ATOM     59  N   UNL A   1      46.522  29.153  27.861  1.00  0.00    -0.354 N 
ATOM     60  N   UNL A   1      45.572  26.429  27.330  1.00  0.00    -0.248 NA
ATOM     61  C   UNL A   1      45.958  24.253  26.572  1.00  0.00     0.031 C 
ATOM     62  C   UNL A   1      48.678  29.595  27.560  1.00  0.00     0.029 A 
ATOM     63  C   UNL A   1      47.723  28.596  27.453  1.00  0.00     0.049 A 
ATOM     64  H   UNL A   1      45.661  28.678  27.893  1.00  0.00     0.167 HD
ATOM     65  C   UNL A   1      46.909  26.303  26.969  1.00  0.00     0.074 A 
ATOM     66  C   UNL A   1      47.095  24.935  26.526  1.00  0.00     0.031 C 
ATOM     67  C   UNL A   1      47.893  27.236  27.004  1.00  0.00     0.037 A 
BRANCH  54  68
ATOM     68  C   UNL A   1      46.022  32.803  28.941  1.00  0.00     0.058 A 
ATOM     69  C   UNL A   1      45.965  33.765  27.920  1.00  0.00     0.135 A 
ATOM     70  C   UNL A   1      46.432  33.222  30.216  1.00  0.00     0.135 A 
ATOM     71  F   UNL A   1      45.578  33.417  26.683  1.00  0.00    -0.206 F 
ATOM     72  C   UNL A   1      46.292  35.098  28.155  1.00  0.00     0.059 A 
ATOM     73  C   UNL A   1      46.742  34.553  30.478  1.00  0.00     0.059 A 
ATOM     74  F   UNL A   1      46.490  32.344  31.230  1.00  0.00    -0.206 F 
ATOM     75  C   UNL A   1      46.664  35.486  29.441  1.00  0.00     0.060 A 
BRANCH  75  76
ATOM     76  S   UNL A   1      47.048  37.213  29.802  1.00  0.00     0.124 S 
ATOM     77  O   UNL A   1      47.786  37.602  28.604  1.00  0.00    -0.237 OA
ATOM     78  O   UNL A   1      45.722  37.803  29.948  1.00  0.00    -0.237 OA
ATOM     79  O   UNL A   1      47.836  37.137  31.028  1.00  0.00    -0.744 OA
ENDBRANCH  75  76
ENDBRANCH  54  68
BRANCH  55  80
ATOM     80  C   UNL A   1      43.172  23.431  27.031  1.00  0.00     0.058 A 
ATOM     81  C   UNL A   1      42.987  22.494  28.059  1.00  0.00     0.135 A 
ATOM     82  C   UNL A   1      42.995  22.999  25.709  1.00  0.00     0.135 A 
ATOM     83  F   UNL A   1      43.149  22.861  29.339  1.00  0.00    -0.206 F 
ATOM     84  C   UNL A   1      42.675  21.165  27.789  1.00  0.00     0.059 A 
ATOM     85  C   UNL A   1      42.664  21.681  25.415  1.00  0.00     0.059 A 
ATOM     86  F   UNL A   1      43.148  23.863  24.695  1.00  0.00    -0.206 F 
ATOM     87  C   UNL A   1      42.520  20.768  26.462  1.00  0.00     0.060 A 
BRANCH  87  88
ATOM     88  S   UNL A   1      42.191  19.038  26.059  1.00  0.00     0.124 S 
ATOM     89  O   UNL A   1      42.564  18.369  27.299  1.00  0.00    -0.237 OA
ATOM     90  O   UNL A   1      40.764  19.064  25.750  1.00  0.00    -0.237 OA
ATOM     91  O   UNL A   1      43.066  18.787  24.917  1.00  0.00    -0.744 OA
ENDBRANCH  87  88
ENDBRANCH  55  80
BRANCH  67  92
ATOM     92  C   UNL A   1      49.266  26.819  26.554  1.00  0.00     0.058 A 
ATOM     93  C   UNL A   1      49.667  27.002  25.221  1.00  0.00     0.135 A 
ATOM     94  C   UNL A   1      50.156  26.173  27.425  1.00  0.00     0.135 A 
ATOM     95  F   UNL A   1      48.848  27.607  24.345  1.00  0.00    -0.206 F 
ATOM     96  C   UNL A   1      50.899  26.546  24.760  1.00  0.00     0.059 A 
ATOM     97  C   UNL A   1      51.401  25.729  26.991  1.00  0.00     0.059 A 
ATOM     98  F   UNL A   1      49.823  25.982  28.712  1.00  0.00    -0.206 F 
ATOM     99  C   UNL A   1      51.762  25.916  25.656  1.00  0.00     0.060 A 
BRANCH  99 100
ATOM    100  S   UNL A   1      53.362  25.292  25.097  1.00  0.00     0.124 S 
ATOM    101  O   UNL A   1      54.283  26.036  25.948  1.00  0.00    -0.237 OA
ATOM    102  O   UNL A   1      53.254  23.863  25.376  1.00  0.00    -0.237 OA
ATOM    103  O   UNL A   1      53.390  25.647  23.680  1.00  0.00    -0.744 OA
ENDBRANCH  99 100
ENDBRANCH  67  92
ENDBRANCH  41  42
ENDBRANCH  34  36
ENDBRANCH  33  34
ENDBRANCH  32  33
ENDBRANCH   1  32
TORSDOF 21
ENDMDL
MODEL 3
REMARK VINA RESULT:     -11.6      6.159     11.789
REMARK SMILES Nc1nccc(N2CCC[C@@](Cc3ccc(F)cc3F)(C(=O)OCCOCCOC(=O)c3ccc(-c4c5nc(c(-c6c(F)cc(S(=O)(=O)[O-])cc6F)c6ccc([nH]6)c(-c6c(F)cc(S(=O)(=O)[O-])cc6F)c6nc(c(-c7c(F)cc(S(=O)(=O)[O-])cc7F)c7ccc4[nH]7)C=C6)C=C5)cc3)C2)n1
REMARK SMILES IDX 27 1 26 2 25 3 24 4 23 5 21 6 22 7 11 8 7 9 8 10 98 11 9 12
REMARK SMILES IDX 10 13 6 14 2 15 3 16 99 17 4 18 5 19 1 20 12 23 13 24 14 25
REMARK SMILES IDX 19 26 15 27 18 28 20 29 16 30 17 31 28 32 29 33 30 34 31 35
REMARK SMILES IDX 32 36 33 37 97 38 34 39 96 40 35 41 36 42 37 43 90 44 38 45
REMARK SMILES IDX 95 46 89 47 91 48 39 49 94 50 88 51 87 52 40 54 74 55 53 56
REMARK SMILES IDX 73 57 54 58 57 59 72 60 92 61 55 62 56 63 71 65 93 66 58 67
REMARK SMILES IDX 41 68 42 69 51 70 43 71 44 72 50 73 52 74 45 75 46 76 47 77
REMARK SMILES IDX 48 78 49 79 75 80 76 81 85 82 77 83 78 84 84 85 86 86 79 87
REMARK SMILES IDX 80 88 81 89 82 90 83 91 59 92 60 93 69 94 61 95 62 96 68 97
REMARK SMILES IDX 70 98 63 99 64 100 65 101 66 102 67 103
REMARK H PARENT 1 21 1 22 91 53 57 64
REMARK Flexibility Score: inf
ROOT
ATOM      1  C   UNL A   1      34.578  32.272  28.415  1.00  0.00     0.202 C 
ENDROOT
BRANCH   1   2
ATOM      2  O   UNL A   1      34.199  30.918  28.177  1.00  0.00    -0.374 OA
BRANCH   2   3
ATOM      3  C   UNL A   1      33.660  30.591  26.901  1.00  0.00     0.202 C 
BRANCH   3   4
ATOM      4  C   UNL A   1      33.550  29.109  26.526  1.00  0.00     0.261 C 
BRANCH   4   5
ATOM      5  O   UNL A   1      32.587  28.828  25.496  1.00  0.00    -0.463 OA
BRANCH   5   6
ATOM      6  C   UNL A   1      32.885  27.755  24.713  1.00  0.00     0.314 C 
ATOM      7  O   UNL A   1      33.920  27.646  24.063  1.00  0.00    -0.252 OA
BRANCH   6   8
ATOM      8  C   UNL A   1      31.773  26.708  24.660  1.00  0.00     0.090 C 
ATOM      9  N   UNL A   1      31.559  24.272  24.828  1.00  0.00    -0.355 N 
ATOM     10  C   UNL A   1      30.597  24.254  25.920  1.00  0.00     0.118 C 
ATOM     11  C   UNL A   1      32.524  25.367  24.836  1.00  0.00     0.137 C 
ATOM     12  C   UNL A   1      29.810  25.566  25.893  1.00  0.00     0.023 C 
ATOM     13  C   UNL A   1      30.719  26.805  25.796  1.00  0.00     0.023 C 
BRANCH   9  14
ATOM     14  C   UNL A   1      32.065  23.056  24.389  1.00  0.00     0.134 A 
ATOM     15  C   UNL A   1      32.111  21.349  22.866  1.00  0.00     0.221 A 
ATOM     16  N   UNL A   1      32.796  20.534  23.672  1.00  0.00    -0.222 NA
ATOM     17  N   UNL A   1      31.722  22.589  23.177  1.00  0.00    -0.196 NA
ATOM     18  C   UNL A   1      33.124  21.032  24.875  1.00  0.00     0.119 A 
ATOM     19  C   UNL A   1      32.797  22.301  25.280  1.00  0.00     0.067 A 
BRANCH  15  20
ATOM     20  N   UNL A   1      31.744  20.861  21.643  1.00  0.00    -0.368 N 
ATOM     21  H   UNL A   1      30.815  20.959  21.333  1.00  0.00     0.159 HD
ATOM     22  H   UNL A   1      32.409  20.411  21.074  1.00  0.00     0.159 HD
ENDBRANCH  15  20
ENDBRANCH   9  14
BRANCH   8  23
ATOM     23  C   UNL A   1      31.147  26.767  23.234  1.00  0.00     0.059 C 
BRANCH  23  24
ATOM     24  C   UNL A   1      30.158  27.887  23.005  1.00  0.00    -0.011 A 
ATOM     25  C   UNL A   1      28.793  27.714  23.281  1.00  0.00     0.010 A 
ATOM     26  C   UNL A   1      30.582  29.122  22.492  1.00  0.00     0.129 A 
ATOM     27  C   UNL A   1      27.882  28.729  22.990  1.00  0.00     0.040 A 
ATOM     28  C   UNL A   1      29.683  30.140  22.208  1.00  0.00     0.078 A 
ATOM     29  F   UNL A   1      31.884  29.337  22.258  1.00  0.00    -0.207 F 
ATOM     30  C   UNL A   1      28.334  29.928  22.448  1.00  0.00     0.126 A 
ATOM     31  F   UNL A   1      27.454  30.891  22.156  1.00  0.00    -0.207 F 
ENDBRANCH  23  24
ENDBRANCH   8  23
ENDBRANCH   6   8
ENDBRANCH   5   6
ENDBRANCH   4   5
ENDBRANCH   3   4
ENDBRANCH   2   3
ENDBRANCH   1   2
BRANCH   1  32
ATOM     32  C   UNL A   1      35.064  32.651  29.820  1.00  0.00     0.261 C 
BRANCH  32  33
ATOM     33  O   UNL A   1      36.455  32.341  30.046  1.00  0.00    -0.460 OA
BRANCH  33  34
ATOM     34  C   UNL A   1      36.666  31.234  30.800  1.00  0.00     0.338 C 
ATOM     35  O   UNL A   1      35.972  30.832  31.726  1.00  0.00    -0.246 OA
BRANCH  34  36
ATOM     36  C   UNL A   1      37.786  30.437  30.275  1.00  0.00     0.060 A 
ATOM     37  C   UNL A   1      38.721  29.937  31.191  1.00  0.00     0.016 A 
ATOM     38  C   UNL A   1      38.008  30.322  28.902  1.00  0.00     0.016 A 
ATOM     39  C   UNL A   1      39.907  29.364  30.735  1.00  0.00     0.010 A 
ATOM     40  C   UNL A   1      39.204  29.752  28.446  1.00  0.00     0.010 A 
ATOM     41  C   UNL A   1      40.175  29.306  29.362  1.00  0.00    -0.014 A 
BRANCH  41  42
ATOM     42  C   UNL A   1      41.525  28.900  28.895  1.00  0.00     0.031 A 
ATOM     43  C   UNL A   1      42.633  29.918  28.861  1.00  0.00     0.074 A 
ATOM     44  C   UNL A   1      41.769  27.626  28.541  1.00  0.00     0.049 A 
ATOM     45  N   UNL A   1      43.877  29.775  28.482  1.00  0.00    -0.248 NA
ATOM     46  C   UNL A   1      42.293  31.275  29.316  1.00  0.00     0.031 C 
ATOM     47  C   UNL A   1      40.788  26.543  28.563  1.00  0.00     0.029 A 
ATOM     48  N   UNL A   1      42.921  27.031  28.089  1.00  0.00    -0.354 N 
ATOM     49  C   UNL A   1      44.468  31.022  28.646  1.00  0.00     0.074 A 
ATOM     50  C   UNL A   1      43.440  31.915  29.137  1.00  0.00     0.031 C 
ATOM     51  C   UNL A   1      41.379  25.413  28.137  1.00  0.00     0.029 A 
ATOM     52  C   UNL A   1      42.770  25.701  27.786  1.00  0.00     0.049 A 
ATOM     53  H   UNL A   1      43.774  27.514  27.991  1.00  0.00     0.167 HD
ATOM     54  C   UNL A   1      45.753  31.388  28.415  1.00  0.00     0.037 A 
ATOM     55  C   UNL A   1      43.648  24.817  27.268  1.00  0.00     0.037 A 
ATOM     56  C   UNL A   1      46.773  30.498  27.925  1.00  0.00     0.049 A 
ATOM     57  C   UNL A   1      45.052  25.258  26.961  1.00  0.00     0.074 A 
ATOM     58  C   UNL A   1      48.109  30.770  27.683  1.00  0.00     0.029 A 
ATOM     59  N   UNL A   1      46.570  29.167  27.591  1.00  0.00    -0.354 N 
ATOM     60  N   UNL A   1      45.603  26.435  27.139  1.00  0.00    -0.248 NA
ATOM     61  C   UNL A   1      45.954  24.253  26.379  1.00  0.00     0.031 C 
ATOM     62  C   UNL A   1      48.703  29.615  27.161  1.00  0.00     0.029 A 
ATOM     63  C   UNL A   1      47.747  28.611  27.118  1.00  0.00     0.049 A 
ATOM     64  H   UNL A   1      45.715  28.689  27.677  1.00  0.00     0.167 HD
ATOM     65  C   UNL A   1      46.917  26.311  26.702  1.00  0.00     0.074 A 
ATOM     66  C   UNL A   1      47.084  24.940  26.261  1.00  0.00     0.031 C 
ATOM     67  C   UNL A   1      47.897  27.248  26.671  1.00  0.00     0.037 A 
BRANCH  54  68
ATOM     68  C   UNL A   1      46.117  32.824  28.666  1.00  0.00     0.058 A 
ATOM     69  C   UNL A   1      46.010  33.775  27.638  1.00  0.00     0.135 A 
ATOM     70  C   UNL A   1      46.586  33.259  29.916  1.00  0.00     0.135 A 
ATOM     71  F   UNL A   1      45.566  33.412  26.425  1.00  0.00    -0.206 F 
ATOM     72  C   UNL A   1      46.344  35.111  27.842  1.00  0.00     0.059 A 
ATOM     73  C   UNL A   1      46.905  34.593  30.147  1.00  0.00     0.059 A 
ATOM     74  F   UNL A   1      46.693  32.393  30.936  1.00  0.00    -0.206 F 
ATOM     75  C   UNL A   1      46.776  35.514  29.105  1.00  0.00     0.060 A 
BRANCH  75  76
ATOM     76  S   UNL A   1      47.172  37.245  29.427  1.00  0.00     0.124 S 
ATOM     77  O   UNL A   1      45.912  37.900  29.084  1.00  0.00    -0.237 OA
ATOM     78  O   UNL A   1      47.511  37.229  30.846  1.00  0.00    -0.237 OA
ATOM     79  O   UNL A   1      48.285  37.514  28.522  1.00  0.00    -0.744 OA
ENDBRANCH  75  76
ENDBRANCH  54  68
BRANCH  55  80
ATOM     80  C   UNL A   1      43.203  23.424  27.006  1.00  0.00     0.058 A 
ATOM     81  C   UNL A   1      43.044  22.507  28.056  1.00  0.00     0.135 A 
ATOM     82  C   UNL A   1      42.990  22.968  25.698  1.00  0.00     0.135 A 
ATOM     83  F   UNL A   1      43.242  22.898  29.325  1.00  0.00    -0.206 F 
ATOM     84  C   UNL A   1      42.723  21.174  27.820  1.00  0.00     0.059 A 
ATOM     85  C   UNL A   1      42.648  21.646  25.438  1.00  0.00     0.059 A 
ATOM     86  F   UNL A   1      43.117  23.813  24.664  1.00  0.00    -0.206 F 
ATOM     87  C   UNL A   1      42.531  20.752  26.505  1.00  0.00     0.060 A 
BRANCH  87  88
ATOM     88  S   UNL A   1      42.188  19.016  26.143  1.00  0.00     0.124 S 
ATOM     89  O   UNL A   1      43.107  18.756  25.043  1.00  0.00    -0.237 OA
ATOM     90  O   UNL A   1      42.512  18.372  27.413  1.00  0.00    -0.237 OA
ATOM     91  O   UNL A   1      40.770  19.019  25.795  1.00  0.00    -0.744 OA
ENDBRANCH  87  88
ENDBRANCH  55  80
BRANCH  67  92
ATOM     92  C   UNL A   1      49.244  26.833  26.146  1.00  0.00     0.058 A 
ATOM     93  C   UNL A   1      50.219  26.314  27.014  1.00  0.00     0.135 A 
ATOM     94  C   UNL A   1      49.593  27.016  24.800  1.00  0.00     0.135 A 
ATOM     95  F   UNL A   1      49.938  26.128  28.314  1.00  0.00    -0.206 F 
ATOM     96  C   UNL A   1      51.501  26.004  26.569  1.00  0.00     0.059 A 
ATOM     97  C   UNL A   1      50.862  26.693  24.329  1.00  0.00     0.059 A 
ATOM     98  F   UNL A   1      48.694  27.501  23.929  1.00  0.00    -0.206 F 
ATOM     99  C   UNL A   1      51.810  26.191  25.222  1.00  0.00     0.060 A 
BRANCH  99 100
ATOM    100  S   UNL A   1      53.467  25.820  24.606  1.00  0.00     0.124 S 
ATOM    101  O   UNL A   1      53.503  24.366  24.713  1.00  0.00    -0.237 OA
ATOM    102  O   UNL A   1      53.421  26.354  23.248  1.00  0.00    -0.237 OA
ATOM    103  O   UNL A   1      54.342  26.540  25.527  1.00  0.00    -0.744 OA
ENDBRANCH  99 100
ENDBRANCH  67  92
ENDBRANCH  41  42
ENDBRANCH  34  36
ENDBRANCH  33  34
ENDBRANCH  32  33
ENDBRANCH   1  32
TORSDOF 21
ENDMDL
