MODEL 1
REMARK VINA RESULT:      -9.9      0.000      0.000
REMARK SMILES CC[C@](C)(NC(=O)CCOc1ccc(Cl)c(Cl)c1)C(=O)OCCOCCOC(=O)c1ccc(-c2c3nc(c(-c4c(F)cc(S(=O)(=O)[O-])cc4F)c4ccc([nH]4)c(-c4c(F)cc(S(=O)(=O)[O-])cc4F)c4nc(c(-c5c(F)cc(S(=O)(=O)[O-])cc5F)c5ccc2[nH]5)C=C4)C=C3)cc1
REMARK SMILES IDX 23 1 22 2 21 3 19 4 20 5 3 6 4 7 2 8 1 9 5 10 6 11 7 13 8 14
REMARK SMILES IDX 9 15 10 16 11 17 12 18 18 19 13 20 16 21 14 22 17 23 15 24
REMARK SMILES IDX 24 25 25 26 26 27 27 28 28 29 29 30 30 31 31 32 95 33 32 34
REMARK SMILES IDX 94 35 33 36 34 37 35 38 88 39 36 40 93 41 87 42 89 43 37 44
REMARK SMILES IDX 92 45 86 46 85 47 38 49 72 50 51 51 71 52 52 53 55 54 70 55
REMARK SMILES IDX 90 56 53 57 54 58 69 60 91 61 56 62 39 63 40 64 49 65 41 66
REMARK SMILES IDX 42 67 48 68 50 69 43 70 44 71 45 72 46 73 47 74 73 75 74 76
REMARK SMILES IDX 83 77 75 78 76 79 82 80 84 81 77 82 78 83 79 84 80 85 81 86
REMARK SMILES IDX 57 87 58 88 67 89 59 90 60 91 66 92 68 93 61 94 62 95 63 96
REMARK SMILES IDX 64 97 65 98
REMARK H PARENT 5 12 89 48 55 59
REMARK Flexibility Score: inf
ROOT
ATOM      1  C   UNL A   1      34.430  19.803  24.882  1.00  0.00     0.202 C 
ENDROOT
BRANCH   1   2
ATOM      2  C   UNL A   1      33.744  20.667  25.947  1.00  0.00     0.261 C 
BRANCH   2   3
ATOM      3  O   UNL A   1      33.047  21.775  25.319  1.00  0.00    -0.462 OA
BRANCH   3   4
ATOM      4  C   UNL A   1      32.993  22.902  26.083  1.00  0.00     0.331 C 
ATOM      5  O   UNL A   1      32.613  22.892  27.251  1.00  0.00    -0.249 OA
BRANCH   4   6
ATOM      6  C   UNL A   1      33.701  24.134  25.428  1.00  0.00     0.135 C 
ATOM      7  C   UNL A   1      35.162  24.072  25.917  1.00  0.00     0.047 C 
BRANCH   6   8
ATOM      8  C   UNL A   1      33.044  25.422  26.045  1.00  0.00     0.037 C 
ATOM      9  C   UNL A   1      33.863  26.707  25.867  1.00  0.00     0.007 C 
ENDBRANCH   6   8
BRANCH   6  10
ATOM     10  N   UNL A   1      33.629  24.348  23.943  1.00  0.00    -0.340 N 
ATOM     11  C   UNL A   1      32.809  24.176  22.891  1.00  0.00     0.224 C 
ATOM     12  H   UNL A   1      34.471  24.755  23.635  1.00  0.00     0.164 HD
ATOM     13  O   UNL A   1      33.364  24.131  21.786  1.00  0.00    -0.275 OA
BRANCH  11  14
ATOM     14  C   UNL A   1      31.315  24.187  22.953  1.00  0.00     0.141 C 
BRANCH  14  15
ATOM     15  C   UNL A   1      30.688  25.534  23.194  1.00  0.00     0.239 C 
BRANCH  15  16
ATOM     16  O   UNL A   1      31.586  26.642  23.090  1.00  0.00    -0.493 OA
BRANCH  16  17
ATOM     17  C   UNL A   1      30.922  27.817  23.280  1.00  0.00     0.120 A 
ATOM     18  C   UNL A   1      31.311  28.605  24.356  1.00  0.00     0.048 A 
ATOM     19  C   UNL A   1      29.886  28.209  22.435  1.00  0.00     0.068 A 
ATOM     20  C   UNL A   1      30.717  29.848  24.545  1.00  0.00     0.026 A 
ATOM     21  C   UNL A   1      29.285  29.455  22.627  1.00  0.00     0.063 A 
ATOM     22  C   UNL A   1      29.712  30.282  23.677  1.00  0.00     0.059 A 
ATOM     23  Cl  UNL A   1      28.060  29.938  21.509  1.00  0.00    -0.083 Cl
ATOM     24  Cl  UNL A   1      29.055  31.858  23.941  1.00  0.00    -0.083 Cl
ENDBRANCH  16  17
ENDBRANCH  15  16
ENDBRANCH  14  15
ENDBRANCH  11  14
ENDBRANCH   6  10
ENDBRANCH   4   6
ENDBRANCH   3   4
ENDBRANCH   2   3
ENDBRANCH   1   2
BRANCH   1  25
ATOM     25  O   UNL A   1      35.863  19.830  24.926  1.00  0.00    -0.374 OA
BRANCH  25  26
ATOM     26  C   UNL A   1      36.494  21.082  24.666  1.00  0.00     0.202 C 
BRANCH  26  27
ATOM     27  C   UNL A   1      37.939  21.243  25.199  1.00  0.00     0.261 C 
BRANCH  27  28
ATOM     28  O   UNL A   1      38.129  22.436  25.988  1.00  0.00    -0.460 OA
BRANCH  28  29
ATOM     29  C   UNL A   1      39.422  22.682  26.328  1.00  0.00     0.338 C 
ATOM     30  O   UNL A   1      40.378  21.982  26.066  1.00  0.00    -0.246 OA
BRANCH  29  31
ATOM     31  C   UNL A   1      39.571  24.042  26.907  1.00  0.00     0.060 A 
ATOM     32  C   UNL A   1      40.155  25.001  26.072  1.00  0.00     0.016 A 
ATOM     33  C   UNL A   1      39.234  24.377  28.222  1.00  0.00     0.016 A 
ATOM     34  C   UNL A   1      40.486  26.261  26.567  1.00  0.00     0.010 A 
ATOM     35  C   UNL A   1      39.567  25.652  28.720  1.00  0.00     0.010 A 
ATOM     36  C   UNL A   1      40.244  26.582  27.908  1.00  0.00    -0.014 A 
BRANCH  36  37
ATOM     37  C   UNL A   1      40.886  27.812  28.455  1.00  0.00     0.031 A 
ATOM     38  C   UNL A   1      42.376  27.993  28.303  1.00  0.00     0.074 A 
ATOM     39  C   UNL A   1      40.150  28.827  28.948  1.00  0.00     0.049 A 
ATOM     40  N   UNL A   1      43.116  29.041  28.562  1.00  0.00    -0.248 NA
ATOM     41  C   UNL A   1      43.131  26.843  27.779  1.00  0.00     0.031 C 
ATOM     42  C   UNL A   1      38.697  28.814  29.120  1.00  0.00     0.029 A 
ATOM     43  N   UNL A   1      40.525  30.080  29.375  1.00  0.00    -0.354 N 
ATOM     44  C   UNL A   1      44.416  28.684  28.223  1.00  0.00     0.074 A 
ATOM     45  C   UNL A   1      44.372  27.306  27.782  1.00  0.00     0.031 C 
ATOM     46  C   UNL A   1      38.304  30.006  29.601  1.00  0.00     0.029 A 
ATOM     47  C   UNL A   1      39.475  30.864  29.787  1.00  0.00     0.049 A 
ATOM     48  H   UNL A   1      41.461  30.387  29.382  1.00  0.00     0.167 HD
ATOM     49  C   UNL A   1      45.544  29.434  28.252  1.00  0.00     0.037 A 
ATOM     50  C   UNL A   1      39.453  32.129  30.259  1.00  0.00     0.037 A 
ATOM     51  C   UNL A   1      45.605  30.807  28.679  1.00  0.00     0.049 A 
ATOM     52  C   UNL A   1      40.731  32.924  30.346  1.00  0.00     0.074 A 
ATOM     53  C   UNL A   1      46.705  31.646  28.717  1.00  0.00     0.029 A 
ATOM     54  N   UNL A   1      44.527  31.541  29.149  1.00  0.00    -0.354 N 
ATOM     55  N   UNL A   1      41.943  32.581  29.980  1.00  0.00    -0.248 NA
ATOM     56  C   UNL A   1      40.637  34.282  30.903  1.00  0.00     0.031 C 
ATOM     57  C   UNL A   1      46.303  32.874  29.254  1.00  0.00     0.029 A 
ATOM     58  C   UNL A   1      44.943  32.814  29.506  1.00  0.00     0.049 A 
ATOM     59  H   UNL A   1      43.604  31.207  29.219  1.00  0.00     0.167 HD
ATOM     60  C   UNL A   1      42.747  33.688  30.239  1.00  0.00     0.074 A 
ATOM     61  C   UNL A   1      41.885  34.716  30.783  1.00  0.00     0.031 C 
ATOM     62  C   UNL A   1      44.080  33.839  30.040  1.00  0.00     0.037 A 
BRANCH  49  63
ATOM     63  C   UNL A   1      46.823  28.774  27.820  1.00  0.00     0.058 A 
ATOM     64  C   UNL A   1      47.252  28.805  26.484  1.00  0.00     0.135 A 
ATOM     65  C   UNL A   1      47.643  28.129  28.759  1.00  0.00     0.135 A 
ATOM     66  F   UNL A   1      46.497  29.395  25.544  1.00  0.00    -0.206 F 
ATOM     67  C   UNL A   1      48.439  28.196  26.089  1.00  0.00     0.059 A 
ATOM     68  C   UNL A   1      48.845  27.534  28.391  1.00  0.00     0.059 A 
ATOM     69  F   UNL A   1      47.277  28.071  30.049  1.00  0.00    -0.206 F 
ATOM     70  C   UNL A   1      49.227  27.560  27.050  1.00  0.00     0.060 A 
BRANCH  70  71
ATOM     71  S   UNL A   1      50.762  26.770  26.523  1.00  0.00     0.124 S 
ATOM     72  O   UNL A   1      50.841  27.191  25.128  1.00  0.00    -0.237 OA
ATOM     73  O   UNL A   1      51.746  27.366  27.422  1.00  0.00    -0.237 OA
ATOM     74  O   UNL A   1      50.503  25.350  26.736  1.00  0.00    -0.744 OA
ENDBRANCH  70  71
ENDBRANCH  49  63
BRANCH  50  75
ATOM     75  C   UNL A   1      38.167  32.734  30.697  1.00  0.00     0.058 A 
ATOM     76  C   UNL A   1      37.733  32.647  32.029  1.00  0.00     0.135 A 
ATOM     77  C   UNL A   1      37.334  33.394  29.780  1.00  0.00     0.135 A 
ATOM     78  F   UNL A   1      38.487  32.012  32.939  1.00  0.00    -0.206 F 
ATOM     79  C   UNL A   1      36.512  33.179  32.434  1.00  0.00     0.059 A 
ATOM     80  C   UNL A   1      36.121  33.954  30.166  1.00  0.00     0.059 A 
ATOM     81  F   UNL A   1      37.706  33.508  28.496  1.00  0.00    -0.206 F 
ATOM     82  C   UNL A   1      35.713  33.833  31.493  1.00  0.00     0.060 A 
BRANCH  82  83
ATOM     83  S   UNL A   1      34.152  34.561  32.033  1.00  0.00     0.124 S 
ATOM     84  O   UNL A   1      33.638  33.527  32.923  1.00  0.00    -0.237 OA
ATOM     85  O   UNL A   1      34.595  35.796  32.676  1.00  0.00    -0.237 OA
ATOM     86  O   UNL A   1      33.419  34.743  30.784  1.00  0.00    -0.744 OA
ENDBRANCH  82  83
ENDBRANCH  50  75
BRANCH  62  87
ATOM     87  C   UNL A   1      44.699  35.168  30.382  1.00  0.00     0.058 A 
ATOM     88  C   UNL A   1      44.743  36.221  29.455  1.00  0.00     0.135 A 
ATOM     89  C   UNL A   1      45.193  35.414  31.674  1.00  0.00     0.135 A 
ATOM     90  F   UNL A   1      44.287  36.040  28.205  1.00  0.00    -0.206 F 
ATOM     91  C   UNL A   1      45.273  37.464  29.790  1.00  0.00     0.059 A 
ATOM     92  C   UNL A   1      45.705  36.656  32.038  1.00  0.00     0.059 A 
ATOM     93  F   UNL A   1      45.165  34.446  32.604  1.00  0.00    -0.206 F 
ATOM     94  C   UNL A   1      45.750  37.673  31.085  1.00  0.00     0.060 A 
BRANCH  94  95
ATOM     95  S   UNL A   1      46.399  39.302  31.520  1.00  0.00     0.124 S 
ATOM     96  O   UNL A   1      47.347  38.968  32.577  1.00  0.00    -0.237 OA
ATOM     97  O   UNL A   1      46.986  39.752  30.262  1.00  0.00    -0.237 OA
ATOM     98  O   UNL A   1      45.212  40.037  31.949  1.00  0.00    -0.744 OA
ENDBRANCH  94  95
ENDBRANCH  62  87
ENDBRANCH  36  37
ENDBRANCH  29  31
ENDBRANCH  28  29
ENDBRANCH  27  28
ENDBRANCH  26  27
ENDBRANCH  25  26
ENDBRANCH   1  25
TORSDOF 23
ENDMDL
MODEL 2
REMARK VINA RESULT:      -9.8      3.504      9.993
REMARK SMILES CC[C@](C)(NC(=O)CCOc1ccc(Cl)c(Cl)c1)C(=O)OCCOCCOC(=O)c1ccc(-c2c3nc(c(-c4c(F)cc(S(=O)(=O)[O-])cc4F)c4ccc([nH]4)c(-c4c(F)cc(S(=O)(=O)[O-])cc4F)c4nc(c(-c5c(F)cc(S(=O)(=O)[O-])cc5F)c5ccc2[nH]5)C=C4)C=C3)cc1
REMARK SMILES IDX 23 1 22 2 21 3 19 4 20 5 3 6 4 7 2 8 1 9 5 10 6 11 7 13 8 14
REMARK SMILES IDX 9 15 10 16 11 17 12 18 18 19 13 20 16 21 14 22 17 23 15 24
REMARK SMILES IDX 24 25 25 26 26 27 27 28 28 29 29 30 30 31 31 32 95 33 32 34
REMARK SMILES IDX 94 35 33 36 34 37 35 38 88 39 36 40 93 41 87 42 89 43 37 44
REMARK SMILES IDX 92 45 86 46 85 47 38 49 72 50 51 51 71 52 52 53 55 54 70 55
REMARK SMILES IDX 90 56 53 57 54 58 69 60 91 61 56 62 39 63 40 64 49 65 41 66
REMARK SMILES IDX 42 67 48 68 50 69 43 70 44 71 45 72 46 73 47 74 73 75 74 76
REMARK SMILES IDX 83 77 75 78 76 79 82 80 84 81 77 82 78 83 79 84 80 85 81 86
REMARK SMILES IDX 57 87 58 88 67 89 59 90 60 91 66 92 68 93 61 94 62 95 63 96
REMARK SMILES IDX 64 97 65 98
REMARK H PARENT 5 12 89 48 55 59
REMARK Flexibility Score: inf
ROOT
ATOM      1  C   UNL A   1      33.532  31.935  27.773  1.00  0.00     0.202 C 
ENDROOT
BRANCH   1   2
ATOM      2  C   UNL A   1      33.924  30.586  27.161  1.00  0.00     0.261 C 
BRANCH   2   3
ATOM      3  O   UNL A   1      32.831  29.639  27.295  1.00  0.00    -0.462 OA
BRANCH   3   4
ATOM      4  C   UNL A   1      32.043  29.540  26.186  1.00  0.00     0.331 C 
ATOM      5  O   UNL A   1      31.730  30.514  25.508  1.00  0.00    -0.249 OA
BRANCH   4   6
ATOM      6  C   UNL A   1      31.806  28.065  25.721  1.00  0.00     0.135 C 
ATOM      7  C   UNL A   1      31.808  27.224  27.012  1.00  0.00     0.047 C 
BRANCH   6   8
ATOM      8  C   UNL A   1      33.060  27.645  24.872  1.00  0.00     0.037 C 
ATOM      9  C   UNL A   1      33.831  26.438  25.421  1.00  0.00     0.007 C 
ENDBRANCH   6   8
BRANCH   6  10
ATOM     10  N   UNL A   1      30.630  27.726  24.849  1.00  0.00    -0.340 N 
ATOM     11  C   UNL A   1      30.136  26.738  24.081  1.00  0.00     0.224 C 
ATOM     12  H   UNL A   1      30.007  28.489  24.835  1.00  0.00     0.164 HD
ATOM     13  O   UNL A   1      29.318  27.089  23.223  1.00  0.00    -0.275 OA
BRANCH  11  14
ATOM     14  C   UNL A   1      30.388  25.279  24.289  1.00  0.00     0.141 C 
BRANCH  14  15
ATOM     15  C   UNL A   1      31.341  24.641  23.315  1.00  0.00     0.239 C 
BRANCH  15  16
ATOM     16  O   UNL A   1      31.319  23.212  23.301  1.00  0.00    -0.493 OA
BRANCH  16  17
ATOM     17  C   UNL A   1      32.494  22.709  23.772  1.00  0.00     0.120 A 
ATOM     18  C   UNL A   1      32.425  21.754  24.778  1.00  0.00     0.048 A 
ATOM     19  C   UNL A   1      33.721  23.143  23.271  1.00  0.00     0.068 A 
ATOM     20  C   UNL A   1      33.593  21.155  25.236  1.00  0.00     0.026 A 
ATOM     21  C   UNL A   1      34.895  22.545  23.734  1.00  0.00     0.063 A 
ATOM     22  C   UNL A   1      34.830  21.539  24.709  1.00  0.00     0.059 A 
ATOM     23  Cl  UNL A   1      36.388  23.054  23.030  1.00  0.00    -0.083 Cl
ATOM     24  Cl  UNL A   1      36.234  20.717  25.288  1.00  0.00    -0.083 Cl
ENDBRANCH  16  17
ENDBRANCH  15  16
ENDBRANCH  14  15
ENDBRANCH  11  14
ENDBRANCH   6  10
ENDBRANCH   4   6
ENDBRANCH   3   4
ENDBRANCH   2   3
ENDBRANCH   1   2
BRANCH   1  25
ATOM     25  O   UNL A   1      34.631  32.699  28.286  1.00  0.00    -0.374 OA
BRANCH  25  26
ATOM     26  C   UNL A   1      34.419  33.389  29.516  1.00  0.00     0.202 C 
BRANCH  26  27
ATOM     27  C   UNL A   1      35.641  33.489  30.463  1.00  0.00     0.261 C 
BRANCH  27  28
ATOM     28  O   UNL A   1      36.763  32.690  30.036  1.00  0.00    -0.460 OA
BRANCH  28  29
ATOM     29  C   UNL A   1      36.886  31.504  30.689  1.00  0.00     0.338 C 
ATOM     30  O   UNL A   1      36.141  31.076  31.545  1.00  0.00    -0.246 OA
BRANCH  29  31
ATOM     31  C   UNL A   1      37.961  30.674  30.087  1.00  0.00     0.060 A 
ATOM     32  C   UNL A   1      39.037  30.364  30.927  1.00  0.00     0.016 A 
ATOM     33  C   UNL A   1      37.982  30.265  28.750  1.00  0.00     0.016 A 
ATOM     34  C   UNL A   1      40.168  29.728  30.419  1.00  0.00     0.010 A 
ATOM     35  C   UNL A   1      39.126  29.621  28.240  1.00  0.00     0.010 A 
ATOM     36  C   UNL A   1      40.248  29.397  29.061  1.00  0.00    -0.014 A 
BRANCH  36  37
ATOM     37  C   UNL A   1      41.579  29.004  28.518  1.00  0.00     0.031 A 
ATOM     38  C   UNL A   1      42.699  30.016  28.514  1.00  0.00     0.074 A 
ATOM     39  C   UNL A   1      41.845  27.731  28.166  1.00  0.00     0.049 A 
ATOM     40  N   UNL A   1      43.967  29.850  28.235  1.00  0.00    -0.248 NA
ATOM     41  C   UNL A   1      42.344  31.396  28.885  1.00  0.00     0.031 C 
ATOM     42  C   UNL A   1      40.876  26.636  28.155  1.00  0.00     0.029 A 
ATOM     43  N   UNL A   1      43.023  27.139  27.773  1.00  0.00    -0.354 N 
ATOM     44  C   UNL A   1      44.562  31.095  28.407  1.00  0.00     0.074 A 
ATOM     45  C   UNL A   1      43.508  32.017  28.772  1.00  0.00     0.031 C 
ATOM     46  C   UNL A   1      41.502  25.504  27.789  1.00  0.00     0.029 A 
ATOM     47  C   UNL A   1      42.912  25.792  27.524  1.00  0.00     0.049 A 
ATOM     48  H   UNL A   1      43.869  27.635  27.680  1.00  0.00     0.167 HD
ATOM     49  C   UNL A   1      45.867  31.441  28.297  1.00  0.00     0.037 A 
ATOM     50  C   UNL A   1      43.836  24.891  27.130  1.00  0.00     0.037 A 
ATOM     51  C   UNL A   1      46.929  30.536  27.945  1.00  0.00     0.049 A 
ATOM     52  C   UNL A   1      45.272  25.314  26.948  1.00  0.00     0.074 A 
ATOM     53  C   UNL A   1      48.283  30.802  27.833  1.00  0.00     0.029 A 
ATOM     54  N   UNL A   1      46.760  29.195  27.638  1.00  0.00    -0.354 N 
ATOM     55  N   UNL A   1      45.821  26.486  27.157  1.00  0.00    -0.248 NA
ATOM     56  C   UNL A   1      46.217  24.286  26.482  1.00  0.00     0.031 C 
ATOM     57  C   UNL A   1      48.927  29.633  27.414  1.00  0.00     0.029 A 
ATOM     58  C   UNL A   1      47.981  28.628  27.310  1.00  0.00     0.049 A 
ATOM     59  H   UNL A   1      45.900  28.716  27.652  1.00  0.00     0.167 HD
ATOM     60  C   UNL A   1      47.176  26.329  26.875  1.00  0.00     0.074 A 
ATOM     61  C   UNL A   1      47.367  24.947  26.488  1.00  0.00     0.031 C 
ATOM     62  C   UNL A   1      48.171  27.249  26.933  1.00  0.00     0.037 A 
BRANCH  49  63
ATOM     63  C   UNL A   1      46.223  32.879  28.547  1.00  0.00     0.058 A 
ATOM     64  C   UNL A   1      46.596  33.334  29.822  1.00  0.00     0.135 A 
ATOM     65  C   UNL A   1      46.218  33.807  27.494  1.00  0.00     0.135 A 
ATOM     66  F   UNL A   1      46.601  32.491  30.866  1.00  0.00    -0.206 F 
ATOM     67  C   UNL A   1      46.929  34.666  30.048  1.00  0.00     0.059 A 
ATOM     68  C   UNL A   1      46.570  35.138  27.692  1.00  0.00     0.059 A 
ATOM     69  F   UNL A   1      45.868  33.423  26.256  1.00  0.00    -0.206 F 
ATOM     70  C   UNL A   1      46.910  35.560  28.977  1.00  0.00     0.060 A 
BRANCH  70  71
ATOM     71  S   UNL A   1      47.338  37.287  29.286  1.00  0.00     0.124 S 
ATOM     72  O   UNL A   1      46.034  37.933  29.177  1.00  0.00    -0.237 OA
ATOM     73  O   UNL A   1      47.909  37.233  30.629  1.00  0.00    -0.237 OA
ATOM     74  O   UNL A   1      48.284  37.598  28.219  1.00  0.00    -0.744 OA
ENDBRANCH  70  71
ENDBRANCH  49  63
BRANCH  50  75
ATOM     75  C   UNL A   1      43.435  23.482  26.871  1.00  0.00     0.058 A 
ATOM     76  C   UNL A   1      43.348  22.974  25.566  1.00  0.00     0.135 A 
ATOM     77  C   UNL A   1      43.106  22.622  27.931  1.00  0.00     0.135 A 
ATOM     78  F   UNL A   1      43.635  23.762  24.519  1.00  0.00    -0.206 F 
ATOM     79  C   UNL A   1      42.935  21.668  25.319  1.00  0.00     0.059 A 
ATOM     80  C   UNL A   1      42.714  21.307  27.710  1.00  0.00     0.059 A 
ATOM     81  F   UNL A   1      43.179  23.059  29.198  1.00  0.00    -0.206 F 
ATOM     82  C   UNL A   1      42.621  20.841  26.400  1.00  0.00     0.060 A 
BRANCH  82  83
ATOM     83  S   UNL A   1      42.131  19.134  26.076  1.00  0.00     0.124 S 
ATOM     84  O   UNL A   1      40.698  19.279  25.846  1.00  0.00    -0.237 OA
ATOM     85  O   UNL A   1      42.937  18.799  24.905  1.00  0.00    -0.237 OA
ATOM     86  O   UNL A   1      42.508  18.440  27.304  1.00  0.00    -0.744 OA
ENDBRANCH  82  83
ENDBRANCH  50  75
BRANCH  62  87
ATOM     87  C   UNL A   1      49.568  26.798  26.601  1.00  0.00     0.058 A 
ATOM     88  C   UNL A   1      50.400  26.205  27.564  1.00  0.00     0.135 A 
ATOM     89  C   UNL A   1      50.058  26.900  25.288  1.00  0.00     0.135 A 
ATOM     90  F   UNL A   1      49.984  26.085  28.834  1.00  0.00    -0.206 F 
ATOM     91  C   UNL A   1      51.674  25.747  27.241  1.00  0.00     0.059 A 
ATOM     92  C   UNL A   1      51.319  26.427  24.938  1.00  0.00     0.059 A 
ATOM     93  F   UNL A   1      49.299  27.448  24.325  1.00  0.00    -0.206 F 
ATOM     94  C   UNL A   1      52.125  25.860  25.925  1.00  0.00     0.060 A 
BRANCH  94  95
ATOM     95  S   UNL A   1      53.765  25.225  25.510  1.00  0.00     0.124 S 
ATOM     96  O   UNL A   1      54.311  26.320  24.716  1.00  0.00    -0.237 OA
ATOM     97  O   UNL A   1      54.369  25.033  26.824  1.00  0.00    -0.237 OA
ATOM     98  O   UNL A   1      53.477  23.998  24.773  1.00  0.00    -0.744 OA
ENDBRANCH  94  95
ENDBRANCH  62  87
ENDBRANCH  36  37
ENDBRANCH  29  31
ENDBRANCH  28  29
ENDBRANCH  27  28
ENDBRANCH  26  27
ENDBRANCH  25  26
ENDBRANCH   1  25
TORSDOF 23
ENDMDL
MODEL 3
REMARK VINA RESULT:      -9.7      1.614      2.439
REMARK SMILES CC[C@](C)(NC(=O)CCOc1ccc(Cl)c(Cl)c1)C(=O)OCCOCCOC(=O)c1ccc(-c2c3nc(c(-c4c(F)cc(S(=O)(=O)[O-])cc4F)c4ccc([nH]4)c(-c4c(F)cc(S(=O)(=O)[O-])cc4F)c4nc(c(-c5c(F)cc(S(=O)(=O)[O-])cc5F)c5ccc2[nH]5)C=C4)C=C3)cc1
REMARK SMILES IDX 23 1 22 2 21 3 19 4 20 5 3 6 4 7 2 8 1 9 5 10 6 11 7 13 8 14
REMARK SMILES IDX 9 15 10 16 11 17 12 18 18 19 13 20 16 21 14 22 17 23 15 24
REMARK SMILES IDX 24 25 25 26 26 27 27 28 28 29 29 30 30 31 31 32 95 33 32 34
REMARK SMILES IDX 94 35 33 36 34 37 35 38 88 39 36 40 93 41 87 42 89 43 37 44
REMARK SMILES IDX 92 45 86 46 85 47 38 49 72 50 51 51 71 52 52 53 55 54 70 55
REMARK SMILES IDX 90 56 53 57 54 58 69 60 91 61 56 62 39 63 40 64 49 65 41 66
REMARK SMILES IDX 42 67 48 68 50 69 43 70 44 71 45 72 46 73 47 74 73 75 74 76
REMARK SMILES IDX 83 77 75 78 76 79 82 80 84 81 77 82 78 83 79 84 80 85 81 86
REMARK SMILES IDX 57 87 58 88 67 89 59 90 60 91 66 92 68 93 61 94 62 95 63 96
REMARK SMILES IDX 64 97 65 98
REMARK H PARENT 5 12 89 48 55 59
REMARK Flexibility Score: inf
ROOT
ATOM      1  C   UNL A   1      34.390  19.483  24.626  1.00  0.00     0.202 C 
ENDROOT
BRANCH   1   2
ATOM      2  C   UNL A   1      33.328  20.196  25.470  1.00  0.00     0.261 C 
BRANCH   2   3
ATOM      3  O   UNL A   1      32.375  20.871  24.609  1.00  0.00    -0.462 OA
BRANCH   3   4
ATOM      4  C   UNL A   1      31.956  22.079  25.083  1.00  0.00     0.331 C 
ATOM      5  O   UNL A   1      31.349  22.198  26.144  1.00  0.00    -0.249 OA
BRANCH   4   6
ATOM      6  C   UNL A   1      32.546  23.296  24.297  1.00  0.00     0.135 C 
ATOM      7  C   UNL A   1      33.245  22.687  23.066  1.00  0.00     0.047 C 
BRANCH   6   8
ATOM      8  C   UNL A   1      33.654  23.938  25.209  1.00  0.00     0.037 C 
ATOM      9  C   UNL A   1      34.436  25.084  24.556  1.00  0.00     0.007 C 
ENDBRANCH   6   8
BRANCH   6  10
ATOM     10  N   UNL A   1      31.663  24.449  23.910  1.00  0.00    -0.340 N 
ATOM     11  C   UNL A   1      30.636  25.190  24.364  1.00  0.00     0.224 C 
ATOM     12  H   UNL A   1      31.927  24.772  23.018  1.00  0.00     0.164 HD
ATOM     13  O   UNL A   1      29.977  25.774  23.496  1.00  0.00    -0.275 OA
BRANCH  11  14
ATOM     14  C   UNL A   1      30.344  25.465  25.804  1.00  0.00     0.141 C 
BRANCH  14  15
ATOM     15  C   UNL A   1      31.093  26.623  26.406  1.00  0.00     0.239 C 
BRANCH  15  16
ATOM     16  O   UNL A   1      32.168  27.124  25.608  1.00  0.00    -0.493 OA
BRANCH  16  17
ATOM     17  C   UNL A   1      32.623  28.308  26.104  1.00  0.00     0.120 A 
ATOM     18  C   UNL A   1      31.686  29.305  26.344  1.00  0.00     0.048 A 
ATOM     19  C   UNL A   1      33.979  28.517  26.351  1.00  0.00     0.068 A 
ATOM     20  C   UNL A   1      32.092  30.503  26.922  1.00  0.00     0.026 A 
ATOM     21  C   UNL A   1      34.388  29.722  26.927  1.00  0.00     0.063 A 
ATOM     22  C   UNL A   1      33.440  30.711  27.226  1.00  0.00     0.059 A 
ATOM     23  Cl  UNL A   1      36.066  29.909  27.293  1.00  0.00    -0.083 Cl
ATOM     24  Cl  UNL A   1      33.865  32.201  27.990  1.00  0.00    -0.083 Cl
ENDBRANCH  16  17
ENDBRANCH  15  16
ENDBRANCH  14  15
ENDBRANCH  11  14
ENDBRANCH   6  10
ENDBRANCH   4   6
ENDBRANCH   3   4
ENDBRANCH   2   3
ENDBRANCH   1   2
BRANCH   1  25
ATOM     25  O   UNL A   1      35.743  19.788  24.988  1.00  0.00    -0.374 OA
BRANCH  25  26
ATOM     26  C   UNL A   1      36.178  21.130  24.784  1.00  0.00     0.202 C 
BRANCH  26  27
ATOM     27  C   UNL A   1      37.684  21.405  25.023  1.00  0.00     0.261 C 
BRANCH  27  28
ATOM     28  O   UNL A   1      37.931  22.388  26.049  1.00  0.00    -0.460 OA
BRANCH  28  29
ATOM     29  C   UNL A   1      39.247  22.602  26.314  1.00  0.00     0.338 C 
ATOM     30  O   UNL A   1      40.171  21.889  25.982  1.00  0.00    -0.246 OA
BRANCH  29  31
ATOM     31  C   UNL A   1      39.459  23.947  26.908  1.00  0.00     0.060 A 
ATOM     32  C   UNL A   1      40.056  24.897  26.072  1.00  0.00     0.016 A 
ATOM     33  C   UNL A   1      39.168  24.274  28.236  1.00  0.00     0.016 A 
ATOM     34  C   UNL A   1      40.443  26.138  26.576  1.00  0.00     0.010 A 
ATOM     35  C   UNL A   1      39.559  25.529  28.743  1.00  0.00     0.010 A 
ATOM     36  C   UNL A   1      40.248  26.447  27.928  1.00  0.00    -0.014 A 
BRANCH  36  37
ATOM     37  C   UNL A   1      40.946  27.645  28.475  1.00  0.00     0.031 A 
ATOM     38  C   UNL A   1      42.440  27.767  28.302  1.00  0.00     0.074 A 
ATOM     39  C   UNL A   1      40.259  28.684  28.988  1.00  0.00     0.049 A 
ATOM     40  N   UNL A   1      43.226  28.783  28.558  1.00  0.00    -0.248 NA
ATOM     41  C   UNL A   1      43.141  26.592  27.757  1.00  0.00     0.031 C 
ATOM     42  C   UNL A   1      38.810  28.728  29.181  1.00  0.00     0.029 A 
ATOM     43  N   UNL A   1      40.691  29.917  29.419  1.00  0.00    -0.354 N 
ATOM     44  C   UNL A   1      44.505  28.377  28.197  1.00  0.00     0.074 A 
ATOM     45  C   UNL A   1      44.399  27.005  27.745  1.00  0.00     0.031 C 
ATOM     46  C   UNL A   1      38.473  29.930  29.678  1.00  0.00     0.029 A 
ATOM     47  C   UNL A   1      39.679  30.740  29.853  1.00  0.00     0.049 A 
ATOM     48  H   UNL A   1      41.638  30.186  29.415  1.00  0.00     0.167 HD
ATOM     49  C   UNL A   1      45.663  29.080  28.215  1.00  0.00     0.037 A 
ATOM     50  C   UNL A   1      39.715  32.000  30.336  1.00  0.00     0.037 A 
ATOM     51  C   UNL A   1      45.785  30.446  28.652  1.00  0.00     0.049 A 
ATOM     52  C   UNL A   1      41.026  32.741  30.410  1.00  0.00     0.074 A 
ATOM     53  C   UNL A   1      46.919  31.240  28.681  1.00  0.00     0.029 A 
ATOM     54  N   UNL A   1      44.745  31.218  29.145  1.00  0.00    -0.354 N 
ATOM     55  N   UNL A   1      42.218  32.354  30.024  1.00  0.00    -0.248 NA
ATOM     56  C   UNL A   1      40.995  34.098  30.980  1.00  0.00     0.031 C 
ATOM     57  C   UNL A   1      46.574  32.478  29.234  1.00  0.00     0.029 A 
ATOM     58  C   UNL A   1      45.216  32.470  29.506  1.00  0.00     0.049 A 
ATOM     59  H   UNL A   1      43.810  30.921  29.226  1.00  0.00     0.167 HD
ATOM     60  C   UNL A   1      43.069  33.425  30.279  1.00  0.00     0.074 A 
ATOM     61  C   UNL A   1      42.257  34.482  30.845  1.00  0.00     0.031 C 
ATOM     62  C   UNL A   1      44.404  33.524  30.062  1.00  0.00     0.037 A 
BRANCH  49  63
ATOM     63  C   UNL A   1      46.907  28.373  27.758  1.00  0.00     0.058 A 
ATOM     64  C   UNL A   1      47.721  27.663  28.654  1.00  0.00     0.135 A 
ATOM     65  C   UNL A   1      47.273  28.382  26.403  1.00  0.00     0.135 A 
ATOM     66  F   UNL A   1      47.425  27.637  29.963  1.00  0.00    -0.206 F 
ATOM     67  C   UNL A   1      48.870  27.006  28.225  1.00  0.00     0.059 A 
ATOM     68  C   UNL A   1      48.404  27.712  25.948  1.00  0.00     0.059 A 
ATOM     69  F   UNL A   1      46.528  29.047  25.506  1.00  0.00    -0.206 F 
ATOM     70  C   UNL A   1      49.205  27.039  26.871  1.00  0.00     0.060 A 
BRANCH  70  71
ATOM     71  S   UNL A   1      50.701  26.187  26.329  1.00  0.00     0.124 S 
ATOM     72  O   UNL A   1      50.543  24.887  26.973  1.00  0.00    -0.237 OA
ATOM     73  O   UNL A   1      50.558  26.195  24.876  1.00  0.00    -0.237 OA
ATOM     74  O   UNL A   1      51.776  27.022  26.854  1.00  0.00    -0.744 OA
ENDBRANCH  70  71
ENDBRANCH  49  63
BRANCH  50  75
ATOM     75  C   UNL A   1      38.461  32.652  30.798  1.00  0.00     0.058 A 
ATOM     76  C   UNL A   1      37.588  33.280  29.897  1.00  0.00     0.135 A 
ATOM     77  C   UNL A   1      38.125  32.680  32.161  1.00  0.00     0.135 A 
ATOM     78  F   UNL A   1      37.873  33.295  28.586  1.00  0.00    -0.206 F 
ATOM     79  C   UNL A   1      36.433  33.925  30.331  1.00  0.00     0.059 A 
ATOM     80  C   UNL A   1      36.965  33.297  32.616  1.00  0.00     0.059 A 
ATOM     81  F   UNL A   1      38.926  32.089  33.062  1.00  0.00    -0.206 F 
ATOM     82  C   UNL A   1      36.130  33.926  31.695  1.00  0.00     0.060 A 
BRANCH  82  83
ATOM     83  S   UNL A   1      34.607  34.724  32.247  1.00  0.00     0.124 S 
ATOM     84  O   UNL A   1      34.111  35.301  31.003  1.00  0.00    -0.237 OA
ATOM     85  O   UNL A   1      33.845  33.598  32.779  1.00  0.00    -0.237 OA
ATOM     86  O   UNL A   1      35.075  35.680  33.246  1.00  0.00    -0.744 OA
ENDBRANCH  82  83
ENDBRANCH  50  75
BRANCH  62  87
ATOM     87  C   UNL A   1      45.080  34.825  30.405  1.00  0.00     0.058 A 
ATOM     88  C   UNL A   1      45.220  35.854  29.462  1.00  0.00     0.135 A 
ATOM     89  C   UNL A   1      45.536  35.068  31.712  1.00  0.00     0.135 A 
ATOM     90  F   UNL A   1      44.805  35.674  28.199  1.00  0.00    -0.206 F 
ATOM     91  C   UNL A   1      45.804  37.073  29.797  1.00  0.00     0.059 A 
ATOM     92  C   UNL A   1      46.101  36.288  32.075  1.00  0.00     0.059 A 
ATOM     93  F   UNL A   1      45.417  34.122  32.657  1.00  0.00    -0.206 F 
ATOM     94  C   UNL A   1      46.239  37.282  31.107  1.00  0.00     0.060 A 
BRANCH  94  95
ATOM     95  S   UNL A   1      46.959  38.881  31.540  1.00  0.00     0.124 S 
ATOM     96  O   UNL A   1      47.784  39.160  30.369  1.00  0.00    -0.237 OA
ATOM     97  O   UNL A   1      45.778  39.725  31.698  1.00  0.00    -0.237 OA
ATOM     98  O   UNL A   1      47.691  38.602  32.772  1.00  0.00    -0.744 OA
ENDBRANCH  94  95
ENDBRANCH  62  87
ENDBRANCH  36  37
ENDBRANCH  29  31
ENDBRANCH  28  29
ENDBRANCH  27  28
ENDBRANCH  26  27
ENDBRANCH  25  26
ENDBRANCH   1  25
TORSDOF 23
ENDMDL
