MODEL 1
REMARK VINA RESULT:     -11.8      0.000      0.000
REMARK SMILES Cc1cc(=O)c(Oc2ccc(C(=O)OCCOCCOC(=O)c3ccc(-c4c5nc(c(-c6c(F)cc(S(=O)(=O)[O-])cc6F)c6ccc([nH]6)c(-c6c(F)cc(S(=O)(=O)[O-])cc6F)c6nc(c(-c7c(F)cc(S(=O)(=O)[O-])cc7F)c7ccc4[nH]7)C=C6)C=C5)cc3)cc2)c(-c2ccc(S(C)(=O)=O)cc2)o1
REMARK SMILES IDX 16 1 15 2 14 3 12 4 13 5 11 6 8 7 9 8 90 9 10 10 89 11 7 12
REMARK SMILES IDX 6 13 1 14 2 15 3 16 102 17 4 18 91 19 5 20 92 21 93 22
REMARK SMILES IDX 101 23 94 24 100 25 95 26 96 27 97 28 98 29 99 30 17 31
REMARK SMILES IDX 18 32 19 33 20 34 21 35 22 36 23 37 24 38 88 39 25 40 87 41
REMARK SMILES IDX 26 42 27 43 28 44 81 45 29 46 86 47 80 48 82 49 30 50 85 51
REMARK SMILES IDX 79 52 78 53 31 55 65 56 44 57 64 58 45 59 48 60 63 61 83 62
REMARK SMILES IDX 46 63 47 64 62 66 84 67 49 68 32 69 33 70 42 71 34 72 35 73
REMARK SMILES IDX 41 74 43 75 36 76 37 77 38 78 39 79 40 80 66 81 67 82 76 83
REMARK SMILES IDX 68 84 69 85 75 86 77 87 70 88 71 89 72 90 73 91 74 92 50 93
REMARK SMILES IDX 51 94 60 95 52 96 53 97 59 98 61 99 54 100 55 101 56 102
REMARK SMILES IDX 57 103 58 104
REMARK H PARENT 82 54 48 65
REMARK Flexibility Score: inf
ROOT
ATOM      1  C   UNL A   1      34.047  34.016  29.768  1.00  0.00     0.202 C 
ENDROOT
BRANCH   1   2
ATOM      2  C   UNL A   1      33.824  33.665  28.290  1.00  0.00     0.261 C 
BRANCH   2   3
ATOM      3  O   UNL A   1      33.494  32.271  28.135  1.00  0.00    -0.460 OA
BRANCH   3   4
ATOM      4  C   UNL A   1      34.462  31.495  27.586  1.00  0.00     0.338 C 
ATOM      5  O   UNL A   1      35.634  31.798  27.423  1.00  0.00    -0.246 OA
BRANCH   4   6
ATOM      6  C   UNL A   1      33.939  30.129  27.301  1.00  0.00     0.060 A 
ATOM      7  C   UNL A   1      32.819  27.651  26.612  1.00  0.00     0.127 A 
ATOM      8  C   UNL A   1      31.988  28.715  26.951  1.00  0.00     0.048 A 
ATOM      9  C   UNL A   1      34.208  27.798  26.689  1.00  0.00     0.048 A 
ATOM     10  C   UNL A   1      32.547  29.957  27.265  1.00  0.00     0.019 A 
ATOM     11  C   UNL A   1      34.770  29.035  27.029  1.00  0.00     0.019 A 
BRANCH   7  12
ATOM     12  O   UNL A   1      32.327  26.397  26.397  1.00  0.00    -0.449 OA
BRANCH  12  13
ATOM     13  C   UNL A   1      32.490  25.672  25.228  1.00  0.00     0.217 A 
ATOM     14  C   UNL A   1      33.583  23.353  21.745  1.00  0.00     0.088 C 
ATOM     15  C   UNL A   1      33.261  24.038  23.033  1.00  0.00     0.105 A 
ATOM     16  C   UNL A   1      33.871  23.781  24.190  1.00  0.00     0.098 A 
ATOM     17  O   UNL A   1      32.263  24.973  22.923  1.00  0.00    -0.457 OA
ATOM     18  C   UNL A   1      33.476  24.547  25.384  1.00  0.00     0.228 A 
ATOM     19  C   UNL A   1      31.936  25.795  23.995  1.00  0.00     0.180 A 
ATOM     20  O   UNL A   1      33.975  24.255  26.468  1.00  0.00    -0.285 OA
BRANCH  19  21
ATOM     21  C   UNL A   1      30.939  26.763  23.525  1.00  0.00     0.021 A 
ATOM     22  C   UNL A   1      31.347  27.853  22.732  1.00  0.00     0.013 A 
ATOM     23  C   UNL A   1      29.635  26.728  24.019  1.00  0.00     0.013 A 
ATOM     24  C   UNL A   1      30.448  28.864  22.383  1.00  0.00     0.021 A 
ATOM     25  C   UNL A   1      28.762  27.770  23.715  1.00  0.00     0.021 A 
ATOM     26  C   UNL A   1      29.151  28.813  22.876  1.00  0.00     0.067 A 
BRANCH  26  27
ATOM     27  S   UNL A   1      27.943  30.020  22.379  1.00  0.00     0.175 S 
ATOM     28  C   UNL A   1      28.446  31.517  23.183  1.00  0.00     0.163 C 
ATOM     29  O   UNL A   1      28.080  30.216  20.949  1.00  0.00    -0.224 OA
ATOM     30  O   UNL A   1      26.687  29.599  22.957  1.00  0.00    -0.224 OA
ENDBRANCH  26  27
ENDBRANCH  19  21
ENDBRANCH  12  13
ENDBRANCH   7  12
ENDBRANCH   4   6
ENDBRANCH   3   4
ENDBRANCH   2   3
ENDBRANCH   1   2
BRANCH   1  31
ATOM     31  O   UNL A   1      34.335  32.891  30.596  1.00  0.00    -0.374 OA
BRANCH  31  32
ATOM     32  C   UNL A   1      35.296  33.146  31.621  1.00  0.00     0.202 C 
BRANCH  32  33
ATOM     33  C   UNL A   1      36.064  31.882  31.988  1.00  0.00     0.261 C 
BRANCH  33  34
ATOM     34  O   UNL A   1      36.737  31.395  30.843  1.00  0.00    -0.460 OA
BRANCH  34  35
ATOM     35  C   UNL A   1      36.625  30.083  30.564  1.00  0.00     0.338 C 
ATOM     36  O   UNL A   1      35.633  29.382  30.568  1.00  0.00    -0.246 OA
BRANCH  35  37
ATOM     37  C   UNL A   1      37.957  29.740  30.046  1.00  0.00     0.060 A 
ATOM     38  C   UNL A   1      38.997  29.489  30.954  1.00  0.00     0.016 A 
ATOM     39  C   UNL A   1      38.195  29.838  28.674  1.00  0.00     0.016 A 
ATOM     40  C   UNL A   1      40.293  29.407  30.494  1.00  0.00     0.010 A 
ATOM     41  C   UNL A   1      39.494  29.681  28.204  1.00  0.00     0.010 A 
ATOM     42  C   UNL A   1      40.537  29.465  29.116  1.00  0.00    -0.014 A 
BRANCH  42  43
ATOM     43  C   UNL A   1      41.896  29.144  28.664  1.00  0.00     0.031 A 
ATOM     44  C   UNL A   1      42.994  30.146  28.773  1.00  0.00     0.074 A 
ATOM     45  C   UNL A   1      42.095  27.883  28.239  1.00  0.00     0.049 A 
ATOM     46  N   UNL A   1      44.261  29.991  28.507  1.00  0.00    -0.248 NA
ATOM     47  C   UNL A   1      42.632  31.494  29.239  1.00  0.00     0.031 C 
ATOM     48  C   UNL A   1      41.042  26.862  28.133  1.00  0.00     0.029 A 
ATOM     49  N   UNL A   1      43.230  27.225  27.865  1.00  0.00    -0.354 N 
ATOM     50  C   UNL A   1      44.852  31.218  28.766  1.00  0.00     0.074 A 
ATOM     51  C   UNL A   1      43.801  32.120  29.184  1.00  0.00     0.031 C 
ATOM     52  C   UNL A   1      41.594  25.693  27.787  1.00  0.00     0.029 A 
ATOM     53  C   UNL A   1      43.020  25.897  27.580  1.00  0.00     0.049 A 
ATOM     54  H   UNL A   1      44.112  27.658  27.805  1.00  0.00     0.167 HD
ATOM     55  C   UNL A   1      46.163  31.539  28.668  1.00  0.00     0.037 A 
ATOM     56  C   UNL A   1      43.890  24.952  27.187  1.00  0.00     0.037 A 
ATOM     57  C   UNL A   1      47.170  30.600  28.245  1.00  0.00     0.049 A 
ATOM     58  C   UNL A   1      45.326  25.356  27.038  1.00  0.00     0.074 A 
ATOM     59  C   UNL A   1      48.530  30.799  28.107  1.00  0.00     0.029 A 
ATOM     60  N   UNL A   1      46.919  29.279  27.888  1.00  0.00    -0.354 N 
ATOM     61  N   UNL A   1      45.881  26.515  27.307  1.00  0.00    -0.248 NA
ATOM     62  C   UNL A   1      46.250  24.343  26.522  1.00  0.00     0.031 C 
ATOM     63  C   UNL A   1      49.093  29.615  27.621  1.00  0.00     0.029 A 
ATOM     64  C   UNL A   1      48.093  28.660  27.501  1.00  0.00     0.049 A 
ATOM     65  H   UNL A   1      46.033  28.848  27.908  1.00  0.00     0.167 HD
ATOM     66  C   UNL A   1      47.223  26.375  26.988  1.00  0.00     0.074 A 
ATOM     67  C   UNL A   1      47.399  25.007  26.536  1.00  0.00     0.031 C 
ATOM     68  C   UNL A   1      48.218  27.293  27.052  1.00  0.00     0.037 A 
BRANCH  55  69
ATOM     69  C   UNL A   1      46.571  32.945  29.002  1.00  0.00     0.058 A 
ATOM     70  C   UNL A   1      46.592  33.957  28.030  1.00  0.00     0.135 A 
ATOM     71  C   UNL A   1      46.905  33.299  30.320  1.00  0.00     0.135 A 
ATOM     72  F   UNL A   1      46.304  33.671  26.749  1.00  0.00    -0.206 F 
ATOM     73  C   UNL A   1      46.943  35.266  28.347  1.00  0.00     0.059 A 
ATOM     74  C   UNL A   1      47.236  34.607  30.665  1.00  0.00     0.059 A 
ATOM     75  F   UNL A   1      46.909  32.370  31.288  1.00  0.00    -0.206 F 
ATOM     76  C   UNL A   1      47.261  35.582  29.669  1.00  0.00     0.060 A 
BRANCH  76  77
ATOM     77  S   UNL A   1      47.699  37.288  30.063  1.00  0.00     0.124 S 
ATOM     78  O   UNL A   1      46.382  37.894  30.242  1.00  0.00    -0.237 OA
ATOM     79  O   UNL A   1      48.494  37.131  31.277  1.00  0.00    -0.237 OA
ATOM     80  O   UNL A   1      48.437  37.732  28.885  1.00  0.00    -0.744 OA
ENDBRANCH  76  77
ENDBRANCH  55  69
BRANCH  56  81
ATOM     81  C   UNL A   1      43.411  23.573  26.918  1.00  0.00     0.058 A 
ATOM     82  C   UNL A   1      43.261  23.103  25.607  1.00  0.00     0.135 A 
ATOM     83  C   UNL A   1      43.163  22.673  27.969  1.00  0.00     0.135 A 
ATOM     84  F   UNL A   1      43.494  23.922  24.570  1.00  0.00    -0.206 F 
ATOM     85  C   UNL A   1      42.877  21.791  25.345  1.00  0.00     0.059 A 
ATOM     86  C   UNL A   1      42.805  21.350  27.731  1.00  0.00     0.059 A 
ATOM     87  F   UNL A   1      43.318  23.064  29.243  1.00  0.00    -0.206 F 
ATOM     88  C   UNL A   1      42.656  20.921  26.414  1.00  0.00     0.060 A 
BRANCH  88  89
ATOM     89  S   UNL A   1      42.207  19.209  26.057  1.00  0.00     0.124 S 
ATOM     90  O   UNL A   1      43.028  18.930  24.883  1.00  0.00    -0.237 OA
ATOM     91  O   UNL A   1      42.599  18.528  27.286  1.00  0.00    -0.237 OA
ATOM     92  O   UNL A   1      40.769  19.280  25.818  1.00  0.00    -0.744 OA
ENDBRANCH  88  89
ENDBRANCH  56  81
BRANCH  68  93
ATOM     93  C   UNL A   1      49.578  26.850  26.608  1.00  0.00     0.058 A 
ATOM     94  C   UNL A   1      50.439  26.172  27.484  1.00  0.00     0.135 A 
ATOM     95  C   UNL A   1      49.980  27.012  25.273  1.00  0.00     0.135 A 
ATOM     96  F   UNL A   1      50.101  26.008  28.772  1.00  0.00    -0.206 F 
ATOM     97  C   UNL A   1      51.654  25.663  27.048  1.00  0.00     0.059 A 
ATOM     98  C   UNL A   1      51.180  26.488  24.810  1.00  0.00     0.059 A 
ATOM     99  F   UNL A   1      49.185  27.650  24.400  1.00  0.00    -0.206 F 
ATOM    100  C   UNL A   1      52.010  25.813  25.706  1.00  0.00     0.060 A 
BRANCH 100 101
ATOM    101  S   UNL A   1      53.553  25.069  25.140  1.00  0.00     0.124 S 
ATOM    102  O   UNL A   1      53.256  23.646  25.265  1.00  0.00    -0.237 OA
ATOM    103  O   UNL A   1      53.659  25.578  23.777  1.00  0.00    -0.237 OA
ATOM    104  O   UNL A   1      54.544  25.587  26.078  1.00  0.00    -0.744 OA
ENDBRANCH 100 101
ENDBRANCH  68  93
ENDBRANCH  42  43
ENDBRANCH  35  37
ENDBRANCH  34  35
ENDBRANCH  33  34
ENDBRANCH  32  33
ENDBRANCH  31  32
ENDBRANCH   1  31
TORSDOF 21
ENDMDL
MODEL 2
REMARK VINA RESULT:     -11.3      2.941      9.473
REMARK SMILES Cc1cc(=O)c(Oc2ccc(C(=O)OCCOCCOC(=O)c3ccc(-c4c5nc(c(-c6c(F)cc(S(=O)(=O)[O-])cc6F)c6ccc([nH]6)c(-c6c(F)cc(S(=O)(=O)[O-])cc6F)c6nc(c(-c7c(F)cc(S(=O)(=O)[O-])cc7F)c7ccc4[nH]7)C=C6)C=C5)cc3)cc2)c(-c2ccc(S(C)(=O)=O)cc2)o1
REMARK SMILES IDX 16 1 15 2 14 3 12 4 13 5 11 6 8 7 9 8 90 9 10 10 89 11 7 12
REMARK SMILES IDX 6 13 1 14 2 15 3 16 102 17 4 18 91 19 5 20 92 21 93 22
REMARK SMILES IDX 101 23 94 24 100 25 95 26 96 27 97 28 98 29 99 30 17 31
REMARK SMILES IDX 18 32 19 33 20 34 21 35 22 36 23 37 24 38 88 39 25 40 87 41
REMARK SMILES IDX 26 42 27 43 28 44 81 45 29 46 86 47 80 48 82 49 30 50 85 51
REMARK SMILES IDX 79 52 78 53 31 55 65 56 44 57 64 58 45 59 48 60 63 61 83 62
REMARK SMILES IDX 46 63 47 64 62 66 84 67 49 68 32 69 33 70 42 71 34 72 35 73
REMARK SMILES IDX 41 74 43 75 36 76 37 77 38 78 39 79 40 80 66 81 67 82 76 83
REMARK SMILES IDX 68 84 69 85 75 86 77 87 70 88 71 89 72 90 73 91 74 92 50 93
REMARK SMILES IDX 51 94 60 95 52 96 53 97 59 98 61 99 54 100 55 101 56 102
REMARK SMILES IDX 57 103 58 104
REMARK H PARENT 82 54 48 65
REMARK Flexibility Score: inf
ROOT
ATOM      1  C   UNL A   1      40.921  21.537  27.814  1.00  0.00     0.202 C 
ENDROOT
BRANCH   1   2
ATOM      2  C   UNL A   1      40.555  22.348  26.563  1.00  0.00     0.261 C 
BRANCH   2   3
ATOM      3  O   UNL A   1      39.134  22.574  26.492  1.00  0.00    -0.460 OA
BRANCH   3   4
ATOM      4  C   UNL A   1      38.456  21.782  25.623  1.00  0.00     0.338 C 
ATOM      5  O   UNL A   1      38.668  20.602  25.394  1.00  0.00    -0.246 OA
BRANCH   4   6
ATOM      6  C   UNL A   1      37.295  22.517  25.043  1.00  0.00     0.060 A 
ATOM      7  C   UNL A   1      35.218  24.089  24.003  1.00  0.00     0.127 A 
ATOM      8  C   UNL A   1      35.678  24.318  25.297  1.00  0.00     0.048 A 
ATOM      9  C   UNL A   1      35.740  23.029  23.255  1.00  0.00     0.048 A 
ATOM     10  C   UNL A   1      36.733  23.554  25.802  1.00  0.00     0.019 A 
ATOM     11  C   UNL A   1      36.779  22.244  23.770  1.00  0.00     0.019 A 
BRANCH   7  12
ATOM     12  O   UNL A   1      34.128  24.740  23.504  1.00  0.00    -0.449 OA
BRANCH  12  13
ATOM     13  C   UNL A   1      32.879  24.769  24.103  1.00  0.00     0.217 A 
ATOM     14  C   UNL A   1      29.185  25.353  26.273  1.00  0.00     0.088 C 
ATOM     15  C   UNL A   1      30.446  25.296  25.474  1.00  0.00     0.105 A 
ATOM     16  C   UNL A   1      31.155  26.368  25.118  1.00  0.00     0.098 A 
ATOM     17  O   UNL A   1      30.820  24.022  25.128  1.00  0.00    -0.457 OA
ATOM     18  C   UNL A   1      32.396  26.171  24.351  1.00  0.00     0.228 A 
ATOM     19  C   UNL A   1      32.037  23.783  24.501  1.00  0.00     0.180 A 
ATOM     20  O   UNL A   1      33.007  27.159  23.949  1.00  0.00    -0.285 OA
BRANCH  19  21
ATOM     21  C   UNL A   1      32.201  22.329  24.388  1.00  0.00     0.021 A 
ATOM     22  C   UNL A   1      32.801  21.612  25.440  1.00  0.00     0.013 A 
ATOM     23  C   UNL A   1      31.954  21.685  23.176  1.00  0.00     0.013 A 
ATOM     24  C   UNL A   1      33.095  20.252  25.308  1.00  0.00     0.021 A 
ATOM     25  C   UNL A   1      32.304  20.344  23.032  1.00  0.00     0.021 A 
ATOM     26  C   UNL A   1      32.837  19.622  24.098  1.00  0.00     0.067 A 
BRANCH  26  27
ATOM     27  S   UNL A   1      33.098  17.872  23.913  1.00  0.00     0.175 S 
ATOM     28  C   UNL A   1      34.797  17.622  24.352  1.00  0.00     0.163 C 
ATOM     29  O   UNL A   1      32.280  17.198  24.901  1.00  0.00    -0.224 OA
ATOM     30  O   UNL A   1      32.953  17.587  22.503  1.00  0.00    -0.224 OA
ENDBRANCH  26  27
ENDBRANCH  19  21
ENDBRANCH  12  13
ENDBRANCH   7  12
ENDBRANCH   4   6
ENDBRANCH   3   4
ENDBRANCH   2   3
ENDBRANCH   1   2
BRANCH   1  31
ATOM     31  O   UNL A   1      40.804  20.125  27.647  1.00  0.00    -0.374 OA
BRANCH  31  32
ATOM     32  C   UNL A   1      42.053  19.438  27.564  1.00  0.00     0.202 C 
BRANCH  32  33
ATOM     33  C   UNL A   1      42.288  18.881  26.166  1.00  0.00     0.261 C 
BRANCH  33  34
ATOM     34  O   UNL A   1      42.491  19.951  25.264  1.00  0.00    -0.460 OA
BRANCH  34  35
ATOM     35  C   UNL A   1      43.744  20.168  24.824  1.00  0.00     0.338 C 
ATOM     36  O   UNL A   1      44.406  19.513  24.044  1.00  0.00    -0.246 OA
BRANCH  35  37
ATOM     37  C   UNL A   1      44.052  21.507  25.347  1.00  0.00     0.060 A 
ATOM     38  C   UNL A   1      43.832  22.625  24.528  1.00  0.00     0.016 A 
ATOM     39  C   UNL A   1      44.710  21.620  26.573  1.00  0.00     0.016 A 
ATOM     40  C   UNL A   1      44.336  23.850  24.904  1.00  0.00     0.010 A 
ATOM     41  C   UNL A   1      45.152  22.871  26.986  1.00  0.00     0.010 A 
ATOM     42  C   UNL A   1      44.963  23.981  26.150  1.00  0.00    -0.014 A 
BRANCH  42  43
ATOM     43  C   UNL A   1      45.275  25.343  26.602  1.00  0.00     0.031 A 
ATOM     44  C   UNL A   1      46.647  25.903  26.447  1.00  0.00     0.074 A 
ATOM     45  C   UNL A   1      44.238  26.062  27.070  1.00  0.00     0.049 A 
ATOM     46  N   UNL A   1      47.062  27.111  26.708  1.00  0.00    -0.248 NA
ATOM     47  C   UNL A   1      47.691  25.000  25.936  1.00  0.00     0.031 C 
ATOM     48  C   UNL A   1      42.868  25.550  27.221  1.00  0.00     0.029 A 
ATOM     49  N   UNL A   1      44.147  27.366  27.458  1.00  0.00    -0.354 N 
ATOM     50  C   UNL A   1      48.414  27.119  26.399  1.00  0.00     0.074 A 
ATOM     51  C   UNL A   1      48.760  25.786  25.958  1.00  0.00     0.031 C 
ATOM     52  C   UNL A   1      42.064  26.549  27.605  1.00  0.00     0.029 A 
ATOM     53  C   UNL A   1      42.869  27.746  27.792  1.00  0.00     0.049 A 
ATOM     54  H   UNL A   1      44.920  27.976  27.494  1.00  0.00     0.167 HD
ATOM     55  C   UNL A   1      49.272  28.164  26.474  1.00  0.00     0.037 A 
ATOM     56  C   UNL A   1      42.406  28.936  28.212  1.00  0.00     0.037 A 
ATOM     57  C   UNL A   1      48.873  29.473  26.921  1.00  0.00     0.049 A 
ATOM     58  C   UNL A   1      43.393  30.056  28.333  1.00  0.00     0.074 A 
ATOM     59  C   UNL A   1      49.643  30.614  27.041  1.00  0.00     0.029 A 
ATOM     60  N   UNL A   1      47.587  29.812  27.328  1.00  0.00    -0.354 N 
ATOM     61  N   UNL A   1      44.668  30.061  28.018  1.00  0.00    -0.248 NA
ATOM     62  C   UNL A   1      42.896  31.323  28.878  1.00  0.00     0.031 C 
ATOM     63  C   UNL A   1      48.835  31.628  27.564  1.00  0.00     0.029 A 
ATOM     64  C   UNL A   1      47.548  31.136  27.727  1.00  0.00     0.049 A 
ATOM     65  H   UNL A   1      46.816  29.198  27.331  1.00  0.00     0.167 HD
ATOM     66  C   UNL A   1      45.131  31.330  28.330  1.00  0.00     0.074 A 
ATOM     67  C   UNL A   1      43.989  32.074  28.829  1.00  0.00     0.031 C 
ATOM     68  C   UNL A   1      46.385  31.833  28.224  1.00  0.00     0.037 A 
BRANCH  55  69
ATOM     69  C   UNL A   1      50.703  27.929  26.086  1.00  0.00     0.058 A 
ATOM     70  C   UNL A   1      51.124  27.996  24.748  1.00  0.00     0.135 A 
ATOM     71  C   UNL A   1      51.678  27.677  27.065  1.00  0.00     0.135 A 
ATOM     72  F   UNL A   1      50.231  28.213  23.768  1.00  0.00    -0.206 F 
ATOM     73  C   UNL A   1      52.456  27.807  24.393  1.00  0.00     0.059 A 
ATOM     74  C   UNL A   1      53.021  27.507  26.735  1.00  0.00     0.059 A 
ATOM     75  F   UNL A   1      51.330  27.594  28.358  1.00  0.00    -0.206 F 
ATOM     76  C   UNL A   1      53.398  27.566  25.395  1.00  0.00     0.060 A 
BRANCH  76  77
ATOM     77  S   UNL A   1      55.123  27.338  24.914  1.00  0.00     0.124 S 
ATOM     78  O   UNL A   1      55.000  26.344  23.851  1.00  0.00    -0.237 OA
ATOM     79  O   UNL A   1      55.505  28.679  24.485  1.00  0.00    -0.237 OA
ATOM     80  O   UNL A   1      55.761  26.867  26.139  1.00  0.00    -0.744 OA
ENDBRANCH  76  77
ENDBRANCH  55  69
BRANCH  56  81
ATOM     81  C   UNL A   1      40.965  29.094  28.534  1.00  0.00     0.058 A 
ATOM     82  C   UNL A   1      40.517  29.083  29.861  1.00  0.00     0.135 A 
ATOM     83  C   UNL A   1      40.018  29.335  27.524  1.00  0.00     0.135 A 
ATOM     84  F   UNL A   1      41.385  28.865  30.860  1.00  0.00    -0.206 F 
ATOM     85  C   UNL A   1      39.179  29.297  30.178  1.00  0.00     0.059 A 
ATOM     86  C   UNL A   1      38.681  29.579  27.818  1.00  0.00     0.059 A 
ATOM     87  F   UNL A   1      40.399  29.383  26.238  1.00  0.00    -0.206 F 
ATOM     88  C   UNL A   1      38.269  29.550  29.149  1.00  0.00     0.060 A 
BRANCH  88  89
ATOM     89  S   UNL A   1      36.546  29.877  29.579  1.00  0.00     0.124 S 
ATOM     90  O   UNL A   1      35.840  29.185  28.506  1.00  0.00    -0.237 OA
ATOM     91  O   UNL A   1      36.444  29.275  30.904  1.00  0.00    -0.237 OA
ATOM     92  O   UNL A   1      36.463  31.334  29.552  1.00  0.00    -0.744 OA
ENDBRANCH  88  89
ENDBRANCH  56  81
BRANCH  68  93
ATOM     93  C   UNL A   1      46.587  33.248  28.673  1.00  0.00     0.058 A 
ATOM     94  C   UNL A   1      46.412  34.319  27.784  1.00  0.00     0.135 A 
ATOM     95  C   UNL A   1      46.854  33.538  30.020  1.00  0.00     0.135 A 
ATOM     96  F   UNL A   1      46.170  34.087  26.485  1.00  0.00    -0.206 F 
ATOM     97  C   UNL A   1      46.490  35.635  28.218  1.00  0.00     0.059 A 
ATOM     98  C   UNL A   1      46.910  34.848  30.480  1.00  0.00     0.059 A 
ATOM     99  F   UNL A   1      47.023  32.544  30.905  1.00  0.00    -0.206 F 
ATOM    100  C   UNL A   1      46.725  35.890  29.571  1.00  0.00     0.060 A 
BRANCH 100 101
ATOM    101  S   UNL A   1      46.736  37.604  30.131  1.00  0.00     0.124 S 
ATOM    102  O   UNL A   1      46.868  38.324  28.869  1.00  0.00    -0.237 OA
ATOM    103  O   UNL A   1      45.442  37.720  30.795  1.00  0.00    -0.237 OA
ATOM    104  O   UNL A   1      47.897  37.667  31.013  1.00  0.00    -0.744 OA
ENDBRANCH 100 101
ENDBRANCH  68  93
ENDBRANCH  42  43
ENDBRANCH  35  37
ENDBRANCH  34  35
ENDBRANCH  33  34
ENDBRANCH  32  33
ENDBRANCH  31  32
ENDBRANCH   1  31
TORSDOF 21
ENDMDL
MODEL 3
REMARK VINA RESULT:     -11.3      5.980     11.982
REMARK SMILES Cc1cc(=O)c(Oc2ccc(C(=O)OCCOCCOC(=O)c3ccc(-c4c5nc(c(-c6c(F)cc(S(=O)(=O)[O-])cc6F)c6ccc([nH]6)c(-c6c(F)cc(S(=O)(=O)[O-])cc6F)c6nc(c(-c7c(F)cc(S(=O)(=O)[O-])cc7F)c7ccc4[nH]7)C=C6)C=C5)cc3)cc2)c(-c2ccc(S(C)(=O)=O)cc2)o1
REMARK SMILES IDX 16 1 15 2 14 3 12 4 13 5 11 6 8 7 9 8 90 9 10 10 89 11 7 12
REMARK SMILES IDX 6 13 1 14 2 15 3 16 102 17 4 18 91 19 5 20 92 21 93 22
REMARK SMILES IDX 101 23 94 24 100 25 95 26 96 27 97 28 98 29 99 30 17 31
REMARK SMILES IDX 18 32 19 33 20 34 21 35 22 36 23 37 24 38 88 39 25 40 87 41
REMARK SMILES IDX 26 42 27 43 28 44 81 45 29 46 86 47 80 48 82 49 30 50 85 51
REMARK SMILES IDX 79 52 78 53 31 55 65 56 44 57 64 58 45 59 48 60 63 61 83 62
REMARK SMILES IDX 46 63 47 64 62 66 84 67 49 68 32 69 33 70 42 71 34 72 35 73
REMARK SMILES IDX 41 74 43 75 36 76 37 77 38 78 39 79 40 80 66 81 67 82 76 83
REMARK SMILES IDX 68 84 69 85 75 86 77 87 70 88 71 89 72 90 73 91 74 92 50 93
REMARK SMILES IDX 51 94 60 95 52 96 53 97 59 98 61 99 54 100 55 101 56 102
REMARK SMILES IDX 57 103 58 104
REMARK H PARENT 82 54 48 65
REMARK Flexibility Score: inf
ROOT
ATOM      1  C   UNL A   1      41.402  20.801  26.505  1.00  0.00     0.202 C 
ENDROOT
BRANCH   1   2
ATOM      2  C   UNL A   1      40.036  21.366  26.920  1.00  0.00     0.261 C 
BRANCH   2   3
ATOM      3  O   UNL A   1      39.352  21.943  25.791  1.00  0.00    -0.460 OA
BRANCH   3   4
ATOM      4  C   UNL A   1      38.292  21.237  25.322  1.00  0.00     0.338 C 
ATOM      5  O   UNL A   1      38.151  20.024  25.358  1.00  0.00    -0.246 OA
BRANCH   4   6
ATOM      6  C   UNL A   1      37.220  22.156  24.846  1.00  0.00     0.060 A 
ATOM      7  C   UNL A   1      35.324  24.056  24.032  1.00  0.00     0.127 A 
ATOM      8  C   UNL A   1      35.762  24.038  25.353  1.00  0.00     0.048 A 
ATOM      9  C   UNL A   1      35.772  23.081  23.135  1.00  0.00     0.048 A 
ATOM     10  C   UNL A   1      36.729  23.111  25.750  1.00  0.00     0.019 A 
ATOM     11  C   UNL A   1      36.721  22.134  23.537  1.00  0.00     0.019 A 
BRANCH   7  12
ATOM     12  O   UNL A   1      34.311  24.875  23.624  1.00  0.00    -0.449 OA
BRANCH  12  13
ATOM     13  C   UNL A   1      33.067  24.958  24.227  1.00  0.00     0.217 A 
ATOM     14  C   UNL A   1      29.416  25.687  26.426  1.00  0.00     0.088 C 
ATOM     15  C   UNL A   1      30.670  25.583  25.621  1.00  0.00     0.105 A 
ATOM     16  C   UNL A   1      31.440  26.622  25.297  1.00  0.00     0.098 A 
ATOM     17  O   UNL A   1      30.968  24.301  25.234  1.00  0.00    -0.457 OA
ATOM     18  C   UNL A   1      32.667  26.378  24.520  1.00  0.00     0.228 A 
ATOM     19  C   UNL A   1      32.169  24.010  24.597  1.00  0.00     0.180 A 
ATOM     20  O   UNL A   1      33.334  27.340  24.148  1.00  0.00    -0.285 OA
BRANCH  19  21
ATOM     21  C   UNL A   1      32.247  22.554  24.437  1.00  0.00     0.021 A 
ATOM     22  C   UNL A   1      32.717  21.762  25.502  1.00  0.00     0.013 A 
ATOM     23  C   UNL A   1      32.055  21.971  23.185  1.00  0.00     0.013 A 
ATOM     24  C   UNL A   1      32.932  20.390  25.337  1.00  0.00     0.021 A 
ATOM     25  C   UNL A   1      32.328  20.616  23.013  1.00  0.00     0.021 A 
ATOM     26  C   UNL A   1      32.729  19.822  24.086  1.00  0.00     0.067 A 
BRANCH  26  27
ATOM     27  S   UNL A   1      32.891  18.067  23.850  1.00  0.00     0.175 S 
ATOM     28  C   UNL A   1      34.593  17.721  24.201  1.00  0.00     0.163 C 
ATOM     29  O   UNL A   1      32.087  17.410  24.863  1.00  0.00    -0.224 OA
ATOM     30  O   UNL A   1      32.664  17.823  22.444  1.00  0.00    -0.224 OA
ENDBRANCH  26  27
ENDBRANCH  19  21
ENDBRANCH  12  13
ENDBRANCH   7  12
ENDBRANCH   4   6
ENDBRANCH   3   4
ENDBRANCH   2   3
ENDBRANCH   1   2
BRANCH   1  31
ATOM     31  O   UNL A   1      42.144  21.653  25.634  1.00  0.00    -0.374 OA
BRANCH  31  32
ATOM     32  C   UNL A   1      42.747  22.773  26.282  1.00  0.00     0.202 C 
BRANCH  32  33
ATOM     33  C   UNL A   1      42.983  23.918  25.305  1.00  0.00     0.261 C 
BRANCH  33  34
ATOM     34  O   UNL A   1      42.589  25.136  25.907  1.00  0.00    -0.460 OA
BRANCH  34  35
ATOM     35  C   UNL A   1      43.492  26.132  25.952  1.00  0.00     0.338 C 
ATOM     36  O   UNL A   1      44.282  26.487  25.100  1.00  0.00    -0.246 OA
BRANCH  35  37
ATOM     37  C   UNL A   1      43.154  26.831  27.200  1.00  0.00     0.060 A 
ATOM     38  C   UNL A   1      42.194  26.270  28.056  1.00  0.00     0.016 A 
ATOM     39  C   UNL A   1      43.666  28.111  27.419  1.00  0.00     0.016 A 
ATOM     40  C   UNL A   1      41.691  27.020  29.095  1.00  0.00     0.010 A 
ATOM     41  C   UNL A   1      43.211  28.838  28.513  1.00  0.00     0.010 A 
ATOM     42  C   UNL A   1      42.226  28.290  29.346  1.00  0.00    -0.014 A 
BRANCH  42  43
ATOM     43  C   UNL A   1      41.823  28.951  30.594  1.00  0.00     0.031 A 
ATOM     44  C   UNL A   1      42.668  28.852  31.817  1.00  0.00     0.074 A 
ATOM     45  C   UNL A   1      40.712  29.707  30.529  1.00  0.00     0.049 A 
ATOM     46  N   UNL A   1      42.502  29.448  32.965  1.00  0.00    -0.248 NA
ATOM     47  C   UNL A   1      43.848  27.976  31.753  1.00  0.00     0.031 C 
ATOM     48  C   UNL A   1      39.863  29.843  29.337  1.00  0.00     0.029 A 
ATOM     49  N   UNL A   1      40.128  30.532  31.445  1.00  0.00    -0.354 N 
ATOM     50  C   UNL A   1      43.551  29.020  33.766  1.00  0.00     0.074 A 
ATOM     51  C   UNL A   1      44.335  28.089  32.983  1.00  0.00     0.031 C 
ATOM     52  C   UNL A   1      38.909  30.751  29.576  1.00  0.00     0.029 A 
ATOM     53  C   UNL A   1      39.036  31.206  30.952  1.00  0.00     0.049 A 
ATOM     54  H   UNL A   1      40.456  30.635  32.368  1.00  0.00     0.167 HD
ATOM     55  C   UNL A   1      43.824  29.393  35.037  1.00  0.00     0.037 A 
ATOM     56  C   UNL A   1      38.224  32.090  31.556  1.00  0.00     0.037 A 
ATOM     57  C   UNL A   1      43.008  30.326  35.771  1.00  0.00     0.049 A 
ATOM     58  C   UNL A   1      38.525  32.441  32.981  1.00  0.00     0.074 A 
ATOM     59  C   UNL A   1      43.178  30.787  37.063  1.00  0.00     0.029 A 
ATOM     60  N   UNL A   1      41.862  30.936  35.274  1.00  0.00    -0.354 N 
ATOM     61  N   UNL A   1      39.533  32.047  33.725  1.00  0.00    -0.248 NA
ATOM     62  C   UNL A   1      37.582  33.335  33.658  1.00  0.00     0.031 C 
ATOM     63  C   UNL A   1      42.110  31.638  37.362  1.00  0.00     0.029 A 
ATOM     64  C   UNL A   1      41.297  31.747  36.241  1.00  0.00     0.049 A 
ATOM     65  H   UNL A   1      41.505  30.809  34.364  1.00  0.00     0.167 HD
ATOM     66  C   UNL A   1      39.347  32.643  34.963  1.00  0.00     0.074 A 
ATOM     67  C   UNL A   1      38.143  33.448  34.856  1.00  0.00     0.031 C 
ATOM     68  C   UNL A   1      40.092  32.528  36.089  1.00  0.00     0.037 A 
BRANCH  55  69
ATOM     69  C   UNL A   1      45.025  28.789  35.707  1.00  0.00     0.058 A 
ATOM     70  C   UNL A   1      46.295  29.377  35.611  1.00  0.00     0.135 A 
ATOM     71  C   UNL A   1      44.900  27.630  36.490  1.00  0.00     0.135 A 
ATOM     72  F   UNL A   1      46.478  30.474  34.858  1.00  0.00    -0.206 F 
ATOM     73  C   UNL A   1      47.402  28.832  36.256  1.00  0.00     0.059 A 
ATOM     74  C   UNL A   1      45.988  27.079  37.163  1.00  0.00     0.059 A 
ATOM     75  F   UNL A   1      43.710  27.021  36.610  1.00  0.00    -0.206 F 
ATOM     76  C   UNL A   1      47.237  27.684  37.033  1.00  0.00     0.060 A 
BRANCH  76  77
ATOM     77  S   UNL A   1      48.682  27.000  37.871  1.00  0.00     0.124 S 
ATOM     78  O   UNL A   1      49.500  28.195  38.063  1.00  0.00    -0.237 OA
ATOM     79  O   UNL A   1      48.097  26.433  39.082  1.00  0.00    -0.237 OA
ATOM     80  O   UNL A   1      49.206  26.030  36.915  1.00  0.00    -0.744 OA
ENDBRANCH  76  77
ENDBRANCH  55  69
BRANCH  56  81
ATOM     81  C   UNL A   1      37.083  32.674  30.808  1.00  0.00     0.058 A 
ATOM     82  C   UNL A   1      35.798  32.126  30.907  1.00  0.00     0.135 A 
ATOM     83  C   UNL A   1      37.240  33.838  30.036  1.00  0.00     0.135 A 
ATOM     84  F   UNL A   1      35.595  31.019  31.638  1.00  0.00    -0.206 F 
ATOM     85  C   UNL A   1      34.709  32.705  30.263  1.00  0.00     0.059 A 
ATOM     86  C   UNL A   1      36.162  34.451  29.406  1.00  0.00     0.059 A 
ATOM     87  F   UNL A   1      38.446  34.419  29.930  1.00  0.00    -0.206 F 
ATOM     88  C   UNL A   1      34.900  33.871  29.519  1.00  0.00     0.060 A 
BRANCH  88  89
ATOM     89  S   UNL A   1      33.469  34.640  28.731  1.00  0.00     0.124 S 
ATOM     90  O   UNL A   1      34.078  35.795  28.081  1.00  0.00    -0.237 OA
ATOM     91  O   UNL A   1      33.003  33.579  27.845  1.00  0.00    -0.237 OA
ATOM     92  O   UNL A   1      32.588  34.941  29.855  1.00  0.00    -0.744 OA
ENDBRANCH  88  89
ENDBRANCH  56  81
BRANCH  68  93
ATOM     93  C   UNL A   1      39.616  33.278  37.295  1.00  0.00     0.058 A 
ATOM     94  C   UNL A   1      38.620  32.749  38.129  1.00  0.00     0.135 A 
ATOM     95  C   UNL A   1      40.232  34.481  37.675  1.00  0.00     0.135 A 
ATOM     96  F   UNL A   1      37.995  31.609  37.796  1.00  0.00    -0.206 F 
ATOM     97  C   UNL A   1      38.253  33.386  39.306  1.00  0.00     0.059 A 
ATOM     98  C   UNL A   1      39.898  35.121  38.862  1.00  0.00     0.059 A 
ATOM     99  F   UNL A   1      41.193  35.020  36.909  1.00  0.00    -0.206 F 
ATOM    100  C   UNL A   1      38.908  34.564  39.672  1.00  0.00     0.060 A 
BRANCH 100 101
ATOM    101  S   UNL A   1      38.478  35.329  41.247  1.00  0.00     0.124 S 
ATOM    102  O   UNL A   1      38.520  36.747  40.906  1.00  0.00    -0.237 OA
ATOM    103  O   UNL A   1      37.152  34.778  41.505  1.00  0.00    -0.237 OA
ATOM    104  O   UNL A   1      39.530  34.870  42.148  1.00  0.00    -0.744 OA
ENDBRANCH 100 101
ENDBRANCH  68  93
ENDBRANCH  42  43
ENDBRANCH  35  37
ENDBRANCH  34  35
ENDBRANCH  33  34
ENDBRANCH  32  33
ENDBRANCH  31  32
ENDBRANCH   1  31
TORSDOF 21
ENDMDL
