MODEL 1
REMARK VINA RESULT:     -10.4      0.000      0.000
REMARK SMILES CCC[C@@H](C(=O)OCCOCCOC(=O)c1ccc(-c2c3nc(c(-c4c(F)cc(S(=O)(=O)[O-])cc4F)c4ccc([nH]4)c(-c4c(F)cc(S(=O)(=O)[O-])cc4F)c4nc(c(-c5c(F)cc(S(=O)(=O)[O-])cc5F)c5ccc2[nH]5)C=C4)C=C3)cc1)n1nc(/C=C/c2ccc(OC)cc2)ccc1=O
REMARK SMILES IDX 9 1 8 2 7 3 5 4 6 5 4 6 3 7 2 8 1 9 82 10 83 11 97 12 84 13
REMARK SMILES IDX 96 14 98 15 95 16 85 17 86 18 87 19 88 20 94 21 89 22 93 23
REMARK SMILES IDX 90 24 91 25 92 26 10 27 11 28 12 29 13 30 14 31 15 32 16 33
REMARK SMILES IDX 17 34 81 35 18 36 80 37 19 38 20 39 21 40 74 41 22 42 79 43
REMARK SMILES IDX 73 44 75 45 23 46 78 47 72 48 71 49 24 51 58 52 37 53 57 54
REMARK SMILES IDX 38 55 41 56 56 57 76 58 39 59 40 60 55 62 77 63 42 64 25 65
REMARK SMILES IDX 26 66 35 67 27 68 28 69 34 70 36 71 29 72 30 73 31 74 32 75
REMARK SMILES IDX 33 76 59 77 60 78 69 79 61 80 62 81 68 82 70 83 63 84 64 85
REMARK SMILES IDX 65 86 66 87 67 88 43 89 44 90 53 91 45 92 46 93 52 94 54 95
REMARK SMILES IDX 47 96 48 97 49 98 50 99 51 100
REMARK H PARENT 75 50 41 61
REMARK Flexibility Score: inf
ROOT
ATOM      1  C   UNL A   1      33.067  30.061  25.999  1.00  0.00     0.202 C 
ENDROOT
BRANCH   1   2
ATOM      2  C   UNL A   1      32.994  28.534  25.868  1.00  0.00     0.261 C 
BRANCH   2   3
ATOM      3  O   UNL A   1      31.753  28.072  26.418  1.00  0.00    -0.462 OA
BRANCH   3   4
ATOM      4  C   UNL A   1      31.396  26.793  26.118  1.00  0.00     0.331 C 
ATOM      5  O   UNL A   1      31.457  25.850  26.897  1.00  0.00    -0.250 OA
BRANCH   4   6
ATOM      6  C   UNL A   1      30.762  26.716  24.713  1.00  0.00     0.221 C 
BRANCH   6   7
ATOM      7  C   UNL A   1      29.286  26.257  24.627  1.00  0.00     0.039 C 
BRANCH   7   8
ATOM      8  C   UNL A   1      28.362  26.956  23.622  1.00  0.00    -0.001 C 
ATOM      9  C   UNL A   1      28.750  28.387  23.295  1.00  0.00     0.004 C 
ENDBRANCH   7   8
ENDBRANCH   6   7
BRANCH   6  10
ATOM     10  N   UNL A   1      31.604  25.962  23.733  1.00  0.00    -0.215 N 
ATOM     11  N   UNL A   1      31.820  24.627  24.060  1.00  0.00    -0.169 NA
ATOM     12  C   UNL A   1      32.302  26.598  22.710  1.00  0.00     0.267 A 
ATOM     13  C   UNL A   1      32.677  23.944  23.362  1.00  0.00     0.084 A 
ATOM     14  C   UNL A   1      33.200  25.756  21.901  1.00  0.00     0.075 A 
ATOM     15  O   UNL A   1      32.248  27.786  22.415  1.00  0.00    -0.268 OA
ATOM     16  C   UNL A   1      33.412  24.478  22.202  1.00  0.00     0.036 A 
BRANCH  13  17
ATOM     17  C   UNL A   1      32.917  22.522  23.749  1.00  0.00     0.031 C 
ATOM     18  C   UNL A   1      32.135  21.468  23.471  1.00  0.00     0.010 C 
BRANCH  18  19
ATOM     19  C   UNL A   1      32.398  20.107  23.964  1.00  0.00    -0.025 A 
ATOM     20  C   UNL A   1      32.614  19.902  25.330  1.00  0.00     0.012 A 
ATOM     21  C   UNL A   1      32.546  19.024  23.090  1.00  0.00     0.012 A 
ATOM     22  C   UNL A   1      32.958  18.633  25.809  1.00  0.00     0.047 A 
ATOM     23  C   UNL A   1      32.889  17.755  23.570  1.00  0.00     0.047 A 
ATOM     24  C   UNL A   1      33.098  17.555  24.933  1.00  0.00     0.118 A 
BRANCH  24  25
ATOM     25  O   UNL A   1      33.453  16.374  25.526  1.00  0.00    -0.497 OA
ATOM     26  C   UNL A   1      34.722  15.840  25.171  1.00  0.00     0.278 C 
ENDBRANCH  24  25
ENDBRANCH  18  19
ENDBRANCH  13  17
ENDBRANCH   6  10
ENDBRANCH   4   6
ENDBRANCH   3   4
ENDBRANCH   2   3
ENDBRANCH   1   2
BRANCH   1  27
ATOM     27  O   UNL A   1      31.867  30.730  26.406  1.00  0.00    -0.374 OA
BRANCH  27  28
ATOM     28  C   UNL A   1      32.007  32.023  26.989  1.00  0.00     0.202 C 
BRANCH  28  29
ATOM     29  C   UNL A   1      33.358  32.333  27.641  1.00  0.00     0.261 C 
BRANCH  29  30
ATOM     30  O   UNL A   1      33.701  33.726  27.562  1.00  0.00    -0.460 OA
BRANCH  30  31
ATOM     31  C   UNL A   1      33.503  34.414  28.711  1.00  0.00     0.338 C 
ATOM     32  O   UNL A   1      32.532  35.104  29.000  1.00  0.00    -0.246 OA
BRANCH  31  33
ATOM     33  C   UNL A   1      34.567  34.111  29.683  1.00  0.00     0.060 A 
ATOM     34  C   UNL A   1      35.889  34.305  29.268  1.00  0.00     0.016 A 
ATOM     35  C   UNL A   1      34.289  33.564  30.939  1.00  0.00     0.016 A 
ATOM     36  C   UNL A   1      36.943  33.902  30.084  1.00  0.00     0.010 A 
ATOM     37  C   UNL A   1      35.350  33.152  31.753  1.00  0.00     0.010 A 
ATOM     38  C   UNL A   1      36.679  33.285  31.313  1.00  0.00    -0.014 A 
BRANCH  38  39
ATOM     39  C   UNL A   1      37.794  32.653  32.063  1.00  0.00     0.031 A 
ATOM     40  C   UNL A   1      38.501  31.469  31.460  1.00  0.00     0.074 A 
ATOM     41  C   UNL A   1      38.198  33.155  33.243  1.00  0.00     0.049 A 
ATOM     42  N   UNL A   1      39.486  30.757  31.945  1.00  0.00    -0.248 NA
ATOM     43  C   UNL A   1      38.035  31.027  30.136  1.00  0.00     0.031 C 
ATOM     44  C   UNL A   1      37.618  34.321  33.908  1.00  0.00     0.029 A 
ATOM     45  N   UNL A   1      39.194  32.743  34.094  1.00  0.00    -0.354 N 
ATOM     46  C   UNL A   1      39.756  29.785  30.990  1.00  0.00     0.074 A 
ATOM     47  C   UNL A   1      38.812  29.978  29.910  1.00  0.00     0.031 C 
ATOM     48  C   UNL A   1      38.261  34.524  35.071  1.00  0.00     0.029 A 
ATOM     49  C   UNL A   1      39.279  33.489  35.245  1.00  0.00     0.049 A 
ATOM     50  H   UNL A   1      39.789  31.984  33.898  1.00  0.00     0.167 HD
ATOM     51  C   UNL A   1      40.710  28.823  31.007  1.00  0.00     0.037 A 
ATOM     52  C   UNL A   1      40.075  33.341  36.323  1.00  0.00     0.037 A 
ATOM     53  C   UNL A   1      41.651  28.637  32.081  1.00  0.00     0.049 A 
ATOM     54  C   UNL A   1      41.091  32.228  36.345  1.00  0.00     0.074 A 
ATOM     55  C   UNL A   1      42.665  27.701  32.185  1.00  0.00     0.029 A 
ATOM     56  N   UNL A   1      41.690  29.398  33.241  1.00  0.00    -0.354 N 
ATOM     57  N   UNL A   1      41.347  31.327  35.426  1.00  0.00    -0.248 NA
ATOM     58  C   UNL A   1      41.927  32.112  37.548  1.00  0.00     0.031 C 
ATOM     59  C   UNL A   1      43.290  27.867  33.425  1.00  0.00     0.029 A 
ATOM     60  C   UNL A   1      42.697  28.939  34.074  1.00  0.00     0.049 A 
ATOM     61  H   UNL A   1      41.091  30.152  33.441  1.00  0.00     0.167 HD
ATOM     62  C   UNL A   1      42.394  30.558  35.928  1.00  0.00     0.074 A 
ATOM     63  C   UNL A   1      42.726  31.103  37.228  1.00  0.00     0.031 C 
ATOM     64  C   UNL A   1      43.023  29.499  35.362  1.00  0.00     0.037 A 
BRANCH  51  65
ATOM     65  C   UNL A   1      40.771  27.882  29.837  1.00  0.00     0.058 A 
ATOM     66  C   UNL A   1      39.799  26.889  29.636  1.00  0.00     0.135 A 
ATOM     67  C   UNL A   1      41.794  27.999  28.882  1.00  0.00     0.135 A 
ATOM     68  F   UNL A   1      38.809  26.722  30.527  1.00  0.00    -0.206 F 
ATOM     69  C   UNL A   1      39.850  26.032  28.541  1.00  0.00     0.059 A 
ATOM     70  C   UNL A   1      41.852  27.168  27.767  1.00  0.00     0.059 A 
ATOM     71  F   UNL A   1      42.750  28.930  29.027  1.00  0.00    -0.206 F 
ATOM     72  C   UNL A   1      40.883  26.179  27.612  1.00  0.00     0.060 A 
BRANCH  72  73
ATOM     73  S   UNL A   1      40.933  25.064  26.192  1.00  0.00     0.124 S 
ATOM     74  O   UNL A   1      41.307  25.979  25.118  1.00  0.00    -0.237 OA
ATOM     75  O   UNL A   1      41.955  24.100  26.588  1.00  0.00    -0.237 OA
ATOM     76  O   UNL A   1      39.574  24.538  26.124  1.00  0.00    -0.744 OA
ENDBRANCH  72  73
ENDBRANCH  51  65
BRANCH  52  77
ATOM     77  C   UNL A   1      39.937  34.265  37.480  1.00  0.00     0.058 A 
ATOM     78  C   UNL A   1      40.593  35.504  37.503  1.00  0.00     0.135 A 
ATOM     79  C   UNL A   1      39.146  33.922  38.588  1.00  0.00     0.135 A 
ATOM     80  F   UNL A   1      41.369  35.872  36.474  1.00  0.00    -0.206 F 
ATOM     81  C   UNL A   1      40.484  36.365  38.591  1.00  0.00     0.059 A 
ATOM     82  C   UNL A   1      39.001  34.777  39.676  1.00  0.00     0.059 A 
ATOM     83  F   UNL A   1      38.489  32.752  38.610  1.00  0.00    -0.206 F 
ATOM     84  C   UNL A   1      39.684  35.992  39.673  1.00  0.00     0.060 A 
BRANCH  84  85
ATOM     85  S   UNL A   1      39.513  37.134  41.061  1.00  0.00     0.124 S 
ATOM     86  O   UNL A   1      38.774  36.321  42.021  1.00  0.00    -0.237 OA
ATOM     87  O   UNL A   1      40.904  37.416  41.401  1.00  0.00    -0.237 OA
ATOM     88  O   UNL A   1      38.777  38.256  40.485  1.00  0.00    -0.744 OA
ENDBRANCH  84  85
ENDBRANCH  52  77
BRANCH  64  89
ATOM     89  C   UNL A   1      44.164  28.880  36.121  1.00  0.00     0.058 A 
ATOM     90  C   UNL A   1      43.984  27.747  36.931  1.00  0.00     0.135 A 
ATOM     91  C   UNL A   1      45.465  29.390  35.989  1.00  0.00     0.135 A 
ATOM     92  F   UNL A   1      42.758  27.222  37.096  1.00  0.00    -0.206 F 
ATOM     93  C   UNL A   1      45.050  27.155  37.599  1.00  0.00     0.059 A 
ATOM     94  C   UNL A   1      46.551  28.799  36.628  1.00  0.00     0.059 A 
ATOM     95  F   UNL A   1      45.695  30.465  35.218  1.00  0.00    -0.206 F 
ATOM     96  C   UNL A   1      46.332  27.687  37.440  1.00  0.00     0.060 A 
BRANCH  96  97
ATOM     97  S   UNL A   1      47.715  26.887  38.281  1.00  0.00     0.124 S 
ATOM     98  O   UNL A   1      48.858  27.477  37.592  1.00  0.00    -0.237 OA
ATOM     99  O   UNL A   1      47.524  27.306  39.667  1.00  0.00    -0.237 OA
ATOM    100  O   UNL A   1      47.492  25.467  38.026  1.00  0.00    -0.744 OA
ENDBRANCH  96  97
ENDBRANCH  64  89
ENDBRANCH  38  39
ENDBRANCH  31  33
ENDBRANCH  30  31
ENDBRANCH  29  30
ENDBRANCH  28  29
ENDBRANCH  27  28
ENDBRANCH   1  27
TORSDOF 23
ENDMDL
MODEL 2
REMARK VINA RESULT:     -10.4      1.045      2.296
REMARK SMILES CCC[C@@H](C(=O)OCCOCCOC(=O)c1ccc(-c2c3nc(c(-c4c(F)cc(S(=O)(=O)[O-])cc4F)c4ccc([nH]4)c(-c4c(F)cc(S(=O)(=O)[O-])cc4F)c4nc(c(-c5c(F)cc(S(=O)(=O)[O-])cc5F)c5ccc2[nH]5)C=C4)C=C3)cc1)n1nc(/C=C/c2ccc(OC)cc2)ccc1=O
REMARK SMILES IDX 9 1 8 2 7 3 5 4 6 5 4 6 3 7 2 8 1 9 82 10 83 11 97 12 84 13
REMARK SMILES IDX 96 14 98 15 95 16 85 17 86 18 87 19 88 20 94 21 89 22 93 23
REMARK SMILES IDX 90 24 91 25 92 26 10 27 11 28 12 29 13 30 14 31 15 32 16 33
REMARK SMILES IDX 17 34 81 35 18 36 80 37 19 38 20 39 21 40 74 41 22 42 79 43
REMARK SMILES IDX 73 44 75 45 23 46 78 47 72 48 71 49 24 51 58 52 37 53 57 54
REMARK SMILES IDX 38 55 41 56 56 57 76 58 39 59 40 60 55 62 77 63 42 64 25 65
REMARK SMILES IDX 26 66 35 67 27 68 28 69 34 70 36 71 29 72 30 73 31 74 32 75
REMARK SMILES IDX 33 76 59 77 60 78 69 79 61 80 62 81 68 82 70 83 63 84 64 85
REMARK SMILES IDX 65 86 66 87 67 88 43 89 44 90 53 91 45 92 46 93 52 94 54 95
REMARK SMILES IDX 47 96 48 97 49 98 50 99 51 100
REMARK H PARENT 75 50 41 61
REMARK Flexibility Score: inf
ROOT
ATOM      1  C   UNL A   1      32.318  30.264  26.689  1.00  0.00     0.202 C 
ENDROOT
BRANCH   1   2
ATOM      2  C   UNL A   1      31.828  28.933  27.275  1.00  0.00     0.261 C 
BRANCH   2   3
ATOM      3  O   UNL A   1      32.384  27.850  26.517  1.00  0.00    -0.462 OA
BRANCH   3   4
ATOM      4  C   UNL A   1      31.765  26.644  26.639  1.00  0.00     0.331 C 
ATOM      5  O   UNL A   1      30.586  26.492  26.934  1.00  0.00    -0.250 OA
BRANCH   4   6
ATOM      6  C   UNL A   1      32.706  25.498  26.211  1.00  0.00     0.221 C 
BRANCH   6   7
ATOM      7  C   UNL A   1      34.131  25.890  25.747  1.00  0.00     0.039 C 
BRANCH   7   8
ATOM      8  C   UNL A   1      34.926  24.884  24.906  1.00  0.00    -0.001 C 
ATOM      9  C   UNL A   1      35.843  23.975  25.705  1.00  0.00     0.004 C 
ENDBRANCH   7   8
ENDBRANCH   6   7
BRANCH   6  10
ATOM     10  N   UNL A   1      32.076  24.559  25.233  1.00  0.00    -0.215 N 
ATOM     11  N   UNL A   1      32.338  23.213  25.470  1.00  0.00    -0.169 NA
ATOM     12  C   UNL A   1      31.476  25.003  24.057  1.00  0.00     0.267 A 
ATOM     13  C   UNL A   1      31.978  22.340  24.577  1.00  0.00     0.084 A 
ATOM     14  C   UNL A   1      31.016  23.964  23.118  1.00  0.00     0.075 A 
ATOM     15  O   UNL A   1      31.294  26.167  23.723  1.00  0.00    -0.268 OA
ATOM     16  C   UNL A   1      31.259  22.675  23.336  1.00  0.00     0.036 A 
BRANCH  13  17
ATOM     17  C   UNL A   1      32.297  20.905  24.836  1.00  0.00     0.031 C 
ATOM     18  C   UNL A   1      33.197  20.149  24.188  1.00  0.00     0.010 C 
BRANCH  18  19
ATOM     19  C   UNL A   1      33.391  18.714  24.447  1.00  0.00    -0.025 A 
ATOM     20  C   UNL A   1      32.343  17.967  24.994  1.00  0.00     0.012 A 
ATOM     21  C   UNL A   1      34.633  18.095  24.264  1.00  0.00     0.012 A 
ATOM     22  C   UNL A   1      32.536  16.624  25.335  1.00  0.00     0.047 A 
ATOM     23  C   UNL A   1      34.824  16.751  24.605  1.00  0.00     0.047 A 
ATOM     24  C   UNL A   1      33.775  16.010  25.144  1.00  0.00     0.118 A 
BRANCH  24  25
ATOM     25  O   UNL A   1      33.835  14.700  25.533  1.00  0.00    -0.497 OA
ATOM     26  C   UNL A   1      32.596  14.010  25.640  1.00  0.00     0.278 C 
ENDBRANCH  24  25
ENDBRANCH  18  19
ENDBRANCH  13  17
ENDBRANCH   6  10
ENDBRANCH   4   6
ENDBRANCH   3   4
ENDBRANCH   2   3
ENDBRANCH   1   2
BRANCH   1  27
ATOM     27  O   UNL A   1      31.368  31.335  26.646  1.00  0.00    -0.374 OA
BRANCH  27  28
ATOM     28  C   UNL A   1      31.854  32.649  26.914  1.00  0.00     0.202 C 
BRANCH  28  29
ATOM     29  C   UNL A   1      33.178  32.741  27.678  1.00  0.00     0.261 C 
BRANCH  29  30
ATOM     30  O   UNL A   1      33.707  34.077  27.701  1.00  0.00    -0.460 OA
BRANCH  30  31
ATOM     31  C   UNL A   1      33.528  34.726  28.876  1.00  0.00     0.338 C 
ATOM     32  O   UNL A   1      32.561  35.404  29.204  1.00  0.00    -0.246 OA
BRANCH  31  33
ATOM     33  C   UNL A   1      34.609  34.395  29.819  1.00  0.00     0.060 A 
ATOM     34  C   UNL A   1      35.923  34.483  29.345  1.00  0.00     0.016 A 
ATOM     35  C   UNL A   1      34.348  33.919  31.107  1.00  0.00     0.016 A 
ATOM     36  C   UNL A   1      36.981  34.045  30.137  1.00  0.00     0.010 A 
ATOM     37  C   UNL A   1      35.413  33.472  31.898  1.00  0.00     0.010 A 
ATOM     38  C   UNL A   1      36.729  33.499  31.402  1.00  0.00    -0.014 A 
BRANCH  38  39
ATOM     39  C   UNL A   1      37.830  32.826  32.136  1.00  0.00     0.031 A 
ATOM     40  C   UNL A   1      38.501  31.631  31.513  1.00  0.00     0.074 A 
ATOM     41  C   UNL A   1      38.255  33.301  33.320  1.00  0.00     0.049 A 
ATOM     42  N   UNL A   1      39.469  30.887  31.981  1.00  0.00    -0.248 NA
ATOM     43  C   UNL A   1      38.014  31.221  30.185  1.00  0.00     0.031 C 
ATOM     44  C   UNL A   1      37.712  34.473  34.005  1.00  0.00     0.029 A 
ATOM     45  N   UNL A   1      39.244  32.850  34.159  1.00  0.00    -0.354 N 
ATOM     46  C   UNL A   1      39.706  29.920  31.011  1.00  0.00     0.074 A 
ATOM     47  C   UNL A   1      38.761  30.154  29.940  1.00  0.00     0.031 C 
ATOM     48  C   UNL A   1      38.367  34.642  35.166  1.00  0.00     0.029 A 
ATOM     49  C   UNL A   1      39.357  33.577  35.319  1.00  0.00     0.049 A 
ATOM     50  H   UNL A   1      39.817  32.077  33.949  1.00  0.00     0.167 HD
ATOM     51  C   UNL A   1      40.633  28.932  31.009  1.00  0.00     0.037 A 
ATOM     52  C   UNL A   1      40.155  33.393  36.390  1.00  0.00     0.037 A 
ATOM     53  C   UNL A   1      41.575  28.706  32.075  1.00  0.00     0.049 A 
ATOM     54  C   UNL A   1      41.140  32.252  36.390  1.00  0.00     0.074 A 
ATOM     55  C   UNL A   1      42.564  27.741  32.159  1.00  0.00     0.029 A 
ATOM     56  N   UNL A   1      41.642  29.449  33.244  1.00  0.00    -0.354 N 
ATOM     57  N   UNL A   1      41.366  31.357  35.458  1.00  0.00    -0.248 NA
ATOM     58  C   UNL A   1      41.980  32.097  37.587  1.00  0.00     0.031 C 
ATOM     59  C   UNL A   1      43.200  27.873  33.397  1.00  0.00     0.029 A 
ATOM     60  C   UNL A   1      42.641  28.952  34.065  1.00  0.00     0.049 A 
ATOM     61  H   UNL A   1      41.065  30.217  33.459  1.00  0.00     0.167 HD
ATOM     62  C   UNL A   1      42.394  30.553  35.942  1.00  0.00     0.074 A 
ATOM     63  C   UNL A   1      42.749  31.071  37.247  1.00  0.00     0.031 C 
ATOM     64  C   UNL A   1      42.990  29.485  35.358  1.00  0.00     0.037 A 
BRANCH  51  65
ATOM     65  C   UNL A   1      40.661  28.006  29.826  1.00  0.00     0.058 A 
ATOM     66  C   UNL A   1      41.639  28.115  28.824  1.00  0.00     0.135 A 
ATOM     67  C   UNL A   1      39.720  26.969  29.712  1.00  0.00     0.135 A 
ATOM     68  F   UNL A   1      42.552  29.098  28.875  1.00  0.00    -0.206 F 
ATOM     69  C   UNL A   1      41.670  27.243  27.741  1.00  0.00     0.059 A 
ATOM     70  C   UNL A   1      39.747  26.071  28.649  1.00  0.00     0.059 A 
ATOM     71  F   UNL A   1      38.763  26.821  30.641  1.00  0.00    -0.206 F 
ATOM     72  C   UNL A   1      40.718  26.225  27.662  1.00  0.00     0.060 A 
BRANCH  72  73
ATOM     73  S   UNL A   1      40.775  25.096  26.253  1.00  0.00     0.124 S 
ATOM     74  O   UNL A   1      39.374  24.702  26.140  1.00  0.00    -0.237 OA
ATOM     75  O   UNL A   1      41.280  25.953  25.185  1.00  0.00    -0.237 OA
ATOM     76  O   UNL A   1      41.689  24.047  26.695  1.00  0.00    -0.744 OA
ENDBRANCH  72  73
ENDBRANCH  51  65
BRANCH  52  77
ATOM     77  C   UNL A   1      40.049  34.304  37.560  1.00  0.00     0.058 A 
ATOM     78  C   UNL A   1      39.081  34.102  38.554  1.00  0.00     0.135 A 
ATOM     79  C   UNL A   1      40.916  35.399  37.704  1.00  0.00     0.135 A 
ATOM     80  F   UNL A   1      38.222  33.076  38.455  1.00  0.00    -0.206 F 
ATOM     81  C   UNL A   1      38.963  34.962  39.642  1.00  0.00     0.059 A 
ATOM     82  C   UNL A   1      40.834  36.258  38.795  1.00  0.00     0.059 A 
ATOM     83  F   UNL A   1      41.867  35.630  36.786  1.00  0.00    -0.206 F 
ATOM     84  C   UNL A   1      39.846  36.037  39.754  1.00  0.00     0.060 A 
BRANCH  84  85
ATOM     85  S   UNL A   1      39.715  37.124  41.190  1.00  0.00     0.124 S 
ATOM     86  O   UNL A   1      38.857  38.186  40.678  1.00  0.00    -0.237 OA
ATOM     87  O   UNL A   1      39.115  36.244  42.188  1.00  0.00    -0.237 OA
ATOM     88  O   UNL A   1      41.100  37.502  41.452  1.00  0.00    -0.744 OA
ENDBRANCH  84  85
ENDBRANCH  52  77
BRANCH  64  89
ATOM     89  C   UNL A   1      44.118  28.824  36.102  1.00  0.00     0.058 A 
ATOM     90  C   UNL A   1      45.430  29.321  36.049  1.00  0.00     0.135 A 
ATOM     91  C   UNL A   1      43.870  27.715  36.926  1.00  0.00     0.135 A 
ATOM     92  F   UNL A   1      45.721  30.376  35.271  1.00  0.00    -0.206 F 
ATOM     93  C   UNL A   1      46.461  28.728  36.771  1.00  0.00     0.059 A 
ATOM     94  C   UNL A   1      44.881  27.121  37.677  1.00  0.00     0.059 A 
ATOM     95  F   UNL A   1      42.632  27.206  37.022  1.00  0.00    -0.206 F 
ATOM     96  C   UNL A   1      46.176  27.629  37.585  1.00  0.00     0.060 A 
BRANCH  96  97
ATOM     97  S   UNL A   1      47.514  26.892  38.547  1.00  0.00     0.124 S 
ATOM     98  O   UNL A   1      46.928  26.855  39.884  1.00  0.00    -0.237 OA
ATOM     99  O   UNL A   1      47.692  25.597  37.897  1.00  0.00    -0.237 OA
ATOM    100  O   UNL A   1      48.617  27.831  38.370  1.00  0.00    -0.744 OA
ENDBRANCH  96  97
ENDBRANCH  64  89
ENDBRANCH  38  39
ENDBRANCH  31  33
ENDBRANCH  30  31
ENDBRANCH  29  30
ENDBRANCH  28  29
ENDBRANCH  27  28
ENDBRANCH   1  27
TORSDOF 23
ENDMDL
MODEL 3
REMARK VINA RESULT:     -10.1      5.876     10.452
REMARK SMILES CCC[C@@H](C(=O)OCCOCCOC(=O)c1ccc(-c2c3nc(c(-c4c(F)cc(S(=O)(=O)[O-])cc4F)c4ccc([nH]4)c(-c4c(F)cc(S(=O)(=O)[O-])cc4F)c4nc(c(-c5c(F)cc(S(=O)(=O)[O-])cc5F)c5ccc2[nH]5)C=C4)C=C3)cc1)n1nc(/C=C/c2ccc(OC)cc2)ccc1=O
REMARK SMILES IDX 9 1 8 2 7 3 5 4 6 5 4 6 3 7 2 8 1 9 82 10 83 11 97 12 84 13
REMARK SMILES IDX 96 14 98 15 95 16 85 17 86 18 87 19 88 20 94 21 89 22 93 23
REMARK SMILES IDX 90 24 91 25 92 26 10 27 11 28 12 29 13 30 14 31 15 32 16 33
REMARK SMILES IDX 17 34 81 35 18 36 80 37 19 38 20 39 21 40 74 41 22 42 79 43
REMARK SMILES IDX 73 44 75 45 23 46 78 47 72 48 71 49 24 51 58 52 37 53 57 54
REMARK SMILES IDX 38 55 41 56 56 57 76 58 39 59 40 60 55 62 77 63 42 64 25 65
REMARK SMILES IDX 26 66 35 67 27 68 28 69 34 70 36 71 29 72 30 73 31 74 32 75
REMARK SMILES IDX 33 76 59 77 60 78 69 79 61 80 62 81 68 82 70 83 63 84 64 85
REMARK SMILES IDX 65 86 66 87 67 88 43 89 44 90 53 91 45 92 46 93 52 94 54 95
REMARK SMILES IDX 47 96 48 97 49 98 50 99 51 100
REMARK H PARENT 75 50 41 61
REMARK Flexibility Score: inf
ROOT
ATOM      1  C   UNL A   1      34.371  31.397  27.918  1.00  0.00     0.202 C 
ENDROOT
BRANCH   1   2
ATOM      2  C   UNL A   1      33.217  30.790  27.109  1.00  0.00     0.261 C 
BRANCH   2   3
ATOM      3  O   UNL A   1      33.680  29.612  26.435  1.00  0.00    -0.462 OA
BRANCH   3   4
ATOM      4  C   UNL A   1      33.008  28.459  26.701  1.00  0.00     0.331 C 
ATOM      5  O   UNL A   1      32.206  28.313  27.615  1.00  0.00    -0.250 OA
BRANCH   4   6
ATOM      6  C   UNL A   1      33.277  27.403  25.608  1.00  0.00     0.221 C 
BRANCH   6   7
ATOM      7  C   UNL A   1      33.987  27.885  24.319  1.00  0.00     0.039 C 
BRANCH   7   8
ATOM      8  C   UNL A   1      33.308  27.618  22.969  1.00  0.00    -0.001 C 
ATOM      9  C   UNL A   1      33.694  26.302  22.317  1.00  0.00     0.004 C 
ENDBRANCH   7   8
ENDBRANCH   6   7
BRANCH   6  10
ATOM     10  N   UNL A   1      32.067  26.592  25.268  1.00  0.00    -0.215 N 
ATOM     11  N   UNL A   1      32.268  25.215  25.284  1.00  0.00    -0.169 NA
ATOM     12  C   UNL A   1      30.908  27.168  24.754  1.00  0.00     0.267 A 
ATOM     13  C   UNL A   1      31.325  24.442  24.836  1.00  0.00     0.084 A 
ATOM     14  C   UNL A   1      29.841  26.241  24.335  1.00  0.00     0.075 A 
ATOM     15  O   UNL A   1      30.685  28.364  24.612  1.00  0.00    -0.268 OA
ATOM     16  C   UNL A   1      30.021  24.924  24.349  1.00  0.00     0.036 A 
BRANCH  13  17
ATOM     17  C   UNL A   1      31.573  22.970  24.833  1.00  0.00     0.031 C 
ATOM     18  C   UNL A   1      32.225  22.264  23.895  1.00  0.00     0.010 C 
BRANCH  18  19
ATOM     19  C   UNL A   1      32.353  20.799  23.923  1.00  0.00    -0.025 A 
ATOM     20  C   UNL A   1      32.800  20.171  25.090  1.00  0.00     0.012 A 
ATOM     21  C   UNL A   1      32.144  20.020  22.779  1.00  0.00     0.012 A 
ATOM     22  C   UNL A   1      33.019  18.789  25.110  1.00  0.00     0.047 A 
ATOM     23  C   UNL A   1      32.362  18.638  22.800  1.00  0.00     0.047 A 
ATOM     24  C   UNL A   1      32.803  18.017  23.967  1.00  0.00     0.118 A 
BRANCH  24  25
ATOM     25  O   UNL A   1      33.069  16.683  24.115  1.00  0.00    -0.497 OA
ATOM     26  C   UNL A   1      33.193  16.202  25.448  1.00  0.00     0.278 C 
ENDBRANCH  24  25
ENDBRANCH  18  19
ENDBRANCH  13  17
ENDBRANCH   6  10
ENDBRANCH   4   6
ENDBRANCH   3   4
ENDBRANCH   2   3
ENDBRANCH   1   2
BRANCH   1  27
ATOM     27  O   UNL A   1      34.505  32.822  27.879  1.00  0.00    -0.374 OA
BRANCH  27  28
ATOM     28  C   UNL A   1      35.010  33.463  29.049  1.00  0.00     0.202 C 
BRANCH  28  29
ATOM     29  C   UNL A   1      36.534  33.515  29.191  1.00  0.00     0.261 C 
BRANCH  29  30
ATOM     30  O   UNL A   1      36.981  33.081  30.486  1.00  0.00    -0.460 OA
BRANCH  30  31
ATOM     31  C   UNL A   1      36.781  31.764  30.731  1.00  0.00     0.338 C 
ATOM     32  O   UNL A   1      35.760  31.241  31.162  1.00  0.00    -0.246 OA
BRANCH  31  33
ATOM     33  C   UNL A   1      37.930  30.972  30.262  1.00  0.00     0.060 A 
ATOM     34  C   UNL A   1      38.897  30.621  31.212  1.00  0.00     0.016 A 
ATOM     35  C   UNL A   1      38.112  30.658  28.913  1.00  0.00     0.016 A 
ATOM     36  C   UNL A   1      40.076  30.000  30.810  1.00  0.00     0.010 A 
ATOM     37  C   UNL A   1      39.302  30.041  28.511  1.00  0.00     0.010 A 
ATOM     38  C   UNL A   1      40.305  29.744  29.452  1.00  0.00    -0.014 A 
BRANCH  38  39
ATOM     39  C   UNL A   1      41.651  29.300  29.013  1.00  0.00     0.031 A 
ATOM     40  C   UNL A   1      42.779  30.296  28.994  1.00  0.00     0.074 A 
ATOM     41  C   UNL A   1      41.874  28.016  28.678  1.00  0.00     0.049 A 
ATOM     42  N   UNL A   1      44.026  30.129  28.634  1.00  0.00    -0.248 NA
ATOM     43  C   UNL A   1      42.459  31.662  29.438  1.00  0.00     0.031 C 
ATOM     44  C   UNL A   1      40.872  26.952  28.696  1.00  0.00     0.029 A 
ATOM     45  N   UNL A   1      43.021  27.391  28.255  1.00  0.00    -0.354 N 
ATOM     46  C   UNL A   1      44.637  31.365  28.805  1.00  0.00     0.074 A 
ATOM     47  C   UNL A   1      43.619  32.281  29.273  1.00  0.00     0.031 C 
ATOM     48  C   UNL A   1      41.446  25.806  28.289  1.00  0.00     0.029 A 
ATOM     49  C   UNL A   1      42.847  26.061  27.958  1.00  0.00     0.049 A 
ATOM     50  H   UNL A   1      43.886  27.854  28.170  1.00  0.00     0.167 HD
ATOM     51  C   UNL A   1      45.933  31.704  28.600  1.00  0.00     0.037 A 
ATOM     52  C   UNL A   1      43.714  25.158  27.458  1.00  0.00     0.037 A 
ATOM     53  C   UNL A   1      46.945  30.789  28.139  1.00  0.00     0.049 A 
ATOM     54  C   UNL A   1      45.137  25.573  27.182  1.00  0.00     0.074 A 
ATOM     55  C   UNL A   1      48.288  31.033  27.914  1.00  0.00     0.029 A 
ATOM     56  N   UNL A   1      46.724  29.455  27.826  1.00  0.00    -0.354 N 
ATOM     57  N   UNL A   1      45.706  26.741  27.367  1.00  0.00    -0.248 NA
ATOM     58  C   UNL A   1      46.035  24.547  26.634  1.00  0.00     0.031 C 
ATOM     59  C   UNL A   1      48.871  29.859  27.425  1.00  0.00     0.029 A 
ATOM     60  C   UNL A   1      47.901  28.869  27.391  1.00  0.00     0.049 A 
ATOM     61  H   UNL A   1      45.858  28.994  27.902  1.00  0.00     0.167 HD
ATOM     62  C   UNL A   1      47.035  26.581  26.986  1.00  0.00     0.074 A 
ATOM     63  C   UNL A   1      47.186  25.204  26.566  1.00  0.00     0.031 C 
ATOM     64  C   UNL A   1      48.039  27.492  26.986  1.00  0.00     0.037 A 
BRANCH  51  65
ATOM     65  C   UNL A   1      46.327  33.132  28.851  1.00  0.00     0.058 A 
ATOM     66  C   UNL A   1      46.792  33.561  30.104  1.00  0.00     0.135 A 
ATOM     67  C   UNL A   1      46.277  34.077  27.813  1.00  0.00     0.135 A 
ATOM     68  F   UNL A   1      46.845  32.704  31.136  1.00  0.00    -0.206 F 
ATOM     69  C   UNL A   1      47.173  34.881  30.326  1.00  0.00     0.059 A 
ATOM     70  C   UNL A   1      46.674  35.397  28.006  1.00  0.00     0.059 A 
ATOM     71  F   UNL A   1      45.838  33.720  26.596  1.00  0.00    -0.206 F 
ATOM     72  C   UNL A   1      47.109  35.792  29.269  1.00  0.00     0.060 A 
BRANCH  72  73
ATOM     73  S   UNL A   1      47.612  37.500  29.570  1.00  0.00     0.124 S 
ATOM     74  O   UNL A   1      46.551  37.963  30.459  1.00  0.00    -0.237 OA
ATOM     75  O   UNL A   1      48.926  37.337  30.182  1.00  0.00    -0.237 OA
ATOM     76  O   UNL A   1      47.615  38.093  28.236  1.00  0.00    -0.744 OA
ENDBRANCH  72  73
ENDBRANCH  51  65
BRANCH  52  77
ATOM     77  C   UNL A   1      43.259  23.771  27.174  1.00  0.00     0.058 A 
ATOM     78  C   UNL A   1      43.077  22.840  28.206  1.00  0.00     0.135 A 
ATOM     79  C   UNL A   1      43.003  23.350  25.860  1.00  0.00     0.135 A 
ATOM     80  F   UNL A   1      43.320  23.191  29.477  1.00  0.00    -0.206 F 
ATOM     81  C   UNL A   1      42.670  21.534  27.946  1.00  0.00     0.059 A 
ATOM     82  C   UNL A   1      42.572  22.058  25.577  1.00  0.00     0.059 A 
ATOM     83  F   UNL A   1      43.153  24.206  24.837  1.00  0.00    -0.206 F 
ATOM     84  C   UNL A   1      42.419  21.154  26.626  1.00  0.00     0.060 A 
BRANCH  84  85
ATOM     85  S   UNL A   1      41.851  19.471  26.301  1.00  0.00     0.124 S 
ATOM     86  O   UNL A   1      42.569  19.151  25.072  1.00  0.00    -0.237 OA
ATOM     87  O   UNL A   1      42.287  18.761  27.499  1.00  0.00    -0.237 OA
ATOM     88  O   UNL A   1      40.405  19.625  26.165  1.00  0.00    -0.744 OA
ENDBRANCH  84  85
ENDBRANCH  52  77
BRANCH  64  89
ATOM     89  C   UNL A   1      49.403  27.026  26.558  1.00  0.00     0.058 A 
ATOM     90  C   UNL A   1      49.827  27.110  25.223  1.00  0.00     0.135 A 
ATOM     91  C   UNL A   1      50.318  26.545  27.508  1.00  0.00     0.135 A 
ATOM     92  F   UNL A   1      48.988  27.558  24.274  1.00  0.00    -0.206 F 
ATOM     93  C   UNL A   1      51.105  26.714  24.840  1.00  0.00     0.059 A 
ATOM     94  C   UNL A   1      51.610  26.167  27.152  1.00  0.00     0.059 A 
ATOM     95  F   UNL A   1      49.968  26.454  28.800  1.00  0.00    -0.206 F 
ATOM     96  C   UNL A   1      51.991  26.246  25.813  1.00  0.00     0.060 A 
BRANCH  96  97
ATOM     97  S   UNL A   1      53.659  25.771  25.312  1.00  0.00     0.124 S 
ATOM     98  O   UNL A   1      54.315  25.596  26.604  1.00  0.00    -0.237 OA
ATOM     99  O   UNL A   1      53.422  24.547  24.551  1.00  0.00    -0.237 OA
ATOM    100  O   UNL A   1      54.115  26.912  24.524  1.00  0.00    -0.744 OA
ENDBRANCH  96  97
ENDBRANCH  64  89
ENDBRANCH  38  39
ENDBRANCH  31  33
ENDBRANCH  30  31
ENDBRANCH  29  30
ENDBRANCH  28  29
ENDBRANCH  27  28
ENDBRANCH   1  27
TORSDOF 23
ENDMDL
