MODEL 1
REMARK VINA RESULT:     -10.6      0.000      0.000
REMARK SMILES C[C@@H](CC(=O)OCCOCCOC(=O)c1ccc(-c2c3nc(c(-c4c(F)cc(S(=O)(=O)[O-])cc4F)c4ccc([nH]4)c(-c4c(F)cc(S(=O)(=O)[O-])cc4F)c4nc(c(-c5c(F)cc(S(=O)(=O)[O-])cc5F)c5ccc2[nH]5)C=C4)C=C3)cc1)NC(=O)[C@@H]1CCCN(C(N)=O)C1
REMARK SMILES IDX 8 1 7 2 6 3 4 4 5 5 3 6 2 7 1 8 81 9 82 10 83 12 84 13 85 14
REMARK SMILES IDX 92 15 86 16 88 17 87 18 89 19 90 20 91 21 9 24 10 25 11 26
REMARK SMILES IDX 12 27 13 28 14 29 15 30 16 31 80 32 17 33 79 34 18 35 19 36
REMARK SMILES IDX 20 37 73 38 21 39 78 40 72 41 74 42 22 43 77 44 71 45 70 46
REMARK SMILES IDX 23 48 57 49 36 50 56 51 37 52 40 53 55 54 75 55 38 56 39 57
REMARK SMILES IDX 54 59 76 60 41 61 24 62 25 63 34 64 26 65 27 66 33 67 35 68
REMARK SMILES IDX 28 69 29 70 30 71 31 72 32 73 58 74 59 75 68 76 60 77 61 78
REMARK SMILES IDX 67 79 69 80 62 81 63 82 64 83 65 84 66 85 42 86 43 87 52 88
REMARK SMILES IDX 44 89 45 90 51 91 53 92 46 93 47 94 48 95 49 96 50 97
REMARK H PARENT 81 11 90 22 90 23 74 47 40 58
REMARK Flexibility Score: inf
ROOT
ATOM      1  C   UNL A   1      35.969  21.184  25.345  1.00  0.00     0.202 C 
ENDROOT
BRANCH   1   2
ATOM      2  C   UNL A   1      34.633  20.549  24.955  1.00  0.00     0.261 C 
BRANCH   2   3
ATOM      3  O   UNL A   1      33.702  21.560  24.525  1.00  0.00    -0.463 OA
BRANCH   3   4
ATOM      4  C   UNL A   1      33.233  22.410  25.464  1.00  0.00     0.307 C 
ATOM      5  O   UNL A   1      32.675  22.070  26.501  1.00  0.00    -0.252 OA
BRANCH   4   6
ATOM      6  C   UNL A   1      33.400  23.866  25.092  1.00  0.00     0.147 C 
BRANCH   6   7
ATOM      7  C   UNL A   1      32.326  24.609  24.280  1.00  0.00     0.090 C 
ATOM      8  C   UNL A   1      31.026  23.843  24.053  1.00  0.00     0.031 C 
BRANCH   7   9
ATOM      9  N   UNL A   1      32.825  25.166  23.028  1.00  0.00    -0.353 N 
ATOM     10  C   UNL A   1      33.436  26.331  22.702  1.00  0.00     0.225 C 
ATOM     11  H   UNL A   1      32.691  24.571  22.256  1.00  0.00     0.163 HD
ATOM     12  O   UNL A   1      33.710  26.470  21.500  1.00  0.00    -0.275 OA
BRANCH  10  13
ATOM     13  C   UNL A   1      33.714  27.506  23.646  1.00  0.00     0.098 C 
ATOM     14  C   UNL A   1      33.407  27.403  25.139  1.00  0.00     0.017 C 
ATOM     15  C   UNL A   1      33.184  28.803  23.058  1.00  0.00     0.134 C 
ATOM     16  C   UNL A   1      32.086  28.014  25.630  1.00  0.00     0.022 C 
ATOM     17  N   UNL A   1      31.759  28.916  23.309  1.00  0.00    -0.324 N 
ATOM     18  C   UNL A   1      31.395  29.037  24.714  1.00  0.00     0.121 C 
BRANCH  17  19
ATOM     19  C   UNL A   1      30.777  28.987  22.348  1.00  0.00     0.314 C 
ATOM     20  N   UNL A   1      30.734  30.104  21.589  1.00  0.00    -0.351 N 
ATOM     21  O   UNL A   1      29.962  28.096  22.138  1.00  0.00    -0.249 OA
ATOM     22  H   UNL A   1      31.380  30.830  21.744  1.00  0.00     0.161 HD
ATOM     23  H   UNL A   1      30.055  30.192  20.881  1.00  0.00     0.161 HD
ENDBRANCH  17  19
ENDBRANCH  10  13
ENDBRANCH   7   9
ENDBRANCH   6   7
ENDBRANCH   4   6
ENDBRANCH   3   4
ENDBRANCH   2   3
ENDBRANCH   1   2
BRANCH   1  24
ATOM     24  O   UNL A   1      37.068  20.828  24.504  1.00  0.00    -0.374 OA
BRANCH  24  25
ATOM     25  C   UNL A   1      38.171  20.158  25.116  1.00  0.00     0.202 C 
BRANCH  25  26
ATOM     26  C   UNL A   1      39.127  21.073  25.887  1.00  0.00     0.261 C 
BRANCH  26  27
ATOM     27  O   UNL A   1      39.907  20.312  26.834  1.00  0.00    -0.460 OA
BRANCH  27  28
ATOM     28  C   UNL A   1      41.127  19.950  26.372  1.00  0.00     0.338 C 
ATOM     29  O   UNL A   1      41.394  18.946  25.720  1.00  0.00    -0.246 OA
BRANCH  28  30
ATOM     30  C   UNL A   1      42.123  21.014  26.584  1.00  0.00     0.060 A 
ATOM     31  C   UNL A   1      42.362  21.397  27.910  1.00  0.00     0.016 A 
ATOM     32  C   UNL A   1      42.676  21.742  25.527  1.00  0.00     0.016 A 
ATOM     33  C   UNL A   1      43.074  22.562  28.182  1.00  0.00     0.010 A 
ATOM     34  C   UNL A   1      43.397  22.915  25.806  1.00  0.00     0.010 A 
ATOM     35  C   UNL A   1      43.542  23.364  27.132  1.00  0.00    -0.014 A 
BRANCH  35  36
ATOM     36  C   UNL A   1      43.975  24.752  27.452  1.00  0.00     0.031 A 
ATOM     37  C   UNL A   1      45.413  25.145  27.208  1.00  0.00     0.074 A 
ATOM     38  C   UNL A   1      43.087  25.689  27.834  1.00  0.00     0.049 A 
ATOM     39  N   UNL A   1      45.981  26.320  27.304  1.00  0.00    -0.248 NA
ATOM     40  C   UNL A   1      46.328  24.069  26.793  1.00  0.00     0.031 C 
ATOM     41  C   UNL A   1      41.663  25.457  28.073  1.00  0.00     0.029 A 
ATOM     42  N   UNL A   1      43.253  27.032  28.069  1.00  0.00    -0.354 N 
ATOM     43  C   UNL A   1      47.314  26.127  26.956  1.00  0.00     0.074 A 
ATOM     44  C   UNL A   1      47.480  24.715  26.688  1.00  0.00     0.031 C 
ATOM     45  C   UNL A   1      41.082  26.622  28.409  1.00  0.00     0.029 A 
ATOM     46  C   UNL A   1      42.093  27.679  28.424  1.00  0.00     0.049 A 
ATOM     47  H   UNL A   1      44.122  27.488  27.990  1.00  0.00     0.167 HD
ATOM     48  C   UNL A   1      48.310  27.041  26.849  1.00  0.00     0.037 A 
ATOM     49  C   UNL A   1      41.871  28.974  28.726  1.00  0.00     0.037 A 
ATOM     50  C   UNL A   1      48.153  28.449  27.105  1.00  0.00     0.049 A 
ATOM     51  C   UNL A   1      43.004  29.966  28.647  1.00  0.00     0.074 A 
ATOM     52  C   UNL A   1      49.102  29.452  27.011  1.00  0.00     0.029 A 
ATOM     53  N   UNL A   1      46.973  29.055  27.508  1.00  0.00    -0.354 N 
ATOM     54  N   UNL A   1      44.252  29.769  28.292  1.00  0.00    -0.248 NA
ATOM     55  C   UNL A   1      42.693  31.359  28.998  1.00  0.00     0.031 C 
ATOM     56  C   UNL A   1      48.505  30.659  27.394  1.00  0.00     0.029 A 
ATOM     57  C   UNL A   1      47.174  30.414  27.686  1.00  0.00     0.049 A 
ATOM     58  H   UNL A   1      46.118  28.587  27.649  1.00  0.00     0.167 HD
ATOM     59  C   UNL A   1      44.866  31.016  28.355  1.00  0.00     0.074 A 
ATOM     60  C   UNL A   1      43.850  31.962  28.767  1.00  0.00     0.031 C 
ATOM     61  C   UNL A   1      46.157  31.348  28.096  1.00  0.00     0.037 A 
BRANCH  48  62
ATOM     62  C   UNL A   1      49.669  26.537  26.449  1.00  0.00     0.058 A 
ATOM     63  C   UNL A   1      50.145  26.670  25.135  1.00  0.00     0.135 A 
ATOM     64  C   UNL A   1      50.513  25.938  27.396  1.00  0.00     0.135 A 
ATOM     65  F   UNL A   1      49.372  27.220  24.187  1.00  0.00    -0.206 F 
ATOM     66  C   UNL A   1      51.402  26.198  24.768  1.00  0.00     0.059 A 
ATOM     67  C   UNL A   1      51.782  25.481  27.057  1.00  0.00     0.059 A 
ATOM     68  F   UNL A   1      50.104  25.786  28.666  1.00  0.00    -0.206 F 
ATOM     69  C   UNL A   1      52.213  25.603  25.736  1.00  0.00     0.060 A 
BRANCH  69  70
ATOM     70  S   UNL A   1      53.839  24.992  25.246  1.00  0.00     0.124 S 
ATOM     71  O   UNL A   1      53.638  23.547  25.309  1.00  0.00    -0.237 OA
ATOM     72  O   UNL A   1      53.995  25.552  23.908  1.00  0.00    -0.237 OA
ATOM     73  O   UNL A   1      54.730  25.546  26.261  1.00  0.00    -0.744 OA
ENDBRANCH  69  70
ENDBRANCH  48  62
BRANCH  49  74
ATOM     74  C   UNL A   1      40.511  29.419  29.131  1.00  0.00     0.058 A 
ATOM     75  C   UNL A   1      40.196  29.674  30.473  1.00  0.00     0.135 A 
ATOM     76  C   UNL A   1      39.494  29.579  28.178  1.00  0.00     0.135 A 
ATOM     77  F   UNL A   1      41.132  29.521  31.423  1.00  0.00    -0.206 F 
ATOM     78  C   UNL A   1      38.916  30.057  30.861  1.00  0.00     0.059 A 
ATOM     79  C   UNL A   1      38.213  29.986  28.538  1.00  0.00     0.059 A 
ATOM     80  F   UNL A   1      39.747  29.355  26.880  1.00  0.00    -0.206 F 
ATOM     81  C   UNL A   1      37.930  30.212  29.884  1.00  0.00     0.060 A 
BRANCH  81  82
ATOM     82  S   UNL A   1      36.284  30.755  30.388  1.00  0.00     0.124 S 
ATOM     83  O   UNL A   1      36.026  29.889  31.532  1.00  0.00    -0.237 OA
ATOM     84  O   UNL A   1      36.503  32.166  30.690  1.00  0.00    -0.237 OA
ATOM     85  O   UNL A   1      35.470  30.497  29.203  1.00  0.00    -0.744 OA
ENDBRANCH  81  82
ENDBRANCH  49  74
BRANCH  61  86
ATOM     86  C   UNL A   1      46.536  32.799  28.223  1.00  0.00     0.058 A 
ATOM     87  C   UNL A   1      47.076  33.320  29.409  1.00  0.00     0.135 A 
ATOM     88  C   UNL A   1      46.378  33.675  27.136  1.00  0.00     0.135 A 
ATOM     89  F   UNL A   1      47.246  32.526  30.478  1.00  0.00    -0.206 F 
ATOM     90  C   UNL A   1      47.411  34.665  29.527  1.00  0.00     0.059 A 
ATOM     91  C   UNL A   1      46.730  35.019  27.223  1.00  0.00     0.059 A 
ATOM     92  F   UNL A   1      45.880  33.227  25.973  1.00  0.00    -0.206 F 
ATOM     93  C   UNL A   1      47.228  35.510  28.430  1.00  0.00     0.060 A 
BRANCH  93  94
ATOM     94  S   UNL A   1      47.667  37.253  28.592  1.00  0.00     0.124 S 
ATOM     95  O   UNL A   1      46.887  37.852  27.514  1.00  0.00    -0.237 OA
ATOM     96  O   UNL A   1      47.221  37.568  29.946  1.00  0.00    -0.237 OA
ATOM     97  O   UNL A   1      49.114  37.258  28.399  1.00  0.00    -0.744 OA
ENDBRANCH  93  94
ENDBRANCH  61  86
ENDBRANCH  35  36
ENDBRANCH  28  30
ENDBRANCH  27  28
ENDBRANCH  26  27
ENDBRANCH  25  26
ENDBRANCH  24  25
ENDBRANCH   1  24
TORSDOF 21
ENDMDL
MODEL 2
REMARK VINA RESULT:     -10.5      6.160      8.688
REMARK SMILES C[C@@H](CC(=O)OCCOCCOC(=O)c1ccc(-c2c3nc(c(-c4c(F)cc(S(=O)(=O)[O-])cc4F)c4ccc([nH]4)c(-c4c(F)cc(S(=O)(=O)[O-])cc4F)c4nc(c(-c5c(F)cc(S(=O)(=O)[O-])cc5F)c5ccc2[nH]5)C=C4)C=C3)cc1)NC(=O)[C@@H]1CCCN(C(N)=O)C1
REMARK SMILES IDX 8 1 7 2 6 3 4 4 5 5 3 6 2 7 1 8 81 9 82 10 83 12 84 13 85 14
REMARK SMILES IDX 92 15 86 16 88 17 87 18 89 19 90 20 91 21 9 24 10 25 11 26
REMARK SMILES IDX 12 27 13 28 14 29 15 30 16 31 80 32 17 33 79 34 18 35 19 36
REMARK SMILES IDX 20 37 73 38 21 39 78 40 72 41 74 42 22 43 77 44 71 45 70 46
REMARK SMILES IDX 23 48 57 49 36 50 56 51 37 52 40 53 55 54 75 55 38 56 39 57
REMARK SMILES IDX 54 59 76 60 41 61 24 62 25 63 34 64 26 65 27 66 33 67 35 68
REMARK SMILES IDX 28 69 29 70 30 71 31 72 32 73 58 74 59 75 68 76 60 77 61 78
REMARK SMILES IDX 67 79 69 80 62 81 63 82 64 83 65 84 66 85 42 86 43 87 52 88
REMARK SMILES IDX 44 89 45 90 51 91 53 92 46 93 47 94 48 95 49 96 50 97
REMARK H PARENT 81 11 90 22 90 23 74 47 40 58
REMARK Flexibility Score: inf
ROOT
ATOM      1  C   UNL A   1      41.591  21.999  25.880  1.00  0.00     0.202 C 
ENDROOT
BRANCH   1   2
ATOM      2  C   UNL A   1      40.276  21.807  26.636  1.00  0.00     0.261 C 
BRANCH   2   3
ATOM      3  O   UNL A   1      39.406  22.936  26.427  1.00  0.00    -0.463 OA
BRANCH   3   4
ATOM      4  C   UNL A   1      38.194  22.691  25.884  1.00  0.00     0.307 C 
ATOM      5  O   UNL A   1      37.901  21.686  25.246  1.00  0.00    -0.252 OA
BRANCH   4   6
ATOM      6  C   UNL A   1      37.211  23.824  26.077  1.00  0.00     0.147 C 
BRANCH   6   7
ATOM      7  C   UNL A   1      35.706  23.623  25.833  1.00  0.00     0.090 C 
ATOM      8  C   UNL A   1      34.994  22.713  26.829  1.00  0.00     0.031 C 
BRANCH   7   9
ATOM      9  N   UNL A   1      35.384  23.244  24.461  1.00  0.00    -0.353 N 
ATOM     10  C   UNL A   1      34.552  23.754  23.522  1.00  0.00     0.225 C 
ATOM     11  H   UNL A   1      35.876  22.449  24.153  1.00  0.00     0.163 HD
ATOM     12  O   UNL A   1      34.526  23.141  22.444  1.00  0.00    -0.275 OA
BRANCH  10  13
ATOM     13  C   UNL A   1      33.585  24.929  23.707  1.00  0.00     0.098 C 
ATOM     14  C   UNL A   1      33.851  26.007  24.756  1.00  0.00     0.017 C 
ATOM     15  C   UNL A   1      32.149  24.436  23.770  1.00  0.00     0.134 C 
ATOM     16  C   UNL A   1      33.114  25.882  26.098  1.00  0.00     0.022 C 
ATOM     17  N   UNL A   1      31.847  23.954  25.105  1.00  0.00    -0.324 N 
ATOM     18  C   UNL A   1      31.872  24.977  26.142  1.00  0.00     0.121 C 
BRANCH  17  19
ATOM     19  C   UNL A   1      31.482  22.669  25.431  1.00  0.00     0.314 C 
ATOM     20  N   UNL A   1      30.359  22.511  26.166  1.00  0.00    -0.351 N 
ATOM     21  O   UNL A   1      32.107  21.672  25.083  1.00  0.00    -0.249 OA
ATOM     22  H   UNL A   1      29.845  23.300  26.455  1.00  0.00     0.161 HD
ATOM     23  H   UNL A   1      30.054  21.608  26.412  1.00  0.00     0.161 HD
ENDBRANCH  17  19
ENDBRANCH  10  13
ENDBRANCH   7   9
ENDBRANCH   6   7
ENDBRANCH   4   6
ENDBRANCH   3   4
ENDBRANCH   2   3
ENDBRANCH   1   2
BRANCH   1  24
ATOM     24  O   UNL A   1      42.734  22.204  26.711  1.00  0.00    -0.374 OA
BRANCH  24  25
ATOM     25  C   UNL A   1      43.608  23.283  26.371  1.00  0.00     0.202 C 
BRANCH  25  26
ATOM     26  C   UNL A   1      43.185  24.082  25.135  1.00  0.00     0.261 C 
BRANCH  26  27
ATOM     27  O   UNL A   1      43.088  25.489  25.446  1.00  0.00    -0.460 OA
BRANCH  27  28
ATOM     28  C   UNL A   1      41.866  25.867  25.890  1.00  0.00     0.338 C 
ATOM     29  O   UNL A   1      40.799  25.727  25.302  1.00  0.00    -0.246 OA
BRANCH  28  30
ATOM     30  C   UNL A   1      41.917  26.328  27.288  1.00  0.00     0.060 A 
ATOM     31  C   UNL A   1      40.812  26.024  28.091  1.00  0.00     0.016 A 
ATOM     32  C   UNL A   1      42.920  27.180  27.757  1.00  0.00     0.016 A 
ATOM     33  C   UNL A   1      40.656  26.645  29.328  1.00  0.00     0.010 A 
ATOM     34  C   UNL A   1      42.762  27.801  29.007  1.00  0.00     0.010 A 
ATOM     35  C   UNL A   1      41.598  27.586  29.768  1.00  0.00    -0.014 A 
BRANCH  35  36
ATOM     36  C   UNL A   1      41.222  28.473  30.903  1.00  0.00     0.031 A 
ATOM     37  C   UNL A   1      42.053  28.440  32.163  1.00  0.00     0.074 A 
ATOM     38  C   UNL A   1      40.238  29.383  30.780  1.00  0.00     0.049 A 
ATOM     39  N   UNL A   1      41.981  29.201  33.226  1.00  0.00    -0.248 NA
ATOM     40  C   UNL A   1      43.110  27.418  32.228  1.00  0.00     0.031 C 
ATOM     41  C   UNL A   1      39.380  29.550  29.608  1.00  0.00     0.029 A 
ATOM     42  N   UNL A   1      39.809  30.356  31.650  1.00  0.00    -0.354 N 
ATOM     43  C   UNL A   1      42.984  28.756  34.081  1.00  0.00     0.074 A 
ATOM     44  C   UNL A   1      43.623  27.632  33.431  1.00  0.00     0.031 C 
ATOM     45  C   UNL A   1      38.535  30.572  29.827  1.00  0.00     0.029 A 
ATOM     46  C   UNL A   1      38.780  31.124  31.159  1.00  0.00     0.049 A 
ATOM     47  H   UNL A   1      40.204  30.492  32.542  1.00  0.00     0.167 HD
ATOM     48  C   UNL A   1      43.358  29.246  35.288  1.00  0.00     0.037 A 
ATOM     49  C   UNL A   1      38.113  32.154  31.717  1.00  0.00     0.037 A 
ATOM     50  C   UNL A   1      42.735  30.369  35.939  1.00  0.00     0.049 A 
ATOM     51  C   UNL A   1      38.514  32.653  33.082  1.00  0.00     0.074 A 
ATOM     52  C   UNL A   1      43.053  30.944  37.157  1.00  0.00     0.029 A 
ATOM     53  N   UNL A   1      41.666  31.088  35.427  1.00  0.00    -0.354 N 
ATOM     54  N   UNL A   1      39.481  32.234  33.864  1.00  0.00    -0.248 NA
ATOM     55  C   UNL A   1      37.738  33.772  33.635  1.00  0.00     0.031 C 
ATOM     56  C   UNL A   1      42.151  31.986  37.400  1.00  0.00     0.029 A 
ATOM     57  C   UNL A   1      41.298  32.088  36.314  1.00  0.00     0.049 A 
ATOM     58  H   UNL A   1      41.230  30.912  34.561  1.00  0.00     0.167 HD
ATOM     59  C   UNL A   1      39.442  33.055  34.988  1.00  0.00     0.074 A 
ATOM     60  C   UNL A   1      38.368  34.002  34.777  1.00  0.00     0.031 C 
ATOM     61  C   UNL A   1      40.227  33.026  36.095  1.00  0.00     0.037 A 
BRANCH  48  62
ATOM     62  C   UNL A   1      44.491  28.554  35.994  1.00  0.00     0.058 A 
ATOM     63  C   UNL A   1      45.825  28.949  35.809  1.00  0.00     0.135 A 
ATOM     64  C   UNL A   1      44.236  27.498  36.884  1.00  0.00     0.135 A 
ATOM     65  F   UNL A   1      46.124  29.941  34.956  1.00  0.00    -0.206 F 
ATOM     66  C   UNL A   1      46.871  28.303  36.460  1.00  0.00     0.059 A 
ATOM     67  C   UNL A   1      45.264  26.854  37.564  1.00  0.00     0.059 A 
ATOM     68  F   UNL A   1      42.978  27.081  37.095  1.00  0.00    -0.206 F 
ATOM     69  C   UNL A   1      46.581  27.254  37.335  1.00  0.00     0.060 A 
BRANCH  69  70
ATOM     70  S   UNL A   1      47.946  26.422  38.172  1.00  0.00     0.124 S 
ATOM     71  O   UNL A   1      48.071  25.201  37.380  1.00  0.00    -0.237 OA
ATOM     72  O   UNL A   1      49.034  27.383  38.029  1.00  0.00    -0.237 OA
ATOM     73  O   UNL A   1      47.450  26.238  39.532  1.00  0.00    -0.744 OA
ENDBRANCH  69  70
ENDBRANCH  48  62
BRANCH  49  74
ATOM     74  C   UNL A   1      36.990  32.795  30.984  1.00  0.00     0.058 A 
ATOM     75  C   UNL A   1      35.654  32.502  31.293  1.00  0.00     0.135 A 
ATOM     76  C   UNL A   1      37.236  33.703  29.943  1.00  0.00     0.135 A 
ATOM     77  F   UNL A   1      35.368  31.629  32.272  1.00  0.00    -0.206 F 
ATOM     78  C   UNL A   1      34.600  33.073  30.587  1.00  0.00     0.059 A 
ATOM     79  C   UNL A   1      36.199  34.307  29.238  1.00  0.00     0.059 A 
ATOM     80  F   UNL A   1      38.497  34.022  29.613  1.00  0.00    -0.206 F 
ATOM     81  C   UNL A   1      34.884  33.977  29.560  1.00  0.00     0.060 A 
BRANCH  81  82
ATOM     82  S   UNL A   1      33.511  34.751  28.680  1.00  0.00     0.124 S 
ATOM     83  O   UNL A   1      33.151  33.710  27.723  1.00  0.00    -0.237 OA
ATOM     84  O   UNL A   1      32.552  34.992  29.753  1.00  0.00    -0.237 OA
ATOM     85  O   UNL A   1      34.115  35.951  28.109  1.00  0.00    -0.744 OA
ENDBRANCH  81  82
ENDBRANCH  49  74
BRANCH  61  86
ATOM     86  C   UNL A   1      39.970  34.067  37.151  1.00  0.00     0.058 A 
ATOM     87  C   UNL A   1      40.512  35.358  37.062  1.00  0.00     0.135 A 
ATOM     88  C   UNL A   1      39.152  33.776  38.256  1.00  0.00     0.135 A 
ATOM     89  F   UNL A   1      41.302  35.689  36.028  1.00  0.00    -0.206 F 
ATOM     90  C   UNL A   1      40.285  36.313  38.048  1.00  0.00     0.059 A 
ATOM     91  C   UNL A   1      38.890  34.724  39.241  1.00  0.00     0.059 A 
ATOM     92  F   UNL A   1      38.596  32.561  38.384  1.00  0.00    -0.206 F 
ATOM     93  C   UNL A   1      39.477  35.985  39.138  1.00  0.00     0.060 A 
BRANCH  93  94
ATOM     94  S   UNL A   1      39.186  37.230  40.413  1.00  0.00     0.124 S 
ATOM     95  O   UNL A   1      38.601  36.426  41.480  1.00  0.00    -0.237 OA
ATOM     96  O   UNL A   1      40.529  37.742  40.668  1.00  0.00    -0.237 OA
ATOM     97  O   UNL A   1      38.277  38.172  39.764  1.00  0.00    -0.744 OA
ENDBRANCH  93  94
ENDBRANCH  61  86
ENDBRANCH  35  36
ENDBRANCH  28  30
ENDBRANCH  27  28
ENDBRANCH  26  27
ENDBRANCH  25  26
ENDBRANCH  24  25
ENDBRANCH   1  24
TORSDOF 21
ENDMDL
MODEL 3
REMARK VINA RESULT:     -10.5      5.366     10.986
REMARK SMILES C[C@@H](CC(=O)OCCOCCOC(=O)c1ccc(-c2c3nc(c(-c4c(F)cc(S(=O)(=O)[O-])cc4F)c4ccc([nH]4)c(-c4c(F)cc(S(=O)(=O)[O-])cc4F)c4nc(c(-c5c(F)cc(S(=O)(=O)[O-])cc5F)c5ccc2[nH]5)C=C4)C=C3)cc1)NC(=O)[C@@H]1CCCN(C(N)=O)C1
REMARK SMILES IDX 8 1 7 2 6 3 4 4 5 5 3 6 2 7 1 8 81 9 82 10 83 12 84 13 85 14
REMARK SMILES IDX 92 15 86 16 88 17 87 18 89 19 90 20 91 21 9 24 10 25 11 26
REMARK SMILES IDX 12 27 13 28 14 29 15 30 16 31 80 32 17 33 79 34 18 35 19 36
REMARK SMILES IDX 20 37 73 38 21 39 78 40 72 41 74 42 22 43 77 44 71 45 70 46
REMARK SMILES IDX 23 48 57 49 36 50 56 51 37 52 40 53 55 54 75 55 38 56 39 57
REMARK SMILES IDX 54 59 76 60 41 61 24 62 25 63 34 64 26 65 27 66 33 67 35 68
REMARK SMILES IDX 28 69 29 70 30 71 31 72 32 73 58 74 59 75 68 76 60 77 61 78
REMARK SMILES IDX 67 79 69 80 62 81 63 82 64 83 65 84 66 85 42 86 43 87 52 88
REMARK SMILES IDX 44 89 45 90 51 91 53 92 46 93 47 94 48 95 49 96 50 97
REMARK H PARENT 81 11 90 22 90 23 74 47 40 58
REMARK Flexibility Score: inf
ROOT
ATOM      1  C   UNL A   1      33.620  27.797  24.725  1.00  0.00     0.202 C 
ENDROOT
BRANCH   1   2
ATOM      2  C   UNL A   1      32.320  27.512  23.973  1.00  0.00     0.261 C 
BRANCH   2   3
ATOM      3  O   UNL A   1      32.597  27.176  22.600  1.00  0.00    -0.463 OA
BRANCH   3   4
ATOM      4  C   UNL A   1      32.765  25.869  22.304  1.00  0.00     0.307 C 
ATOM      5  O   UNL A   1      33.625  25.426  21.551  1.00  0.00    -0.252 OA
BRANCH   4   6
ATOM      6  C   UNL A   1      31.731  24.971  22.945  1.00  0.00     0.147 C 
BRANCH   6   7
ATOM      7  C   UNL A   1      32.143  23.708  23.720  1.00  0.00     0.090 C 
ATOM      8  C   UNL A   1      31.838  22.383  23.028  1.00  0.00     0.031 C 
BRANCH   7   9
ATOM      9  N   UNL A   1      31.671  23.694  25.101  1.00  0.00    -0.353 N 
ATOM     10  C   UNL A   1      32.295  23.758  26.302  1.00  0.00     0.225 C 
ATOM     11  H   UNL A   1      30.693  23.622  25.176  1.00  0.00     0.163 HD
ATOM     12  O   UNL A   1      31.550  23.699  27.292  1.00  0.00    -0.275 OA
BRANCH  10  13
ATOM     13  C   UNL A   1      33.809  23.786  26.538  1.00  0.00     0.098 C 
ATOM     14  C   UNL A   1      34.744  24.486  25.553  1.00  0.00     0.017 C 
ATOM     15  C   UNL A   1      34.321  22.403  26.903  1.00  0.00     0.134 C 
ATOM     16  C   UNL A   1      35.460  23.607  24.516  1.00  0.00     0.022 C 
ATOM     17  N   UNL A   1      34.505  21.609  25.702  1.00  0.00    -0.324 N 
ATOM     18  C   UNL A   1      35.541  22.098  24.801  1.00  0.00     0.121 C 
BRANCH  17  19
ATOM     19  C   UNL A   1      33.849  20.437  25.405  1.00  0.00     0.314 C 
ATOM     20  N   UNL A   1      32.589  20.296  25.873  1.00  0.00    -0.351 N 
ATOM     21  O   UNL A   1      34.337  19.532  24.736  1.00  0.00    -0.249 OA
ATOM     22  H   UNL A   1      32.182  21.012  26.412  1.00  0.00     0.161 HD
ATOM     23  H   UNL A   1      32.079  19.478  25.674  1.00  0.00     0.161 HD
ENDBRANCH  17  19
ENDBRANCH  10  13
ENDBRANCH   7   9
ENDBRANCH   6   7
ENDBRANCH   4   6
ENDBRANCH   3   4
ENDBRANCH   2   3
ENDBRANCH   1   2
BRANCH   1  24
ATOM     24  O   UNL A   1      33.671  29.070  25.370  1.00  0.00    -0.374 OA
BRANCH  24  25
ATOM     25  C   UNL A   1      32.441  29.784  25.511  1.00  0.00     0.202 C 
BRANCH  25  26
ATOM     26  C   UNL A   1      32.376  30.712  26.727  1.00  0.00     0.261 C 
BRANCH  26  27
ATOM     27  O   UNL A   1      33.482  30.460  27.620  1.00  0.00    -0.460 OA
BRANCH  27  28
ATOM     28  C   UNL A   1      34.248  31.550  27.862  1.00  0.00     0.338 C 
ATOM     29  O   UNL A   1      33.851  32.689  28.081  1.00  0.00    -0.246 OA
BRANCH  28  30
ATOM     30  C   UNL A   1      35.668  31.189  28.019  1.00  0.00     0.060 A 
ATOM     31  C   UNL A   1      35.974  29.823  28.010  1.00  0.00     0.016 A 
ATOM     32  C   UNL A   1      36.647  32.131  28.343  1.00  0.00     0.016 A 
ATOM     33  C   UNL A   1      37.232  29.387  28.418  1.00  0.00     0.010 A 
ATOM     34  C   UNL A   1      37.916  31.688  28.750  1.00  0.00     0.010 A 
ATOM     35  C   UNL A   1      38.192  30.312  28.851  1.00  0.00    -0.014 A 
BRANCH  35  36
ATOM     36  C   UNL A   1      39.371  29.796  29.601  1.00  0.00     0.031 A 
ATOM     37  C   UNL A   1      39.578  30.238  31.030  1.00  0.00     0.074 A 
ATOM     38  C   UNL A   1      40.178  28.858  29.073  1.00  0.00     0.049 A 
ATOM     39  N   UNL A   1      40.463  29.832  31.906  1.00  0.00    -0.248 NA
ATOM     40  C   UNL A   1      38.660  31.268  31.542  1.00  0.00     0.031 C 
ATOM     41  C   UNL A   1      40.071  28.315  27.720  1.00  0.00     0.029 A 
ATOM     42  N   UNL A   1      41.237  28.179  29.624  1.00  0.00    -0.354 N 
ATOM     43  C   UNL A   1      40.205  30.550  33.069  1.00  0.00     0.074 A 
ATOM     44  C   UNL A   1      39.108  31.447  32.775  1.00  0.00     0.031 C 
ATOM     45  C   UNL A   1      41.020  27.377  27.549  1.00  0.00     0.029 A 
ATOM     46  C   UNL A   1      41.810  27.262  28.775  1.00  0.00     0.049 A 
ATOM     47  H   UNL A   1      41.554  28.333  30.543  1.00  0.00     0.167 HD
ATOM     48  C   UNL A   1      40.808  30.461  34.279  1.00  0.00     0.037 A 
ATOM     49  C   UNL A   1      42.851  26.426  28.962  1.00  0.00     0.037 A 
ATOM     50  C   UNL A   1      41.894  29.565  34.584  1.00  0.00     0.049 A 
ATOM     51  C   UNL A   1      43.539  26.378  30.303  1.00  0.00     0.074 A 
ATOM     52  C   UNL A   1      42.560  29.397  35.785  1.00  0.00     0.029 A 
ATOM     53  N   UNL A   1      42.475  28.689  33.681  1.00  0.00    -0.354 N 
ATOM     54  N   UNL A   1      43.264  27.047  31.398  1.00  0.00    -0.248 NA
ATOM     55  C   UNL A   1      44.672  25.451  30.435  1.00  0.00     0.031 C 
ATOM     56  C   UNL A   1      43.570  28.446  35.598  1.00  0.00     0.029 A 
ATOM     57  C   UNL A   1      43.505  27.991  34.292  1.00  0.00     0.049 A 
ATOM     58  H   UNL A   1      42.197  28.579  32.742  1.00  0.00     0.167 HD
ATOM     59  C   UNL A   1      44.175  26.603  32.352  1.00  0.00     0.074 A 
ATOM     60  C   UNL A   1      44.998  25.599  31.711  1.00  0.00     0.031 C 
ATOM     61  C   UNL A   1      44.318  26.993  33.645  1.00  0.00     0.037 A 
BRANCH  48  62
ATOM     62  C   UNL A   1      40.312  31.373  35.367  1.00  0.00     0.058 A 
ATOM     63  C   UNL A   1      41.059  32.482  35.795  1.00  0.00     0.135 A 
ATOM     64  C   UNL A   1      39.064  31.150  35.969  1.00  0.00     0.135 A 
ATOM     65  F   UNL A   1      42.266  32.730  35.265  1.00  0.00    -0.206 F 
ATOM     66  C   UNL A   1      40.598  33.321  36.805  1.00  0.00     0.059 A 
ATOM     67  C   UNL A   1      38.573  31.990  36.963  1.00  0.00     0.059 A 
ATOM     68  F   UNL A   1      38.311  30.103  35.596  1.00  0.00    -0.206 F 
ATOM     69  C   UNL A   1      39.354  33.065  37.385  1.00  0.00     0.060 A 
BRANCH  69  70
ATOM     70  S   UNL A   1      38.769  34.159  38.696  1.00  0.00     0.124 S 
ATOM     71  O   UNL A   1      37.448  33.600  38.973  1.00  0.00    -0.237 OA
ATOM     72  O   UNL A   1      39.770  33.963  39.739  1.00  0.00    -0.237 OA
ATOM     73  O   UNL A   1      38.773  35.476  38.066  1.00  0.00    -0.744 OA
ENDBRANCH  69  70
ENDBRANCH  48  62
BRANCH  49  74
ATOM     74  C   UNL A   1      43.312  25.554  27.850  1.00  0.00     0.058 A 
ATOM     75  C   UNL A   1      42.748  24.289  27.632  1.00  0.00     0.135 A 
ATOM     76  C   UNL A   1      44.344  25.966  26.994  1.00  0.00     0.135 A 
ATOM     77  F   UNL A   1      41.768  23.844  28.435  1.00  0.00    -0.206 F 
ATOM     78  C   UNL A   1      43.200  23.455  26.615  1.00  0.00     0.059 A 
ATOM     79  C   UNL A   1      44.796  25.161  25.953  1.00  0.00     0.059 A 
ATOM     80  F   UNL A   1      44.911  27.171  27.156  1.00  0.00    -0.206 F 
ATOM     81  C   UNL A   1      44.225  23.902  25.778  1.00  0.00     0.060 A 
BRANCH  81  82
ATOM     82  S   UNL A   1      44.774  22.834  24.430  1.00  0.00     0.124 S 
ATOM     83  O   UNL A   1      45.830  23.640  23.828  1.00  0.00    -0.237 OA
ATOM     84  O   UNL A   1      45.210  21.636  25.141  1.00  0.00    -0.237 OA
ATOM     85  O   UNL A   1      43.568  22.669  23.623  1.00  0.00    -0.744 OA
ENDBRANCH  81  82
ENDBRANCH  49  74
BRANCH  61  86
ATOM     86  C   UNL A   1      45.385  26.312  34.458  1.00  0.00     0.058 A 
ATOM     87  C   UNL A   1      46.683  26.835  34.558  1.00  0.00     0.135 A 
ATOM     88  C   UNL A   1      45.098  25.133  35.166  1.00  0.00     0.135 A 
ATOM     89  F   UNL A   1      47.011  27.958  33.901  1.00  0.00    -0.206 F 
ATOM     90  C   UNL A   1      47.671  26.194  35.299  1.00  0.00     0.059 A 
ATOM     91  C   UNL A   1      46.063  24.489  35.935  1.00  0.00     0.059 A 
ATOM     92  F   UNL A   1      43.868  24.597  35.118  1.00  0.00    -0.206 F 
ATOM     93  C   UNL A   1      47.354  25.016  35.979  1.00  0.00     0.060 A 
BRANCH  93  94
ATOM     94  S   UNL A   1      48.641  24.191  36.939  1.00  0.00     0.124 S 
ATOM     95  O   UNL A   1      48.487  24.827  38.243  1.00  0.00    -0.237 OA
ATOM     96  O   UNL A   1      48.241  22.789  36.866  1.00  0.00    -0.237 OA
ATOM     97  O   UNL A   1      49.867  24.524  36.218  1.00  0.00    -0.744 OA
ENDBRANCH  93  94
ENDBRANCH  61  86
ENDBRANCH  35  36
ENDBRANCH  28  30
ENDBRANCH  27  28
ENDBRANCH  26  27
ENDBRANCH  25  26
ENDBRANCH  24  25
ENDBRANCH   1  24
TORSDOF 21
ENDMDL
