MODEL 1
REMARK VINA RESULT:     -10.5      0.000      0.000
REMARK SMILES O=C(CCCCCN1C(=O)/C(=C/c2cccc(O)c2)SC1=S)OCCOCCOC(=O)c1ccc(-c2c3nc(c(-c4c(F)cc(S(=O)(=O)[O-])cc4F)c4ccc([nH]4)c(-c4c(F)cc(S(=O)(=O)[O-])cc4F)c4nc(c(-c5c(F)cc(S(=O)(=O)[O-])cc5F)c5ccc2[nH]5)C=C4)C=C3)cc1
REMARK SMILES IDX 24 1 23 2 2 3 1 4 3 5 4 6 5 7 6 8 7 9 8 10 9 11 21 12 10 13
REMARK SMILES IDX 11 14 20 15 22 16 12 17 13 18 14 19 19 20 15 21 17 22 16 23
REMARK SMILES IDX 18 24 25 26 26 27 27 28 28 29 29 30 30 31 31 32 32 33 33 34
REMARK SMILES IDX 97 35 34 36 96 37 35 38 36 39 37 40 90 41 38 42 95 43 89 44
REMARK SMILES IDX 91 45 39 46 94 47 88 48 87 49 40 51 74 52 53 53 73 54 54 55
REMARK SMILES IDX 57 56 72 57 92 58 55 59 56 60 71 62 93 63 58 64 41 65 42 66
REMARK SMILES IDX 51 67 43 68 44 69 50 70 52 71 45 72 46 73 47 74 48 75 49 76
REMARK SMILES IDX 75 77 76 78 85 79 77 80 78 81 84 82 86 83 79 84 80 85 81 86
REMARK SMILES IDX 82 87 83 88 59 89 60 90 69 91 61 92 62 93 68 94 70 95 63 96
REMARK SMILES IDX 64 97 65 98 66 99 67 100
REMARK H PARENT 18 25 91 50 57 61
REMARK Flexibility Score: inf
ROOT
ATOM      1  C   UNL A   1      34.426  25.074  25.514  1.00  0.00     0.261 C 
ENDROOT
BRANCH   1   2
ATOM      2  O   UNL A   1      33.066  25.367  25.863  1.00  0.00    -0.463 OA
BRANCH   2   3
ATOM      3  C   UNL A   1      32.686  26.482  26.524  1.00  0.00     0.305 C 
ATOM      4  O   UNL A   1      31.528  26.584  26.930  1.00  0.00    -0.252 OA
BRANCH   3   5
ATOM      5  C   UNL A   1      33.630  27.661  26.633  1.00  0.00     0.123 C 
BRANCH   5   6
ATOM      6  C   UNL A   1      33.749  28.606  25.442  1.00  0.00     0.012 C 
BRANCH   6   7
ATOM      7  C   UNL A   1      32.619  28.645  24.403  1.00  0.00     0.002 C 
BRANCH   7   8
ATOM      8  C   UNL A   1      32.957  28.117  22.995  1.00  0.00     0.022 C 
BRANCH   8   9
ATOM      9  C   UNL A   1      31.873  27.313  22.270  1.00  0.00     0.127 C 
BRANCH   9  10
ATOM     10  N   UNL A   1      31.654  25.947  22.723  1.00  0.00    -0.293 N 
ATOM     11  C   UNL A   1      32.502  24.963  22.232  1.00  0.00     0.266 C 
ATOM     12  C   UNL A   1      30.604  25.498  23.495  1.00  0.00     0.148 C 
ATOM     13  O   UNL A   1      33.381  25.108  21.393  1.00  0.00    -0.268 OA
ATOM     14  C   UNL A   1      32.172  23.657  22.849  1.00  0.00     0.081 C 
ATOM     15  S   UNL A   1      30.973  23.883  24.061  1.00  0.00    -0.054 SA
ATOM     16  S   UNL A   1      29.165  26.246  23.876  1.00  0.00    -0.052 S 
ATOM     17  C   UNL A   1      32.752  22.507  22.474  1.00  0.00     0.029 C 
BRANCH  17  18
ATOM     18  C   UNL A   1      32.520  21.244  23.180  1.00  0.00    -0.021 A 
ATOM     19  C   UNL A   1      32.814  21.100  24.543  1.00  0.00     0.008 A 
ATOM     20  C   UNL A   1      32.144  20.125  22.433  1.00  0.00     0.054 A 
ATOM     21  C   UNL A   1      32.850  19.833  25.124  1.00  0.00     0.004 A 
ATOM     22  C   UNL A   1      32.166  18.869  23.026  1.00  0.00     0.116 A 
ATOM     23  C   UNL A   1      32.540  18.710  24.358  1.00  0.00     0.046 A 
BRANCH  22  24
ATOM     24  O   UNL A   1      31.853  17.796  22.244  1.00  0.00    -0.508 OA
ATOM     25  H   UNL A   1      32.513  17.398  21.711  1.00  0.00     0.293 HD
ENDBRANCH  22  24
ENDBRANCH  17  18
ENDBRANCH   9  10
ENDBRANCH   8   9
ENDBRANCH   7   8
ENDBRANCH   6   7
ENDBRANCH   5   6
ENDBRANCH   3   5
ENDBRANCH   2   3
ENDBRANCH   1   2
BRANCH   1  26
ATOM     26  C   UNL A   1      34.904  23.745  26.080  1.00  0.00     0.202 C 
BRANCH  26  27
ATOM     27  O   UNL A   1      36.286  23.743  26.446  1.00  0.00    -0.374 OA
BRANCH  27  28
ATOM     28  C   UNL A   1      37.098  22.893  25.628  1.00  0.00     0.202 C 
BRANCH  28  29
ATOM     29  C   UNL A   1      38.578  22.937  26.025  1.00  0.00     0.261 C 
BRANCH  29  30
ATOM     30  O   UNL A   1      38.955  24.262  26.430  1.00  0.00    -0.460 OA
BRANCH  30  31
ATOM     31  C   UNL A   1      40.257  24.404  26.804  1.00  0.00     0.338 C 
ATOM     32  O   UNL A   1      41.222  23.856  26.313  1.00  0.00    -0.246 OA
BRANCH  31  33
ATOM     33  C   UNL A   1      40.347  25.521  27.781  1.00  0.00     0.060 A 
ATOM     34  C   UNL A   1      39.308  25.666  28.712  1.00  0.00     0.016 A 
ATOM     35  C   UNL A   1      41.463  26.360  27.840  1.00  0.00     0.016 A 
ATOM     36  C   UNL A   1      39.382  26.647  29.704  1.00  0.00     0.010 A 
ATOM     37  C   UNL A   1      41.529  27.350  28.822  1.00  0.00     0.010 A 
ATOM     38  C   UNL A   1      40.485  27.506  29.750  1.00  0.00    -0.014 A 
BRANCH  38  39
ATOM     39  C   UNL A   1      40.509  28.675  30.659  1.00  0.00     0.031 A 
ATOM     40  C   UNL A   1      41.425  28.626  31.849  1.00  0.00     0.074 A 
ATOM     41  C   UNL A   1      39.684  29.723  30.472  1.00  0.00     0.049 A 
ATOM     42  N   UNL A   1      41.492  29.429  32.877  1.00  0.00    -0.248 NA
ATOM     43  C   UNL A   1      42.386  27.510  31.890  1.00  0.00     0.031 C 
ATOM     44  C   UNL A   1      38.774  29.893  29.340  1.00  0.00     0.029 A 
ATOM     45  N   UNL A   1      39.451  30.825  31.258  1.00  0.00    -0.354 N 
ATOM     46  C   UNL A   1      42.477  28.902  33.701  1.00  0.00     0.074 A 
ATOM     47  C   UNL A   1      42.982  27.710  33.057  1.00  0.00     0.031 C 
ATOM     48  C   UNL A   1      38.051  31.012  29.527  1.00  0.00     0.029 A 
ATOM     49  C   UNL A   1      38.416  31.612  30.809  1.00  0.00     0.049 A 
ATOM     50  H   UNL A   1      39.974  31.031  32.067  1.00  0.00     0.167 HD
ATOM     51  C   UNL A   1      42.915  29.371  34.891  1.00  0.00     0.037 A 
ATOM     52  C   UNL A   1      37.804  32.664  31.391  1.00  0.00     0.037 A 
ATOM     53  C   UNL A   1      42.418  30.568  35.515  1.00  0.00     0.049 A 
ATOM     54  C   UNL A   1      38.275  33.132  32.747  1.00  0.00     0.074 A 
ATOM     55  C   UNL A   1      42.846  31.162  36.689  1.00  0.00     0.029 A 
ATOM     56  N   UNL A   1      41.377  31.341  35.026  1.00  0.00    -0.354 N 
ATOM     57  N   UNL A   1      39.250  32.664  33.491  1.00  0.00    -0.248 NA
ATOM     58  C   UNL A   1      37.558  34.267  33.351  1.00  0.00     0.031 C 
ATOM     59  C   UNL A   1      42.022  32.264  36.941  1.00  0.00     0.029 A 
ATOM     60  C   UNL A   1      41.118  32.385  35.899  1.00  0.00     0.049 A 
ATOM     61  H   UNL A   1      40.893  31.173  34.186  1.00  0.00     0.167 HD
ATOM     62  C   UNL A   1      39.273  33.455  34.635  1.00  0.00     0.074 A 
ATOM     63  C   UNL A   1      38.229  34.445  34.481  1.00  0.00     0.031 C 
ATOM     64  C   UNL A   1      40.081  33.369  35.721  1.00  0.00     0.037 A 
BRANCH  51  65
ATOM     65  C   UNL A   1      43.963  28.583  35.621  1.00  0.00     0.058 A 
ATOM     66  C   UNL A   1      45.332  28.841  35.456  1.00  0.00     0.135 A 
ATOM     67  C   UNL A   1      43.585  27.612  36.562  1.00  0.00     0.135 A 
ATOM     68  F   UNL A   1      45.747  29.742  34.552  1.00  0.00    -0.206 F 
ATOM     69  C   UNL A   1      46.290  28.166  36.204  1.00  0.00     0.059 A 
ATOM     70  C   UNL A   1      44.524  26.942  37.337  1.00  0.00     0.059 A 
ATOM     71  F   UNL A   1      42.286  27.322  36.747  1.00  0.00    -0.206 F 
ATOM     72  C   UNL A   1      45.875  27.224  37.149  1.00  0.00     0.060 A 
BRANCH  72  73
ATOM     73  S   UNL A   1      47.129  26.401  38.153  1.00  0.00     0.124 S 
ATOM     74  O   UNL A   1      46.656  26.687  39.503  1.00  0.00    -0.237 OA
ATOM     75  O   UNL A   1      47.010  25.011  37.720  1.00  0.00    -0.237 OA
ATOM     76  O   UNL A   1      48.368  27.069  37.767  1.00  0.00    -0.744 OA
ENDBRANCH  72  73
ENDBRANCH  51  65
BRANCH  52  77
ATOM     77  C   UNL A   1      36.634  33.317  30.739  1.00  0.00     0.058 A 
ATOM     78  C   UNL A   1      36.802  34.224  29.682  1.00  0.00     0.135 A 
ATOM     79  C   UNL A   1      35.327  33.084  31.196  1.00  0.00     0.135 A 
ATOM     80  F   UNL A   1      38.032  34.493  29.218  1.00  0.00    -0.206 F 
ATOM     81  C   UNL A   1      35.722  34.901  29.122  1.00  0.00     0.059 A 
ATOM     82  C   UNL A   1      34.228  33.727  30.633  1.00  0.00     0.059 A 
ATOM     83  F   UNL A   1      35.107  32.220  32.199  1.00  0.00    -0.206 F 
ATOM     84  C   UNL A   1      34.438  34.649  29.608  1.00  0.00     0.060 A 
BRANCH  84  85
ATOM     85  S   UNL A   1      33.042  35.526  28.872  1.00  0.00     0.124 S 
ATOM     86  O   UNL A   1      32.333  35.995  30.057  1.00  0.00    -0.237 OA
ATOM     87  O   UNL A   1      33.709  36.553  28.077  1.00  0.00    -0.237 OA
ATOM     88  O   UNL A   1      32.364  34.489  28.099  1.00  0.00    -0.744 OA
ENDBRANCH  84  85
ENDBRANCH  52  77
BRANCH  64  89
ATOM     89  C   UNL A   1      39.893  34.379  36.820  1.00  0.00     0.058 A 
ATOM     90  C   UNL A   1      39.174  34.069  37.984  1.00  0.00     0.135 A 
ATOM     91  C   UNL A   1      40.512  35.637  36.744  1.00  0.00     0.135 A 
ATOM     92  F   UNL A   1      38.558  32.883  38.104  1.00  0.00    -0.206 F 
ATOM     93  C   UNL A   1      39.066  34.978  39.033  1.00  0.00     0.059 A 
ATOM     94  C   UNL A   1      40.440  36.550  37.792  1.00  0.00     0.059 A 
ATOM     95  F   UNL A   1      41.221  35.978  35.656  1.00  0.00    -0.206 F 
ATOM     96  C   UNL A   1      39.709  36.212  38.930  1.00  0.00     0.060 A 
BRANCH  96  97
ATOM     97  S   UNL A   1      39.611  37.358  40.323  1.00  0.00     0.124 S 
ATOM     98  O   UNL A   1      38.243  37.851  40.202  1.00  0.00    -0.237 OA
ATOM     99  O   UNL A   1      39.872  36.484  41.463  1.00  0.00    -0.237 OA
ATOM    100  O   UNL A   1      40.657  38.334  40.036  1.00  0.00    -0.744 OA
ENDBRANCH  96  97
ENDBRANCH  64  89
ENDBRANCH  38  39
ENDBRANCH  31  33
ENDBRANCH  30  31
ENDBRANCH  29  30
ENDBRANCH  28  29
ENDBRANCH  27  28
ENDBRANCH  26  27
ENDBRANCH   1  26
TORSDOF 24
ENDMDL
MODEL 2
REMARK VINA RESULT:      -9.5      4.428      5.370
REMARK SMILES O=C(CCCCCN1C(=O)/C(=C/c2cccc(O)c2)SC1=S)OCCOCCOC(=O)c1ccc(-c2c3nc(c(-c4c(F)cc(S(=O)(=O)[O-])cc4F)c4ccc([nH]4)c(-c4c(F)cc(S(=O)(=O)[O-])cc4F)c4nc(c(-c5c(F)cc(S(=O)(=O)[O-])cc5F)c5ccc2[nH]5)C=C4)C=C3)cc1
REMARK SMILES IDX 24 1 23 2 2 3 1 4 3 5 4 6 5 7 6 8 7 9 8 10 9 11 21 12 10 13
REMARK SMILES IDX 11 14 20 15 22 16 12 17 13 18 14 19 19 20 15 21 17 22 16 23
REMARK SMILES IDX 18 24 25 26 26 27 27 28 28 29 29 30 30 31 31 32 32 33 33 34
REMARK SMILES IDX 97 35 34 36 96 37 35 38 36 39 37 40 90 41 38 42 95 43 89 44
REMARK SMILES IDX 91 45 39 46 94 47 88 48 87 49 40 51 74 52 53 53 73 54 54 55
REMARK SMILES IDX 57 56 72 57 92 58 55 59 56 60 71 62 93 63 58 64 41 65 42 66
REMARK SMILES IDX 51 67 43 68 44 69 50 70 52 71 45 72 46 73 47 74 48 75 49 76
REMARK SMILES IDX 75 77 76 78 85 79 77 80 78 81 84 82 86 83 79 84 80 85 81 86
REMARK SMILES IDX 82 87 83 88 59 89 60 90 69 91 61 92 62 93 68 94 70 95 63 96
REMARK SMILES IDX 64 97 65 98 66 99 67 100
REMARK H PARENT 18 25 91 50 57 61
REMARK Flexibility Score: inf
ROOT
ATOM      1  C   UNL A   1      33.823  25.105  25.959  1.00  0.00     0.261 C 
ENDROOT
BRANCH   1   2
ATOM      2  O   UNL A   1      32.577  25.779  26.182  1.00  0.00    -0.463 OA
BRANCH   2   3
ATOM      3  C   UNL A   1      32.474  26.986  26.778  1.00  0.00     0.305 C 
ATOM      4  O   UNL A   1      31.401  27.332  27.271  1.00  0.00    -0.252 OA
BRANCH   3   5
ATOM      5  C   UNL A   1      33.624  27.969  26.707  1.00  0.00     0.123 C 
BRANCH   5   6
ATOM      6  C   UNL A   1      33.891  28.679  25.384  1.00  0.00     0.012 C 
BRANCH   6   7
ATOM      7  C   UNL A   1      32.808  28.659  24.294  1.00  0.00     0.002 C 
BRANCH   7   8
ATOM      8  C   UNL A   1      33.147  27.898  22.998  1.00  0.00     0.022 C 
BRANCH   8   9
ATOM      9  C   UNL A   1      31.996  27.175  22.290  1.00  0.00     0.127 C 
BRANCH   9  10
ATOM     10  N   UNL A   1      31.722  25.808  22.710  1.00  0.00    -0.293 N 
ATOM     11  C   UNL A   1      32.555  24.808  22.227  1.00  0.00     0.266 C 
ATOM     12  C   UNL A   1      30.634  25.378  23.439  1.00  0.00     0.148 C 
ATOM     13  O   UNL A   1      33.465  24.940  21.420  1.00  0.00    -0.268 OA
ATOM     14  C   UNL A   1      32.166  23.501  22.809  1.00  0.00     0.081 C 
ATOM     15  S   UNL A   1      30.935  23.742  23.985  1.00  0.00    -0.054 SA
ATOM     16  S   UNL A   1      29.207  26.163  23.788  1.00  0.00    -0.052 S 
ATOM     17  C   UNL A   1      32.722  22.341  22.431  1.00  0.00     0.029 C 
BRANCH  17  18
ATOM     18  C   UNL A   1      32.429  21.073  23.104  1.00  0.00    -0.021 A 
ATOM     19  C   UNL A   1      32.564  20.931  24.492  1.00  0.00     0.008 A 
ATOM     20  C   UNL A   1      32.161  19.950  22.318  1.00  0.00     0.054 A 
ATOM     21  C   UNL A   1      32.551  19.664  25.073  1.00  0.00     0.004 A 
ATOM     22  C   UNL A   1      32.133  18.693  22.910  1.00  0.00     0.116 A 
ATOM     23  C   UNL A   1      32.351  18.537  24.276  1.00  0.00     0.046 A 
BRANCH  22  24
ATOM     24  O   UNL A   1      31.931  17.617  22.096  1.00  0.00    -0.508 OA
ATOM     25  H   UNL A   1      32.630  17.014  21.936  1.00  0.00     0.293 HD
ENDBRANCH  22  24
ENDBRANCH  17  18
ENDBRANCH   9  10
ENDBRANCH   8   9
ENDBRANCH   7   8
ENDBRANCH   6   7
ENDBRANCH   5   6
ENDBRANCH   3   5
ENDBRANCH   2   3
ENDBRANCH   1   2
BRANCH   1  26
ATOM     26  C   UNL A   1      33.803  23.659  26.435  1.00  0.00     0.202 C 
BRANCH  26  27
ATOM     27  O   UNL A   1      35.104  23.108  26.642  1.00  0.00    -0.374 OA
BRANCH  27  28
ATOM     28  C   UNL A   1      35.539  22.244  25.584  1.00  0.00     0.202 C 
BRANCH  28  29
ATOM     29  C   UNL A   1      37.033  21.911  25.677  1.00  0.00     0.261 C 
BRANCH  29  30
ATOM     30  O   UNL A   1      37.763  23.008  26.247  1.00  0.00    -0.460 OA
BRANCH  30  31
ATOM     31  C   UNL A   1      39.107  22.813  26.356  1.00  0.00     0.338 C 
ATOM     32  O   UNL A   1      39.738  21.846  25.984  1.00  0.00    -0.246 OA
BRANCH  31  33
ATOM     33  C   UNL A   1      39.731  24.083  26.809  1.00  0.00     0.060 A 
ATOM     34  C   UNL A   1      39.242  24.675  27.984  1.00  0.00     0.016 A 
ATOM     35  C   UNL A   1      40.826  24.645  26.147  1.00  0.00     0.016 A 
ATOM     36  C   UNL A   1      39.846  25.824  28.500  1.00  0.00     0.010 A 
ATOM     37  C   UNL A   1      41.420  25.801  26.655  1.00  0.00     0.010 A 
ATOM     38  C   UNL A   1      40.926  26.404  27.825  1.00  0.00    -0.014 A 
BRANCH  38  39
ATOM     39  C   UNL A   1      41.466  27.722  28.230  1.00  0.00     0.031 A 
ATOM     40  C   UNL A   1      42.958  27.883  28.301  1.00  0.00     0.074 A 
ATOM     41  C   UNL A   1      40.650  28.728  28.598  1.00  0.00     0.049 A 
ATOM     42  N   UNL A   1      43.663  28.863  28.799  1.00  0.00    -0.248 NA
ATOM     43  C   UNL A   1      43.763  26.780  27.746  1.00  0.00     0.031 C 
ATOM     44  C   UNL A   1      39.189  28.697  28.544  1.00  0.00     0.029 A 
ATOM     45  N   UNL A   1      40.939  29.961  29.129  1.00  0.00    -0.354 N 
ATOM     46  C   UNL A   1      44.990  28.485  28.647  1.00  0.00     0.074 A 
ATOM     47  C   UNL A   1      44.996  27.185  28.012  1.00  0.00     0.031 C 
ATOM     48  C   UNL A   1      38.709  29.842  29.062  1.00  0.00     0.029 A 
ATOM     49  C   UNL A   1      39.825  30.666  29.522  1.00  0.00     0.049 A 
ATOM     50  H   UNL A   1      41.857  30.307  29.220  1.00  0.00     0.167 HD
ATOM     51  C   UNL A   1      46.103  29.161  29.011  1.00  0.00     0.037 A 
ATOM     52  C   UNL A   1      39.722  31.817  30.218  1.00  0.00     0.037 A 
ATOM     53  C   UNL A   1      46.086  30.461  29.626  1.00  0.00     0.049 A 
ATOM     54  C   UNL A   1      40.981  32.524  30.663  1.00  0.00     0.074 A 
ATOM     55  C   UNL A   1      47.163  31.258  29.971  1.00  0.00     0.029 A 
ATOM     56  N   UNL A   1      44.941  31.145  30.001  1.00  0.00    -0.354 N 
ATOM     57  N   UNL A   1      42.233  32.188  30.460  1.00  0.00    -0.248 NA
ATOM     58  C   UNL A   1      40.814  33.762  31.441  1.00  0.00     0.031 C 
ATOM     59  C   UNL A   1      46.670  32.400  30.610  1.00  0.00     0.029 A 
ATOM     60  C   UNL A   1      45.286  32.337  30.615  1.00  0.00     0.049 A 
ATOM     61  H   UNL A   1      44.020  30.830  29.855  1.00  0.00     0.167 HD
ATOM     62  C   UNL A   1      42.998  33.179  31.067  1.00  0.00     0.074 A 
ATOM     63  C   UNL A   1      42.072  34.139  31.628  1.00  0.00     0.031 C 
ATOM     64  C   UNL A   1      44.347  33.286  31.158  1.00  0.00     0.037 A 
BRANCH  51  65
ATOM     65  C   UNL A   1      47.435  28.509  28.786  1.00  0.00     0.058 A 
ATOM     66  C   UNL A   1      48.005  27.643  29.730  1.00  0.00     0.135 A 
ATOM     67  C   UNL A   1      48.109  28.690  27.567  1.00  0.00     0.135 A 
ATOM     68  F   UNL A   1      47.413  27.455  30.921  1.00  0.00    -0.206 F 
ATOM     69  C   UNL A   1      49.197  26.974  29.472  1.00  0.00     0.059 A 
ATOM     70  C   UNL A   1      49.288  28.014  27.278  1.00  0.00     0.059 A 
ATOM     71  F   UNL A   1      47.608  29.518  26.635  1.00  0.00    -0.206 F 
ATOM     72  C   UNL A   1      49.826  27.159  28.238  1.00  0.00     0.060 A 
BRANCH  72  73
ATOM     73  S   UNL A   1      51.340  26.238  27.897  1.00  0.00     0.124 S 
ATOM     74  O   UNL A   1      50.812  24.914  27.587  1.00  0.00    -0.237 OA
ATOM     75  O   UNL A   1      51.905  26.975  26.771  1.00  0.00    -0.237 OA
ATOM     76  O   UNL A   1      52.089  26.338  29.146  1.00  0.00    -0.744 OA
ENDBRANCH  72  73
ENDBRANCH  51  65
BRANCH  52  77
ATOM     77  C   UNL A   1      38.387  32.354  30.602  1.00  0.00     0.058 A 
ATOM     78  C   UNL A   1      37.725  33.300  29.806  1.00  0.00     0.135 A 
ATOM     79  C   UNL A   1      37.769  31.967  31.803  1.00  0.00     0.135 A 
ATOM     80  F   UNL A   1      38.280  33.715  28.656  1.00  0.00    -0.206 F 
ATOM     81  C   UNL A   1      36.517  33.869  30.199  1.00  0.00     0.059 A 
ATOM     82  C   UNL A   1      36.546  32.500  32.203  1.00  0.00     0.059 A 
ATOM     83  F   UNL A   1      38.354  31.059  32.600  1.00  0.00    -0.206 F 
ATOM     84  C   UNL A   1      35.937  33.465  31.402  1.00  0.00     0.060 A 
BRANCH  84  85
ATOM     85  S   UNL A   1      34.366  34.202  31.901  1.00  0.00     0.124 S 
ATOM     86  O   UNL A   1      33.820  33.167  32.772  1.00  0.00    -0.237 OA
ATOM     87  O   UNL A   1      34.798  35.431  32.561  1.00  0.00    -0.237 OA
ATOM     88  O   UNL A   1      33.668  34.394  30.633  1.00  0.00    -0.744 OA
ENDBRANCH  84  85
ENDBRANCH  52  77
BRANCH  64  89
ATOM     89  C   UNL A   1      44.912  34.487  31.867  1.00  0.00     0.058 A 
ATOM     90  C   UNL A   1      45.267  34.437  33.223  1.00  0.00     0.135 A 
ATOM     91  C   UNL A   1      45.181  35.670  31.160  1.00  0.00     0.135 A 
ATOM     92  F   UNL A   1      45.025  33.332  33.946  1.00  0.00    -0.206 F 
ATOM     93  C   UNL A   1      45.861  35.524  33.857  1.00  0.00     0.059 A 
ATOM     94  C   UNL A   1      45.799  36.759  31.767  1.00  0.00     0.059 A 
ATOM     95  F   UNL A   1      44.871  35.765  29.857  1.00  0.00    -0.206 F 
ATOM     96  C   UNL A   1      46.129  36.678  33.119  1.00  0.00     0.060 A 
BRANCH  96  97
ATOM     97  S   UNL A   1      46.954  38.058  33.940  1.00  0.00     0.124 S 
ATOM     98  O   UNL A   1      48.110  38.267  33.075  1.00  0.00    -0.237 OA
ATOM     99  O   UNL A   1      45.933  39.101  33.898  1.00  0.00    -0.237 OA
ATOM    100  O   UNL A   1      47.251  37.534  35.270  1.00  0.00    -0.744 OA
ENDBRANCH  96  97
ENDBRANCH  64  89
ENDBRANCH  38  39
ENDBRANCH  31  33
ENDBRANCH  30  31
ENDBRANCH  29  30
ENDBRANCH  28  29
ENDBRANCH  27  28
ENDBRANCH  26  27
ENDBRANCH   1  26
TORSDOF 24
ENDMDL
MODEL 3
REMARK VINA RESULT:      -9.5      5.879     10.778
REMARK SMILES O=C(CCCCCN1C(=O)/C(=C/c2cccc(O)c2)SC1=S)OCCOCCOC(=O)c1ccc(-c2c3nc(c(-c4c(F)cc(S(=O)(=O)[O-])cc4F)c4ccc([nH]4)c(-c4c(F)cc(S(=O)(=O)[O-])cc4F)c4nc(c(-c5c(F)cc(S(=O)(=O)[O-])cc5F)c5ccc2[nH]5)C=C4)C=C3)cc1
REMARK SMILES IDX 24 1 23 2 2 3 1 4 3 5 4 6 5 7 6 8 7 9 8 10 9 11 21 12 10 13
REMARK SMILES IDX 11 14 20 15 22 16 12 17 13 18 14 19 19 20 15 21 17 22 16 23
REMARK SMILES IDX 18 24 25 26 26 27 27 28 28 29 29 30 30 31 31 32 32 33 33 34
REMARK SMILES IDX 97 35 34 36 96 37 35 38 36 39 37 40 90 41 38 42 95 43 89 44
REMARK SMILES IDX 91 45 39 46 94 47 88 48 87 49 40 51 74 52 53 53 73 54 54 55
REMARK SMILES IDX 57 56 72 57 92 58 55 59 56 60 71 62 93 63 58 64 41 65 42 66
REMARK SMILES IDX 51 67 43 68 44 69 50 70 52 71 45 72 46 73 47 74 48 75 49 76
REMARK SMILES IDX 75 77 76 78 85 79 77 80 78 81 84 82 86 83 79 84 80 85 81 86
REMARK SMILES IDX 82 87 83 88 59 89 60 90 69 91 61 92 62 93 68 94 70 95 63 96
REMARK SMILES IDX 64 97 65 98 66 99 67 100
REMARK H PARENT 18 25 91 50 57 61
REMARK Flexibility Score: inf
ROOT
ATOM      1  C   UNL A   1      35.355  30.005  28.016  1.00  0.00     0.261 C 
ENDROOT
BRANCH   1   2
ATOM      2  O   UNL A   1      35.001  29.221  26.869  1.00  0.00    -0.463 OA
BRANCH   2   3
ATOM      3  C   UNL A   1      33.731  28.890  26.550  1.00  0.00     0.305 C 
ATOM      4  O   UNL A   1      33.323  27.752  26.779  1.00  0.00    -0.252 OA
BRANCH   3   5
ATOM      5  C   UNL A   1      32.863  29.862  25.778  1.00  0.00     0.123 C 
BRANCH   5   6
ATOM      6  C   UNL A   1      31.477  29.404  25.337  1.00  0.00     0.012 C 
BRANCH   6   7
ATOM      7  C   UNL A   1      31.185  29.243  23.838  1.00  0.00     0.002 C 
BRANCH   7   8
ATOM      8  C   UNL A   1      30.028  28.299  23.456  1.00  0.00     0.022 C 
BRANCH   8   9
ATOM      9  C   UNL A   1      30.381  27.063  22.623  1.00  0.00     0.127 C 
BRANCH   9  10
ATOM     10  N   UNL A   1      31.235  26.067  23.254  1.00  0.00    -0.293 N 
ATOM     11  C   UNL A   1      32.142  25.393  22.446  1.00  0.00     0.266 C 
ATOM     12  C   UNL A   1      31.152  25.623  24.556  1.00  0.00     0.148 C 
ATOM     13  O   UNL A   1      32.255  25.494  21.232  1.00  0.00    -0.268 OA
ATOM     14  C   UNL A   1      32.964  24.473  23.267  1.00  0.00     0.081 C 
ATOM     15  S   UNL A   1      32.596  24.706  24.930  1.00  0.00    -0.054 SA
ATOM     16  S   UNL A   1      29.934  25.824  25.675  1.00  0.00    -0.052 S 
ATOM     17  C   UNL A   1      33.841  23.609  22.735  1.00  0.00     0.029 C 
BRANCH  17  18
ATOM     18  C   UNL A   1      34.745  22.801  23.558  1.00  0.00    -0.021 A 
ATOM     19  C   UNL A   1      34.317  21.615  24.170  1.00  0.00     0.008 A 
ATOM     20  C   UNL A   1      36.009  23.315  23.856  1.00  0.00     0.054 A 
ATOM     21  C   UNL A   1      35.095  21.016  25.160  1.00  0.00     0.004 A 
ATOM     22  C   UNL A   1      36.784  22.700  24.832  1.00  0.00     0.116 A 
ATOM     23  C   UNL A   1      36.327  21.570  25.504  1.00  0.00     0.046 A 
BRANCH  22  24
ATOM     24  O   UNL A   1      37.984  23.272  25.137  1.00  0.00    -0.508 OA
ATOM     25  H   UNL A   1      38.062  24.204  25.174  1.00  0.00     0.293 HD
ENDBRANCH  22  24
ENDBRANCH  17  18
ENDBRANCH   9  10
ENDBRANCH   8   9
ENDBRANCH   7   8
ENDBRANCH   6   7
ENDBRANCH   5   6
ENDBRANCH   3   5
ENDBRANCH   2   3
ENDBRANCH   1   2
BRANCH   1  26
ATOM     26  C   UNL A   1      35.269  31.502  27.755  1.00  0.00     0.202 C 
BRANCH  26  27
ATOM     27  O   UNL A   1      34.325  32.175  28.590  1.00  0.00    -0.374 OA
BRANCH  27  28
ATOM     28  C   UNL A   1      34.601  33.570  28.765  1.00  0.00     0.202 C 
BRANCH  28  29
ATOM     29  C   UNL A   1      34.740  33.959  30.241  1.00  0.00     0.261 C 
BRANCH  29  30
ATOM     30  O   UNL A   1      36.049  33.630  30.732  1.00  0.00    -0.460 OA
BRANCH  30  31
ATOM     31  C   UNL A   1      36.156  32.405  31.319  1.00  0.00     0.338 C 
ATOM     32  O   UNL A   1      35.259  31.748  31.806  1.00  0.00    -0.246 OA
BRANCH  31  33
ATOM     33  C   UNL A   1      37.526  31.884  31.076  1.00  0.00     0.060 A 
ATOM     34  C   UNL A   1      38.028  31.939  29.767  1.00  0.00     0.016 A 
ATOM     35  C   UNL A   1      38.337  31.426  32.117  1.00  0.00     0.016 A 
ATOM     36  C   UNL A   1      39.339  31.540  29.496  1.00  0.00     0.010 A 
ATOM     37  C   UNL A   1      39.642  31.013  31.844  1.00  0.00     0.010 A 
ATOM     38  C   UNL A   1      40.145  31.055  30.532  1.00  0.00    -0.014 A 
BRANCH  38  39
ATOM     39  C   UNL A   1      41.465  30.444  30.255  1.00  0.00     0.031 A 
ATOM     40  C   UNL A   1      42.675  31.335  30.277  1.00  0.00     0.074 A 
ATOM     41  C   UNL A   1      41.577  29.145  29.921  1.00  0.00     0.049 A 
ATOM     42  N   UNL A   1      43.897  31.083  29.891  1.00  0.00    -0.248 NA
ATOM     43  C   UNL A   1      42.472  32.702  30.789  1.00  0.00     0.031 C 
ATOM     44  C   UNL A   1      40.480  28.179  29.895  1.00  0.00     0.029 A 
ATOM     45  N   UNL A   1      42.668  28.424  29.499  1.00  0.00    -0.354 N 
ATOM     46  C   UNL A   1      44.602  32.263  30.085  1.00  0.00     0.074 A 
ATOM     47  C   UNL A   1      43.674  33.234  30.621  1.00  0.00     0.031 C 
ATOM     48  C   UNL A   1      40.945  27.002  29.438  1.00  0.00     0.029 A 
ATOM     49  C   UNL A   1      42.361  27.144  29.101  1.00  0.00     0.049 A 
ATOM     50  H   UNL A   1      43.583  28.789  29.483  1.00  0.00     0.167 HD
ATOM     51  C   UNL A   1      45.907  32.512  29.832  1.00  0.00     0.037 A 
ATOM     52  C   UNL A   1      43.123  26.214  28.488  1.00  0.00     0.037 A 
ATOM     53  C   UNL A   1      46.826  31.533  29.315  1.00  0.00     0.049 A 
ATOM     54  C   UNL A   1      44.562  26.539  28.164  1.00  0.00     0.074 A 
ATOM     55  C   UNL A   1      48.184  31.670  29.089  1.00  0.00     0.029 A 
ATOM     56  N   UNL A   1      46.479  30.247  28.932  1.00  0.00    -0.354 N 
ATOM     57  N   UNL A   1      45.237  27.638  28.409  1.00  0.00    -0.248 NA
ATOM     58  C   UNL A   1      45.344  25.501  27.473  1.00  0.00     0.031 C 
ATOM     59  C   UNL A   1      48.648  30.485  28.511  1.00  0.00     0.029 A 
ATOM     60  C   UNL A   1      47.591  29.593  28.428  1.00  0.00     0.049 A 
ATOM     61  H   UNL A   1      45.578  29.858  29.005  1.00  0.00     0.167 HD
ATOM     62  C   UNL A   1      46.520  27.416  27.918  1.00  0.00     0.074 A 
ATOM     63  C   UNL A   1      46.537  26.072  27.381  1.00  0.00     0.031 C 
ATOM     64  C   UNL A   1      47.590  28.249  27.908  1.00  0.00     0.037 A 
BRANCH  51  65
ATOM     65  C   UNL A   1      46.424  33.898  30.079  1.00  0.00     0.058 A 
ATOM     66  C   UNL A   1      46.385  34.891  29.089  1.00  0.00     0.135 A 
ATOM     67  C   UNL A   1      46.889  34.258  31.354  1.00  0.00     0.135 A 
ATOM     68  F   UNL A   1      45.972  34.593  27.847  1.00  0.00    -0.206 F 
ATOM     69  C   UNL A   1      46.784  36.196  29.357  1.00  0.00     0.059 A 
ATOM     70  C   UNL A   1      47.271  35.561  31.651  1.00  0.00     0.059 A 
ATOM     71  F   UNL A   1      46.957  33.339  32.332  1.00  0.00    -0.206 F 
ATOM     72  C   UNL A   1      47.217  36.524  30.644  1.00  0.00     0.060 A 
BRANCH  72  73
ATOM     73  S   UNL A   1      47.676  38.235  30.990  1.00  0.00     0.124 S 
ATOM     74  O   UNL A   1      46.755  38.570  32.072  1.00  0.00    -0.237 OA
ATOM     75  O   UNL A   1      49.080  38.109  31.369  1.00  0.00    -0.237 OA
ATOM     76  O   UNL A   1      47.430  38.916  29.723  1.00  0.00    -0.744 OA
ENDBRANCH  72  73
ENDBRANCH  51  65
BRANCH  52  77
ATOM     77  C   UNL A   1      42.539  24.908  28.074  1.00  0.00     0.058 A 
ATOM     78  C   UNL A   1      42.720  23.751  28.846  1.00  0.00     0.135 A 
ATOM     79  C   UNL A   1      41.830  24.780  26.868  1.00  0.00     0.135 A 
ATOM     80  F   UNL A   1      43.404  23.816  30.000  1.00  0.00    -0.206 F 
ATOM     81  C   UNL A   1      42.250  22.510  28.426  1.00  0.00     0.059 A 
ATOM     82  C   UNL A   1      41.324  23.556  26.440  1.00  0.00     0.059 A 
ATOM     83  F   UNL A   1      41.620  25.856  26.093  1.00  0.00    -0.206 F 
ATOM     84  C   UNL A   1      41.556  22.422  27.218  1.00  0.00     0.060 A 
BRANCH  84  85
ATOM     85  S   UNL A   1      40.943  20.811  26.683  1.00  0.00     0.124 S 
ATOM     86  O   UNL A   1      41.986  20.394  25.753  1.00  0.00    -0.237 OA
ATOM     87  O   UNL A   1      40.877  20.073  27.941  1.00  0.00    -0.237 OA
ATOM     88  O   UNL A   1      39.650  21.126  26.082  1.00  0.00    -0.744 OA
ENDBRANCH  84  85
ENDBRANCH  52  77
BRANCH  64  89
ATOM     89  C   UNL A   1      48.876  27.736  27.321  1.00  0.00     0.058 A 
ATOM     90  C   UNL A   1      49.861  27.141  28.124  1.00  0.00     0.135 A 
ATOM     91  C   UNL A   1      49.086  27.761  25.933  1.00  0.00     0.135 A 
ATOM     92  F   UNL A   1      49.712  27.097  29.457  1.00  0.00    -0.206 F 
ATOM     93  C   UNL A   1      51.016  26.597  27.570  1.00  0.00     0.059 A 
ATOM     94  C   UNL A   1      50.220  27.199  25.356  1.00  0.00     0.059 A 
ATOM     95  F   UNL A   1      48.168  28.309  25.120  1.00  0.00    -0.206 F 
ATOM     96  C   UNL A   1      51.183  26.625  26.184  1.00  0.00     0.060 A 
BRANCH  96  97
ATOM     97  S   UNL A   1      52.659  25.862  25.475  1.00  0.00     0.124 S 
ATOM     98  O   UNL A   1      53.722  26.566  26.183  1.00  0.00    -0.237 OA
ATOM     99  O   UNL A   1      52.484  24.457  25.829  1.00  0.00    -0.237 OA
ATOM    100  O   UNL A   1      52.546  26.163  24.051  1.00  0.00    -0.744 OA
ENDBRANCH  96  97
ENDBRANCH  64  89
ENDBRANCH  38  39
ENDBRANCH  31  33
ENDBRANCH  30  31
ENDBRANCH  29  30
ENDBRANCH  28  29
ENDBRANCH  27  28
ENDBRANCH  26  27
ENDBRANCH   1  26
TORSDOF 24
ENDMDL
