MODEL 1
REMARK VINA RESULT:     -10.3      0.000      0.000
REMARK SMILES CC(C)C[C@H](NC(=O)c1cc(Cl)nnc1Cl)C(=O)OCCOCCOC(=O)c1ccc(-c2c3nc(c(-c4c(F)cc(S(=O)(=O)[O-])cc4F)c4ccc([nH]4)c(-c4c(F)cc(S(=O)(=O)[O-])cc4F)c4nc(c(-c5c(F)cc(S(=O)(=O)[O-])cc5F)c5ccc2[nH]5)C=C4)C=C3)cc1
REMARK SMILES IDX 23 1 22 2 21 3 20 4 19 5 17 6 18 7 5 8 4 9 2 10 1 11 3 12
REMARK SMILES IDX 6 13 7 14 8 16 9 17 10 18 15 19 11 20 14 21 16 22 12 23
REMARK SMILES IDX 13 24 24 25 25 26 26 27 27 28 28 29 29 30 93 31 30 32 92 33
REMARK SMILES IDX 31 34 32 35 33 36 86 37 34 38 91 39 85 40 87 41 35 42 90 43
REMARK SMILES IDX 84 44 83 45 36 47 70 48 49 49 69 50 50 51 53 52 68 53 88 54
REMARK SMILES IDX 51 55 52 56 67 58 89 59 54 60 37 61 38 62 47 63 39 64 40 65
REMARK SMILES IDX 46 66 48 67 41 68 42 69 43 70 44 71 45 72 71 73 72 74 81 75
REMARK SMILES IDX 73 76 74 77 80 78 82 79 75 80 76 81 77 82 78 83 79 84 55 85
REMARK SMILES IDX 56 86 65 87 57 88 58 89 64 90 66 91 59 92 60 93 61 94 62 95
REMARK SMILES IDX 63 96
REMARK H PARENT 6 15 87 46 53 57
REMARK Flexibility Score: inf
ROOT
ATOM      1  C   UNL A   1      31.876  31.277  26.857  1.00  0.00     0.202 C 
ENDROOT
BRANCH   1   2
ATOM      2  O   UNL A   1      31.647  29.895  26.577  1.00  0.00    -0.374 OA
BRANCH   2   3
ATOM      3  C   UNL A   1      31.986  29.413  25.280  1.00  0.00     0.202 C 
BRANCH   3   4
ATOM      4  C   UNL A   1      31.092  28.307  24.726  1.00  0.00     0.261 C 
BRANCH   4   5
ATOM      5  O   UNL A   1      31.815  27.089  24.496  1.00  0.00    -0.462 OA
BRANCH   5   6
ATOM      6  C   UNL A   1      31.058  25.966  24.319  1.00  0.00     0.328 C 
ATOM      7  O   UNL A   1      29.845  25.944  24.149  1.00  0.00    -0.250 OA
BRANCH   6   8
ATOM      8  C   UNL A   1      31.910  24.700  24.484  1.00  0.00     0.192 C 
BRANCH   8   9
ATOM      9  C   UNL A   1      32.505  24.655  25.905  1.00  0.00     0.040 C 
BRANCH   9  10
ATOM     10  C   UNL A   1      31.915  23.631  26.903  1.00  0.00    -0.015 C 
ATOM     11  C   UNL A   1      30.816  22.766  26.268  1.00  0.00     0.007 C 
ATOM     12  C   UNL A   1      33.034  22.700  27.387  1.00  0.00     0.007 C 
ENDBRANCH   9  10
ENDBRANCH   8   9
BRANCH   8  13
ATOM     13  N   UNL A   1      32.860  24.548  23.362  1.00  0.00    -0.338 N 
ATOM     14  C   UNL A   1      33.321  23.402  22.766  1.00  0.00     0.255 C 
ATOM     15  H   UNL A   1      33.213  25.388  22.990  1.00  0.00     0.164 HD
ATOM     16  O   UNL A   1      33.536  23.350  21.561  1.00  0.00    -0.269 OA
BRANCH  14  17
ATOM     17  C   UNL A   1      33.770  22.295  23.599  1.00  0.00     0.082 A 
ATOM     18  C   UNL A   1      32.914  21.197  23.691  1.00  0.00     0.060 A 
ATOM     19  C   UNL A   1      34.974  22.285  24.270  1.00  0.00     0.164 A 
ATOM     20  C   UNL A   1      33.353  20.113  24.411  1.00  0.00     0.152 A 
ATOM     21  N   UNL A   1      35.375  21.198  24.961  1.00  0.00    -0.136 NA
ATOM     22  Cl  UNL A   1      36.115  23.562  24.237  1.00  0.00    -0.059 Cl
ATOM     23  Cl  UNL A   1      32.418  18.691  24.552  1.00  0.00    -0.060 Cl
ATOM     24  N   UNL A   1      34.555  20.091  25.023  1.00  0.00    -0.137 NA
ENDBRANCH  14  17
ENDBRANCH   8  13
ENDBRANCH   6   8
ENDBRANCH   5   6
ENDBRANCH   4   5
ENDBRANCH   3   4
ENDBRANCH   2   3
ENDBRANCH   1   2
BRANCH   1  25
ATOM     25  C   UNL A   1      33.298  31.666  27.276  1.00  0.00     0.261 C 
BRANCH  25  26
ATOM     26  O   UNL A   1      33.879  30.699  28.173  1.00  0.00    -0.460 OA
BRANCH  26  27
ATOM     27  C   UNL A   1      34.846  31.192  28.985  1.00  0.00     0.338 C 
ATOM     28  O   UNL A   1      34.738  32.112  29.785  1.00  0.00    -0.246 OA
BRANCH  27  29
ATOM     29  C   UNL A   1      36.053  30.354  28.919  1.00  0.00     0.060 A 
ATOM     30  C   UNL A   1      36.627  29.940  30.128  1.00  0.00     0.016 A 
ATOM     31  C   UNL A   1      36.697  30.118  27.704  1.00  0.00     0.016 A 
ATOM     32  C   UNL A   1      37.884  29.342  30.133  1.00  0.00     0.010 A 
ATOM     33  C   UNL A   1      37.967  29.533  27.712  1.00  0.00     0.010 A 
ATOM     34  C   UNL A   1      38.583  29.188  28.929  1.00  0.00    -0.014 A 
BRANCH  34  35
ATOM     35  C   UNL A   1      40.029  28.865  28.965  1.00  0.00     0.031 A 
ATOM     36  C   UNL A   1      40.995  29.938  29.395  1.00  0.00     0.074 A 
ATOM     37  C   UNL A   1      40.472  27.635  28.655  1.00  0.00     0.049 A 
ATOM     38  N   UNL A   1      42.299  29.901  29.460  1.00  0.00    -0.248 NA
ATOM     39  C   UNL A   1      40.406  31.221  29.815  1.00  0.00     0.031 C 
ATOM     40  C   UNL A   1      39.628  26.499  28.290  1.00  0.00     0.029 A 
ATOM     41  N   UNL A   1      41.750  27.139  28.597  1.00  0.00    -0.354 N 
ATOM     42  C   UNL A   1      42.689  31.148  29.936  1.00  0.00     0.074 A 
ATOM     43  C   UNL A   1      41.485  31.930  30.114  1.00  0.00     0.031 C 
ATOM     44  C   UNL A   1      40.413  25.439  28.033  1.00  0.00     0.029 A 
ATOM     45  C   UNL A   1      41.814  25.830  28.186  1.00  0.00     0.049 A 
ATOM     46  H   UNL A   1      42.545  27.671  28.829  1.00  0.00     0.167 HD
ATOM     47  C   UNL A   1      43.937  31.597  30.206  1.00  0.00     0.037 A 
ATOM     48  C   UNL A   1      42.883  25.047  27.942  1.00  0.00     0.037 A 
ATOM     49  C   UNL A   1      45.133  30.823  30.005  1.00  0.00     0.049 A 
ATOM     50  C   UNL A   1      44.268  25.603  28.147  1.00  0.00     0.074 A 
ATOM     51  C   UNL A   1      46.446  31.194  30.228  1.00  0.00     0.029 A 
ATOM     52  N   UNL A   1      45.160  29.520  29.529  1.00  0.00    -0.354 N 
ATOM     53  N   UNL A   1      44.625  26.790  28.580  1.00  0.00    -0.248 NA
ATOM     54  C   UNL A   1      45.396  24.717  27.825  1.00  0.00     0.031 C 
ATOM     55  C   UNL A   1      47.271  30.130  29.848  1.00  0.00     0.029 A 
ATOM     56  C   UNL A   1      46.469  29.080  29.433  1.00  0.00     0.049 A 
ATOM     57  H   UNL A   1      44.366  28.988  29.295  1.00  0.00     0.167 HD
ATOM     58  C   UNL A   1      46.016  26.784  28.607  1.00  0.00     0.074 A 
ATOM     59  C   UNL A   1      46.436  25.473  28.152  1.00  0.00     0.031 C 
ATOM     60  C   UNL A   1      46.868  27.772  28.977  1.00  0.00     0.037 A 
BRANCH  47  61
ATOM     61  C   UNL A   1      44.071  32.999  30.729  1.00  0.00     0.058 A 
ATOM     62  C   UNL A   1      44.020  33.276  32.104  1.00  0.00     0.135 A 
ATOM     63  C   UNL A   1      44.290  34.073  29.851  1.00  0.00     0.135 A 
ATOM     64  F   UNL A   1      43.792  32.290  32.985  1.00  0.00    -0.206 F 
ATOM     65  C   UNL A   1      44.167  34.572  32.590  1.00  0.00     0.059 A 
ATOM     66  C   UNL A   1      44.461  35.373  30.315  1.00  0.00     0.059 A 
ATOM     67  F   UNL A   1      44.339  33.862  28.526  1.00  0.00    -0.206 F 
ATOM     68  C   UNL A   1      44.389  35.614  31.687  1.00  0.00     0.060 A 
BRANCH  68  69
ATOM     69  S   UNL A   1      44.592  37.287  32.336  1.00  0.00     0.124 S 
ATOM     70  O   UNL A   1      44.250  38.095  31.169  1.00  0.00    -0.237 OA
ATOM     71  O   UNL A   1      43.628  37.315  33.431  1.00  0.00    -0.237 OA
ATOM     72  O   UNL A   1      45.994  37.329  32.738  1.00  0.00    -0.744 OA
ENDBRANCH  68  69
ENDBRANCH  47  61
BRANCH  48  73
ATOM     73  C   UNL A   1      42.685  23.652  27.469  1.00  0.00     0.058 A 
ATOM     74  C   UNL A   1      42.720  23.343  26.101  1.00  0.00     0.135 A 
ATOM     75  C   UNL A   1      42.473  22.600  28.373  1.00  0.00     0.135 A 
ATOM     76  F   UNL A   1      42.906  24.319  25.199  1.00  0.00    -0.206 F 
ATOM     77  C   UNL A   1      42.550  22.041  25.645  1.00  0.00     0.059 A 
ATOM     78  C   UNL A   1      42.323  21.285  27.941  1.00  0.00     0.059 A 
ATOM     79  F   UNL A   1      42.440  22.843  29.692  1.00  0.00    -0.206 F 
ATOM     80  C   UNL A   1      42.359  21.017  26.574  1.00  0.00     0.060 A 
BRANCH  80  81
ATOM     81  S   UNL A   1      42.211  19.321  25.972  1.00  0.00     0.124 S 
ATOM     82  O   UNL A   1      43.080  19.346  24.802  1.00  0.00    -0.237 OA
ATOM     83  O   UNL A   1      42.695  18.551  27.114  1.00  0.00    -0.237 OA
ATOM     84  O   UNL A   1      40.783  19.187  25.698  1.00  0.00    -0.744 OA
ENDBRANCH  80  81
ENDBRANCH  48  73
BRANCH  60  85
ATOM     85  C   UNL A   1      48.341  27.472  28.931  1.00  0.00     0.058 A 
ATOM     86  C   UNL A   1      49.122  27.788  27.809  1.00  0.00     0.135 A 
ATOM     87  C   UNL A   1      48.989  26.918  30.047  1.00  0.00     0.135 A 
ATOM     88  F   UNL A   1      48.549  28.315  26.715  1.00  0.00    -0.206 F 
ATOM     89  C   UNL A   1      50.491  27.548  27.787  1.00  0.00     0.059 A 
ATOM     90  C   UNL A   1      50.362  26.691  30.057  1.00  0.00     0.059 A 
ATOM     91  F   UNL A   1      48.290  26.607  31.151  1.00  0.00    -0.206 F 
ATOM     92  C   UNL A   1      51.103  27.000  28.916  1.00  0.00     0.060 A 
BRANCH  92  93
ATOM     93  S   UNL A   1      52.887  26.724  28.886  1.00  0.00     0.124 S 
ATOM     94  O   UNL A   1      53.123  26.180  30.219  1.00  0.00    -0.237 OA
ATOM     95  O   UNL A   1      53.039  25.783  27.781  1.00  0.00    -0.237 OA
ATOM     96  O   UNL A   1      53.433  28.057  28.646  1.00  0.00    -0.744 OA
ENDBRANCH  92  93
ENDBRANCH  60  85
ENDBRANCH  34  35
ENDBRANCH  27  29
ENDBRANCH  26  27
ENDBRANCH  25  26
ENDBRANCH   1  25
TORSDOF 21
ENDMDL
MODEL 2
REMARK VINA RESULT:      -9.9      1.124      2.130
REMARK SMILES CC(C)C[C@H](NC(=O)c1cc(Cl)nnc1Cl)C(=O)OCCOCCOC(=O)c1ccc(-c2c3nc(c(-c4c(F)cc(S(=O)(=O)[O-])cc4F)c4ccc([nH]4)c(-c4c(F)cc(S(=O)(=O)[O-])cc4F)c4nc(c(-c5c(F)cc(S(=O)(=O)[O-])cc5F)c5ccc2[nH]5)C=C4)C=C3)cc1
REMARK SMILES IDX 23 1 22 2 21 3 20 4 19 5 17 6 18 7 5 8 4 9 2 10 1 11 3 12
REMARK SMILES IDX 6 13 7 14 8 16 9 17 10 18 15 19 11 20 14 21 16 22 12 23
REMARK SMILES IDX 13 24 24 25 25 26 26 27 27 28 28 29 29 30 93 31 30 32 92 33
REMARK SMILES IDX 31 34 32 35 33 36 86 37 34 38 91 39 85 40 87 41 35 42 90 43
REMARK SMILES IDX 84 44 83 45 36 47 70 48 49 49 69 50 50 51 53 52 68 53 88 54
REMARK SMILES IDX 51 55 52 56 67 58 89 59 54 60 37 61 38 62 47 63 39 64 40 65
REMARK SMILES IDX 46 66 48 67 41 68 42 69 43 70 44 71 45 72 71 73 72 74 81 75
REMARK SMILES IDX 73 76 74 77 80 78 82 79 75 80 76 81 77 82 78 83 79 84 55 85
REMARK SMILES IDX 56 86 65 87 57 88 58 89 64 90 66 91 59 92 60 93 61 94 62 95
REMARK SMILES IDX 63 96
REMARK H PARENT 6 15 87 46 53 57
REMARK Flexibility Score: inf
ROOT
ATOM      1  C   UNL A   1      31.904  30.452  26.240  1.00  0.00     0.202 C 
ENDROOT
BRANCH   1   2
ATOM      2  O   UNL A   1      31.398  29.809  25.069  1.00  0.00    -0.374 OA
BRANCH   2   3
ATOM      3  C   UNL A   1      31.632  28.412  24.923  1.00  0.00     0.202 C 
BRANCH   3   4
ATOM      4  C   UNL A   1      30.417  27.568  24.548  1.00  0.00     0.261 C 
BRANCH   4   5
ATOM      5  O   UNL A   1      30.550  26.205  24.977  1.00  0.00    -0.462 OA
BRANCH   5   6
ATOM      6  C   UNL A   1      30.472  25.257  23.996  1.00  0.00     0.328 C 
ATOM      7  O   UNL A   1      29.601  25.189  23.138  1.00  0.00    -0.250 OA
BRANCH   6   8
ATOM      8  C   UNL A   1      31.564  24.194  24.176  1.00  0.00     0.192 C 
BRANCH   8   9
ATOM      9  C   UNL A   1      32.030  24.170  25.644  1.00  0.00     0.040 C 
BRANCH   9  10
ATOM     10  C   UNL A   1      31.742  22.895  26.473  1.00  0.00    -0.015 C 
ATOM     11  C   UNL A   1      32.689  22.756  27.675  1.00  0.00     0.007 C 
ATOM     12  C   UNL A   1      30.304  22.954  27.003  1.00  0.00     0.007 C 
ENDBRANCH   9  10
ENDBRANCH   8   9
BRANCH   8  13
ATOM     13  N   UNL A   1      32.617  24.332  23.148  1.00  0.00    -0.338 N 
ATOM     14  C   UNL A   1      33.597  23.445  22.786  1.00  0.00     0.255 C 
ATOM     15  H   UNL A   1      32.615  25.184  22.653  1.00  0.00     0.164 HD
ATOM     16  O   UNL A   1      33.961  23.333  21.621  1.00  0.00    -0.269 OA
BRANCH  14  17
ATOM     17  C   UNL A   1      34.374  22.778  23.821  1.00  0.00     0.082 A 
ATOM     18  C   UNL A   1      35.447  23.495  24.355  1.00  0.00     0.060 A 
ATOM     19  C   UNL A   1      34.096  21.511  24.288  1.00  0.00     0.164 A 
ATOM     20  C   UNL A   1      36.145  22.912  25.384  1.00  0.00     0.152 A 
ATOM     21  N   UNL A   1      34.799  20.976  25.307  1.00  0.00    -0.136 NA
ATOM     22  Cl  UNL A   1      32.810  20.530  23.725  1.00  0.00    -0.059 Cl
ATOM     23  Cl  UNL A   1      37.443  23.713  26.153  1.00  0.00    -0.060 Cl
ATOM     24  N   UNL A   1      35.833  21.693  25.870  1.00  0.00    -0.137 NA
ENDBRANCH  14  17
ENDBRANCH   8  13
ENDBRANCH   6   8
ENDBRANCH   5   6
ENDBRANCH   4   5
ENDBRANCH   3   4
ENDBRANCH   2   3
ENDBRANCH   1   2
BRANCH   1  25
ATOM     25  C   UNL A   1      33.380  30.207  26.576  1.00  0.00     0.261 C 
BRANCH  25  26
ATOM     26  O   UNL A   1      33.649  30.383  27.980  1.00  0.00    -0.460 OA
BRANCH  26  27
ATOM     27  C   UNL A   1      34.734  31.147  28.255  1.00  0.00     0.338 C 
ATOM     28  O   UNL A   1      34.744  32.337  28.546  1.00  0.00    -0.246 OA
BRANCH  27  29
ATOM     29  C   UNL A   1      35.945  30.316  28.333  1.00  0.00     0.060 A 
ATOM     30  C   UNL A   1      36.243  29.710  29.561  1.00  0.00     0.016 A 
ATOM     31  C   UNL A   1      36.852  30.266  27.273  1.00  0.00     0.016 A 
ATOM     32  C   UNL A   1      37.481  29.104  29.755  1.00  0.00     0.010 A 
ATOM     33  C   UNL A   1      38.102  29.673  27.476  1.00  0.00     0.010 A 
ATOM     34  C   UNL A   1      38.436  29.133  28.731  1.00  0.00    -0.014 A 
BRANCH  34  35
ATOM     35  C   UNL A   1      39.844  28.792  29.042  1.00  0.00     0.031 A 
ATOM     36  C   UNL A   1      40.698  29.821  29.736  1.00  0.00     0.074 A 
ATOM     37  C   UNL A   1      40.346  27.581  28.745  1.00  0.00     0.049 A 
ATOM     38  N   UNL A   1      41.960  29.764  30.066  1.00  0.00    -0.248 NA
ATOM     39  C   UNL A   1      40.031  31.079  30.114  1.00  0.00     0.031 C 
ATOM     40  C   UNL A   1      39.598  26.483  28.135  1.00  0.00     0.029 A 
ATOM     41  N   UNL A   1      41.609  27.076  28.917  1.00  0.00    -0.354 N 
ATOM     42  C   UNL A   1      42.240  30.971  30.697  1.00  0.00     0.074 A 
ATOM     43  C   UNL A   1      41.023  31.753  30.678  1.00  0.00     0.031 C 
ATOM     44  C   UNL A   1      40.422  25.434  27.972  1.00  0.00     0.029 A 
ATOM     45  C   UNL A   1      41.761  25.798  28.437  1.00  0.00     0.049 A 
ATOM     46  H   UNL A   1      42.338  27.581  29.344  1.00  0.00     0.167 HD
ATOM     47  C   UNL A   1      43.405  31.386  31.249  1.00  0.00     0.037 A 
ATOM     48  C   UNL A   1      42.859  25.020  28.365  1.00  0.00     0.037 A 
ATOM     49  C   UNL A   1      44.618  30.614  31.246  1.00  0.00     0.049 A 
ATOM     50  C   UNL A   1      44.171  25.545  28.889  1.00  0.00     0.074 A 
ATOM     51  C   UNL A   1      45.856  30.954  31.760  1.00  0.00     0.029 A 
ATOM     52  N   UNL A   1      44.747  29.347  30.696  1.00  0.00    -0.354 N 
ATOM     53  N   UNL A   1      44.427  26.695  29.468  1.00  0.00    -0.248 NA
ATOM     54  C   UNL A   1      45.343  24.670  28.745  1.00  0.00     0.031 C 
ATOM     55  C   UNL A   1      46.745  29.908  31.485  1.00  0.00     0.029 A 
ATOM     56  C   UNL A   1      46.048  28.899  30.841  1.00  0.00     0.049 A 
ATOM     57  H   UNL A   1      44.019  28.841  30.266  1.00  0.00     0.167 HD
ATOM     58  C   UNL A   1      45.783  26.671  29.781  1.00  0.00     0.074 A 
ATOM     59  C   UNL A   1      46.291  25.390  29.331  1.00  0.00     0.031 C 
ATOM     60  C   UNL A   1      46.537  27.621  30.387  1.00  0.00     0.037 A 
BRANCH  47  61
ATOM     61  C   UNL A   1      43.424  32.747  31.886  1.00  0.00     0.058 A 
ATOM     62  C   UNL A   1      43.287  32.909  33.273  1.00  0.00     0.135 A 
ATOM     63  C   UNL A   1      43.618  33.899  31.106  1.00  0.00     0.135 A 
ATOM     64  F   UNL A   1      43.078  31.843  34.062  1.00  0.00    -0.206 F 
ATOM     65  C   UNL A   1      43.328  34.168  33.865  1.00  0.00     0.059 A 
ATOM     66  C   UNL A   1      43.683  35.166  31.679  1.00  0.00     0.059 A 
ATOM     67  F   UNL A   1      43.746  33.799  29.774  1.00  0.00    -0.206 F 
ATOM     68  C   UNL A   1      43.528  35.291  33.059  1.00  0.00     0.060 A 
BRANCH  68  69
ATOM     69  S   UNL A   1      43.592  36.915  33.845  1.00  0.00     0.124 S 
ATOM     70  O   UNL A   1      42.237  37.035  34.376  1.00  0.00    -0.237 OA
ATOM     71  O   UNL A   1      44.647  36.739  34.838  1.00  0.00    -0.237 OA
ATOM     72  O   UNL A   1      43.915  37.815  32.743  1.00  0.00    -0.744 OA
ENDBRANCH  68  69
ENDBRANCH  47  61
BRANCH  48  73
ATOM     73  C   UNL A   1      42.768  23.664  27.764  1.00  0.00     0.058 A 
ATOM     74  C   UNL A   1      42.502  22.540  28.561  1.00  0.00     0.135 A 
ATOM     75  C   UNL A   1      42.927  23.467  26.384  1.00  0.00     0.135 A 
ATOM     76  F   UNL A   1      42.356  22.679  29.887  1.00  0.00    -0.206 F 
ATOM     77  C   UNL A   1      42.400  21.267  28.011  1.00  0.00     0.059 A 
ATOM     78  C   UNL A   1      42.807  22.205  25.808  1.00  0.00     0.059 A 
ATOM     79  F   UNL A   1      43.175  24.511  25.579  1.00  0.00    -0.206 F 
ATOM     80  C   UNL A   1      42.547  21.111  26.631  1.00  0.00     0.060 A 
BRANCH  80  81
ATOM     81  S   UNL A   1      42.341  19.463  25.921  1.00  0.00     0.124 S 
ATOM     82  O   UNL A   1      40.917  19.451  25.612  1.00  0.00    -0.237 OA
ATOM     83  O   UNL A   1      43.245  19.512  24.776  1.00  0.00    -0.237 OA
ATOM     84  O   UNL A   1      42.762  18.577  27.004  1.00  0.00    -0.744 OA
ENDBRANCH  80  81
ENDBRANCH  48  73
BRANCH  60  85
ATOM     85  C   UNL A   1      47.988  27.308  30.624  1.00  0.00     0.058 A 
ATOM     86  C   UNL A   1      48.415  26.622  31.771  1.00  0.00     0.135 A 
ATOM     87  C   UNL A   1      48.955  27.645  29.663  1.00  0.00     0.135 A 
ATOM     88  F   UNL A   1      47.531  26.282  32.722  1.00  0.00    -0.206 F 
ATOM     89  C   UNL A   1      49.753  26.297  31.966  1.00  0.00     0.059 A 
ATOM     90  C   UNL A   1      50.295  27.309  29.826  1.00  0.00     0.059 A 
ATOM     91  F   UNL A   1      48.597  28.292  28.542  1.00  0.00    -0.206 F 
ATOM     92  C   UNL A   1      50.686  26.644  30.987  1.00  0.00     0.060 A 
BRANCH  92  93
ATOM     93  S   UNL A   1      52.415  26.188  31.239  1.00  0.00     0.124 S 
ATOM     94  O   UNL A   1      52.286  24.855  31.819  1.00  0.00    -0.237 OA
ATOM     95  O   UNL A   1      52.953  26.239  29.883  1.00  0.00    -0.237 OA
ATOM     96  O   UNL A   1      52.912  27.220  32.143  1.00  0.00    -0.744 OA
ENDBRANCH  92  93
ENDBRANCH  60  85
ENDBRANCH  34  35
ENDBRANCH  27  29
ENDBRANCH  26  27
ENDBRANCH  25  26
ENDBRANCH   1  25
TORSDOF 21
ENDMDL
MODEL 3
REMARK VINA RESULT:      -9.8      1.556      2.535
REMARK SMILES CC(C)C[C@H](NC(=O)c1cc(Cl)nnc1Cl)C(=O)OCCOCCOC(=O)c1ccc(-c2c3nc(c(-c4c(F)cc(S(=O)(=O)[O-])cc4F)c4ccc([nH]4)c(-c4c(F)cc(S(=O)(=O)[O-])cc4F)c4nc(c(-c5c(F)cc(S(=O)(=O)[O-])cc5F)c5ccc2[nH]5)C=C4)C=C3)cc1
REMARK SMILES IDX 23 1 22 2 21 3 20 4 19 5 17 6 18 7 5 8 4 9 2 10 1 11 3 12
REMARK SMILES IDX 6 13 7 14 8 16 9 17 10 18 15 19 11 20 14 21 16 22 12 23
REMARK SMILES IDX 13 24 24 25 25 26 26 27 27 28 28 29 29 30 93 31 30 32 92 33
REMARK SMILES IDX 31 34 32 35 33 36 86 37 34 38 91 39 85 40 87 41 35 42 90 43
REMARK SMILES IDX 84 44 83 45 36 47 70 48 49 49 69 50 50 51 53 52 68 53 88 54
REMARK SMILES IDX 51 55 52 56 67 58 89 59 54 60 37 61 38 62 47 63 39 64 40 65
REMARK SMILES IDX 46 66 48 67 41 68 42 69 43 70 44 71 45 72 71 73 72 74 81 75
REMARK SMILES IDX 73 76 74 77 80 78 82 79 75 80 76 81 77 82 78 83 79 84 55 85
REMARK SMILES IDX 56 86 65 87 57 88 58 89 64 90 66 91 59 92 60 93 61 94 62 95
REMARK SMILES IDX 63 96
REMARK H PARENT 6 15 87 46 53 57
REMARK Flexibility Score: inf
ROOT
ATOM      1  C   UNL A   1      32.006  30.389  25.939  1.00  0.00     0.202 C 
ENDROOT
BRANCH   1   2
ATOM      2  O   UNL A   1      32.767  29.750  24.912  1.00  0.00    -0.374 OA
BRANCH   2   3
ATOM      3  C   UNL A   1      32.679  28.333  24.802  1.00  0.00     0.202 C 
BRANCH   3   4
ATOM      4  C   UNL A   1      31.589  27.666  25.637  1.00  0.00     0.261 C 
BRANCH   4   5
ATOM      5  O   UNL A   1      32.048  26.459  26.263  1.00  0.00    -0.462 OA
BRANCH   5   6
ATOM      6  C   UNL A   1      31.150  25.429  26.310  1.00  0.00     0.328 C 
ATOM      7  O   UNL A   1      29.953  25.538  26.543  1.00  0.00    -0.250 OA
BRANCH   6   8
ATOM      8  C   UNL A   1      31.860  24.078  26.155  1.00  0.00     0.192 C 
BRANCH   8   9
ATOM      9  C   UNL A   1      33.385  24.293  26.104  1.00  0.00     0.040 C 
BRANCH   9  10
ATOM     10  C   UNL A   1      34.296  23.056  26.285  1.00  0.00    -0.015 C 
ATOM     11  C   UNL A   1      35.787  23.411  26.175  1.00  0.00     0.007 C 
ATOM     12  C   UNL A   1      34.051  22.451  27.673  1.00  0.00     0.007 C 
ENDBRANCH   9  10
ENDBRANCH   8   9
BRANCH   8  13
ATOM     13  N   UNL A   1      31.265  23.287  25.056  1.00  0.00    -0.338 N 
ATOM     14  C   UNL A   1      31.714  23.110  23.773  1.00  0.00     0.255 C 
ATOM     15  H   UNL A   1      30.426  22.822  25.278  1.00  0.00     0.164 HD
ATOM     16  O   UNL A   1      31.580  22.041  23.190  1.00  0.00    -0.269 OA
BRANCH  14  17
ATOM     17  C   UNL A   1      32.160  24.265  23.007  1.00  0.00     0.082 A 
ATOM     18  C   UNL A   1      31.222  25.280  22.807  1.00  0.00     0.060 A 
ATOM     19  C   UNL A   1      33.434  24.398  22.497  1.00  0.00     0.164 A 
ATOM     20  C   UNL A   1      31.646  26.410  22.152  1.00  0.00     0.152 A 
ATOM     21  N   UNL A   1      33.815  25.527  21.867  1.00  0.00    -0.136 NA
ATOM     22  Cl  UNL A   1      34.677  23.233  22.676  1.00  0.00    -0.059 Cl
ATOM     23  Cl  UNL A   1      30.606  27.740  21.894  1.00  0.00    -0.060 Cl
ATOM     24  N   UNL A   1      32.910  26.553  21.701  1.00  0.00    -0.137 NA
ENDBRANCH  14  17
ENDBRANCH   8  13
ENDBRANCH   6   8
ENDBRANCH   5   6
ENDBRANCH   4   5
ENDBRANCH   3   4
ENDBRANCH   2   3
ENDBRANCH   1   2
BRANCH   1  25
ATOM     25  C   UNL A   1      32.795  30.965  27.120  1.00  0.00     0.261 C 
BRANCH  25  26
ATOM     26  O   UNL A   1      34.199  30.651  27.035  1.00  0.00    -0.460 OA
BRANCH  26  27
ATOM     27  C   UNL A   1      34.578  29.565  27.750  1.00  0.00     0.338 C 
ATOM     28  O   UNL A   1      33.944  28.530  27.911  1.00  0.00    -0.246 OA
BRANCH  27  29
ATOM     29  C   UNL A   1      35.973  29.702  28.197  1.00  0.00     0.060 A 
ATOM     30  C   UNL A   1      36.949  29.952  27.223  1.00  0.00     0.016 A 
ATOM     31  C   UNL A   1      36.334  29.428  29.517  1.00  0.00     0.016 A 
ATOM     32  C   UNL A   1      38.299  29.867  27.553  1.00  0.00     0.010 A 
ATOM     33  C   UNL A   1      37.690  29.326  29.843  1.00  0.00     0.010 A 
ATOM     34  C   UNL A   1      38.674  29.498  28.851  1.00  0.00    -0.014 A 
BRANCH  34  35
ATOM     35  C   UNL A   1      40.073  29.088  29.114  1.00  0.00     0.031 A 
ATOM     36  C   UNL A   1      41.004  30.079  29.762  1.00  0.00     0.074 A 
ATOM     37  C   UNL A   1      40.500  27.849  28.815  1.00  0.00     0.049 A 
ATOM     38  N   UNL A   1      42.274  29.960  30.046  1.00  0.00    -0.248 NA
ATOM     39  C   UNL A   1      40.418  31.374  30.148  1.00  0.00     0.031 C 
ATOM     40  C   UNL A   1      39.674  26.785  28.247  1.00  0.00     0.029 A 
ATOM     41  N   UNL A   1      41.741  27.281  28.947  1.00  0.00    -0.354 N 
ATOM     42  C   UNL A   1      42.639  31.158  30.651  1.00  0.00     0.074 A 
ATOM     43  C   UNL A   1      41.464  32.002  30.666  1.00  0.00     0.031 C 
ATOM     44  C   UNL A   1      40.436  25.692  28.068  1.00  0.00     0.029 A 
ATOM     45  C   UNL A   1      41.808  25.991  28.479  1.00  0.00     0.049 A 
ATOM     46  H   UNL A   1      42.511  27.752  29.340  1.00  0.00     0.167 HD
ATOM     47  C   UNL A   1      43.843  31.518  31.154  1.00  0.00     0.037 A 
ATOM     48  C   UNL A   1      42.862  25.157  28.376  1.00  0.00     0.037 A 
ATOM     49  C   UNL A   1      45.014  30.683  31.117  1.00  0.00     0.049 A 
ATOM     50  C   UNL A   1      44.217  25.618  28.845  1.00  0.00     0.074 A 
ATOM     51  C   UNL A   1      46.287  30.964  31.580  1.00  0.00     0.029 A 
ATOM     52  N   UNL A   1      45.056  29.405  30.579  1.00  0.00    -0.354 N 
ATOM     53  N   UNL A   1      44.553  26.759  29.399  1.00  0.00    -0.248 NA
ATOM     54  C   UNL A   1      45.337  24.682  28.670  1.00  0.00     0.031 C 
ATOM     55  C   UNL A   1      47.109  29.870  31.286  1.00  0.00     0.029 A 
ATOM     56  C   UNL A   1      46.337  28.891  30.682  1.00  0.00     0.049 A 
ATOM     57  H   UNL A   1      44.288  28.933  30.183  1.00  0.00     0.167 HD
ATOM     58  C   UNL A   1      45.917  26.668  29.662  1.00  0.00     0.074 A 
ATOM     59  C   UNL A   1      46.341  25.357  29.211  1.00  0.00     0.031 C 
ATOM     60  C   UNL A   1      46.742  27.584  30.227  1.00  0.00     0.037 A 
BRANCH  47  61
ATOM     61  C   UNL A   1      43.957  32.883  31.771  1.00  0.00     0.058 A 
ATOM     62  C   UNL A   1      44.210  34.021  30.990  1.00  0.00     0.135 A 
ATOM     63  C   UNL A   1      43.774  33.062  33.152  1.00  0.00     0.135 A 
ATOM     64  F   UNL A   1      44.413  33.903  29.669  1.00  0.00    -0.206 F 
ATOM     65  C   UNL A   1      44.292  35.288  31.558  1.00  0.00     0.059 A 
ATOM     66  C   UNL A   1      43.831  34.322  33.739  1.00  0.00     0.059 A 
ATOM     67  F   UNL A   1      43.537  32.004  33.944  1.00  0.00    -0.206 F 
ATOM     68  C   UNL A   1      44.100  35.430  32.934  1.00  0.00     0.060 A 
BRANCH  68  69
ATOM     69  S   UNL A   1      44.196  37.083  33.652  1.00  0.00     0.124 S 
ATOM     70  O   UNL A   1      45.058  36.849  34.808  1.00  0.00    -0.237 OA
ATOM     71  O   UNL A   1      44.788  37.860  32.568  1.00  0.00    -0.237 OA
ATOM     72  O   UNL A   1      42.806  37.401  33.963  1.00  0.00    -0.744 OA
ENDBRANCH  68  69
ENDBRANCH  47  61
BRANCH  48  73
ATOM     73  C   UNL A   1      42.677  23.801  27.798  1.00  0.00     0.058 A 
ATOM     74  C   UNL A   1      42.724  23.596  26.411  1.00  0.00     0.135 A 
ATOM     75  C   UNL A   1      42.466  22.682  28.619  1.00  0.00     0.135 A 
ATOM     76  F   UNL A   1      42.909  24.638  25.586  1.00  0.00    -0.206 F 
ATOM     77  C   UNL A   1      42.567  22.331  25.857  1.00  0.00     0.059 A 
ATOM     78  C   UNL A   1      42.329  21.402  28.089  1.00  0.00     0.059 A 
ATOM     79  F   UNL A   1      42.421  22.825  29.952  1.00  0.00    -0.206 F 
ATOM     80  C   UNL A   1      42.377  21.238  26.705  1.00  0.00     0.060 A 
BRANCH  80  81
ATOM     81  S   UNL A   1      42.244  19.591  25.976  1.00  0.00     0.124 S 
ATOM     82  O   UNL A   1      40.811  19.491  25.731  1.00  0.00    -0.237 OA
ATOM     83  O   UNL A   1      43.090  19.714  24.793  1.00  0.00    -0.237 OA
ATOM     84  O   UNL A   1      42.769  18.718  27.023  1.00  0.00    -0.744 OA
ENDBRANCH  80  81
ENDBRANCH  48  73
BRANCH  60  85
ATOM     85  C   UNL A   1      48.183  27.199  30.415  1.00  0.00     0.058 A 
ATOM     86  C   UNL A   1      49.146  27.445  29.425  1.00  0.00     0.135 A 
ATOM     87  C   UNL A   1      48.616  26.632  31.625  1.00  0.00     0.135 A 
ATOM     88  F   UNL A   1      48.783  27.980  28.248  1.00  0.00    -0.206 F 
ATOM     89  C   UNL A   1      50.485  27.125  29.620  1.00  0.00     0.059 A 
ATOM     90  C   UNL A   1      49.954  26.327  31.852  1.00  0.00     0.059 A 
ATOM     91  F   UNL A   1      47.736  26.387  32.610  1.00  0.00    -0.206 F 
ATOM     92  C   UNL A   1      50.880  26.568  30.838  1.00  0.00     0.060 A 
BRANCH  92  93
ATOM     93  S   UNL A   1      52.628  26.188  31.089  1.00  0.00     0.124 S 
ATOM     94  O   UNL A   1      53.070  27.342  31.865  1.00  0.00    -0.237 OA
ATOM     95  O   UNL A   1      52.572  24.922  31.812  1.00  0.00    -0.237 OA
ATOM     96  O   UNL A   1      53.157  26.105  29.731  1.00  0.00    -0.744 OA
ENDBRANCH  92  93
ENDBRANCH  60  85
ENDBRANCH  34  35
ENDBRANCH  27  29
ENDBRANCH  26  27
ENDBRANCH  25  26
ENDBRANCH   1  25
TORSDOF 21
ENDMDL
