MODEL 1
REMARK VINA RESULT:     -11.6      0.000      0.000
REMARK SMILES O=C(OCCOCCOC(=O)[C@H]1CC2=c3ccccc3=N[C@H]2[C@H](c2ccccc2F)[NH2+]1)c1ccc(-c2c3nc(c(-c4c(F)cc(S(=O)(=O)[O-])cc4F)c4ccc([nH]4)c(-c4c(F)cc(S(=O)(=O)[O-])cc4F)c4nc(c(-c5c(F)cc(S(=O)(=O)[O-])cc5F)c5ccc2[nH]5)C=C4)C=C3)cc1
REMARK SMILES IDX 5 1 4 2 3 3 2 4 1 5 32 6 33 7 97 8 34 9 96 10 35 11 36 12
REMARK SMILES IDX 37 13 90 14 38 15 95 16 89 17 91 18 39 19 94 20 88 21 87 22
REMARK SMILES IDX 40 24 74 25 53 26 73 27 54 28 57 29 72 30 92 31 55 32 56 33
REMARK SMILES IDX 71 35 93 36 58 37 41 38 42 39 51 40 43 41 44 42 50 43 52 44
REMARK SMILES IDX 45 45 46 46 47 47 48 48 49 49 75 50 76 51 85 52 77 53 78 54
REMARK SMILES IDX 84 55 86 56 79 57 80 58 81 59 82 60 83 61 59 62 60 63 69 64
REMARK SMILES IDX 61 65 62 66 68 67 70 68 63 69 64 70 65 71 66 72 67 73 6 74
REMARK SMILES IDX 7 75 8 76 9 77 10 78 11 79 12 80 13 81 31 82 14 83 23 84
REMARK SMILES IDX 15 87 22 88 16 89 20 90 21 91 17 92 19 93 18 94 24 95 25 96
REMARK SMILES IDX 29 97 26 98 28 99 30 100 27 101
REMARK H PARENT 91 23 57 34 31 85 31 86
REMARK Flexibility Score: inf
ROOT
ATOM      1  C   UNL A   1      32.118  27.992  27.167  1.00  0.00     0.202 C 
ENDROOT
BRANCH   1   2
ATOM      2  C   UNL A   1      33.626  28.313  27.049  1.00  0.00     0.261 C 
BRANCH   2   3
ATOM      3  O   UNL A   1      33.994  29.645  26.678  1.00  0.00    -0.460 OA
BRANCH   3   4
ATOM      4  C   UNL A   1      34.540  30.550  27.540  1.00  0.00     0.338 C 
ATOM      5  O   UNL A   1      34.142  31.710  27.551  1.00  0.00    -0.246 OA
BRANCH   4   6
ATOM      6  C   UNL A   1      35.817  30.194  28.218  1.00  0.00     0.060 A 
ATOM      7  C   UNL A   1      36.996  30.251  27.454  1.00  0.00     0.016 A 
ATOM      8  C   UNL A   1      35.887  29.748  29.537  1.00  0.00     0.016 A 
ATOM      9  C   UNL A   1      38.204  29.792  27.988  1.00  0.00     0.010 A 
ATOM     10  C   UNL A   1      37.052  29.182  30.029  1.00  0.00     0.010 A 
ATOM     11  C   UNL A   1      38.223  29.232  29.271  1.00  0.00    -0.014 A 
BRANCH  11  12
ATOM     12  C   UNL A   1      39.473  28.976  30.001  1.00  0.00     0.031 A 
ATOM     13  C   UNL A   1      39.962  29.879  31.085  1.00  0.00     0.074 A 
ATOM     14  C   UNL A   1      40.239  27.992  29.491  1.00  0.00     0.049 A 
ATOM     15  N   UNL A   1      41.034  29.750  31.819  1.00  0.00    -0.248 NA
ATOM     16  C   UNL A   1      39.171  31.085  31.376  1.00  0.00     0.031 C 
ATOM     17  C   UNL A   1      39.870  27.164  28.333  1.00  0.00     0.029 A 
ATOM     18  N   UNL A   1      41.487  27.555  29.825  1.00  0.00    -0.354 N 
ATOM     19  C   UNL A   1      41.029  30.828  32.694  1.00  0.00     0.074 A 
ATOM     20  C   UNL A   1      39.877  31.638  32.359  1.00  0.00     0.031 C 
ATOM     21  C   UNL A   1      40.884  26.342  28.038  1.00  0.00     0.029 A 
ATOM     22  C   UNL A   1      41.951  26.557  29.004  1.00  0.00     0.049 A 
ATOM     23  H   UNL A   1      42.003  27.919  30.580  1.00  0.00     0.167 HD
ATOM     24  C   UNL A   1      41.905  31.080  33.694  1.00  0.00     0.037 A 
ATOM     25  C   UNL A   1      43.102  25.869  29.047  1.00  0.00     0.037 A 
ATOM     26  C   UNL A   1      43.063  30.258  33.950  1.00  0.00     0.049 A 
ATOM     27  C   UNL A   1      44.040  26.147  30.183  1.00  0.00     0.074 A 
ATOM     28  C   UNL A   1      43.977  30.353  34.984  1.00  0.00     0.029 A 
ATOM     29  N   UNL A   1      43.477  29.201  33.148  1.00  0.00    -0.354 N 
ATOM     30  N   UNL A   1      43.933  27.055  31.123  1.00  0.00    -0.248 NA
ATOM     31  C   UNL A   1      45.225  25.293  30.292  1.00  0.00     0.031 C 
ATOM     32  C   UNL A   1      44.970  29.393  34.777  1.00  0.00     0.029 A 
ATOM     33  C   UNL A   1      44.647  28.656  33.648  1.00  0.00     0.049 A 
ATOM     34  H   UNL A   1      43.008  28.887  32.342  1.00  0.00     0.167 HD
ATOM     35  C   UNL A   1      45.021  26.861  31.960  1.00  0.00     0.074 A 
ATOM     36  C   UNL A   1      45.770  25.745  31.414  1.00  0.00     0.031 C 
ATOM     37  C   UNL A   1      45.364  27.539  33.082  1.00  0.00     0.037 A 
BRANCH  24  38
ATOM     38  C   UNL A   1      41.642  32.234  34.624  1.00  0.00     0.058 A 
ATOM     39  C   UNL A   1      42.134  33.517  34.334  1.00  0.00     0.135 A 
ATOM     40  C   UNL A   1      40.766  32.105  35.717  1.00  0.00     0.135 A 
ATOM     41  F   UNL A   1      42.979  33.701  33.306  1.00  0.00    -0.206 F 
ATOM     42  C   UNL A   1      41.761  34.629  35.082  1.00  0.00     0.059 A 
ATOM     43  C   UNL A   1      40.361  33.208  36.466  1.00  0.00     0.059 A 
ATOM     44  F   UNL A   1      40.264  30.904  36.041  1.00  0.00    -0.206 F 
ATOM     45  C   UNL A   1      40.860  34.468  36.136  1.00  0.00     0.060 A 
BRANCH  45  46
ATOM     46  S   UNL A   1      40.324  35.941  37.035  1.00  0.00     0.124 S 
ATOM     47  O   UNL A   1      39.318  35.386  37.936  1.00  0.00    -0.237 OA
ATOM     48  O   UNL A   1      41.562  36.383  37.668  1.00  0.00    -0.237 OA
ATOM     49  O   UNL A   1      39.810  36.815  35.986  1.00  0.00    -0.744 OA
ENDBRANCH  45  46
ENDBRANCH  24  38
BRANCH  25  50
ATOM     50  C   UNL A   1      43.339  24.789  28.060  1.00  0.00     0.058 A 
ATOM     51  C   UNL A   1      44.032  25.055  26.871  1.00  0.00     0.135 A 
ATOM     52  C   UNL A   1      42.963  23.462  28.320  1.00  0.00     0.135 A 
ATOM     53  F   UNL A   1      44.434  26.304  26.594  1.00  0.00    -0.206 F 
ATOM     54  C   UNL A   1      44.320  24.048  25.958  1.00  0.00     0.059 A 
ATOM     55  C   UNL A   1      43.260  22.433  27.432  1.00  0.00     0.059 A 
ATOM     56  F   UNL A   1      42.342  23.151  29.469  1.00  0.00    -0.206 F 
ATOM     57  C   UNL A   1      43.928  22.740  26.247  1.00  0.00     0.060 A 
BRANCH  57  58
ATOM     58  S   UNL A   1      44.329  21.442  25.059  1.00  0.00     0.124 S 
ATOM     59  O   UNL A   1      43.275  20.469  25.321  1.00  0.00    -0.237 OA
ATOM     60  O   UNL A   1      44.241  22.154  23.788  1.00  0.00    -0.237 OA
ATOM     61  O   UNL A   1      45.676  21.033  25.448  1.00  0.00    -0.744 OA
ENDBRANCH  57  58
ENDBRANCH  25  50
BRANCH  37  62
ATOM     62  C   UNL A   1      46.600  27.092  33.804  1.00  0.00     0.058 A 
ATOM     63  C   UNL A   1      46.553  26.075  34.766  1.00  0.00     0.135 A 
ATOM     64  C   UNL A   1      47.856  27.607  33.442  1.00  0.00     0.135 A 
ATOM     65  F   UNL A   1      45.374  25.564  35.155  1.00  0.00    -0.206 F 
ATOM     66  C   UNL A   1      47.713  25.573  35.343  1.00  0.00     0.059 A 
ATOM     67  C   UNL A   1      49.030  27.100  33.985  1.00  0.00     0.059 A 
ATOM     68  F   UNL A   1      47.949  28.580  32.522  1.00  0.00    -0.206 F 
ATOM     69  C   UNL A   1      48.948  26.081  34.933  1.00  0.00     0.060 A 
BRANCH  69  70
ATOM     70  S   UNL A   1      50.446  25.348  35.621  1.00  0.00     0.124 S 
ATOM     71  O   UNL A   1      50.558  24.120  34.841  1.00  0.00    -0.237 OA
ATOM     72  O   UNL A   1      51.447  26.371  35.339  1.00  0.00    -0.237 OA
ATOM     73  O   UNL A   1      50.121  25.167  37.032  1.00  0.00    -0.744 OA
ENDBRANCH  69  70
ENDBRANCH  37  62
ENDBRANCH  11  12
ENDBRANCH   4   6
ENDBRANCH   3   4
ENDBRANCH   2   3
ENDBRANCH   1   2
BRANCH   1  74
ATOM     74  O   UNL A   1      31.598  26.709  26.852  1.00  0.00    -0.374 OA
BRANCH  74  75
ATOM     75  C   UNL A   1      30.320  26.573  26.232  1.00  0.00     0.202 C 
BRANCH  75  76
ATOM     76  C   UNL A   1      29.769  25.163  26.051  1.00  0.00     0.261 C 
BRANCH  76  77
ATOM     77  O   UNL A   1      30.576  24.225  26.769  1.00  0.00    -0.459 OA
BRANCH  77  78
ATOM     78  C   UNL A   1      30.995  23.173  26.021  1.00  0.00     0.365 C 
ATOM     79  O   UNL A   1      30.433  22.083  25.974  1.00  0.00    -0.245 OA
BRANCH  78  80
ATOM     80  C   UNL A   1      32.223  23.523  25.170  1.00  0.00     0.298 C 
ATOM     81  C   UNL A   1      31.962  23.928  23.695  1.00  0.00     0.111 C 
ATOM     82  N   UNL A   1      33.089  24.452  25.947  1.00  0.00    -0.326 N 
ATOM     83  C   UNL A   1      32.565  25.248  23.418  1.00  0.00    -0.024 C 
ATOM     84  C   UNL A   1      34.339  24.773  25.221  1.00  0.00     0.246 C 
ATOM     85  H   UNL A   1      33.328  24.014  26.837  1.00  0.00     0.347 HD
ATOM     86  H   UNL A   1      32.574  25.320  26.094  1.00  0.00     0.347 HD
ATOM     87  C   UNL A   1      31.948  26.356  23.034  1.00  0.00     0.002 A 
ATOM     88  C   UNL A   1      33.982  25.495  23.854  1.00  0.00     0.196 C 
ATOM     89  C   UNL A   1      30.634  26.666  22.576  1.00  0.00     0.010 A 
ATOM     90  C   UNL A   1      32.922  27.384  23.428  1.00  0.00     0.066 A 
ATOM     91  N   UNL A   1      34.054  26.991  23.940  1.00  0.00    -0.270 NA
ATOM     92  C   UNL A   1      30.290  27.956  22.451  1.00  0.00     0.001 A 
ATOM     93  C   UNL A   1      32.461  28.783  23.269  1.00  0.00     0.028 A 
ATOM     94  C   UNL A   1      31.218  29.018  22.807  1.00  0.00     0.002 A 
BRANCH  84  95
ATOM     95  C   UNL A   1      35.291  23.566  25.069  1.00  0.00     0.048 A 
ATOM     96  C   UNL A   1      36.100  23.461  23.923  1.00  0.00     0.013 A 
ATOM     97  C   UNL A   1      35.450  22.548  26.031  1.00  0.00     0.132 A 
ATOM     98  C   UNL A   1      36.905  22.335  23.695  1.00  0.00     0.001 A 
ATOM     99  C   UNL A   1      36.209  21.404  25.789  1.00  0.00     0.040 A 
ATOM    100  F   UNL A   1      34.861  22.614  27.232  1.00  0.00    -0.206 F 
ATOM    101  C   UNL A   1      36.928  21.287  24.610  1.00  0.00     0.003 A 
ENDBRANCH  84  95
ENDBRANCH  78  80
ENDBRANCH  77  78
ENDBRANCH  76  77
ENDBRANCH  75  76
ENDBRANCH  74  75
ENDBRANCH   1  74
TORSDOF 18
ENDMDL
MODEL 2
REMARK VINA RESULT:     -11.4      4.883      6.748
REMARK SMILES O=C(OCCOCCOC(=O)[C@H]1CC2=c3ccccc3=N[C@H]2[C@H](c2ccccc2F)[NH2+]1)c1ccc(-c2c3nc(c(-c4c(F)cc(S(=O)(=O)[O-])cc4F)c4ccc([nH]4)c(-c4c(F)cc(S(=O)(=O)[O-])cc4F)c4nc(c(-c5c(F)cc(S(=O)(=O)[O-])cc5F)c5ccc2[nH]5)C=C4)C=C3)cc1
REMARK SMILES IDX 5 1 4 2 3 3 2 4 1 5 32 6 33 7 97 8 34 9 96 10 35 11 36 12
REMARK SMILES IDX 37 13 90 14 38 15 95 16 89 17 91 18 39 19 94 20 88 21 87 22
REMARK SMILES IDX 40 24 74 25 53 26 73 27 54 28 57 29 72 30 92 31 55 32 56 33
REMARK SMILES IDX 71 35 93 36 58 37 41 38 42 39 51 40 43 41 44 42 50 43 52 44
REMARK SMILES IDX 45 45 46 46 47 47 48 48 49 49 75 50 76 51 85 52 77 53 78 54
REMARK SMILES IDX 84 55 86 56 79 57 80 58 81 59 82 60 83 61 59 62 60 63 69 64
REMARK SMILES IDX 61 65 62 66 68 67 70 68 63 69 64 70 65 71 66 72 67 73 6 74
REMARK SMILES IDX 7 75 8 76 9 77 10 78 11 79 12 80 13 81 31 82 14 83 23 84
REMARK SMILES IDX 15 87 22 88 16 89 20 90 21 91 17 92 19 93 18 94 24 95 25 96
REMARK SMILES IDX 29 97 26 98 28 99 30 100 27 101
REMARK H PARENT 91 23 57 34 31 85 31 86
REMARK Flexibility Score: inf
ROOT
ATOM      1  C   UNL A   1      34.799  31.921  27.818  1.00  0.00     0.202 C 
ENDROOT
BRANCH   1   2
ATOM      2  C   UNL A   1      35.449  31.501  29.156  1.00  0.00     0.261 C 
BRANCH   2   3
ATOM      3  O   UNL A   1      35.767  30.118  29.335  1.00  0.00    -0.460 OA
BRANCH   3   4
ATOM      4  C   UNL A   1      36.634  29.654  30.280  1.00  0.00     0.338 C 
ATOM      5  O   UNL A   1      36.330  29.689  31.468  1.00  0.00    -0.246 OA
BRANCH   4   6
ATOM      6  C   UNL A   1      38.049  29.414  29.880  1.00  0.00     0.060 A 
ATOM      7  C   UNL A   1      39.004  29.310  30.905  1.00  0.00     0.016 A 
ATOM      8  C   UNL A   1      38.471  29.358  28.553  1.00  0.00     0.016 A 
ATOM      9  C   UNL A   1      40.365  29.231  30.594  1.00  0.00     0.010 A 
ATOM     10  C   UNL A   1      39.820  29.401  28.240  1.00  0.00     0.010 A 
ATOM     11  C   UNL A   1      40.773  29.303  29.256  1.00  0.00    -0.014 A 
BRANCH  11  12
ATOM     12  C   UNL A   1      42.137  28.963  28.828  1.00  0.00     0.031 A 
ATOM     13  C   UNL A   1      43.189  30.003  28.622  1.00  0.00     0.074 A 
ATOM     14  C   UNL A   1      42.312  27.684  28.444  1.00  0.00     0.049 A 
ATOM     15  N   UNL A   1      44.434  29.830  28.270  1.00  0.00    -0.248 NA
ATOM     16  C   UNL A   1      42.804  31.409  28.814  1.00  0.00     0.031 C 
ATOM     17  C   UNL A   1      41.267  26.651  28.490  1.00  0.00     0.029 A 
ATOM     18  N   UNL A   1      43.384  27.045  27.895  1.00  0.00    -0.354 N 
ATOM     19  C   UNL A   1      45.002  31.096  28.241  1.00  0.00     0.074 A 
ATOM     20  C   UNL A   1      43.948  32.038  28.553  1.00  0.00     0.031 C 
ATOM     21  C   UNL A   1      41.745  25.517  27.962  1.00  0.00     0.029 A 
ATOM     22  C   UNL A   1      43.132  25.734  27.579  1.00  0.00     0.049 A 
ATOM     23  H   UNL A   1      44.253  27.482  27.741  1.00  0.00     0.167 HD
ATOM     24  C   UNL A   1      46.296  31.414  27.999  1.00  0.00     0.037 A 
ATOM     25  C   UNL A   1      43.943  24.797  27.062  1.00  0.00     0.037 A 
ATOM     26  C   UNL A   1      47.293  30.432  27.647  1.00  0.00     0.049 A 
ATOM     27  C   UNL A   1      45.378  25.167  26.833  1.00  0.00     0.074 A 
ATOM     28  C   UNL A   1      48.652  30.611  27.464  1.00  0.00     0.029 A 
ATOM     29  N   UNL A   1      47.031  29.089  27.404  1.00  0.00    -0.354 N 
ATOM     30  N   UNL A   1      45.952  26.336  26.988  1.00  0.00    -0.248 NA
ATOM     31  C   UNL A   1      46.281  24.097  26.401  1.00  0.00     0.031 C 
ATOM     32  C   UNL A   1      49.201  29.392  27.058  1.00  0.00     0.029 A 
ATOM     33  C   UNL A   1      48.196  28.435  27.045  1.00  0.00     0.049 A 
ATOM     34  H   UNL A   1      46.145  28.665  27.474  1.00  0.00     0.167 HD
ATOM     35  C   UNL A   1      47.294  26.137  26.706  1.00  0.00     0.074 A 
ATOM     36  C   UNL A   1      47.445  24.733  26.375  1.00  0.00     0.031 C 
ATOM     37  C   UNL A   1      48.311  27.033  26.727  1.00  0.00     0.037 A 
BRANCH  24  38
ATOM     38  C   UNL A   1      46.739  32.843  28.154  1.00  0.00     0.058 A 
ATOM     39  C   UNL A   1      46.621  33.752  27.090  1.00  0.00     0.135 A 
ATOM     40  C   UNL A   1      47.130  33.355  29.405  1.00  0.00     0.135 A 
ATOM     41  F   UNL A   1      46.258  33.322  25.871  1.00  0.00    -0.206 F 
ATOM     42  C   UNL A   1      46.860  35.112  27.259  1.00  0.00     0.059 A 
ATOM     43  C   UNL A   1      47.354  34.716  29.603  1.00  0.00     0.059 A 
ATOM     44  F   UNL A   1      47.259  32.534  30.459  1.00  0.00    -0.206 F 
ATOM     45  C   UNL A   1      47.210  35.588  28.525  1.00  0.00     0.060 A 
BRANCH  45  46
ATOM     46  S   UNL A   1      47.429  37.368  28.738  1.00  0.00     0.124 S 
ATOM     47  O   UNL A   1      47.122  37.536  30.155  1.00  0.00    -0.237 OA
ATOM     48  O   UNL A   1      48.829  37.553  28.369  1.00  0.00    -0.237 OA
ATOM     49  O   UNL A   1      46.458  37.947  27.815  1.00  0.00    -0.744 OA
ENDBRANCH  45  46
ENDBRANCH  24  38
BRANCH  25  50
ATOM     50  C   UNL A   1      43.431  23.421  26.865  1.00  0.00     0.058 A 
ATOM     51  C   UNL A   1      43.153  22.947  25.576  1.00  0.00     0.135 A 
ATOM     52  C   UNL A   1      43.294  22.527  27.939  1.00  0.00     0.135 A 
ATOM     53  F   UNL A   1      43.296  23.759  24.518  1.00  0.00    -0.206 F 
ATOM     54  C   UNL A   1      42.729  21.642  25.357  1.00  0.00     0.059 A 
ATOM     55  C   UNL A   1      42.894  21.209  27.743  1.00  0.00     0.059 A 
ATOM     56  F   UNL A   1      43.596  22.922  29.186  1.00  0.00    -0.206 F 
ATOM     57  C   UNL A   1      42.601  20.781  26.449  1.00  0.00     0.060 A 
BRANCH  57  58
ATOM     58  S   UNL A   1      42.070  19.083  26.144  1.00  0.00     0.124 S 
ATOM     59  O   UNL A   1      42.983  18.677  25.082  1.00  0.00    -0.237 OA
ATOM     60  O   UNL A   1      42.284  18.458  27.445  1.00  0.00    -0.237 OA
ATOM     61  O   UNL A   1      40.672  19.232  25.751  1.00  0.00    -0.744 OA
ENDBRANCH  57  58
ENDBRANCH  25  50
BRANCH  37  62
ATOM     62  C   UNL A   1      49.681  26.525  26.390  1.00  0.00     0.058 A 
ATOM     63  C   UNL A   1      50.222  26.683  25.107  1.00  0.00     0.135 A 
ATOM     64  C   UNL A   1      50.501  25.983  27.394  1.00  0.00     0.135 A 
ATOM     65  F   UNL A   1      49.470  27.182  24.112  1.00  0.00    -0.206 F 
ATOM     66  C   UNL A   1      51.535  26.328  24.828  1.00  0.00     0.059 A 
ATOM     67  C   UNL A   1      51.826  25.648  27.144  1.00  0.00     0.059 A 
ATOM     68  F   UNL A   1      50.027  25.817  28.638  1.00  0.00    -0.206 F 
ATOM     69  C   UNL A   1      52.335  25.827  25.859  1.00  0.00     0.060 A 
BRANCH  69  70
ATOM     70  S   UNL A   1      54.066  25.465  25.500  1.00  0.00     0.124 S 
ATOM     71  O   UNL A   1      53.987  24.087  25.029  1.00  0.00    -0.237 OA
ATOM     72  O   UNL A   1      54.385  26.464  24.485  1.00  0.00    -0.237 OA
ATOM     73  O   UNL A   1      54.728  25.652  26.787  1.00  0.00    -0.744 OA
ENDBRANCH  69  70
ENDBRANCH  37  62
ENDBRANCH  11  12
ENDBRANCH   4   6
ENDBRANCH   3   4
ENDBRANCH   2   3
ENDBRANCH   1   2
BRANCH   1  74
ATOM     74  O   UNL A   1      33.391  32.034  27.672  1.00  0.00    -0.374 OA
BRANCH  74  75
ATOM     75  C   UNL A   1      32.614  30.925  27.221  1.00  0.00     0.202 C 
BRANCH  75  76
ATOM     76  C   UNL A   1      33.299  29.905  26.318  1.00  0.00     0.261 C 
BRANCH  76  77
ATOM     77  O   UNL A   1      33.275  28.613  26.931  1.00  0.00    -0.459 OA
BRANCH  77  78
ATOM     78  C   UNL A   1      32.097  27.955  26.786  1.00  0.00     0.365 C 
ATOM     79  O   UNL A   1      31.351  27.649  27.711  1.00  0.00    -0.245 OA
BRANCH  78  80
ATOM     80  C   UNL A   1      31.757  27.700  25.311  1.00  0.00     0.298 C 
ATOM     81  C   UNL A   1      32.939  27.350  24.368  1.00  0.00     0.111 C 
ATOM     82  N   UNL A   1      30.589  26.779  25.247  1.00  0.00    -0.326 N 
ATOM     83  C   UNL A   1      32.672  26.073  23.676  1.00  0.00    -0.024 C 
ATOM     84  C   UNL A   1      30.149  26.548  23.853  1.00  0.00     0.246 C 
ATOM     85  H   UNL A   1      29.817  27.187  25.774  1.00  0.00     0.347 HD
ATOM     86  H   UNL A   1      30.869  25.882  25.645  1.00  0.00     0.347 HD
ATOM     87  C   UNL A   1      33.383  24.956  23.734  1.00  0.00     0.002 A 
ATOM     88  C   UNL A   1      31.328  25.873  23.034  1.00  0.00     0.196 C 
ATOM     89  C   UNL A   1      34.663  24.608  24.255  1.00  0.00     0.010 A 
ATOM     90  C   UNL A   1      32.392  23.958  23.308  1.00  0.00     0.066 A 
ATOM     91  N   UNL A   1      31.210  24.379  22.953  1.00  0.00    -0.270 NA
ATOM     92  C   UNL A   1      34.996  23.310  24.309  1.00  0.00     0.001 A 
ATOM     93  C   UNL A   1      32.835  22.547  23.409  1.00  0.00     0.028 A 
ATOM     94  C   UNL A   1      34.065  22.277  23.884  1.00  0.00     0.002 A 
BRANCH  84  95
ATOM     95  C   UNL A   1      29.550  27.803  23.179  1.00  0.00     0.048 A 
ATOM     96  C   UNL A   1      30.368  28.617  22.376  1.00  0.00     0.013 A 
ATOM     97  C   UNL A   1      28.198  28.192  23.276  1.00  0.00     0.132 A 
ATOM     98  C   UNL A   1      29.895  29.818  21.827  1.00  0.00     0.001 A 
ATOM     99  C   UNL A   1      27.733  29.408  22.775  1.00  0.00     0.040 A 
ATOM    100  F   UNL A   1      27.282  27.420  23.876  1.00  0.00    -0.206 F 
ATOM    101  C   UNL A   1      28.587  30.234  22.060  1.00  0.00     0.003 A 
ENDBRANCH  84  95
ENDBRANCH  78  80
ENDBRANCH  77  78
ENDBRANCH  76  77
ENDBRANCH  75  76
ENDBRANCH  74  75
ENDBRANCH   1  74
TORSDOF 18
ENDMDL
MODEL 3
REMARK VINA RESULT:     -11.4      4.941      9.779
REMARK SMILES O=C(OCCOCCOC(=O)[C@H]1CC2=c3ccccc3=N[C@H]2[C@H](c2ccccc2F)[NH2+]1)c1ccc(-c2c3nc(c(-c4c(F)cc(S(=O)(=O)[O-])cc4F)c4ccc([nH]4)c(-c4c(F)cc(S(=O)(=O)[O-])cc4F)c4nc(c(-c5c(F)cc(S(=O)(=O)[O-])cc5F)c5ccc2[nH]5)C=C4)C=C3)cc1
REMARK SMILES IDX 5 1 4 2 3 3 2 4 1 5 32 6 33 7 97 8 34 9 96 10 35 11 36 12
REMARK SMILES IDX 37 13 90 14 38 15 95 16 89 17 91 18 39 19 94 20 88 21 87 22
REMARK SMILES IDX 40 24 74 25 53 26 73 27 54 28 57 29 72 30 92 31 55 32 56 33
REMARK SMILES IDX 71 35 93 36 58 37 41 38 42 39 51 40 43 41 44 42 50 43 52 44
REMARK SMILES IDX 45 45 46 46 47 47 48 48 49 49 75 50 76 51 85 52 77 53 78 54
REMARK SMILES IDX 84 55 86 56 79 57 80 58 81 59 82 60 83 61 59 62 60 63 69 64
REMARK SMILES IDX 61 65 62 66 68 67 70 68 63 69 64 70 65 71 66 72 67 73 6 74
REMARK SMILES IDX 7 75 8 76 9 77 10 78 11 79 12 80 13 81 31 82 14 83 23 84
REMARK SMILES IDX 15 87 22 88 16 89 20 90 21 91 17 92 19 93 18 94 24 95 25 96
REMARK SMILES IDX 29 97 26 98 28 99 30 100 27 101
REMARK H PARENT 91 23 57 34 31 85 31 86
REMARK Flexibility Score: inf
ROOT
ATOM      1  C   UNL A   1      34.583  32.691  28.790  1.00  0.00     0.202 C 
ENDROOT
BRANCH   1   2
ATOM      2  C   UNL A   1      36.061  32.322  29.052  1.00  0.00     0.261 C 
BRANCH   2   3
ATOM      3  O   UNL A   1      36.361  31.582  30.240  1.00  0.00    -0.460 OA
BRANCH   3   4
ATOM      4  C   UNL A   1      36.695  30.260  30.247  1.00  0.00     0.338 C 
ATOM      5  O   UNL A   1      36.016  29.454  30.875  1.00  0.00    -0.246 OA
BRANCH   4   6
ATOM      6  C   UNL A   1      38.050  29.874  29.763  1.00  0.00     0.060 A 
ATOM      7  C   UNL A   1      39.086  29.815  30.710  1.00  0.00     0.016 A 
ATOM      8  C   UNL A   1      38.346  29.639  28.421  1.00  0.00     0.016 A 
ATOM      9  C   UNL A   1      40.405  29.601  30.299  1.00  0.00     0.010 A 
ATOM     10  C   UNL A   1      39.661  29.548  27.995  1.00  0.00     0.010 A 
ATOM     11  C   UNL A   1      40.693  29.493  28.933  1.00  0.00    -0.014 A 
BRANCH  11  12
ATOM     12  C   UNL A   1      41.989  29.008  28.436  1.00  0.00     0.031 A 
ATOM     13  C   UNL A   1      42.238  27.567  28.134  1.00  0.00     0.074 A 
ATOM     14  C   UNL A   1      42.985  29.915  28.464  1.00  0.00     0.049 A 
ATOM     15  N   UNL A   1      43.326  27.018  27.669  1.00  0.00    -0.248 NA
ATOM     16  C   UNL A   1      41.147  26.617  28.400  1.00  0.00     0.031 C 
ATOM     17  C   UNL A   1      42.827  31.313  28.891  1.00  0.00     0.029 A 
ATOM     18  N   UNL A   1      44.316  29.801  28.192  1.00  0.00    -0.354 N 
ATOM     19  C   UNL A   1      43.045  25.665  27.538  1.00  0.00     0.074 A 
ATOM     20  C   UNL A   1      41.699  25.464  28.032  1.00  0.00     0.031 C 
ATOM     21  C   UNL A   1      44.022  31.915  28.879  1.00  0.00     0.029 A 
ATOM     22  C   UNL A   1      45.017  30.961  28.410  1.00  0.00     0.049 A 
ATOM     23  H   UNL A   1      44.734  28.969  27.872  1.00  0.00     0.167 HD
ATOM     24  C   UNL A   1      43.848  24.703  27.024  1.00  0.00     0.037 A 
ATOM     25  C   UNL A   1      46.317  31.234  28.222  1.00  0.00     0.037 A 
ATOM     26  C   UNL A   1      45.200  24.957  26.590  1.00  0.00     0.049 A 
ATOM     27  C   UNL A   1      47.175  30.161  27.623  1.00  0.00     0.074 A 
ATOM     28  C   UNL A   1      46.084  24.092  25.972  1.00  0.00     0.029 A 
ATOM     29  N   UNL A   1      45.870  26.164  26.751  1.00  0.00    -0.354 N 
ATOM     30  N   UNL A   1      46.847  28.926  27.328  1.00  0.00    -0.248 NA
ATOM     31  C   UNL A   1      48.558  30.519  27.296  1.00  0.00     0.031 C 
ATOM     32  C   UNL A   1      47.302  24.757  25.809  1.00  0.00     0.029 A 
ATOM     33  C   UNL A   1      47.163  26.058  26.270  1.00  0.00     0.049 A 
ATOM     34  H   UNL A   1      45.482  26.976  27.150  1.00  0.00     0.167 HD
ATOM     35  C   UNL A   1      47.973  28.365  26.746  1.00  0.00     0.074 A 
ATOM     36  C   UNL A   1      48.990  29.400  26.729  1.00  0.00     0.031 C 
ATOM     37  C   UNL A   1      48.149  27.111  26.263  1.00  0.00     0.037 A 
BRANCH  24  38
ATOM     38  C   UNL A   1      43.299  23.314  26.841  1.00  0.00     0.058 A 
ATOM     39  C   UNL A   1      43.059  22.799  25.557  1.00  0.00     0.135 A 
ATOM     40  C   UNL A   1      43.163  22.434  27.930  1.00  0.00     0.135 A 
ATOM     41  F   UNL A   1      43.167  23.594  24.479  1.00  0.00    -0.206 F 
ATOM     42  C   UNL A   1      42.719  21.465  25.355  1.00  0.00     0.059 A 
ATOM     43  C   UNL A   1      42.844  21.089  27.750  1.00  0.00     0.059 A 
ATOM     44  F   UNL A   1      43.380  22.869  29.180  1.00  0.00    -0.206 F 
ATOM     45  C   UNL A   1      42.630  20.613  26.457  1.00  0.00     0.060 A 
BRANCH  45  46
ATOM     46  S   UNL A   1      42.272  18.867  26.161  1.00  0.00     0.124 S 
ATOM     47  O   UNL A   1      40.871  18.919  25.753  1.00  0.00    -0.237 OA
ATOM     48  O   UNL A   1      43.224  18.532  25.106  1.00  0.00    -0.237 OA
ATOM     49  O   UNL A   1      42.524  18.240  27.454  1.00  0.00    -0.744 OA
ENDBRANCH  45  46
ENDBRANCH  24  38
BRANCH  25  50
ATOM     50  C   UNL A   1      46.817  32.604  28.486  1.00  0.00     0.058 A 
ATOM     51  C   UNL A   1      47.389  32.922  29.726  1.00  0.00     0.135 A 
ATOM     52  C   UNL A   1      46.819  33.591  27.488  1.00  0.00     0.135 A 
ATOM     53  F   UNL A   1      47.433  32.001  30.700  1.00  0.00    -0.206 F 
ATOM     54  C   UNL A   1      47.920  34.180  29.980  1.00  0.00     0.059 A 
ATOM     55  C   UNL A   1      47.366  34.850  27.711  1.00  0.00     0.059 A 
ATOM     56  F   UNL A   1      46.327  33.317  26.270  1.00  0.00    -0.206 F 
ATOM     57  C   UNL A   1      47.902  35.139  28.965  1.00  0.00     0.060 A 
BRANCH  57  58
ATOM     58  S   UNL A   1      48.615  36.761  29.305  1.00  0.00     0.124 S 
ATOM     59  O   UNL A   1      49.415  36.486  30.494  1.00  0.00    -0.237 OA
ATOM     60  O   UNL A   1      49.362  37.030  28.080  1.00  0.00    -0.237 OA
ATOM     61  O   UNL A   1      47.445  37.608  29.515  1.00  0.00    -0.744 OA
ENDBRANCH  57  58
ENDBRANCH  25  50
BRANCH  37  62
ATOM     62  C   UNL A   1      49.485  26.785  25.666  1.00  0.00     0.058 A 
ATOM     63  C   UNL A   1      49.810  27.164  24.357  1.00  0.00     0.135 A 
ATOM     64  C   UNL A   1      50.485  26.192  26.454  1.00  0.00     0.135 A 
ATOM     65  F   UNL A   1      48.881  27.720  23.562  1.00  0.00    -0.206 F 
ATOM     66  C   UNL A   1      51.088  26.975  23.847  1.00  0.00     0.059 A 
ATOM     67  C   UNL A   1      51.778  26.020  25.974  1.00  0.00     0.059 A 
ATOM     68  F   UNL A   1      50.220  25.816  27.714  1.00  0.00    -0.206 F 
ATOM     69  C   UNL A   1      52.070  26.417  24.670  1.00  0.00     0.060 A 
BRANCH  69  70
ATOM     70  S   UNL A   1      53.748  26.272  24.022  1.00  0.00     0.124 S 
ATOM     71  O   UNL A   1      54.315  27.567  24.381  1.00  0.00    -0.237 OA
ATOM     72  O   UNL A   1      54.265  25.126  24.763  1.00  0.00    -0.237 OA
ATOM     73  O   UNL A   1      53.544  26.049  22.594  1.00  0.00    -0.744 OA
ENDBRANCH  69  70
ENDBRANCH  37  62
ENDBRANCH  11  12
ENDBRANCH   4   6
ENDBRANCH   3   4
ENDBRANCH   2   3
ENDBRANCH   1   2
BRANCH   1  74
ATOM     74  O   UNL A   1      33.842  32.109  27.727  1.00  0.00    -0.374 OA
BRANCH  74  75
ATOM     75  C   UNL A   1      34.109  30.774  27.299  1.00  0.00     0.202 C 
BRANCH  75  76
ATOM     76  C   UNL A   1      32.938  29.959  26.760  1.00  0.00     0.261 C 
BRANCH  76  77
ATOM     77  O   UNL A   1      32.984  28.629  27.285  1.00  0.00    -0.459 OA
BRANCH  77  78
ATOM     78  C   UNL A   1      31.889  27.883  26.991  1.00  0.00     0.365 C 
ATOM     79  O   UNL A   1      31.088  27.463  27.820  1.00  0.00    -0.245 OA
BRANCH  78  80
ATOM     80  C   UNL A   1      31.716  27.682  25.479  1.00  0.00     0.298 C 
ATOM     81  C   UNL A   1      33.005  27.426  24.652  1.00  0.00     0.111 C 
ATOM     82  N   UNL A   1      30.606  26.716  25.253  1.00  0.00    -0.326 N 
ATOM     83  C   UNL A   1      32.871  26.172  23.883  1.00  0.00    -0.024 C 
ATOM     84  C   UNL A   1      30.324  26.532  23.812  1.00  0.00     0.246 C 
ATOM     85  H   UNL A   1      29.765  27.067  25.712  1.00  0.00     0.347 HD
ATOM     86  H   UNL A   1      30.884  25.815  25.641  1.00  0.00     0.347 HD
ATOM     87  C   UNL A   1      33.623  25.085  23.970  1.00  0.00     0.002 A 
ATOM     88  C   UNL A   1      31.612  25.946  23.095  1.00  0.00     0.196 C 
ATOM     89  C   UNL A   1      34.857  24.766  24.608  1.00  0.00     0.010 A 
ATOM     90  C   UNL A   1      32.730  24.067  23.400  1.00  0.00     0.066 A 
ATOM     91  N   UNL A   1      31.573  24.453  22.940  1.00  0.00    -0.270 NA
ATOM     92  C   UNL A   1      35.244  23.483  24.644  1.00  0.00     0.001 A 
ATOM     93  C   UNL A   1      33.225  22.673  23.488  1.00  0.00     0.028 A 
ATOM     94  C   UNL A   1      34.411  22.432  24.080  1.00  0.00     0.002 A 
BRANCH  84  95
ATOM     95  C   UNL A   1      29.740  27.791  23.132  1.00  0.00     0.048 A 
ATOM     96  C   UNL A   1      30.582  28.622  22.371  1.00  0.00     0.013 A 
ATOM     97  C   UNL A   1      28.383  28.168  23.181  1.00  0.00     0.132 A 
ATOM     98  C   UNL A   1      30.120  29.826  21.820  1.00  0.00     0.001 A 
ATOM     99  C   UNL A   1      27.927  29.386  22.678  1.00  0.00     0.040 A 
ATOM    100  F   UNL A   1      27.451  27.380  23.735  1.00  0.00    -0.206 F 
ATOM    101  C   UNL A   1      28.800  30.228  22.007  1.00  0.00     0.003 A 
ENDBRANCH  84  95
ENDBRANCH  78  80
ENDBRANCH  77  78
ENDBRANCH  76  77
ENDBRANCH  75  76
ENDBRANCH  74  75
ENDBRANCH   1  74
TORSDOF 18
ENDMDL
