MODEL 1
REMARK VINA RESULT:     -10.8      0.000      0.000
REMARK SMILES CCc1ccc(C[NH+]2CCC(Oc3ccccc3OC)(C(=O)OCCOCCOC(=O)c3ccc(-c4c5nc(c(-c6c(F)cc(S(=O)(=O)[O-])cc6F)c6ccc([nH]6)c(-c6c(F)cc(S(=O)(=O)[O-])cc6F)c6nc(c(-c7c(F)cc(S(=O)(=O)[O-])cc7F)c7ccc4[nH]7)C=C6)C=C5)cc3)CC2)nc1
REMARK SMILES IDX 26 1 25 2 24 3 23 4 21 5 22 6 11 7 8 8 9 9 99 10 10 12 98 13
REMARK SMILES IDX 7 14 6 15 3 16 4 17 101 18 5 19 100 20 2 21 1 22 12 23 13 24
REMARK SMILES IDX 14 25 18 26 15 27 17 28 16 29 19 30 20 31 27 32 28 33 29 34
REMARK SMILES IDX 30 35 31 36 32 37 33 38 97 39 34 40 96 41 35 42 36 43 37 44
REMARK SMILES IDX 90 45 38 46 95 47 89 48 91 49 39 50 94 51 88 52 87 53 40 55
REMARK SMILES IDX 74 56 53 57 73 58 54 59 57 60 72 61 92 62 55 63 56 64 71 66
REMARK SMILES IDX 93 67 58 68 41 69 42 70 51 71 43 72 44 73 50 74 52 75 45 76
REMARK SMILES IDX 46 77 47 78 48 79 49 80 75 81 76 82 85 83 77 84 78 85 84 86
REMARK SMILES IDX 86 87 79 88 80 89 81 90 82 91 83 92 59 93 60 94 69 95 61 96
REMARK SMILES IDX 62 97 68 98 70 99 63 100 64 101 65 102 66 103 67 104
REMARK H PARENT 8 11 91 54 57 65
REMARK Flexibility Score: inf
ROOT
ATOM      1  O   UNL A   1      39.459  22.918  26.125  1.00  0.00    -0.374 OA
ENDROOT
BRANCH   1   2
ATOM      2  C   UNL A   1      38.098  22.550  25.910  1.00  0.00     0.202 C 
BRANCH   2   3
ATOM      3  C   UNL A   1      37.009  23.585  26.207  1.00  0.00     0.261 C 
BRANCH   3   4
ATOM      4  O   UNL A   1      36.073  23.777  25.120  1.00  0.00    -0.460 OA
BRANCH   4   5
ATOM      5  C   UNL A   1      34.754  23.790  25.477  1.00  0.00     0.351 C 
ATOM      6  O   UNL A   1      34.321  23.176  26.452  1.00  0.00    -0.247 OA
BRANCH   5   7
ATOM      7  C   UNL A   1      33.834  24.513  24.472  1.00  0.00     0.216 C 
ATOM      8  N   UNL A   1      32.308  22.604  22.780  1.00  0.00    -0.330 N 
ATOM      9  C   UNL A   1      31.643  23.146  23.957  1.00  0.00     0.267 C 
ATOM     10  C   UNL A   1      33.765  22.622  22.828  1.00  0.00     0.267 C 
ATOM     11  H   UNL A   1      32.079  23.271  22.043  1.00  0.00     0.348 HD
ATOM     12  C   UNL A   1      32.318  24.334  24.658  1.00  0.00     0.122 C 
ATOM     13  C   UNL A   1      34.247  24.058  23.064  1.00  0.00     0.122 C 
BRANCH   8  14
ATOM     14  C   UNL A   1      31.755  21.298  22.340  1.00  0.00     0.319 C 
BRANCH  14  15
ATOM     15  C   UNL A   1      32.177  20.052  23.114  1.00  0.00     0.095 A 
ATOM     16  C   UNL A   1      33.129  17.804  24.447  1.00  0.00    -0.030 A 
ATOM     17  C   UNL A   1      32.882  18.988  25.153  1.00  0.00     0.007 A 
ATOM     18  C   UNL A   1      32.794  17.809  23.099  1.00  0.00     0.115 A 
ATOM     19  C   UNL A   1      32.413  20.121  24.487  1.00  0.00     0.030 A 
ATOM     20  N   UNL A   1      32.338  18.894  22.423  1.00  0.00    -0.255 NA
BRANCH  16  21
ATOM     21  C   UNL A   1      33.811  16.657  25.155  1.00  0.00     0.034 C 
ATOM     22  C   UNL A   1      32.975  15.409  25.416  1.00  0.00     0.009 C 
ENDBRANCH  16  21
ENDBRANCH  14  15
ENDBRANCH   8  14
BRANCH   7  23
ATOM     23  O   UNL A   1      34.282  25.853  24.846  1.00  0.00    -0.471 OA
BRANCH  23  24
ATOM     24  C   UNL A   1      33.347  26.820  25.052  1.00  0.00     0.162 A 
ATOM     25  C   UNL A   1      32.984  27.080  26.376  1.00  0.00     0.050 A 
ATOM     26  C   UNL A   1      32.659  27.443  24.004  1.00  0.00     0.160 A 
ATOM     27  C   UNL A   1      32.009  28.035  26.662  1.00  0.00     0.004 A 
ATOM     28  C   UNL A   1      31.715  28.429  24.298  1.00  0.00     0.050 A 
ATOM     29  C   UNL A   1      31.388  28.724  25.622  1.00  0.00     0.004 A 
BRANCH  26  30
ATOM     30  O   UNL A   1      32.907  27.245  22.671  1.00  0.00    -0.493 OA
ATOM     31  C   UNL A   1      31.821  26.668  21.947  1.00  0.00     0.278 C 
ENDBRANCH  26  30
ENDBRANCH  23  24
ENDBRANCH   7  23
ENDBRANCH   5   7
ENDBRANCH   4   5
ENDBRANCH   3   4
ENDBRANCH   2   3
ENDBRANCH   1   2
BRANCH   1  32
ATOM     32  C   UNL A   1      40.396  21.882  26.343  1.00  0.00     0.202 C 
BRANCH  32  33
ATOM     33  C   UNL A   1      41.870  22.256  26.487  1.00  0.00     0.261 C 
BRANCH  33  34
ATOM     34  O   UNL A   1      42.168  23.311  27.393  1.00  0.00    -0.460 OA
BRANCH  34  35
ATOM     35  C   UNL A   1      42.382  24.501  26.790  1.00  0.00     0.338 C 
ATOM     36  O   UNL A   1      42.785  24.712  25.655  1.00  0.00    -0.246 OA
BRANCH  35  37
ATOM     37  C   UNL A   1      41.909  25.557  27.684  1.00  0.00     0.060 A 
ATOM     38  C   UNL A   1      42.756  26.648  27.890  1.00  0.00     0.016 A 
ATOM     39  C   UNL A   1      40.683  25.448  28.344  1.00  0.00     0.016 A 
ATOM     40  C   UNL A   1      42.394  27.628  28.804  1.00  0.00     0.010 A 
ATOM     41  C   UNL A   1      40.323  26.433  29.263  1.00  0.00     0.010 A 
ATOM     42  C   UNL A   1      41.194  27.507  29.519  1.00  0.00    -0.014 A 
BRANCH  42  43
ATOM     43  C   UNL A   1      40.926  28.448  30.625  1.00  0.00     0.031 A 
ATOM     44  C   UNL A   1      41.770  28.370  31.865  1.00  0.00     0.074 A 
ATOM     45  C   UNL A   1      39.977  29.391  30.490  1.00  0.00     0.049 A 
ATOM     46  N   UNL A   1      41.744  29.126  32.931  1.00  0.00    -0.248 NA
ATOM     47  C   UNL A   1      42.780  27.299  31.908  1.00  0.00     0.031 C 
ATOM     48  C   UNL A   1      39.120  29.561  29.316  1.00  0.00     0.029 A 
ATOM     49  N   UNL A   1      39.582  30.386  31.343  1.00  0.00    -0.354 N 
ATOM     50  C   UNL A   1      42.734  28.627  33.769  1.00  0.00     0.074 A 
ATOM     51  C   UNL A   1      43.319  27.483  33.104  1.00  0.00     0.031 C 
ATOM     52  C   UNL A   1      38.297  30.603  29.525  1.00  0.00     0.029 A 
ATOM     53  C   UNL A   1      38.557  31.158  30.851  1.00  0.00     0.049 A 
ATOM     54  H   UNL A   1      39.993  30.534  32.226  1.00  0.00     0.167 HD
ATOM     55  C   UNL A   1      43.126  29.093  34.978  1.00  0.00     0.037 A 
ATOM     56  C   UNL A   1      37.904  32.192  31.415  1.00  0.00     0.037 A 
ATOM     57  C   UNL A   1      42.531  30.230  35.628  1.00  0.00     0.049 A 
ATOM     58  C   UNL A   1      38.329  32.664  32.779  1.00  0.00     0.074 A 
ATOM     59  C   UNL A   1      42.857  30.795  36.848  1.00  0.00     0.029 A 
ATOM     60  N   UNL A   1      41.478  30.972  35.112  1.00  0.00    -0.354 N 
ATOM     61  N   UNL A   1      39.289  32.205  33.548  1.00  0.00    -0.248 NA
ATOM     62  C   UNL A   1      37.591  33.799  33.350  1.00  0.00     0.031 C 
ATOM     63  C   UNL A   1      41.975  31.855  37.086  1.00  0.00     0.029 A 
ATOM     64  C   UNL A   1      41.127  31.978  35.997  1.00  0.00     0.049 A 
ATOM     65  H   UNL A   1      41.044  30.808  34.243  1.00  0.00     0.167 HD
ATOM     66  C   UNL A   1      39.284  33.007  34.683  1.00  0.00     0.074 A 
ATOM     67  C   UNL A   1      38.234  33.988  34.494  1.00  0.00     0.031 C 
ATOM     68  C   UNL A   1      40.077  32.942  35.782  1.00  0.00     0.037 A 
BRANCH  55  69
ATOM     69  C   UNL A   1      44.235  28.358  35.677  1.00  0.00     0.058 A 
ATOM     70  C   UNL A   1      45.584  28.688  35.470  1.00  0.00     0.135 A 
ATOM     71  C   UNL A   1      43.946  27.321  36.579  1.00  0.00     0.135 A 
ATOM     72  F   UNL A   1      45.917  29.658  34.602  1.00  0.00    -0.206 F 
ATOM     73  C   UNL A   1      46.608  27.999  36.111  1.00  0.00     0.059 A 
ATOM     74  C   UNL A   1      44.953  26.634  37.249  1.00  0.00     0.059 A 
ATOM     75  F   UNL A   1      42.673  26.963  36.809  1.00  0.00    -0.206 F 
ATOM     76  C   UNL A   1      46.282  26.970  36.997  1.00  0.00     0.060 A 
BRANCH  76  77
ATOM     77  S   UNL A   1      47.622  26.081  37.819  1.00  0.00     0.124 S 
ATOM     78  O   UNL A   1      48.582  27.154  38.053  1.00  0.00    -0.237 OA
ATOM     79  O   UNL A   1      46.963  25.551  39.009  1.00  0.00    -0.237 OA
ATOM     80  O   UNL A   1      48.023  25.083  36.831  1.00  0.00    -0.744 OA
ENDBRANCH  76  77
ENDBRANCH  55  69
BRANCH  56  81
ATOM     81  C   UNL A   1      36.786  32.846  30.686  1.00  0.00     0.058 A 
ATOM     82  C   UNL A   1      35.453  32.490  30.930  1.00  0.00     0.135 A 
ATOM     83  C   UNL A   1      37.033  33.855  29.742  1.00  0.00     0.135 A 
ATOM     84  F   UNL A   1      35.167  31.527  31.818  1.00  0.00    -0.206 F 
ATOM     85  C   UNL A   1      34.400  33.104  30.256  1.00  0.00     0.059 A 
ATOM     86  C   UNL A   1      35.997  34.499  29.072  1.00  0.00     0.059 A 
ATOM     87  F   UNL A   1      38.292  34.243  29.484  1.00  0.00    -0.206 F 
ATOM     88  C   UNL A   1      34.684  34.110  29.330  1.00  0.00     0.060 A 
BRANCH  88  89
ATOM     89  S   UNL A   1      33.311  34.939  28.500  1.00  0.00     0.124 S 
ATOM     90  O   UNL A   1      34.014  35.904  27.663  1.00  0.00    -0.237 OA
ATOM     91  O   UNL A   1      32.664  33.835  27.798  1.00  0.00    -0.237 OA
ATOM     92  O   UNL A   1      32.543  35.502  29.607  1.00  0.00    -0.744 OA
ENDBRANCH  88  89
ENDBRANCH  56  81
BRANCH  68  93
ATOM     93  C   UNL A   1      39.854  33.973  36.852  1.00  0.00     0.058 A 
ATOM     94  C   UNL A   1      39.044  33.710  37.967  1.00  0.00     0.135 A 
ATOM     95  C   UNL A   1      40.498  35.218  36.785  1.00  0.00     0.135 A 
ATOM     96  F   UNL A   1      38.402  32.536  38.075  1.00  0.00    -0.206 F 
ATOM     97  C   UNL A   1      38.863  34.657  38.970  1.00  0.00     0.059 A 
ATOM     98  C   UNL A   1      40.350  36.170  37.788  1.00  0.00     0.059 A 
ATOM     99  F   UNL A   1      41.293  35.513  35.744  1.00  0.00    -0.206 F 
ATOM    100  C   UNL A   1      39.520  35.884  38.871  1.00  0.00     0.060 A 
BRANCH 100 101
ATOM    101  S   UNL A   1      39.303  37.094  40.193  1.00  0.00     0.124 S 
ATOM    102  O   UNL A   1      40.686  37.391  40.548  1.00  0.00    -0.237 OA
ATOM    103  O   UNL A   1      38.575  38.167  39.521  1.00  0.00    -0.237 OA
ATOM    104  O   UNL A   1      38.538  36.362  41.199  1.00  0.00    -0.744 OA
ENDBRANCH 100 101
ENDBRANCH  68  93
ENDBRANCH  42  43
ENDBRANCH  35  37
ENDBRANCH  34  35
ENDBRANCH  33  34
ENDBRANCH  32  33
ENDBRANCH   1  32
TORSDOF 23
ENDMDL
MODEL 2
REMARK VINA RESULT:     -10.0      0.845      8.007
REMARK SMILES CCc1ccc(C[NH+]2CCC(Oc3ccccc3OC)(C(=O)OCCOCCOC(=O)c3ccc(-c4c5nc(c(-c6c(F)cc(S(=O)(=O)[O-])cc6F)c6ccc([nH]6)c(-c6c(F)cc(S(=O)(=O)[O-])cc6F)c6nc(c(-c7c(F)cc(S(=O)(=O)[O-])cc7F)c7ccc4[nH]7)C=C6)C=C5)cc3)CC2)nc1
REMARK SMILES IDX 26 1 25 2 24 3 23 4 21 5 22 6 11 7 8 8 9 9 99 10 10 12 98 13
REMARK SMILES IDX 7 14 6 15 3 16 4 17 101 18 5 19 100 20 2 21 1 22 12 23 13 24
REMARK SMILES IDX 14 25 18 26 15 27 17 28 16 29 19 30 20 31 27 32 28 33 29 34
REMARK SMILES IDX 30 35 31 36 32 37 33 38 97 39 34 40 96 41 35 42 36 43 37 44
REMARK SMILES IDX 90 45 38 46 95 47 89 48 91 49 39 50 94 51 88 52 87 53 40 55
REMARK SMILES IDX 74 56 53 57 73 58 54 59 57 60 72 61 92 62 55 63 56 64 71 66
REMARK SMILES IDX 93 67 58 68 41 69 42 70 51 71 43 72 44 73 50 74 52 75 45 76
REMARK SMILES IDX 46 77 47 78 48 79 49 80 75 81 76 82 85 83 77 84 78 85 84 86
REMARK SMILES IDX 86 87 79 88 80 89 81 90 82 91 83 92 59 93 60 94 69 95 61 96
REMARK SMILES IDX 62 97 68 98 70 99 63 100 64 101 65 102 66 103 67 104
REMARK H PARENT 8 11 91 54 57 65
REMARK Flexibility Score: inf
ROOT
ATOM      1  O   UNL A   1      38.851  22.593  26.641  1.00  0.00    -0.374 OA
ENDROOT
BRANCH   1   2
ATOM      2  C   UNL A   1      37.728  22.689  25.767  1.00  0.00     0.202 C 
BRANCH   2   3
ATOM      3  C   UNL A   1      36.759  23.861  25.954  1.00  0.00     0.261 C 
BRANCH   3   4
ATOM      4  O   UNL A   1      35.802  24.006  24.877  1.00  0.00    -0.460 OA
BRANCH   4   5
ATOM      5  C   UNL A   1      34.490  24.008  25.256  1.00  0.00     0.351 C 
ATOM      6  O   UNL A   1      34.095  23.488  26.299  1.00  0.00    -0.247 OA
BRANCH   5   7
ATOM      7  C   UNL A   1      33.527  24.584  24.196  1.00  0.00     0.216 C 
ATOM      8  N   UNL A   1      32.112  22.445  22.692  1.00  0.00    -0.330 N 
ATOM      9  C   UNL A   1      31.418  23.051  23.821  1.00  0.00     0.267 C 
ATOM     10  C   UNL A   1      33.566  22.552  22.729  1.00  0.00     0.267 C 
ATOM     11  H   UNL A   1      31.843  23.029  21.901  1.00  0.00     0.348 HD
ATOM     12  C   UNL A   1      32.025  24.334  24.409  1.00  0.00     0.122 C 
ATOM     13  C   UNL A   1      33.963  24.028  22.832  1.00  0.00     0.122 C 
BRANCH   8  14
ATOM     14  C   UNL A   1      31.636  21.075  22.375  1.00  0.00     0.319 C 
BRANCH  14  15
ATOM     15  C   UNL A   1      32.237  19.914  23.163  1.00  0.00     0.095 A 
ATOM     16  C   UNL A   1      33.150  17.766  24.675  1.00  0.00    -0.030 A 
ATOM     17  C   UNL A   1      32.998  17.636  23.289  1.00  0.00     0.007 A 
ATOM     18  C   UNL A   1      32.902  19.025  25.207  1.00  0.00     0.115 A 
ATOM     19  C   UNL A   1      32.532  18.709  22.527  1.00  0.00     0.030 A 
ATOM     20  N   UNL A   1      32.447  20.086  24.493  1.00  0.00    -0.255 NA
BRANCH  16  21
ATOM     21  C   UNL A   1      33.474  16.539  25.495  1.00  0.00     0.034 C 
ATOM     22  C   UNL A   1      32.383  15.481  25.617  1.00  0.00     0.009 C 
ENDBRANCH  16  21
ENDBRANCH  14  15
ENDBRANCH   8  14
BRANCH   7  23
ATOM     23  O   UNL A   1      33.897  25.976  24.446  1.00  0.00    -0.471 OA
BRANCH  23  24
ATOM     24  C   UNL A   1      32.955  26.943  24.271  1.00  0.00     0.162 A 
ATOM     25  C   UNL A   1      32.410  27.073  22.992  1.00  0.00     0.050 A 
ATOM     26  C   UNL A   1      32.631  27.872  25.267  1.00  0.00     0.160 A 
ATOM     27  C   UNL A   1      31.463  28.063  22.730  1.00  0.00     0.004 A 
ATOM     28  C   UNL A   1      31.651  28.833  25.011  1.00  0.00     0.050 A 
ATOM     29  C   UNL A   1      31.069  28.931  23.746  1.00  0.00     0.004 A 
BRANCH  26  30
ATOM     30  O   UNL A   1      33.126  27.863  26.545  1.00  0.00    -0.493 OA
ATOM     31  C   UNL A   1      32.802  29.020  27.313  1.00  0.00     0.278 C 
ENDBRANCH  26  30
ENDBRANCH  23  24
ENDBRANCH   7  23
ENDBRANCH   5   7
ENDBRANCH   4   5
ENDBRANCH   3   4
ENDBRANCH   2   3
ENDBRANCH   1   2
BRANCH   1  32
ATOM     32  C   UNL A   1      40.033  22.008  26.133  1.00  0.00     0.202 C 
BRANCH  32  33
ATOM     33  C   UNL A   1      41.278  22.884  26.004  1.00  0.00     0.261 C 
BRANCH  33  34
ATOM     34  O   UNL A   1      41.518  23.801  27.065  1.00  0.00    -0.460 OA
BRANCH  34  35
ATOM     35  C   UNL A   1      41.238  25.084  26.749  1.00  0.00     0.338 C 
ATOM     36  O   UNL A   1      40.882  25.537  25.670  1.00  0.00    -0.246 OA
BRANCH  35  37
ATOM     37  C   UNL A   1      41.291  25.878  27.975  1.00  0.00     0.060 A 
ATOM     38  C   UNL A   1      40.129  25.944  28.746  1.00  0.00     0.016 A 
ATOM     39  C   UNL A   1      42.444  26.584  28.327  1.00  0.00     0.016 A 
ATOM     40  C   UNL A   1      40.101  26.763  29.866  1.00  0.00     0.010 A 
ATOM     41  C   UNL A   1      42.411  27.408  29.453  1.00  0.00     0.010 A 
ATOM     42  C   UNL A   1      41.229  27.524  30.204  1.00  0.00    -0.014 A 
BRANCH  42  43
ATOM     43  C   UNL A   1      41.112  28.536  31.274  1.00  0.00     0.031 A 
ATOM     44  C   UNL A   1      40.052  29.593  31.160  1.00  0.00     0.074 A 
ATOM     45  C   UNL A   1      41.909  28.465  32.355  1.00  0.00     0.049 A 
ATOM     46  N   UNL A   1      39.739  30.543  32.001  1.00  0.00    -0.248 NA
ATOM     47  C   UNL A   1      39.235  29.577  29.935  1.00  0.00     0.031 C 
ATOM     48  C   UNL A   1      42.953  27.463  32.568  1.00  0.00     0.029 A 
ATOM     49  N   UNL A   1      41.959  29.248  33.477  1.00  0.00    -0.354 N 
ATOM     50  C   UNL A   1      38.687  31.234  31.413  1.00  0.00     0.074 A 
ATOM     51  C   UNL A   1      38.438  30.619  30.127  1.00  0.00     0.031 C 
ATOM     52  C   UNL A   1      43.542  27.692  33.753  1.00  0.00     0.029 A 
ATOM     53  C   UNL A   1      42.930  28.866  34.371  1.00  0.00     0.049 A 
ATOM     54  H   UNL A   1      41.356  30.011  33.629  1.00  0.00     0.167 HD
ATOM     55  C   UNL A   1      37.985  32.280  31.909  1.00  0.00     0.037 A 
ATOM     56  C   UNL A   1      43.282  29.410  35.551  1.00  0.00     0.037 A 
ATOM     57  C   UNL A   1      38.248  32.884  33.188  1.00  0.00     0.049 A 
ATOM     58  C   UNL A   1      42.515  30.600  36.062  1.00  0.00     0.074 A 
ATOM     59  C   UNL A   1      37.592  33.941  33.794  1.00  0.00     0.029 A 
ATOM     60  N   UNL A   1      39.256  32.488  34.056  1.00  0.00    -0.354 N 
ATOM     61  N   UNL A   1      41.501  31.225  35.511  1.00  0.00    -0.248 NA
ATOM     62  C   UNL A   1      42.933  31.154  37.357  1.00  0.00     0.031 C 
ATOM     63  C   UNL A   1      38.229  34.208  35.011  1.00  0.00     0.029 A 
ATOM     64  C   UNL A   1      39.255  33.291  35.183  1.00  0.00     0.049 A 
ATOM     65  H   UNL A   1      39.881  31.745  33.893  1.00  0.00     0.167 HD
ATOM     66  C   UNL A   1      41.146  32.232  36.401  1.00  0.00     0.074 A 
ATOM     67  C   UNL A   1      42.046  32.124  37.531  1.00  0.00     0.031 C 
ATOM     68  C   UNL A   1      40.163  33.161  36.296  1.00  0.00     0.037 A 
BRANCH  55  69
ATOM     69  C   UNL A   1      36.884  32.844  31.055  1.00  0.00     0.058 A 
ATOM     70  C   UNL A   1      35.531  32.603  31.343  1.00  0.00     0.135 A 
ATOM     71  C   UNL A   1      37.184  33.648  29.944  1.00  0.00     0.135 A 
ATOM     72  F   UNL A   1      35.189  31.823  32.382  1.00  0.00    -0.206 F 
ATOM     73  C   UNL A   1      34.515  33.118  30.544  1.00  0.00     0.059 A 
ATOM     74  C   UNL A   1      36.184  34.193  29.145  1.00  0.00     0.059 A 
ATOM     75  F   UNL A   1      38.462  33.905  29.622  1.00  0.00    -0.206 F 
ATOM     76  C   UNL A   1      34.852  33.909  29.445  1.00  0.00     0.060 A 
BRANCH  76  77
ATOM     77  S   UNL A   1      33.523  34.567  28.414  1.00  0.00     0.124 S 
ATOM     78  O   UNL A   1      34.217  35.626  27.687  1.00  0.00    -0.237 OA
ATOM     79  O   UNL A   1      33.135  33.405  27.622  1.00  0.00    -0.237 OA
ATOM     80  O   UNL A   1      32.532  35.019  29.386  1.00  0.00    -0.744 OA
ENDBRANCH  76  77
ENDBRANCH  55  69
BRANCH  56  81
ATOM     81  C   UNL A   1      44.411  28.830  36.325  1.00  0.00     0.058 A 
ATOM     82  C   UNL A   1      45.703  29.366  36.240  1.00  0.00     0.135 A 
ATOM     83  C   UNL A   1      44.211  27.734  37.180  1.00  0.00     0.135 A 
ATOM     84  F   UNL A   1      45.944  30.408  35.431  1.00  0.00    -0.206 F 
ATOM     85  C   UNL A   1      46.763  28.832  36.967  1.00  0.00     0.059 A 
ATOM     86  C   UNL A   1      45.250  27.197  37.935  1.00  0.00     0.059 A 
ATOM     87  F   UNL A   1      42.989  27.194  37.309  1.00  0.00    -0.206 F 
ATOM     88  C   UNL A   1      46.524  27.748  37.815  1.00  0.00     0.060 A 
BRANCH  88  89
ATOM     89  S   UNL A   1      47.893  27.096  38.797  1.00  0.00     0.124 S 
ATOM     90  O   UNL A   1      47.433  25.741  39.076  1.00  0.00    -0.237 OA
ATOM     91  O   UNL A   1      49.017  27.211  37.872  1.00  0.00    -0.237 OA
ATOM     92  O   UNL A   1      47.941  27.998  39.943  1.00  0.00    -0.744 OA
ENDBRANCH  88  89
ENDBRANCH  56  81
BRANCH  68  93
ATOM     93  C   UNL A   1      39.996  34.118  37.442  1.00  0.00     0.058 A 
ATOM     94  C   UNL A   1      39.208  33.796  38.557  1.00  0.00     0.135 A 
ATOM     95  C   UNL A   1      40.672  35.348  37.446  1.00  0.00     0.135 A 
ATOM     96  F   UNL A   1      38.538  32.634  38.599  1.00  0.00    -0.206 F 
ATOM     97  C   UNL A   1      39.078  34.673  39.630  1.00  0.00     0.059 A 
ATOM     98  C   UNL A   1      40.576  36.229  38.517  1.00  0.00     0.059 A 
ATOM     99  F   UNL A   1      41.447  35.696  36.406  1.00  0.00    -0.206 F 
ATOM    100  C   UNL A   1      39.766  35.887  39.599  1.00  0.00     0.060 A 
BRANCH 100 101
ATOM    101  S   UNL A   1      39.616  37.004  41.010  1.00  0.00     0.124 S 
ATOM    102  O   UNL A   1      38.527  36.385  41.758  1.00  0.00    -0.237 OA
ATOM    103  O   UNL A   1      40.938  36.916  41.624  1.00  0.00    -0.237 OA
ATOM    104  O   UNL A   1      39.304  38.290  40.392  1.00  0.00    -0.744 OA
ENDBRANCH 100 101
ENDBRANCH  68  93
ENDBRANCH  42  43
ENDBRANCH  35  37
ENDBRANCH  34  35
ENDBRANCH  33  34
ENDBRANCH  32  33
ENDBRANCH   1  32
TORSDOF 23
ENDMDL
MODEL 3
REMARK VINA RESULT:      -9.7      1.497      8.946
REMARK SMILES CCc1ccc(C[NH+]2CCC(Oc3ccccc3OC)(C(=O)OCCOCCOC(=O)c3ccc(-c4c5nc(c(-c6c(F)cc(S(=O)(=O)[O-])cc6F)c6ccc([nH]6)c(-c6c(F)cc(S(=O)(=O)[O-])cc6F)c6nc(c(-c7c(F)cc(S(=O)(=O)[O-])cc7F)c7ccc4[nH]7)C=C6)C=C5)cc3)CC2)nc1
REMARK SMILES IDX 26 1 25 2 24 3 23 4 21 5 22 6 11 7 8 8 9 9 99 10 10 12 98 13
REMARK SMILES IDX 7 14 6 15 3 16 4 17 101 18 5 19 100 20 2 21 1 22 12 23 13 24
REMARK SMILES IDX 14 25 18 26 15 27 17 28 16 29 19 30 20 31 27 32 28 33 29 34
REMARK SMILES IDX 30 35 31 36 32 37 33 38 97 39 34 40 96 41 35 42 36 43 37 44
REMARK SMILES IDX 90 45 38 46 95 47 89 48 91 49 39 50 94 51 88 52 87 53 40 55
REMARK SMILES IDX 74 56 53 57 73 58 54 59 57 60 72 61 92 62 55 63 56 64 71 66
REMARK SMILES IDX 93 67 58 68 41 69 42 70 51 71 43 72 44 73 50 74 52 75 45 76
REMARK SMILES IDX 46 77 47 78 48 79 49 80 75 81 76 82 85 83 77 84 78 85 84 86
REMARK SMILES IDX 86 87 79 88 80 89 81 90 82 91 83 92 59 93 60 94 69 95 61 96
REMARK SMILES IDX 62 97 68 98 70 99 63 100 64 101 65 102 66 103 67 104
REMARK H PARENT 8 11 91 54 57 65
REMARK Flexibility Score: inf
ROOT
ATOM      1  O   UNL A   1      38.434  22.710  26.356  1.00  0.00    -0.374 OA
ENDROOT
BRANCH   1   2
ATOM      2  C   UNL A   1      37.439  22.614  25.340  1.00  0.00     0.202 C 
BRANCH   2   3
ATOM      3  C   UNL A   1      36.506  23.809  25.120  1.00  0.00     0.261 C 
BRANCH   3   4
ATOM      4  O   UNL A   1      35.099  23.468  25.161  1.00  0.00    -0.460 OA
BRANCH   4   5
ATOM      5  C   UNL A   1      34.430  23.601  23.977  1.00  0.00     0.351 C 
ATOM      6  O   UNL A   1      34.741  24.429  23.123  1.00  0.00    -0.247 OA
BRANCH   5   7
ATOM      7  C   UNL A   1      33.162  22.728  23.869  1.00  0.00     0.216 C 
ATOM      8  N   UNL A   1      30.785  24.055  25.063  1.00  0.00    -0.330 N 
ATOM      9  C   UNL A   1      30.972  24.170  23.623  1.00  0.00     0.267 C 
ATOM     10  C   UNL A   1      31.997  23.776  25.824  1.00  0.00     0.267 C 
ATOM     11  H   UNL A   1      30.229  23.207  25.168  1.00  0.00     0.348 HD
ATOM     12  C   UNL A   1      32.025  23.257  22.978  1.00  0.00     0.122 C 
ATOM     13  C   UNL A   1      32.644  22.492  25.296  1.00  0.00     0.122 C 
BRANCH   8  14
ATOM     14  C   UNL A   1      29.973  25.156  25.641  1.00  0.00     0.319 C 
BRANCH  14  15
ATOM     15  C   UNL A   1      29.823  26.434  24.820  1.00  0.00     0.095 A 
ATOM     16  C   UNL A   1      29.679  28.684  23.193  1.00  0.00    -0.030 A 
ATOM     17  C   UNL A   1      28.609  27.781  23.240  1.00  0.00     0.007 A 
ATOM     18  C   UNL A   1      30.741  28.428  24.050  1.00  0.00     0.115 A 
ATOM     19  C   UNL A   1      28.681  26.646  24.049  1.00  0.00     0.030 A 
ATOM     20  N   UNL A   1      30.840  27.333  24.847  1.00  0.00    -0.255 NA
BRANCH  16  21
ATOM     21  C   UNL A   1      29.653  29.798  22.172  1.00  0.00     0.034 C 
ATOM     22  C   UNL A   1      28.303  30.132  21.547  1.00  0.00     0.009 C 
ENDBRANCH  16  21
ENDBRANCH  14  15
ENDBRANCH   8  14
BRANCH   7  23
ATOM     23  O   UNL A   1      33.854  21.591  23.264  1.00  0.00    -0.471 OA
BRANCH  23  24
ATOM     24  C   UNL A   1      33.511  20.334  23.658  1.00  0.00     0.162 A 
ATOM     25  C   UNL A   1      32.311  19.818  23.161  1.00  0.00     0.050 A 
ATOM     26  C   UNL A   1      34.230  19.621  24.624  1.00  0.00     0.160 A 
ATOM     27  C   UNL A   1      31.879  18.550  23.546  1.00  0.00     0.004 A 
ATOM     28  C   UNL A   1      33.816  18.334  24.973  1.00  0.00     0.050 A 
ATOM     29  C   UNL A   1      32.643  17.799  24.437  1.00  0.00     0.004 A 
BRANCH  26  30
ATOM     30  O   UNL A   1      35.400  20.039  25.204  1.00  0.00    -0.493 OA
ATOM     31  C   UNL A   1      36.560  19.332  24.771  1.00  0.00     0.278 C 
ENDBRANCH  26  30
ENDBRANCH  23  24
ENDBRANCH   7  23
ENDBRANCH   5   7
ENDBRANCH   4   5
ENDBRANCH   3   4
ENDBRANCH   2   3
ENDBRANCH   1   2
BRANCH   1  32
ATOM     32  C   UNL A   1      39.603  21.928  26.210  1.00  0.00     0.202 C 
BRANCH  32  33
ATOM     33  C   UNL A   1      40.947  22.647  26.110  1.00  0.00     0.261 C 
BRANCH  33  34
ATOM     34  O   UNL A   1      41.231  23.600  27.127  1.00  0.00    -0.460 OA
BRANCH  34  35
ATOM     35  C   UNL A   1      41.035  24.880  26.743  1.00  0.00     0.338 C 
ATOM     36  O   UNL A   1      40.725  25.299  25.636  1.00  0.00    -0.246 OA
BRANCH  35  37
ATOM     37  C   UNL A   1      41.117  25.731  27.929  1.00  0.00     0.060 A 
ATOM     38  C   UNL A   1      39.958  25.873  28.696  1.00  0.00     0.016 A 
ATOM     39  C   UNL A   1      42.293  26.414  28.247  1.00  0.00     0.016 A 
ATOM     40  C   UNL A   1      39.959  26.746  29.775  1.00  0.00     0.010 A 
ATOM     41  C   UNL A   1      42.289  27.292  29.331  1.00  0.00     0.010 A 
ATOM     42  C   UNL A   1      41.113  27.484  30.075  1.00  0.00    -0.014 A 
BRANCH  42  43
ATOM     43  C   UNL A   1      41.030  28.550  31.095  1.00  0.00     0.031 A 
ATOM     44  C   UNL A   1      39.983  29.616  30.948  1.00  0.00     0.074 A 
ATOM     45  C   UNL A   1      41.848  28.522  32.162  1.00  0.00     0.049 A 
ATOM     46  N   UNL A   1      39.700  30.611  31.746  1.00  0.00    -0.248 NA
ATOM     47  C   UNL A   1      39.141  29.550  29.741  1.00  0.00     0.031 C 
ATOM     48  C   UNL A   1      42.883  27.517  32.405  1.00  0.00     0.029 A 
ATOM     49  N   UNL A   1      41.931  29.359  33.242  1.00  0.00    -0.354 N 
ATOM     50  C   UNL A   1      38.646  31.287  31.144  1.00  0.00     0.074 A 
ATOM     51  C   UNL A   1      38.363  30.612  29.896  1.00  0.00     0.031 C 
ATOM     52  C   UNL A   1      43.498  27.796  33.566  1.00  0.00     0.029 A 
ATOM     53  C   UNL A   1      42.915  29.009  34.135  1.00  0.00     0.049 A 
ATOM     54  H   UNL A   1      41.342  30.139  33.367  1.00  0.00     0.167 HD
ATOM     55  C   UNL A   1      37.968  32.367  31.600  1.00  0.00     0.037 A 
ATOM     56  C   UNL A   1      43.298  29.607  35.280  1.00  0.00     0.037 A 
ATOM     57  C   UNL A   1      38.265  33.031  32.841  1.00  0.00     0.049 A 
ATOM     58  C   UNL A   1      42.558  30.831  35.745  1.00  0.00     0.074 A 
ATOM     59  C   UNL A   1      37.636  34.126  33.406  1.00  0.00     0.029 A 
ATOM     60  N   UNL A   1      39.285  32.664  33.709  1.00  0.00    -0.354 N 
ATOM     61  N   UNL A   1      41.542  31.443  35.182  1.00  0.00    -0.248 NA
ATOM     62  C   UNL A   1      43.009  31.444  37.001  1.00  0.00     0.031 C 
ATOM     63  C   UNL A   1      38.301  34.445  34.595  1.00  0.00     0.029 A 
ATOM     64  C   UNL A   1      39.317  33.523  34.794  1.00  0.00     0.049 A 
ATOM     65  H   UNL A   1      39.896  31.904  33.572  1.00  0.00     0.167 HD
ATOM     66  C   UNL A   1      41.218  32.498  36.027  1.00  0.00     0.074 A 
ATOM     67  C   UNL A   1      42.139  32.435  37.143  1.00  0.00     0.031 C 
ATOM     68  C   UNL A   1      40.246  33.435  35.894  1.00  0.00     0.037 A 
BRANCH  55  69
ATOM     69  C   UNL A   1      36.859  32.903  30.740  1.00  0.00     0.058 A 
ATOM     70  C   UNL A   1      37.096  33.863  29.744  1.00  0.00     0.135 A 
ATOM     71  C   UNL A   1      35.543  32.439  30.902  1.00  0.00     0.135 A 
ATOM     72  F   UNL A   1      38.332  34.355  29.560  1.00  0.00    -0.206 F 
ATOM     73  C   UNL A   1      36.065  34.364  28.956  1.00  0.00     0.059 A 
ATOM     74  C   UNL A   1      34.500  32.909  30.110  1.00  0.00     0.059 A 
ATOM     75  F   UNL A   1      35.261  31.525  31.844  1.00  0.00    -0.206 F 
ATOM     76  C   UNL A   1      34.769  33.883  29.149  1.00  0.00     0.060 A 
BRANCH  76  77
ATOM     77  S   UNL A   1      33.439  34.546  28.122  1.00  0.00     0.124 S 
ATOM     78  O   UNL A   1      32.737  35.401  29.073  1.00  0.00    -0.237 OA
ATOM     79  O   UNL A   1      34.172  35.239  27.068  1.00  0.00    -0.237 OA
ATOM     80  O   UNL A   1      32.713  33.352  27.697  1.00  0.00    -0.744 OA
ENDBRANCH  76  77
ENDBRANCH  55  69
BRANCH  56  81
ATOM     81  C   UNL A   1      44.434  29.049  36.060  1.00  0.00     0.058 A 
ATOM     82  C   UNL A   1      45.731  29.562  35.923  1.00  0.00     0.135 A 
ATOM     83  C   UNL A   1      44.237  28.000  36.972  1.00  0.00     0.135 A 
ATOM     84  F   UNL A   1      45.970  30.560  35.059  1.00  0.00    -0.206 F 
ATOM     85  C   UNL A   1      46.798  29.050  36.656  1.00  0.00     0.059 A 
ATOM     86  C   UNL A   1      45.284  27.487  37.733  1.00  0.00     0.059 A 
ATOM     87  F   UNL A   1      43.011  27.484  37.150  1.00  0.00    -0.206 F 
ATOM     88  C   UNL A   1      46.562  28.013  37.561  1.00  0.00     0.060 A 
BRANCH  88  89
ATOM     89  S   UNL A   1      47.941  27.391  38.548  1.00  0.00     0.124 S 
ATOM     90  O   UNL A   1      48.887  28.496  38.459  1.00  0.00    -0.237 OA
ATOM     91  O   UNL A   1      47.317  27.186  39.852  1.00  0.00    -0.237 OA
ATOM     92  O   UNL A   1      48.327  26.169  37.849  1.00  0.00    -0.744 OA
ENDBRANCH  88  89
ENDBRANCH  56  81
BRANCH  68  93
ATOM     93  C   UNL A   1      40.115  34.451  36.994  1.00  0.00     0.058 A 
ATOM     94  C   UNL A   1      40.859  35.639  36.987  1.00  0.00     0.135 A 
ATOM     95  C   UNL A   1      39.198  34.253  38.038  1.00  0.00     0.135 A 
ATOM     96  F   UNL A   1      41.753  35.872  36.013  1.00  0.00    -0.206 F 
ATOM     97  C   UNL A   1      40.714  36.590  37.992  1.00  0.00     0.059 A 
ATOM     98  C   UNL A   1      39.019  35.201  39.039  1.00  0.00     0.059 A 
ATOM     99  F   UNL A   1      38.453  33.136  38.082  1.00  0.00    -0.206 F 
ATOM    100  C   UNL A   1      39.792  36.361  39.014  1.00  0.00     0.060 A 
BRANCH 100 101
ATOM    101  S   UNL A   1      39.589  37.615  40.297  1.00  0.00     0.124 S 
ATOM    102  O   UNL A   1      40.678  38.533  39.982  1.00  0.00    -0.237 OA
ATOM    103  O   UNL A   1      38.243  38.116  40.038  1.00  0.00    -0.237 OA
ATOM    104  O   UNL A   1      39.742  36.860  41.537  1.00  0.00    -0.744 OA
ENDBRANCH 100 101
ENDBRANCH  68  93
ENDBRANCH  42  43
ENDBRANCH  35  37
ENDBRANCH  34  35
ENDBRANCH  33  34
ENDBRANCH  32  33
ENDBRANCH   1  32
TORSDOF 23
ENDMDL
