MODEL 1
REMARK VINA RESULT:     -11.1      0.000      0.000
REMARK SMILES O=C(OCCOCCOC(=O)[C@@H]1CN(c2nc(-c3ccccc3)no2)CC[NH2+]1)c1ccc(-c2c3nc(c(-c4c(F)cc(S(=O)(=O)[O-])cc4F)c4ccc([nH]4)c(-c4c(F)cc(S(=O)(=O)[O-])cc4F)c4nc(c(-c5c(F)cc(S(=O)(=O)[O-])cc5F)c5ccc2[nH]5)C=C4)C=C3)cc1
REMARK SMILES IDX 5 1 4 2 3 3 2 4 1 5 29 6 30 7 94 8 31 9 93 10 32 11 33 12
REMARK SMILES IDX 34 13 87 14 35 15 92 16 86 17 88 18 36 19 91 20 85 21 84 22
REMARK SMILES IDX 37 24 71 25 50 26 70 27 51 28 54 29 69 30 89 31 52 32 53 33
REMARK SMILES IDX 68 35 90 36 55 37 38 38 39 39 48 40 40 41 41 42 47 43 49 44
REMARK SMILES IDX 42 45 43 46 44 47 45 48 46 49 72 50 73 51 82 52 74 53 75 54
REMARK SMILES IDX 81 55 83 56 76 57 77 58 78 59 79 60 80 61 56 62 57 63 66 64
REMARK SMILES IDX 58 65 59 66 65 67 67 68 60 69 61 70 62 71 63 72 64 73 6 74
REMARK SMILES IDX 7 75 8 76 9 77 10 78 11 79 12 80 13 81 28 82 14 83 27 84
REMARK SMILES IDX 26 87 15 88 16 89 25 90 17 91 24 92 18 93 19 94 23 95 20 96
REMARK SMILES IDX 22 97 21 98
REMARK H PARENT 88 23 54 34 28 85 28 86
REMARK Flexibility Score: inf
ROOT
ATOM      1  C   UNL A   1      33.315  30.308  26.889  1.00  0.00     0.202 C 
ENDROOT
BRANCH   1   2
ATOM      2  C   UNL A   1      34.519  29.598  27.527  1.00  0.00     0.261 C 
BRANCH   2   3
ATOM      3  O   UNL A   1      35.413  30.540  28.147  1.00  0.00    -0.460 OA
BRANCH   3   4
ATOM      4  C   UNL A   1      36.283  30.292  29.160  1.00  0.00     0.338 C 
ATOM      5  O   UNL A   1      35.893  30.382  30.321  1.00  0.00    -0.246 OA
BRANCH   4   6
ATOM      6  C   UNL A   1      37.703  29.920  28.908  1.00  0.00     0.060 A 
ATOM      7  C   UNL A   1      38.228  29.733  27.633  1.00  0.00     0.016 A 
ATOM      8  C   UNL A   1      38.578  29.818  29.997  1.00  0.00     0.016 A 
ATOM      9  C   UNL A   1      39.531  29.381  27.415  1.00  0.00     0.010 A 
ATOM     10  C   UNL A   1      39.930  29.522  29.789  1.00  0.00     0.010 A 
ATOM     11  C   UNL A   1      40.397  29.303  28.488  1.00  0.00    -0.014 A 
BRANCH  11  12
ATOM     12  C   UNL A   1      41.751  28.872  28.143  1.00  0.00     0.031 A 
ATOM     13  C   UNL A   1      42.855  29.856  28.326  1.00  0.00     0.074 A 
ATOM     14  C   UNL A   1      41.967  27.557  27.943  1.00  0.00     0.049 A 
ATOM     15  N   UNL A   1      44.127  29.711  28.097  1.00  0.00    -0.248 NA
ATOM     16  C   UNL A   1      42.481  31.178  28.865  1.00  0.00     0.031 C 
ATOM     17  C   UNL A   1      40.929  26.515  27.972  1.00  0.00     0.029 A 
ATOM     18  N   UNL A   1      43.124  26.861  27.743  1.00  0.00    -0.354 N 
ATOM     19  C   UNL A   1      44.702  30.930  28.423  1.00  0.00     0.074 A 
ATOM     20  C   UNL A   1      43.647  31.806  28.875  1.00  0.00     0.031 C 
ATOM     21  C   UNL A   1      41.505  25.315  27.815  1.00  0.00     0.029 A 
ATOM     22  C   UNL A   1      42.927  25.510  27.581  1.00  0.00     0.049 A 
ATOM     23  H   UNL A   1      44.012  27.285  27.717  1.00  0.00     0.167 HD
ATOM     24  C   UNL A   1      46.004  31.271  28.328  1.00  0.00     0.037 A 
ATOM     25  C   UNL A   1      43.807  24.557  27.224  1.00  0.00     0.037 A 
ATOM     26  C   UNL A   1      47.010  30.350  27.876  1.00  0.00     0.049 A 
ATOM     27  C   UNL A   1      45.226  24.999  26.994  1.00  0.00     0.074 A 
ATOM     28  C   UNL A   1      48.350  30.579  27.637  1.00  0.00     0.029 A 
ATOM     29  N   UNL A   1      46.772  29.008  27.600  1.00  0.00    -0.354 N 
ATOM     30  N   UNL A   1      45.757  26.186  27.181  1.00  0.00    -0.248 NA
ATOM     31  C   UNL A   1      46.160  23.991  26.486  1.00  0.00     0.031 C 
ATOM     32  C   UNL A   1      48.910  29.386  27.168  1.00  0.00     0.029 A 
ATOM     33  C   UNL A   1      47.935  28.397  27.172  1.00  0.00     0.049 A 
ATOM     34  H   UNL A   1      45.900  28.558  27.695  1.00  0.00     0.167 HD
ATOM     35  C   UNL A   1      47.093  26.066  26.829  1.00  0.00     0.074 A 
ATOM     36  C   UNL A   1      47.291  24.681  26.443  1.00  0.00     0.031 C 
ATOM     37  C   UNL A   1      48.071  27.007  26.811  1.00  0.00     0.037 A 
BRANCH  24  38
ATOM     38  C   UNL A   1      46.368  32.695  28.626  1.00  0.00     0.058 A 
ATOM     39  C   UNL A   1      46.331  33.701  27.647  1.00  0.00     0.135 A 
ATOM     40  C   UNL A   1      46.788  33.052  29.917  1.00  0.00     0.135 A 
ATOM     41  F   UNL A   1      45.983  33.404  26.385  1.00  0.00    -0.206 F 
ATOM     42  C   UNL A   1      46.705  35.009  27.938  1.00  0.00     0.059 A 
ATOM     43  C   UNL A   1      47.142  34.359  30.236  1.00  0.00     0.059 A 
ATOM     44  F   UNL A   1      46.872  32.122  30.881  1.00  0.00    -0.206 F 
ATOM     45  C   UNL A   1      47.104  35.329  29.237  1.00  0.00     0.060 A 
BRANCH  45  46
ATOM     46  S   UNL A   1      47.562  37.036  29.604  1.00  0.00     0.124 S 
ATOM     47  O   UNL A   1      48.718  36.847  30.477  1.00  0.00    -0.237 OA
ATOM     48  O   UNL A   1      47.852  37.571  28.277  1.00  0.00    -0.237 OA
ATOM     49  O   UNL A   1      46.371  37.578  30.250  1.00  0.00    -0.744 OA
ENDBRANCH  45  46
ENDBRANCH  24  38
BRANCH  25  50
ATOM     50  C   UNL A   1      43.361  23.159  26.967  1.00  0.00     0.058 A 
ATOM     51  C   UNL A   1      43.038  22.283  28.014  1.00  0.00     0.135 A 
ATOM     52  C   UNL A   1      43.282  22.655  25.656  1.00  0.00     0.135 A 
ATOM     53  F   UNL A   1      43.097  22.708  29.285  1.00  0.00    -0.206 F 
ATOM     54  C   UNL A   1      42.693  20.955  27.776  1.00  0.00     0.059 A 
ATOM     55  C   UNL A   1      42.906  21.343  25.391  1.00  0.00     0.059 A 
ATOM     56  F   UNL A   1      43.568  23.446  24.610  1.00  0.00    -0.206 F 
ATOM     57  C   UNL A   1      42.635  20.492  26.460  1.00  0.00     0.060 A 
BRANCH  57  58
ATOM     58  S   UNL A   1      42.203  18.765  26.160  1.00  0.00     0.124 S 
ATOM     59  O   UNL A   1      42.458  18.170  27.466  1.00  0.00    -0.237 OA
ATOM     60  O   UNL A   1      40.802  18.863  25.764  1.00  0.00    -0.237 OA
ATOM     61  O   UNL A   1      43.122  18.369  25.096  1.00  0.00    -0.744 OA
ENDBRANCH  57  58
ENDBRANCH  25  50
BRANCH  37  62
ATOM     62  C   UNL A   1      49.436  26.546  26.398  1.00  0.00     0.058 A 
ATOM     63  C   UNL A   1      49.922  26.757  25.100  1.00  0.00     0.135 A 
ATOM     64  C   UNL A   1      50.281  25.928  27.332  1.00  0.00     0.135 A 
ATOM     65  F   UNL A   1      49.144  27.337  24.172  1.00  0.00    -0.206 F 
ATOM     66  C   UNL A   1      51.195  26.342  24.732  1.00  0.00     0.059 A 
ATOM     67  C   UNL A   1      51.571  25.538  26.996  1.00  0.00     0.059 A 
ATOM     68  F   UNL A   1      49.862  25.717  28.591  1.00  0.00    -0.206 F 
ATOM     69  C   UNL A   1      52.012  25.738  25.688  1.00  0.00     0.060 A 
BRANCH  69  70
ATOM     70  S   UNL A   1      53.674  25.235  25.206  1.00  0.00     0.124 S 
ATOM     71  O   UNL A   1      54.492  25.967  26.166  1.00  0.00    -0.237 OA
ATOM     72  O   UNL A   1      53.626  23.787  25.386  1.00  0.00    -0.237 OA
ATOM     73  O   UNL A   1      53.777  25.685  23.821  1.00  0.00    -0.744 OA
ENDBRANCH  69  70
ENDBRANCH  37  62
ENDBRANCH  11  12
ENDBRANCH   4   6
ENDBRANCH   3   4
ENDBRANCH   2   3
ENDBRANCH   1   2
BRANCH   1  74
ATOM     74  O   UNL A   1      32.759  29.755  25.691  1.00  0.00    -0.374 OA
BRANCH  74  75
ATOM     75  C   UNL A   1      31.444  30.182  25.326  1.00  0.00     0.202 C 
BRANCH  75  76
ATOM     76  C   UNL A   1      30.868  29.232  24.280  1.00  0.00     0.261 C 
BRANCH  76  77
ATOM     77  O   UNL A   1      31.949  28.400  23.839  1.00  0.00    -0.459 OA
BRANCH  77  78
ATOM     78  C   UNL A   1      31.564  27.301  23.125  1.00  0.00     0.366 C 
ATOM     79  O   UNL A   1      31.046  27.319  22.012  1.00  0.00    -0.245 OA
BRANCH  78  80
ATOM     80  C   UNL A   1      31.859  26.038  23.911  1.00  0.00     0.313 C 
ATOM     81  C   UNL A   1      32.070  24.920  22.893  1.00  0.00     0.199 C 
ATOM     82  N   UNL A   1      30.736  25.681  24.836  1.00  0.00    -0.332 N 
ATOM     83  N   UNL A   1      32.340  23.655  23.575  1.00  0.00    -0.312 N 
ATOM     84  C   UNL A   1      31.080  24.455  25.568  1.00  0.00     0.283 C 
ATOM     85  H   UNL A   1      29.885  25.528  24.295  1.00  0.00     0.347 HD
ATOM     86  H   UNL A   1      30.584  26.442  25.497  1.00  0.00     0.347 HD
ATOM     87  C   UNL A   1      31.420  23.262  24.643  1.00  0.00     0.183 C 
BRANCH  83  88
ATOM     88  C   UNL A   1      33.633  23.298  23.636  1.00  0.00     0.324 A 
ATOM     89  N   UNL A   1      34.367  23.096  24.700  1.00  0.00    -0.171 NA
ATOM     90  O   UNL A   1      34.359  23.405  22.486  1.00  0.00    -0.315 OA
ATOM     91  C   UNL A   1      35.634  23.127  24.186  1.00  0.00     0.204 A 
ATOM     92  N   UNL A   1      35.700  23.317  22.860  1.00  0.00    -0.055 NA
BRANCH  91  93
ATOM     93  C   UNL A   1      36.806  22.961  25.015  1.00  0.00     0.023 A 
ATOM     94  C   UNL A   1      37.257  24.013  25.819  1.00  0.00     0.012 A 
ATOM     95  C   UNL A   1      37.518  21.758  24.973  1.00  0.00     0.012 A 
ATOM     96  C   UNL A   1      38.443  23.879  26.542  1.00  0.00     0.001 A 
ATOM     97  C   UNL A   1      38.711  21.632  25.684  1.00  0.00     0.001 A 
ATOM     98  C   UNL A   1      39.178  22.696  26.457  1.00  0.00     0.000 A 
ENDBRANCH  91  93
ENDBRANCH  83  88
ENDBRANCH  78  80
ENDBRANCH  77  78
ENDBRANCH  76  77
ENDBRANCH  75  76
ENDBRANCH  74  75
ENDBRANCH   1  74
TORSDOF 19
ENDMDL
MODEL 2
REMARK VINA RESULT:     -11.1      6.513     11.921
REMARK SMILES O=C(OCCOCCOC(=O)[C@@H]1CN(c2nc(-c3ccccc3)no2)CC[NH2+]1)c1ccc(-c2c3nc(c(-c4c(F)cc(S(=O)(=O)[O-])cc4F)c4ccc([nH]4)c(-c4c(F)cc(S(=O)(=O)[O-])cc4F)c4nc(c(-c5c(F)cc(S(=O)(=O)[O-])cc5F)c5ccc2[nH]5)C=C4)C=C3)cc1
REMARK SMILES IDX 5 1 4 2 3 3 2 4 1 5 29 6 30 7 94 8 31 9 93 10 32 11 33 12
REMARK SMILES IDX 34 13 87 14 35 15 92 16 86 17 88 18 36 19 91 20 85 21 84 22
REMARK SMILES IDX 37 24 71 25 50 26 70 27 51 28 54 29 69 30 89 31 52 32 53 33
REMARK SMILES IDX 68 35 90 36 55 37 38 38 39 39 48 40 40 41 41 42 47 43 49 44
REMARK SMILES IDX 42 45 43 46 44 47 45 48 46 49 72 50 73 51 82 52 74 53 75 54
REMARK SMILES IDX 81 55 83 56 76 57 77 58 78 59 79 60 80 61 56 62 57 63 66 64
REMARK SMILES IDX 58 65 59 66 65 67 67 68 60 69 61 70 62 71 63 72 64 73 6 74
REMARK SMILES IDX 7 75 8 76 9 77 10 78 11 79 12 80 13 81 28 82 14 83 27 84
REMARK SMILES IDX 26 87 15 88 16 89 25 90 17 91 24 92 18 93 19 94 23 95 20 96
REMARK SMILES IDX 22 97 21 98
REMARK H PARENT 88 23 54 34 28 85 28 86
REMARK Flexibility Score: inf
ROOT
ATOM      1  C   UNL A   1      38.443  21.745  25.755  1.00  0.00     0.202 C 
ENDROOT
BRANCH   1   2
ATOM      2  C   UNL A   1      39.636  22.399  26.467  1.00  0.00     0.261 C 
BRANCH   2   3
ATOM      3  O   UNL A   1      39.501  23.831  26.507  1.00  0.00    -0.460 OA
BRANCH   3   4
ATOM      4  C   UNL A   1      40.500  24.739  26.649  1.00  0.00     0.338 C 
ATOM      5  O   UNL A   1      41.442  24.724  25.859  1.00  0.00    -0.246 OA
BRANCH   4   6
ATOM      6  C   UNL A   1      40.498  25.754  27.740  1.00  0.00     0.060 A 
ATOM      7  C   UNL A   1      39.533  25.792  28.742  1.00  0.00     0.016 A 
ATOM      8  C   UNL A   1      41.550  26.675  27.808  1.00  0.00     0.016 A 
ATOM      9  C   UNL A   1      39.534  26.735  29.733  1.00  0.00     0.010 A 
ATOM     10  C   UNL A   1      41.603  27.607  28.852  1.00  0.00     0.010 A 
ATOM     11  C   UNL A   1      40.585  27.628  29.811  1.00  0.00    -0.014 A 
BRANCH  11  12
ATOM     12  C   UNL A   1      40.457  28.620  30.878  1.00  0.00     0.031 A 
ATOM     13  C   UNL A   1      41.499  28.623  31.944  1.00  0.00     0.074 A 
ATOM     14  C   UNL A   1      39.583  29.630  30.705  1.00  0.00     0.049 A 
ATOM     15  N   UNL A   1      41.605  29.400  32.982  1.00  0.00    -0.248 NA
ATOM     16  C   UNL A   1      42.586  27.634  31.811  1.00  0.00     0.031 C 
ATOM     17  C   UNL A   1      38.685  29.783  29.551  1.00  0.00     0.029 A 
ATOM     18  N   UNL A   1      39.349  30.749  31.452  1.00  0.00    -0.354 N 
ATOM     19  C   UNL A   1      42.743  28.970  33.649  1.00  0.00     0.074 A 
ATOM     20  C   UNL A   1      43.303  27.871  32.899  1.00  0.00     0.031 C 
ATOM     21  C   UNL A   1      38.014  30.938  29.663  1.00  0.00     0.029 A 
ATOM     22  C   UNL A   1      38.364  31.556  30.933  1.00  0.00     0.049 A 
ATOM     23  H   UNL A   1      39.838  30.957  32.280  1.00  0.00     0.167 HD
ATOM     24  C   UNL A   1      43.250  29.460  34.800  1.00  0.00     0.037 A 
ATOM     25  C   UNL A   1      37.779  32.641  31.471  1.00  0.00     0.037 A 
ATOM     26  C   UNL A   1      42.649  30.563  35.497  1.00  0.00     0.049 A 
ATOM     27  C   UNL A   1      38.278  33.078  32.821  1.00  0.00     0.074 A 
ATOM     28  C   UNL A   1      42.991  31.105  36.720  1.00  0.00     0.029 A 
ATOM     29  N   UNL A   1      41.571  31.298  35.015  1.00  0.00    -0.354 N 
ATOM     30  N   UNL A   1      39.280  32.597  33.521  1.00  0.00    -0.248 NA
ATOM     31  C   UNL A   1      37.563  34.183  33.466  1.00  0.00     0.031 C 
ATOM     32  C   UNL A   1      42.087  32.136  36.998  1.00  0.00     0.029 A 
ATOM     33  C   UNL A   1      41.220  32.277  35.923  1.00  0.00     0.049 A 
ATOM     34  H   UNL A   1      41.124  31.143  34.151  1.00  0.00     0.167 HD
ATOM     35  C   UNL A   1      39.328  33.349  34.685  1.00  0.00     0.074 A 
ATOM     36  C   UNL A   1      38.267  34.336  34.578  1.00  0.00     0.031 C 
ATOM     37  C   UNL A   1      40.157  33.239  35.754  1.00  0.00     0.037 A 
BRANCH  24  38
ATOM     38  C   UNL A   1      44.428  28.747  35.393  1.00  0.00     0.058 A 
ATOM     39  C   UNL A   1      45.752  29.096  35.082  1.00  0.00     0.135 A 
ATOM     40  C   UNL A   1      44.223  27.675  36.275  1.00  0.00     0.135 A 
ATOM     41  F   UNL A   1      46.004  30.083  34.208  1.00  0.00    -0.206 F 
ATOM     42  C   UNL A   1      46.830  28.400  35.620  1.00  0.00     0.059 A 
ATOM     43  C   UNL A   1      45.286  26.981  36.843  1.00  0.00     0.059 A 
ATOM     44  F   UNL A   1      42.977  27.280  36.581  1.00  0.00    -0.206 F 
ATOM     45  C   UNL A   1      46.587  27.347  36.503  1.00  0.00     0.060 A 
BRANCH  45  46
ATOM     46  S   UNL A   1      47.997  26.469  37.210  1.00  0.00     0.124 S 
ATOM     47  O   UNL A   1      47.729  26.590  38.641  1.00  0.00    -0.237 OA
ATOM     48  O   UNL A   1      47.843  25.131  36.647  1.00  0.00    -0.237 OA
ATOM     49  O   UNL A   1      49.147  27.224  36.722  1.00  0.00    -0.744 OA
ENDBRANCH  45  46
ENDBRANCH  24  38
BRANCH  25  50
ATOM     50  C   UNL A   1      36.623  33.300  30.802  1.00  0.00     0.058 A 
ATOM     51  C   UNL A   1      36.795  34.148  29.698  1.00  0.00     0.135 A 
ATOM     52  C   UNL A   1      35.312  33.121  31.281  1.00  0.00     0.135 A 
ATOM     53  F   UNL A   1      38.022  34.357  29.199  1.00  0.00    -0.206 F 
ATOM     54  C   UNL A   1      35.722  34.822  29.120  1.00  0.00     0.059 A 
ATOM     55  C   UNL A   1      34.220  33.755  30.698  1.00  0.00     0.059 A 
ATOM     56  F   UNL A   1      35.080  32.314  32.328  1.00  0.00    -0.206 F 
ATOM     57  C   UNL A   1      34.438  34.623  29.631  1.00  0.00     0.060 A 
BRANCH  57  58
ATOM     58  S   UNL A   1      33.054  35.513  28.887  1.00  0.00     0.124 S 
ATOM     59  O   UNL A   1      33.747  36.542  28.121  1.00  0.00    -0.237 OA
ATOM     60  O   UNL A   1      32.400  34.468  28.108  1.00  0.00    -0.237 OA
ATOM     61  O   UNL A   1      32.300  35.990  30.044  1.00  0.00    -0.744 OA
ENDBRANCH  57  58
ENDBRANCH  25  50
BRANCH  37  62
ATOM     62  C   UNL A   1      39.964  34.235  36.857  1.00  0.00     0.058 A 
ATOM     63  C   UNL A   1      40.599  35.485  36.838  1.00  0.00     0.135 A 
ATOM     64  C   UNL A   1      39.093  33.947  37.919  1.00  0.00     0.135 A 
ATOM     65  F   UNL A   1      41.446  35.800  35.845  1.00  0.00    -0.206 F 
ATOM     66  C   UNL A   1      40.399  36.409  37.855  1.00  0.00     0.059 A 
ATOM     67  C   UNL A   1      38.851  34.870  38.928  1.00  0.00     0.059 A 
ATOM     68  F   UNL A   1      38.454  32.767  37.971  1.00  0.00    -0.206 F 
ATOM     69  C   UNL A   1      39.520  36.093  38.893  1.00  0.00     0.060 A 
BRANCH  69  70
ATOM     70  S   UNL A   1      39.244  37.314  40.189  1.00  0.00     0.124 S 
ATOM     71  O   UNL A   1      40.597  37.809  40.418  1.00  0.00    -0.237 OA
ATOM     72  O   UNL A   1      38.326  38.249  39.546  1.00  0.00    -0.237 OA
ATOM     73  O   UNL A   1      38.670  36.530  41.279  1.00  0.00    -0.744 OA
ENDBRANCH  69  70
ENDBRANCH  37  62
ENDBRANCH  11  12
ENDBRANCH   4   6
ENDBRANCH   3   4
ENDBRANCH   2   3
ENDBRANCH   1   2
BRANCH   1  74
ATOM     74  O   UNL A   1      37.194  22.445  25.742  1.00  0.00    -0.374 OA
BRANCH  74  75
ATOM     75  C   UNL A   1      36.008  21.658  25.603  1.00  0.00     0.202 C 
BRANCH  75  76
ATOM     76  C   UNL A   1      35.164  22.201  24.454  1.00  0.00     0.261 C 
BRANCH  76  77
ATOM     77  O   UNL A   1      34.058  22.895  25.048  1.00  0.00    -0.459 OA
BRANCH  77  78
ATOM     78  C   UNL A   1      32.894  22.820  24.336  1.00  0.00     0.366 C 
ATOM     79  O   UNL A   1      32.341  21.785  23.980  1.00  0.00    -0.245 OA
BRANCH  78  80
ATOM     80  C   UNL A   1      32.378  24.215  24.035  1.00  0.00     0.313 C 
ATOM     81  C   UNL A   1      31.217  24.475  24.992  1.00  0.00     0.199 C 
ATOM     82  N   UNL A   1      31.909  24.341  22.618  1.00  0.00    -0.332 N 
ATOM     83  N   UNL A   1      30.645  25.799  24.751  1.00  0.00    -0.312 N 
ATOM     84  C   UNL A   1      31.423  25.709  22.386  1.00  0.00     0.283 C 
ATOM     85  H   UNL A   1      31.152  23.678  22.448  1.00  0.00     0.347 HD
ATOM     86  H   UNL A   1      32.682  24.142  21.984  1.00  0.00     0.347 HD
ATOM     87  C   UNL A   1      30.306  26.138  23.368  1.00  0.00     0.183 C 
BRANCH  83  88
ATOM     88  C   UNL A   1      31.037  26.759  25.602  1.00  0.00     0.324 A 
ATOM     89  N   UNL A   1      31.953  27.676  25.420  1.00  0.00    -0.171 NA
ATOM     90  O   UNL A   1      30.645  26.632  26.902  1.00  0.00    -0.315 OA
ATOM     91  C   UNL A   1      32.180  28.114  26.696  1.00  0.00     0.204 A 
ATOM     92  N   UNL A   1      31.429  27.521  27.637  1.00  0.00    -0.055 NA
BRANCH  91  93
ATOM     93  C   UNL A   1      33.150  29.142  26.997  1.00  0.00     0.023 A 
ATOM     94  C   UNL A   1      34.506  28.819  27.117  1.00  0.00     0.012 A 
ATOM     95  C   UNL A   1      32.721  30.454  27.219  1.00  0.00     0.012 A 
ATOM     96  C   UNL A   1      35.423  29.797  27.503  1.00  0.00     0.001 A 
ATOM     97  C   UNL A   1      33.638  31.426  27.619  1.00  0.00     0.001 A 
ATOM     98  C   UNL A   1      34.984  31.094  27.773  1.00  0.00     0.000 A 
ENDBRANCH  91  93
ENDBRANCH  83  88
ENDBRANCH  78  80
ENDBRANCH  77  78
ENDBRANCH  76  77
ENDBRANCH  75  76
ENDBRANCH  74  75
ENDBRANCH   1  74
TORSDOF 19
ENDMDL
MODEL 3
REMARK VINA RESULT:     -11.0      6.586     12.946
REMARK SMILES O=C(OCCOCCOC(=O)[C@@H]1CN(c2nc(-c3ccccc3)no2)CC[NH2+]1)c1ccc(-c2c3nc(c(-c4c(F)cc(S(=O)(=O)[O-])cc4F)c4ccc([nH]4)c(-c4c(F)cc(S(=O)(=O)[O-])cc4F)c4nc(c(-c5c(F)cc(S(=O)(=O)[O-])cc5F)c5ccc2[nH]5)C=C4)C=C3)cc1
REMARK SMILES IDX 5 1 4 2 3 3 2 4 1 5 29 6 30 7 94 8 31 9 93 10 32 11 33 12
REMARK SMILES IDX 34 13 87 14 35 15 92 16 86 17 88 18 36 19 91 20 85 21 84 22
REMARK SMILES IDX 37 24 71 25 50 26 70 27 51 28 54 29 69 30 89 31 52 32 53 33
REMARK SMILES IDX 68 35 90 36 55 37 38 38 39 39 48 40 40 41 41 42 47 43 49 44
REMARK SMILES IDX 42 45 43 46 44 47 45 48 46 49 72 50 73 51 82 52 74 53 75 54
REMARK SMILES IDX 81 55 83 56 76 57 77 58 78 59 79 60 80 61 56 62 57 63 66 64
REMARK SMILES IDX 58 65 59 66 65 67 67 68 60 69 61 70 62 71 63 72 64 73 6 74
REMARK SMILES IDX 7 75 8 76 9 77 10 78 11 79 12 80 13 81 28 82 14 83 27 84
REMARK SMILES IDX 26 87 15 88 16 89 25 90 17 91 24 92 18 93 19 94 23 95 20 96
REMARK SMILES IDX 22 97 21 98
REMARK H PARENT 88 23 54 34 28 85 28 86
REMARK Flexibility Score: inf
ROOT
ATOM      1  C   UNL A   1      41.118  22.284  26.785  1.00  0.00     0.202 C 
ENDROOT
BRANCH   1   2
ATOM      2  C   UNL A   1      41.967  23.046  25.756  1.00  0.00     0.261 C 
BRANCH   2   3
ATOM      3  O   UNL A   1      42.474  24.277  26.304  1.00  0.00    -0.460 OA
BRANCH   3   4
ATOM      4  C   UNL A   1      41.943  25.516  26.149  1.00  0.00     0.338 C 
ATOM      5  O   UNL A   1      41.594  25.885  25.030  1.00  0.00    -0.246 OA
BRANCH   4   6
ATOM      6  C   UNL A   1      41.775  26.453  27.296  1.00  0.00     0.060 A 
ATOM      7  C   UNL A   1      41.089  26.119  28.459  1.00  0.00     0.016 A 
ATOM      8  C   UNL A   1      42.393  27.709  27.238  1.00  0.00     0.016 A 
ATOM      9  C   UNL A   1      40.932  26.991  29.500  1.00  0.00     0.010 A 
ATOM     10  C   UNL A   1      42.298  28.591  28.321  1.00  0.00     0.010 A 
ATOM     11  C   UNL A   1      41.560  28.220  29.450  1.00  0.00    -0.014 A 
BRANCH  11  12
ATOM     12  C   UNL A   1      41.284  29.088  30.595  1.00  0.00     0.031 A 
ATOM     13  C   UNL A   1      42.296  29.131  31.688  1.00  0.00     0.074 A 
ATOM     14  C   UNL A   1      40.289  29.989  30.482  1.00  0.00     0.049 A 
ATOM     15  N   UNL A   1      42.280  29.819  32.791  1.00  0.00    -0.248 NA
ATOM     16  C   UNL A   1      43.506  28.305  31.503  1.00  0.00     0.031 C 
ATOM     17  C   UNL A   1      39.400  30.126  29.319  1.00  0.00     0.029 A 
ATOM     18  N   UNL A   1      39.896  30.997  31.315  1.00  0.00    -0.354 N 
ATOM     19  C   UNL A   1      43.452  29.482  33.453  1.00  0.00     0.074 A 
ATOM     20  C   UNL A   1      44.165  28.535  32.628  1.00  0.00     0.031 C 
ATOM     21  C   UNL A   1      38.581  31.171  29.510  1.00  0.00     0.029 A 
ATOM     22  C   UNL A   1      38.823  31.713  30.838  1.00  0.00     0.049 A 
ATOM     23  H   UNL A   1      40.338  31.192  32.173  1.00  0.00     0.167 HD
ATOM     24  C   UNL A   1      43.868  29.928  34.656  1.00  0.00     0.037 A 
ATOM     25  C   UNL A   1      38.092  32.661  31.449  1.00  0.00     0.037 A 
ATOM     26  C   UNL A   1      43.115  30.879  35.427  1.00  0.00     0.049 A 
ATOM     27  C   UNL A   1      38.503  33.037  32.846  1.00  0.00     0.074 A 
ATOM     28  C   UNL A   1      43.361  31.349  36.702  1.00  0.00     0.029 A 
ATOM     29  N   UNL A   1      41.960  31.508  34.978  1.00  0.00    -0.354 N 
ATOM     30  N   UNL A   1      39.547  32.629  33.533  1.00  0.00    -0.248 NA
ATOM     31  C   UNL A   1      37.637  33.978  33.562  1.00  0.00     0.031 C 
ATOM     32  C   UNL A   1      42.324  32.226  37.040  1.00  0.00     0.029 A 
ATOM     33  C   UNL A   1      41.466  32.349  35.955  1.00  0.00     0.049 A 
ATOM     34  H   UNL A   1      41.553  31.374  34.090  1.00  0.00     0.167 HD
ATOM     35  C   UNL A   1      39.473  33.274  34.758  1.00  0.00     0.074 A 
ATOM     36  C   UNL A   1      38.295  34.121  34.704  1.00  0.00     0.031 C 
ATOM     37  C   UNL A   1      40.290  33.177  35.837  1.00  0.00     0.037 A 
BRANCH  24  38
ATOM     38  C   UNL A   1      45.119  29.324  35.222  1.00  0.00     0.058 A 
ATOM     39  C   UNL A   1      46.385  29.896  35.025  1.00  0.00     0.135 A 
ATOM     40  C   UNL A   1      45.046  28.130  35.956  1.00  0.00     0.135 A 
ATOM     41  F   UNL A   1      46.517  31.011  34.290  1.00  0.00    -0.206 F 
ATOM     42  C   UNL A   1      47.537  29.300  35.531  1.00  0.00     0.059 A 
ATOM     43  C   UNL A   1      46.180  27.530  36.493  1.00  0.00     0.059 A 
ATOM     44  F   UNL A   1      43.863  27.525  36.147  1.00  0.00    -0.206 F 
ATOM     45  C   UNL A   1      47.423  28.119  36.268  1.00  0.00     0.060 A 
BRANCH  45  46
ATOM     46  S   UNL A   1      48.922  27.372  36.939  1.00  0.00     0.124 S 
ATOM     47  O   UNL A   1      48.561  25.957  36.956  1.00  0.00    -0.237 OA
ATOM     48  O   UNL A   1      49.927  27.757  35.953  1.00  0.00    -0.237 OA
ATOM     49  O   UNL A   1      49.060  28.000  38.249  1.00  0.00    -0.744 OA
ENDBRANCH  45  46
ENDBRANCH  24  38
BRANCH  25  50
ATOM     50  C   UNL A   1      36.872  33.223  30.804  1.00  0.00     0.058 A 
ATOM     51  C   UNL A   1      36.951  34.187  29.790  1.00  0.00     0.135 A 
ATOM     52  C   UNL A   1      35.587  32.828  31.220  1.00  0.00     0.135 A 
ATOM     53  F   UNL A   1      38.150  34.604  29.354  1.00  0.00    -0.206 F 
ATOM     54  C   UNL A   1      35.810  34.766  29.240  1.00  0.00     0.059 A 
ATOM     55  C   UNL A   1      34.432  33.365  30.662  1.00  0.00     0.059 A 
ATOM     56  F   UNL A   1      35.443  31.901  32.180  1.00  0.00    -0.206 F 
ATOM     57  C   UNL A   1      34.554  34.352  29.687  1.00  0.00     0.060 A 
BRANCH  57  58
ATOM     58  S   UNL A   1      33.079  35.118  28.981  1.00  0.00     0.124 S 
ATOM     59  O   UNL A   1      32.640  34.094  28.041  1.00  0.00    -0.237 OA
ATOM     60  O   UNL A   1      32.238  35.309  30.158  1.00  0.00    -0.237 OA
ATOM     61  O   UNL A   1      33.593  36.346  28.381  1.00  0.00    -0.744 OA
ENDBRANCH  57  58
ENDBRANCH  25  50
BRANCH  37  62
ATOM     62  C   UNL A   1      39.947  34.038  37.016  1.00  0.00     0.058 A 
ATOM     63  C   UNL A   1      39.040  33.612  37.997  1.00  0.00     0.135 A 
ATOM     64  C   UNL A   1      40.573  35.282  37.183  1.00  0.00     0.135 A 
ATOM     65  F   UNL A   1      38.412  32.433  37.874  1.00  0.00    -0.206 F 
ATOM     66  C   UNL A   1      38.743  34.409  39.095  1.00  0.00     0.059 A 
ATOM     67  C   UNL A   1      40.318  36.079  38.291  1.00  0.00     0.059 A 
ATOM     68  F   UNL A   1      41.458  35.724  36.274  1.00  0.00    -0.206 F 
ATOM     69  C   UNL A   1      39.390  35.638  39.234  1.00  0.00     0.060 A 
BRANCH  69  70
ATOM     70  S   UNL A   1      39.019  36.647  40.681  1.00  0.00     0.124 S 
ATOM     71  O   UNL A   1      38.280  37.753  40.085  1.00  0.00    -0.237 OA
ATOM     72  O   UNL A   1      38.237  35.732  41.507  1.00  0.00    -0.237 OA
ATOM     73  O   UNL A   1      40.339  36.984  41.207  1.00  0.00    -0.744 OA
ENDBRANCH  69  70
ENDBRANCH  37  62
ENDBRANCH  11  12
ENDBRANCH   4   6
ENDBRANCH   3   4
ENDBRANCH   2   3
ENDBRANCH   1   2
BRANCH   1  74
ATOM     74  O   UNL A   1      41.754  21.274  27.575  1.00  0.00    -0.374 OA
BRANCH  74  75
ATOM     75  C   UNL A   1      41.181  19.965  27.543  1.00  0.00     0.202 C 
BRANCH  75  76
ATOM     76  C   UNL A   1      40.815  19.599  26.108  1.00  0.00     0.261 C 
BRANCH  76  77
ATOM     77  O   UNL A   1      42.031  19.637  25.350  1.00  0.00    -0.459 OA
BRANCH  77  78
ATOM     78  C   UNL A   1      42.936  18.668  25.681  1.00  0.00     0.366 C 
ATOM     79  O   UNL A   1      42.666  17.500  25.942  1.00  0.00    -0.245 OA
BRANCH  78  80
ATOM     80  C   UNL A   1      44.338  19.247  25.692  1.00  0.00     0.313 C 
ATOM     81  C   UNL A   1      44.460  20.137  24.457  1.00  0.00     0.199 C 
ATOM     82  N   UNL A   1      45.384  18.175  25.653  1.00  0.00    -0.332 N 
ATOM     83  N   UNL A   1      45.799  20.720  24.381  1.00  0.00    -0.312 N 
ATOM     84  C   UNL A   1      46.716  18.795  25.667  1.00  0.00     0.283 C 
ATOM     85  H   UNL A   1      45.274  17.622  24.804  1.00  0.00     0.347 HD
ATOM     86  H   UNL A   1      45.281  17.569  26.467  1.00  0.00     0.347 HD
ATOM     87  C   UNL A   1      46.935  19.807  24.517  1.00  0.00     0.183 C 
BRANCH  83  88
ATOM     88  C   UNL A   1      45.900  21.988  24.811  1.00  0.00     0.324 A 
ATOM     89  N   UNL A   1      45.991  22.418  26.043  1.00  0.00    -0.171 NA
ATOM     90  O   UNL A   1      45.619  22.971  23.909  1.00  0.00    -0.315 OA
ATOM     91  C   UNL A   1      45.698  23.748  25.906  1.00  0.00     0.204 A 
ATOM     92  N   UNL A   1      45.458  24.145  24.647  1.00  0.00    -0.055 NA
BRANCH  91  93
ATOM     93  C   UNL A   1      45.660  24.649  27.034  1.00  0.00     0.023 A 
ATOM     94  C   UNL A   1      45.227  24.196  28.285  1.00  0.00     0.012 A 
ATOM     95  C   UNL A   1      46.012  25.991  26.860  1.00  0.00     0.012 A 
ATOM     96  C   UNL A   1      45.101  25.094  29.346  1.00  0.00     0.001 A 
ATOM     97  C   UNL A   1      45.870  26.890  27.917  1.00  0.00     0.001 A 
ATOM     98  C   UNL A   1      45.404  26.443  29.154  1.00  0.00     0.000 A 
ENDBRANCH  91  93
ENDBRANCH  83  88
ENDBRANCH  78  80
ENDBRANCH  77  78
ENDBRANCH  76  77
ENDBRANCH  75  76
ENDBRANCH  74  75
ENDBRANCH   1  74
TORSDOF 19
ENDMDL
