MODEL 1
REMARK VINA RESULT:     -11.6      0.000      0.000
REMARK SMILES Cc1ccc(C(=O)OCCOCCOC(=O)c2ccc(-c3c4nc(c(-c5c(F)cc(S(=O)(=O)[O-])cc5F)c5ccc([nH]5)c(-c5c(F)cc(S(=O)(=O)[O-])cc5F)c5nc(c(-c6c(F)cc(S(=O)(=O)[O-])cc6F)c6ccc3[nH]6)C=C5)C=C4)cc2)cc1O[C@@H](C)C(=O)N[C@@H]1CCS(=O)(=O)C1
REMARK SMILES IDX 10 1 9 2 8 3 6 4 7 5 5 6 1 7 2 8 3 9 84 10 4 11 83 12 85 13
REMARK SMILES IDX 86 14 87 15 88 16 89 17 90 18 91 20 92 21 97 22 93 23 94 24
REMARK SMILES IDX 95 25 96 26 11 27 12 28 13 29 14 30 15 31 16 32 17 33 18 34
REMARK SMILES IDX 82 35 19 36 81 37 20 38 21 39 22 40 75 41 23 42 80 43 74 44
REMARK SMILES IDX 76 45 24 46 79 47 73 48 72 49 25 51 59 52 38 53 58 54 39 55
REMARK SMILES IDX 42 56 57 57 77 58 40 59 41 60 56 62 78 63 43 64 26 65 27 66
REMARK SMILES IDX 36 67 28 68 29 69 35 70 37 71 30 72 31 73 32 74 33 75 34 76
REMARK SMILES IDX 60 77 61 78 70 79 62 80 63 81 69 82 71 83 64 84 65 85 66 86
REMARK SMILES IDX 67 87 68 88 44 89 45 90 54 91 46 92 47 93 53 94 55 95 48 96
REMARK SMILES IDX 49 97 50 98 51 99 52 100
REMARK H PARENT 90 19 76 50 42 61
REMARK Flexibility Score: inf
ROOT
ATOM      1  C   UNL A   1      33.757  22.384  25.547  1.00  0.00     0.202 C 
ENDROOT
BRANCH   1   2
ATOM      2  C   UNL A   1      34.200  23.796  25.379  1.00  0.00     0.261 C 
BRANCH   2   3
ATOM      3  O   UNL A   1      33.583  24.798  26.245  1.00  0.00    -0.460 OA
BRANCH   3   4
ATOM      4  C   UNL A   1      32.233  24.988  26.330  1.00  0.00     0.338 C 
ATOM      5  O   UNL A   1      31.449  24.524  27.135  1.00  0.00    -0.246 OA
BRANCH   4   6
ATOM      6  C   UNL A   1      31.805  26.009  25.332  1.00  0.00     0.063 A 
ATOM      7  C   UNL A   1      29.932  29.384  23.397  1.00  0.00     0.048 C 
ATOM      8  C   UNL A   1      30.662  28.232  24.020  1.00  0.00    -0.009 A 
ATOM      9  C   UNL A   1      29.997  26.986  24.065  1.00  0.00     0.008 A 
ATOM     10  C   UNL A   1      31.939  28.316  24.582  1.00  0.00     0.124 A 
ATOM     11  C   UNL A   1      30.546  25.895  24.747  1.00  0.00     0.016 A 
ATOM     12  C   UNL A   1      32.545  27.172  25.127  1.00  0.00     0.062 A 
BRANCH  10  13
ATOM     13  O   UNL A   1      32.721  29.408  24.735  1.00  0.00    -0.481 OA
BRANCH  13  14
ATOM     14  C   UNL A   1      32.962  30.108  25.935  1.00  0.00     0.258 C 
ATOM     15  C   UNL A   1      31.619  30.810  26.212  1.00  0.00     0.064 C 
BRANCH  14  16
ATOM     16  C   UNL A   1      33.716  29.863  27.318  1.00  0.00     0.261 C 
ATOM     17  O   UNL A   1      33.627  28.766  27.891  1.00  0.00    -0.271 OA
ATOM     18  N   UNL A   1      34.376  30.814  28.033  1.00  0.00    -0.349 N 
ATOM     19  H   UNL A   1      34.662  30.529  28.931  1.00  0.00     0.163 HD
BRANCH  18  20
ATOM     20  C   UNL A   1      34.729  32.177  27.693  1.00  0.00     0.098 C 
ATOM     21  C   UNL A   1      36.158  32.576  28.137  1.00  0.00     0.042 C 
ATOM     22  C   UNL A   1      33.744  33.173  28.273  1.00  0.00     0.161 C 
ATOM     23  C   UNL A   1      36.068  33.696  29.169  1.00  0.00     0.139 C 
ATOM     24  S   UNL A   1      34.432  33.597  29.830  1.00  0.00     0.152 S 
ATOM     25  O   UNL A   1      34.351  32.467  30.722  1.00  0.00    -0.229 OA
ATOM     26  O   UNL A   1      33.986  34.914  30.220  1.00  0.00    -0.229 OA
ENDBRANCH  18  20
ENDBRANCH  14  16
ENDBRANCH  13  14
ENDBRANCH  10  13
ENDBRANCH   4   6
ENDBRANCH   3   4
ENDBRANCH   2   3
ENDBRANCH   1   2
BRANCH   1  27
ATOM     27  O   UNL A   1      34.937  21.607  25.629  1.00  0.00    -0.374 OA
BRANCH  27  28
ATOM     28  C   UNL A   1      35.851  21.792  24.579  1.00  0.00     0.202 C 
BRANCH  28  29
ATOM     29  C   UNL A   1      37.318  21.666  24.993  1.00  0.00     0.261 C 
BRANCH  29  30
ATOM     30  O   UNL A   1      37.623  22.495  26.138  1.00  0.00    -0.460 OA
BRANCH  30  31
ATOM     31  C   UNL A   1      38.949  22.651  26.446  1.00  0.00     0.338 C 
ATOM     32  O   UNL A   1      39.757  21.741  26.412  1.00  0.00    -0.246 OA
BRANCH  31  33
ATOM     33  C   UNL A   1      39.273  24.084  26.710  1.00  0.00     0.060 A 
ATOM     34  C   UNL A   1      40.048  24.850  25.821  1.00  0.00     0.016 A 
ATOM     35  C   UNL A   1      38.950  24.604  27.954  1.00  0.00     0.016 A 
ATOM     36  C   UNL A   1      40.644  26.053  26.247  1.00  0.00     0.010 A 
ATOM     37  C   UNL A   1      39.629  25.714  28.402  1.00  0.00     0.010 A 
ATOM     38  C   UNL A   1      40.500  26.444  27.573  1.00  0.00    -0.014 A 
BRANCH  38  39
ATOM     39  C   UNL A   1      41.169  27.560  28.262  1.00  0.00     0.031 A 
ATOM     40  C   UNL A   1      40.337  28.769  28.511  1.00  0.00     0.074 A 
ATOM     41  C   UNL A   1      42.321  27.378  28.964  1.00  0.00     0.049 A 
ATOM     42  N   UNL A   1      40.756  29.826  29.107  1.00  0.00    -0.248 NA
ATOM     43  C   UNL A   1      38.938  28.905  28.093  1.00  0.00     0.031 C 
ATOM     44  C   UNL A   1      42.770  28.080  30.172  1.00  0.00     0.029 A 
ATOM     45  N   UNL A   1      43.357  26.456  28.787  1.00  0.00    -0.354 N 
ATOM     46  C   UNL A   1      39.654  30.547  29.514  1.00  0.00     0.074 A 
ATOM     47  C   UNL A   1      38.573  30.023  28.726  1.00  0.00     0.031 C 
ATOM     48  C   UNL A   1      44.066  27.800  30.414  1.00  0.00     0.029 A 
ATOM     49  C   UNL A   1      44.540  26.994  29.301  1.00  0.00     0.049 A 
ATOM     50  H   UNL A   1      43.268  25.569  28.368  1.00  0.00     0.167 HD
ATOM     51  C   UNL A   1      39.807  31.377  30.587  1.00  0.00     0.037 A 
ATOM     52  C   UNL A   1      45.604  27.196  28.481  1.00  0.00     0.037 A 
ATOM     53  C   UNL A   1      41.238  31.464  30.941  1.00  0.00     0.049 A 
ATOM     54  C   UNL A   1      45.796  28.680  28.433  1.00  0.00     0.074 A 
ATOM     55  C   UNL A   1      41.991  31.001  32.007  1.00  0.00     0.029 A 
ATOM     56  N   UNL A   1      42.158  31.827  29.950  1.00  0.00    -0.354 N 
ATOM     57  N   UNL A   1      44.805  29.514  28.620  1.00  0.00    -0.248 NA
ATOM     58  C   UNL A   1      47.096  29.339  28.404  1.00  0.00     0.031 C 
ATOM     59  C   UNL A   1      43.361  30.992  31.602  1.00  0.00     0.029 A 
ATOM     60  C   UNL A   1      43.445  31.458  30.295  1.00  0.00     0.049 A 
ATOM     61  H   UNL A   1      41.919  32.287  29.113  1.00  0.00     0.167 HD
ATOM     62  C   UNL A   1      45.313  30.738  28.917  1.00  0.00     0.074 A 
ATOM     63  C   UNL A   1      46.744  30.607  28.684  1.00  0.00     0.031 C 
ATOM     64  C   UNL A   1      44.568  31.765  29.413  1.00  0.00     0.037 A 
BRANCH  51  65
ATOM     65  C   UNL A   1      38.689  31.942  31.464  1.00  0.00     0.058 A 
ATOM     66  C   UNL A   1      38.596  33.339  31.673  1.00  0.00     0.135 A 
ATOM     67  C   UNL A   1      37.726  31.198  32.185  1.00  0.00     0.135 A 
ATOM     68  F   UNL A   1      39.423  34.195  31.056  1.00  0.00    -0.206 F 
ATOM     69  C   UNL A   1      37.663  33.934  32.531  1.00  0.00     0.059 A 
ATOM     70  C   UNL A   1      36.768  31.772  33.032  1.00  0.00     0.059 A 
ATOM     71  F   UNL A   1      37.656  29.868  32.136  1.00  0.00    -0.206 F 
ATOM     72  C   UNL A   1      36.748  33.143  33.208  1.00  0.00     0.060 A 
BRANCH  72  73
ATOM     73  S   UNL A   1      35.541  33.920  34.297  1.00  0.00     0.124 S 
ATOM     74  O   UNL A   1      35.623  35.320  33.891  1.00  0.00    -0.237 OA
ATOM     75  O   UNL A   1      34.310  33.224  33.936  1.00  0.00    -0.237 OA
ATOM     76  O   UNL A   1      36.050  33.631  35.635  1.00  0.00    -0.744 OA
ENDBRANCH  72  73
ENDBRANCH  51  65
BRANCH  52  77
ATOM     77  C   UNL A   1      45.669  26.141  27.413  1.00  0.00     0.058 A 
ATOM     78  C   UNL A   1      46.129  24.863  27.819  1.00  0.00     0.135 A 
ATOM     79  C   UNL A   1      44.846  26.175  26.277  1.00  0.00     0.135 A 
ATOM     80  F   UNL A   1      46.904  24.748  28.912  1.00  0.00    -0.206 F 
ATOM     81  C   UNL A   1      45.678  23.679  27.229  1.00  0.00     0.059 A 
ATOM     82  C   UNL A   1      44.374  24.996  25.675  1.00  0.00     0.059 A 
ATOM     83  F   UNL A   1      44.353  27.342  25.838  1.00  0.00    -0.206 F 
ATOM     84  C   UNL A   1      44.751  23.754  26.193  1.00  0.00     0.060 A 
BRANCH  84  85
ATOM     85  S   UNL A   1      43.893  22.235  25.693  1.00  0.00     0.124 S 
ATOM     86  O   UNL A   1      43.180  22.667  24.498  1.00  0.00    -0.237 OA
ATOM     87  O   UNL A   1      45.007  21.315  25.473  1.00  0.00    -0.237 OA
ATOM     88  O   UNL A   1      43.060  21.925  26.849  1.00  0.00    -0.744 OA
ENDBRANCH  84  85
ENDBRANCH  52  77
BRANCH  64  89
ATOM     89  C   UNL A   1      44.911  33.192  29.127  1.00  0.00     0.058 A 
ATOM     90  C   UNL A   1      44.561  33.824  27.920  1.00  0.00     0.135 A 
ATOM     91  C   UNL A   1      45.425  34.028  30.143  1.00  0.00     0.135 A 
ATOM     92  F   UNL A   1      43.942  33.165  26.929  1.00  0.00    -0.206 F 
ATOM     93  C   UNL A   1      44.800  35.171  27.697  1.00  0.00     0.059 A 
ATOM     94  C   UNL A   1      45.600  35.392  29.966  1.00  0.00     0.059 A 
ATOM     95  F   UNL A   1      45.756  33.554  31.353  1.00  0.00    -0.206 F 
ATOM     96  C   UNL A   1      45.326  35.944  28.724  1.00  0.00     0.060 A 
BRANCH  96  97
ATOM     97  S   UNL A   1      45.647  37.680  28.420  1.00  0.00     0.124 S 
ATOM     98  O   UNL A   1      46.601  37.979  29.483  1.00  0.00    -0.237 OA
ATOM     99  O   UNL A   1      46.193  37.668  27.066  1.00  0.00    -0.237 OA
ATOM    100  O   UNL A   1      44.332  38.297  28.556  1.00  0.00    -0.744 OA
ENDBRANCH  96  97
ENDBRANCH  64  89
ENDBRANCH  38  39
ENDBRANCH  31  33
ENDBRANCH  30  31
ENDBRANCH  29  30
ENDBRANCH  28  29
ENDBRANCH  27  28
ENDBRANCH   1  27
TORSDOF 21
ENDMDL
MODEL 2
REMARK VINA RESULT:     -10.5      6.217      8.819
REMARK SMILES Cc1ccc(C(=O)OCCOCCOC(=O)c2ccc(-c3c4nc(c(-c5c(F)cc(S(=O)(=O)[O-])cc5F)c5ccc([nH]5)c(-c5c(F)cc(S(=O)(=O)[O-])cc5F)c5nc(c(-c6c(F)cc(S(=O)(=O)[O-])cc6F)c6ccc3[nH]6)C=C5)C=C4)cc2)cc1O[C@@H](C)C(=O)N[C@@H]1CCS(=O)(=O)C1
REMARK SMILES IDX 10 1 9 2 8 3 6 4 7 5 5 6 1 7 2 8 3 9 84 10 4 11 83 12 85 13
REMARK SMILES IDX 86 14 87 15 88 16 89 17 90 18 91 20 92 21 97 22 93 23 94 24
REMARK SMILES IDX 95 25 96 26 11 27 12 28 13 29 14 30 15 31 16 32 17 33 18 34
REMARK SMILES IDX 82 35 19 36 81 37 20 38 21 39 22 40 75 41 23 42 80 43 74 44
REMARK SMILES IDX 76 45 24 46 79 47 73 48 72 49 25 51 59 52 38 53 58 54 39 55
REMARK SMILES IDX 42 56 57 57 77 58 40 59 41 60 56 62 78 63 43 64 26 65 27 66
REMARK SMILES IDX 36 67 28 68 29 69 35 70 37 71 30 72 31 73 32 74 33 75 34 76
REMARK SMILES IDX 60 77 61 78 70 79 62 80 63 81 69 82 71 83 64 84 65 85 66 86
REMARK SMILES IDX 67 87 68 88 44 89 45 90 54 91 46 92 47 93 53 94 55 95 48 96
REMARK SMILES IDX 49 97 50 98 51 99 52 100
REMARK H PARENT 90 19 76 50 42 61
REMARK Flexibility Score: inf
ROOT
ATOM      1  C   UNL A   1      44.231  26.205  25.402  1.00  0.00     0.202 C 
ENDROOT
BRANCH   1   2
ATOM      2  C   UNL A   1      42.772  25.983  25.604  1.00  0.00     0.261 C 
BRANCH   2   3
ATOM      3  O   UNL A   1      42.158  26.601  26.777  1.00  0.00    -0.460 OA
BRANCH   3   4
ATOM      4  C   UNL A   1      40.827  26.503  27.068  1.00  0.00     0.338 C 
ATOM      5  O   UNL A   1      40.015  25.700  26.651  1.00  0.00    -0.246 OA
BRANCH   4   6
ATOM      6  C   UNL A   1      40.472  27.479  28.136  1.00  0.00     0.063 A 
ATOM      7  C   UNL A   1      40.123  31.050  30.539  1.00  0.00     0.048 C 
ATOM      8  C   UNL A   1      40.153  29.792  29.724  1.00  0.00    -0.009 A 
ATOM      9  C   UNL A   1      41.238  28.910  29.924  1.00  0.00     0.008 A 
ATOM     10  C   UNL A   1      39.197  29.450  28.762  1.00  0.00     0.124 A 
ATOM     11  C   UNL A   1      41.417  27.784  29.114  1.00  0.00     0.016 A 
ATOM     12  C   UNL A   1      39.305  28.237  28.062  1.00  0.00     0.062 A 
BRANCH  10  13
ATOM     13  O   UNL A   1      38.135  30.171  28.338  1.00  0.00    -0.481 OA
BRANCH  13  14
ATOM     14  C   UNL A   1      36.774  29.840  28.504  1.00  0.00     0.258 C 
ATOM     15  C   UNL A   1      36.682  29.450  29.992  1.00  0.00     0.064 C 
BRANCH  14  16
ATOM     16  C   UNL A   1      35.356  30.384  28.020  1.00  0.00     0.261 C 
ATOM     17  O   UNL A   1      34.601  29.655  27.360  1.00  0.00    -0.271 OA
ATOM     18  N   UNL A   1      34.919  31.667  28.153  1.00  0.00    -0.349 N 
ATOM     19  H   UNL A   1      34.082  31.867  27.674  1.00  0.00     0.163 HD
BRANCH  18  20
ATOM     20  C   UNL A   1      35.478  32.785  28.884  1.00  0.00     0.098 C 
ATOM     21  C   UNL A   1      34.841  32.994  30.279  1.00  0.00     0.042 C 
ATOM     22  C   UNL A   1      35.367  34.078  28.100  1.00  0.00     0.161 C 
ATOM     23  C   UNL A   1      34.137  34.347  30.312  1.00  0.00     0.139 C 
ATOM     24  S   UNL A   1      33.838  34.763  28.620  1.00  0.00     0.152 S 
ATOM     25  O   UNL A   1      32.750  33.959  28.121  1.00  0.00    -0.229 OA
ATOM     26  O   UNL A   1      33.866  36.198  28.460  1.00  0.00    -0.229 OA
ENDBRANCH  18  20
ENDBRANCH  14  16
ENDBRANCH  13  14
ENDBRANCH  10  13
ENDBRANCH   4   6
ENDBRANCH   3   4
ENDBRANCH   2   3
ENDBRANCH   1   2
BRANCH   1  27
ATOM     27  O   UNL A   1      44.694  25.109  24.636  1.00  0.00    -0.374 OA
BRANCH  27  28
ATOM     28  C   UNL A   1      44.130  23.866  24.963  1.00  0.00     0.202 C 
BRANCH  28  29
ATOM     29  C   UNL A   1      45.077  22.920  25.702  1.00  0.00     0.261 C 
BRANCH  29  30
ATOM     30  O   UNL A   1      45.139  23.222  27.115  1.00  0.00    -0.460 OA
BRANCH  30  31
ATOM     31  C   UNL A   1      46.200  23.980  27.534  1.00  0.00     0.338 C 
ATOM     32  O   UNL A   1      47.252  24.056  26.924  1.00  0.00    -0.246 OA
BRANCH  31  33
ATOM     33  C   UNL A   1      45.848  24.770  28.750  1.00  0.00     0.060 A 
ATOM     34  C   UNL A   1      46.822  25.437  29.515  1.00  0.00     0.016 A 
ATOM     35  C   UNL A   1      44.549  24.682  29.227  1.00  0.00     0.016 A 
ATOM     36  C   UNL A   1      46.535  25.854  30.829  1.00  0.00     0.010 A 
ATOM     37  C   UNL A   1      44.310  24.982  30.549  1.00  0.00     0.010 A 
ATOM     38  C   UNL A   1      45.295  25.550  31.378  1.00  0.00    -0.014 A 
BRANCH  38  39
ATOM     39  C   UNL A   1      44.852  25.739  32.770  1.00  0.00     0.031 A 
ATOM     40  C   UNL A   1      44.308  27.083  33.108  1.00  0.00     0.074 A 
ATOM     41  C   UNL A   1      44.592  24.681  33.586  1.00  0.00     0.049 A 
ATOM     42  N   UNL A   1      43.869  27.416  34.267  1.00  0.00    -0.248 NA
ATOM     43  C   UNL A   1      44.219  28.196  32.157  1.00  0.00     0.031 C 
ATOM     44  C   UNL A   1      43.596  24.585  34.659  1.00  0.00     0.029 A 
ATOM     45  N   UNL A   1      45.132  23.391  33.603  1.00  0.00    -0.354 N 
ATOM     46  C   UNL A   1      43.095  28.545  34.117  1.00  0.00     0.074 A 
ATOM     47  C   UNL A   1      43.475  29.074  32.836  1.00  0.00     0.031 C 
ATOM     48  C   UNL A   1      43.818  23.480  35.398  1.00  0.00     0.029 A 
ATOM     49  C   UNL A   1      45.042  22.877  34.900  1.00  0.00     0.049 A 
ATOM     50  H   UNL A   1      45.514  22.921  32.827  1.00  0.00     0.167 HD
ATOM     51  C   UNL A   1      42.121  28.769  35.048  1.00  0.00     0.037 A 
ATOM     52  C   UNL A   1      46.173  22.537  35.572  1.00  0.00     0.037 A 
ATOM     53  C   UNL A   1      42.277  27.810  36.161  1.00  0.00     0.049 A 
ATOM     54  C   UNL A   1      46.253  23.487  36.726  1.00  0.00     0.074 A 
ATOM     55  C   UNL A   1      41.544  26.718  36.594  1.00  0.00     0.029 A 
ATOM     56  N   UNL A   1      43.515  27.722  36.808  1.00  0.00    -0.354 N 
ATOM     57  N   UNL A   1      45.720  24.681  36.681  1.00  0.00    -0.248 NA
ATOM     58  C   UNL A   1      46.711  23.120  38.061  1.00  0.00     0.031 C 
ATOM     59  C   UNL A   1      42.393  25.923  37.423  1.00  0.00     0.029 A 
ATOM     60  C   UNL A   1      43.639  26.533  37.502  1.00  0.00     0.049 A 
ATOM     61  H   UNL A   1      44.210  28.419  36.774  1.00  0.00     0.167 HD
ATOM     62  C   UNL A   1      45.589  25.152  37.948  1.00  0.00     0.074 A 
ATOM     63  C   UNL A   1      46.300  24.185  38.772  1.00  0.00     0.031 C 
ATOM     64  C   UNL A   1      44.846  26.246  38.274  1.00  0.00     0.037 A 
BRANCH  51  65
ATOM     65  C   UNL A   1      40.902  29.678  34.888  1.00  0.00     0.058 A 
ATOM     66  C   UNL A   1      39.935  29.390  33.895  1.00  0.00     0.135 A 
ATOM     67  C   UNL A   1      40.642  30.871  35.601  1.00  0.00     0.135 A 
ATOM     68  F   UNL A   1      40.019  28.289  33.135  1.00  0.00    -0.206 F 
ATOM     69  C   UNL A   1      38.838  30.216  33.619  1.00  0.00     0.059 A 
ATOM     70  C   UNL A   1      39.540  31.703  35.358  1.00  0.00     0.059 A 
ATOM     71  F   UNL A   1      41.442  31.326  36.565  1.00  0.00    -0.206 F 
ATOM     72  C   UNL A   1      38.645  31.374  34.357  1.00  0.00     0.060 A 
BRANCH  72  73
ATOM     73  S   UNL A   1      37.222  32.421  34.005  1.00  0.00     0.124 S 
ATOM     74  O   UNL A   1      36.704  32.689  35.343  1.00  0.00    -0.237 OA
ATOM     75  O   UNL A   1      37.837  33.554  33.322  1.00  0.00    -0.237 OA
ATOM     76  O   UNL A   1      36.373  31.576  33.169  1.00  0.00    -0.744 OA
ENDBRANCH  72  73
ENDBRANCH  51  65
BRANCH  52  77
ATOM     77  C   UNL A   1      47.221  22.010  34.633  1.00  0.00     0.058 A 
ATOM     78  C   UNL A   1      48.294  22.887  34.332  1.00  0.00     0.135 A 
ATOM     79  C   UNL A   1      47.482  20.637  34.498  1.00  0.00     0.135 A 
ATOM     80  F   UNL A   1      48.126  24.215  34.460  1.00  0.00    -0.206 F 
ATOM     81  C   UNL A   1      49.587  22.429  34.064  1.00  0.00     0.059 A 
ATOM     82  C   UNL A   1      48.777  20.157  34.237  1.00  0.00     0.059 A 
ATOM     83  F   UNL A   1      46.527  19.740  34.781  1.00  0.00    -0.206 F 
ATOM     84  C   UNL A   1      49.831  21.059  34.078  1.00  0.00     0.060 A 
BRANCH  84  85
ATOM     85  S   UNL A   1      51.556  20.493  34.106  1.00  0.00     0.124 S 
ATOM     86  O   UNL A   1      51.974  20.723  32.729  1.00  0.00    -0.237 OA
ATOM     87  O   UNL A   1      52.150  21.375  35.108  1.00  0.00    -0.237 OA
ATOM     88  O   UNL A   1      51.444  19.096  34.506  1.00  0.00    -0.744 OA
ENDBRANCH  84  85
ENDBRANCH  52  77
BRANCH  64  89
ATOM     89  C   UNL A   1      45.202  27.117  39.437  1.00  0.00     0.058 A 
ATOM     90  C   UNL A   1      45.788  28.385  39.276  1.00  0.00     0.135 A 
ATOM     91  C   UNL A   1      44.775  26.787  40.742  1.00  0.00     0.135 A 
ATOM     92  F   UNL A   1      46.113  28.867  38.068  1.00  0.00    -0.206 F 
ATOM     93  C   UNL A   1      46.032  29.225  40.351  1.00  0.00     0.059 A 
ATOM     94  C   UNL A   1      44.939  27.646  41.818  1.00  0.00     0.059 A 
ATOM     95  F   UNL A   1      44.163  25.626  41.017  1.00  0.00    -0.206 F 
ATOM     96  C   UNL A   1      45.609  28.843  41.618  1.00  0.00     0.060 A 
BRANCH  96  97
ATOM     97  S   UNL A   1      45.944  29.929  43.004  1.00  0.00     0.124 S 
ATOM     98  O   UNL A   1      45.547  29.083  44.125  1.00  0.00    -0.237 OA
ATOM     99  O   UNL A   1      47.377  30.176  42.873  1.00  0.00    -0.237 OA
ATOM    100  O   UNL A   1      45.088  31.082  42.745  1.00  0.00    -0.744 OA
ENDBRANCH  96  97
ENDBRANCH  64  89
ENDBRANCH  38  39
ENDBRANCH  31  33
ENDBRANCH  30  31
ENDBRANCH  29  30
ENDBRANCH  28  29
ENDBRANCH  27  28
ENDBRANCH   1  27
TORSDOF 21
ENDMDL
MODEL 3
REMARK VINA RESULT:     -10.4      2.077      3.123
REMARK SMILES Cc1ccc(C(=O)OCCOCCOC(=O)c2ccc(-c3c4nc(c(-c5c(F)cc(S(=O)(=O)[O-])cc5F)c5ccc([nH]5)c(-c5c(F)cc(S(=O)(=O)[O-])cc5F)c5nc(c(-c6c(F)cc(S(=O)(=O)[O-])cc6F)c6ccc3[nH]6)C=C5)C=C4)cc2)cc1O[C@@H](C)C(=O)N[C@@H]1CCS(=O)(=O)C1
REMARK SMILES IDX 10 1 9 2 8 3 6 4 7 5 5 6 1 7 2 8 3 9 84 10 4 11 83 12 85 13
REMARK SMILES IDX 86 14 87 15 88 16 89 17 90 18 91 20 92 21 97 22 93 23 94 24
REMARK SMILES IDX 95 25 96 26 11 27 12 28 13 29 14 30 15 31 16 32 17 33 18 34
REMARK SMILES IDX 82 35 19 36 81 37 20 38 21 39 22 40 75 41 23 42 80 43 74 44
REMARK SMILES IDX 76 45 24 46 79 47 73 48 72 49 25 51 59 52 38 53 58 54 39 55
REMARK SMILES IDX 42 56 57 57 77 58 40 59 41 60 56 62 78 63 43 64 26 65 27 66
REMARK SMILES IDX 36 67 28 68 29 69 35 70 37 71 30 72 31 73 32 74 33 75 34 76
REMARK SMILES IDX 60 77 61 78 70 79 62 80 63 81 69 82 71 83 64 84 65 85 66 86
REMARK SMILES IDX 67 87 68 88 44 89 45 90 54 91 46 92 47 93 53 94 55 95 48 96
REMARK SMILES IDX 49 97 50 98 51 99 52 100
REMARK H PARENT 90 19 76 50 42 61
REMARK Flexibility Score: inf
ROOT
ATOM      1  C   UNL A   1      34.820  20.711  25.372  1.00  0.00     0.202 C 
ENDROOT
BRANCH   1   2
ATOM      2  C   UNL A   1      33.904  21.861  25.611  1.00  0.00     0.261 C 
BRANCH   2   3
ATOM      3  O   UNL A   1      32.646  21.879  24.869  1.00  0.00    -0.460 OA
BRANCH   3   4
ATOM      4  C   UNL A   1      32.549  22.273  23.564  1.00  0.00     0.338 C 
ATOM      5  O   UNL A   1      32.239  21.613  22.592  1.00  0.00    -0.246 OA
BRANCH   4   6
ATOM      6  C   UNL A   1      32.753  23.746  23.467  1.00  0.00     0.063 A 
ATOM      7  C   UNL A   1      33.542  27.735  22.015  1.00  0.00     0.048 C 
ATOM      8  C   UNL A   1      33.200  26.387  22.575  1.00  0.00    -0.009 A 
ATOM      9  C   UNL A   1      34.270  25.566  22.996  1.00  0.00     0.008 A 
ATOM     10  C   UNL A   1      31.901  25.880  22.680  1.00  0.00     0.124 A 
ATOM     11  C   UNL A   1      34.053  24.245  23.403  1.00  0.00     0.016 A 
ATOM     12  C   UNL A   1      31.684  24.609  23.236  1.00  0.00     0.062 A 
BRANCH  10  13
ATOM     13  O   UNL A   1      30.744  26.440  22.263  1.00  0.00    -0.481 OA
BRANCH  13  14
ATOM     14  C   UNL A   1      30.012  27.448  22.923  1.00  0.00     0.258 C 
ATOM     15  C   UNL A   1      28.957  26.658  23.720  1.00  0.00     0.064 C 
BRANCH  14  16
ATOM     16  C   UNL A   1      30.303  28.827  23.669  1.00  0.00     0.261 C 
ATOM     17  O   UNL A   1      29.789  29.879  23.258  1.00  0.00    -0.271 OA
ATOM     18  N   UNL A   1      31.197  29.001  24.680  1.00  0.00    -0.349 N 
ATOM     19  H   UNL A   1      31.357  29.939  24.930  1.00  0.00     0.163 HD
BRANCH  18  20
ATOM     20  C   UNL A   1      31.950  28.034  25.452  1.00  0.00     0.098 C 
ATOM     21  C   UNL A   1      31.349  27.754  26.851  1.00  0.00     0.042 C 
ATOM     22  C   UNL A   1      33.397  28.456  25.620  1.00  0.00     0.161 C 
ATOM     23  C   UNL A   1      32.341  28.199  27.921  1.00  0.00     0.139 C 
ATOM     24  S   UNL A   1      33.406  29.362  27.122  1.00  0.00     0.152 S 
ATOM     25  O   UNL A   1      32.699  30.605  26.945  1.00  0.00    -0.229 OA
ATOM     26  O   UNL A   1      34.720  29.306  27.719  1.00  0.00    -0.229 OA
ENDBRANCH  18  20
ENDBRANCH  14  16
ENDBRANCH  13  14
ENDBRANCH  10  13
ENDBRANCH   4   6
ENDBRANCH   3   4
ENDBRANCH   2   3
ENDBRANCH   1   2
BRANCH   1  27
ATOM     27  O   UNL A   1      35.763  21.149  24.413  1.00  0.00    -0.374 OA
BRANCH  27  28
ATOM     28  C   UNL A   1      36.673  22.118  24.865  1.00  0.00     0.202 C 
BRANCH  28  29
ATOM     29  C   UNL A   1      37.809  21.562  25.724  1.00  0.00     0.261 C 
BRANCH  29  30
ATOM     30  O   UNL A   1      38.997  22.381  25.633  1.00  0.00    -0.460 OA
BRANCH  30  31
ATOM     31  C   UNL A   1      39.603  22.716  26.815  1.00  0.00     0.338 C 
ATOM     32  O   UNL A   1      40.100  21.899  27.569  1.00  0.00    -0.246 OA
BRANCH  31  33
ATOM     33  C   UNL A   1      39.668  24.197  26.983  1.00  0.00     0.060 A 
ATOM     34  C   UNL A   1      40.330  25.026  26.058  1.00  0.00     0.016 A 
ATOM     35  C   UNL A   1      39.222  24.734  28.180  1.00  0.00     0.016 A 
ATOM     36  C   UNL A   1      40.697  26.339  26.411  1.00  0.00     0.010 A 
ATOM     37  C   UNL A   1      39.685  25.972  28.563  1.00  0.00     0.010 A 
ATOM     38  C   UNL A   1      40.445  26.786  27.702  1.00  0.00    -0.014 A 
BRANCH  38  39
ATOM     39  C   UNL A   1      40.890  28.044  28.325  1.00  0.00     0.031 A 
ATOM     40  C   UNL A   1      39.893  29.150  28.354  1.00  0.00     0.074 A 
ATOM     41  C   UNL A   1      41.969  28.089  29.152  1.00  0.00     0.049 A 
ATOM     42  N   UNL A   1      40.109  30.306  28.866  1.00  0.00    -0.248 NA
ATOM     43  C   UNL A   1      38.544  29.054  27.788  1.00  0.00     0.031 C 
ATOM     44  C   UNL A   1      42.190  28.959  30.312  1.00  0.00     0.029 A 
ATOM     45  N   UNL A   1      43.124  27.300  29.183  1.00  0.00    -0.354 N 
ATOM     46  C   UNL A   1      38.889  30.909  29.079  1.00  0.00     0.074 A 
ATOM     47  C   UNL A   1      37.975  30.170  28.252  1.00  0.00     0.031 C 
ATOM     48  C   UNL A   1      43.476  28.881  30.712  1.00  0.00     0.029 A 
ATOM     49  C   UNL A   1      44.166  28.041  29.748  1.00  0.00     0.049 A 
ATOM     50  H   UNL A   1      43.193  26.373  28.859  1.00  0.00     0.167 HD
ATOM     51  C   UNL A   1      38.816  31.854  30.062  1.00  0.00     0.037 A 
ATOM     52  C   UNL A   1      45.283  28.301  29.019  1.00  0.00     0.037 A 
ATOM     53  C   UNL A   1      40.178  32.166  30.543  1.00  0.00     0.049 A 
ATOM     54  C   UNL A   1      45.295  29.786  28.824  1.00  0.00     0.074 A 
ATOM     55  C   UNL A   1      40.857  31.915  31.723  1.00  0.00     0.029 A 
ATOM     56  N   UNL A   1      41.151  32.550  29.614  1.00  0.00    -0.354 N 
ATOM     57  N   UNL A   1      44.194  30.494  28.818  1.00  0.00    -0.248 NA
ATOM     58  C   UNL A   1      46.499  30.607  28.849  1.00  0.00     0.031 C 
ATOM     59  C   UNL A   1      42.255  32.050  31.459  1.00  0.00     0.029 A 
ATOM     60  C   UNL A   1      42.426  32.392  30.123  1.00  0.00     0.049 A 
ATOM     61  H   UNL A   1      40.953  32.889  28.711  1.00  0.00     0.167 HD
ATOM     62  C   UNL A   1      44.511  31.798  29.024  1.00  0.00     0.074 A 
ATOM     63  C   UNL A   1      45.965  31.838  28.950  1.00  0.00     0.031 C 
ATOM     64  C   UNL A   1      43.595  32.760  29.327  1.00  0.00     0.037 A 
BRANCH  51  65
ATOM     65  C   UNL A   1      37.546  32.347  30.757  1.00  0.00     0.058 A 
ATOM     66  C   UNL A   1      37.337  33.736  30.936  1.00  0.00     0.135 A 
ATOM     67  C   UNL A   1      36.534  31.544  31.331  1.00  0.00     0.135 A 
ATOM     68  F   UNL A   1      38.193  34.642  30.443  1.00  0.00    -0.206 F 
ATOM     69  C   UNL A   1      36.250  34.270  31.640  1.00  0.00     0.059 A 
ATOM     70  C   UNL A   1      35.426  32.056  32.019  1.00  0.00     0.059 A 
ATOM     71  F   UNL A   1      36.554  30.212  31.283  1.00  0.00    -0.206 F 
ATOM     72  C   UNL A   1      35.294  33.423  32.178  1.00  0.00     0.060 A 
BRANCH  72  73
ATOM     73  S   UNL A   1      33.891  34.122  33.066  1.00  0.00     0.124 S 
ATOM     74  O   UNL A   1      34.539  34.744  34.216  1.00  0.00    -0.237 OA
ATOM     75  O   UNL A   1      33.330  35.039  32.079  1.00  0.00    -0.237 OA
ATOM     76  O   UNL A   1      33.065  32.958  33.373  1.00  0.00    -0.744 OA
ENDBRANCH  72  73
ENDBRANCH  51  65
BRANCH  52  77
ATOM     77  C   UNL A   1      45.597  27.165  28.087  1.00  0.00     0.058 A 
ATOM     78  C   UNL A   1      45.063  27.260  26.777  1.00  0.00     0.135 A 
ATOM     79  C   UNL A   1      46.746  26.372  28.235  1.00  0.00     0.135 A 
ATOM     80  F   UNL A   1      43.977  28.020  26.553  1.00  0.00    -0.206 F 
ATOM     81  C   UNL A   1      45.713  26.730  25.660  1.00  0.00     0.059 A 
ATOM     82  C   UNL A   1      47.419  25.837  27.124  1.00  0.00     0.059 A 
ATOM     83  F   UNL A   1      47.324  26.245  29.438  1.00  0.00    -0.206 F 
ATOM     84  C   UNL A   1      46.925  26.069  25.838  1.00  0.00     0.060 A 
BRANCH  84  85
ATOM     85  S   UNL A   1      47.939  25.720  24.372  1.00  0.00     0.124 S 
ATOM     86  O   UNL A   1      49.281  25.667  24.937  1.00  0.00    -0.237 OA
ATOM     87  O   UNL A   1      47.388  24.446  23.918  1.00  0.00    -0.237 OA
ATOM     88  O   UNL A   1      47.666  26.855  23.498  1.00  0.00    -0.744 OA
ENDBRANCH  84  85
ENDBRANCH  52  77
BRANCH  64  89
ATOM     89  C   UNL A   1      43.790  34.185  28.918  1.00  0.00     0.058 A 
ATOM     90  C   UNL A   1      43.735  34.597  27.574  1.00  0.00     0.135 A 
ATOM     91  C   UNL A   1      43.835  35.213  29.885  1.00  0.00     0.135 A 
ATOM     92  F   UNL A   1      43.557  33.724  26.572  1.00  0.00    -0.206 F 
ATOM     93  C   UNL A   1      43.826  35.931  27.208  1.00  0.00     0.059 A 
ATOM     94  C   UNL A   1      43.848  36.556  29.543  1.00  0.00     0.059 A 
ATOM     95  F   UNL A   1      43.846  34.951  31.200  1.00  0.00    -0.206 F 
ATOM     96  C   UNL A   1      43.888  36.902  28.201  1.00  0.00     0.060 A 
BRANCH  96  97
ATOM     97  S   UNL A   1      44.022  38.622  27.717  1.00  0.00     0.124 S 
ATOM     98  O   UNL A   1      43.931  39.285  29.014  1.00  0.00    -0.237 OA
ATOM     99  O   UNL A   1      45.330  38.669  27.072  1.00  0.00    -0.237 OA
ATOM    100  O   UNL A   1      42.882  38.814  26.827  1.00  0.00    -0.744 OA
ENDBRANCH  96  97
ENDBRANCH  64  89
ENDBRANCH  38  39
ENDBRANCH  31  33
ENDBRANCH  30  31
ENDBRANCH  29  30
ENDBRANCH  28  29
ENDBRANCH  27  28
ENDBRANCH   1  27
TORSDOF 21
ENDMDL
