MODEL 1
REMARK VINA RESULT:     -10.4      0.000      0.000
REMARK SMILES CC(C)N1C(=O)C[C@@H]([N@@H+]2CC[C@H](C(=O)OCCOCCOC(=O)c3ccc(-c4c5nc(c(-c6c(F)cc(S(=O)(=O)[O-])cc6F)c6ccc([nH]6)c(-c6c(F)cc(S(=O)(=O)[O-])cc6F)c6nc(c(-c7c(F)cc(S(=O)(=O)[O-])cc7F)c7ccc4[nH]7)C=C6)C=C5)cc3)[C@@H]2C)C1=O
REMARK SMILES IDX 19 1 18 2 17 3 16 4 15 5 13 6 14 7 12 8 9 9 10 10 90 11
REMARK SMILES IDX 11 13 91 14 8 15 4 16 5 17 92 18 6 19 7 20 93 21 2 22 1 23
REMARK SMILES IDX 3 24 20 25 21 26 22 27 23 28 24 29 25 30 89 31 26 32 88 33
REMARK SMILES IDX 27 34 28 35 29 36 82 37 30 38 87 39 81 40 83 41 31 42 86 43
REMARK SMILES IDX 80 44 79 45 32 47 66 48 45 49 65 50 46 51 49 52 64 53 84 54
REMARK SMILES IDX 47 55 48 56 63 58 85 59 50 60 33 61 34 62 43 63 35 64 36 65
REMARK SMILES IDX 42 66 44 67 37 68 38 69 39 70 40 71 41 72 67 73 68 74 77 75
REMARK SMILES IDX 69 76 70 77 76 78 78 79 71 80 72 81 73 82 74 83 75 84 51 85
REMARK SMILES IDX 52 86 61 87 53 88 54 89 60 90 62 91 55 92 56 93 57 94 58 95
REMARK SMILES IDX 59 96
REMARK H PARENT 9 12 83 46 49 57
REMARK Flexibility Score: inf
ROOT
ATOM      1  C   UNL A   1      32.359  29.853  25.441  1.00  0.00     0.202 C 
ENDROOT
BRANCH   1   2
ATOM      2  O   UNL A   1      31.098  29.298  25.106  1.00  0.00    -0.374 OA
BRANCH   2   3
ATOM      3  C   UNL A   1      30.423  29.652  23.914  1.00  0.00     0.202 C 
BRANCH   3   4
ATOM      4  C   UNL A   1      30.733  28.874  22.640  1.00  0.00     0.261 C 
BRANCH   4   5
ATOM      5  O   UNL A   1      30.390  27.476  22.693  1.00  0.00    -0.463 OA
BRANCH   5   6
ATOM      6  C   UNL A   1      31.394  26.667  23.127  1.00  0.00     0.315 C 
ATOM      7  O   UNL A   1      32.524  26.676  22.654  1.00  0.00    -0.252 OA
BRANCH   6   8
ATOM      8  C   UNL A   1      30.906  25.659  24.157  1.00  0.00     0.162 C 
ATOM      9  N   UNL A   1      32.700  24.163  24.724  1.00  0.00    -0.321 N 
ATOM     10  C   UNL A   1      32.114  23.709  23.458  1.00  0.00     0.264 C 
ATOM     11  C   UNL A   1      31.846  25.213  25.285  1.00  0.00     0.196 C 
ATOM     12  H   UNL A   1      32.678  23.409  25.410  1.00  0.00     0.349 HD
ATOM     13  C   UNL A   1      30.716  24.324  23.427  1.00  0.00     0.083 C 
ATOM     14  C   UNL A   1      32.492  26.250  26.183  1.00  0.00     0.076 C 
BRANCH   9  15
ATOM     15  C   UNL A   1      34.164  24.287  24.774  1.00  0.00     0.284 C 
ATOM     16  N   UNL A   1      35.758  22.578  25.093  1.00  0.00    -0.275 N 
ATOM     17  C   UNL A   1      35.986  23.058  23.833  1.00  0.00     0.236 C 
ATOM     18  C   UNL A   1      34.756  23.258  25.731  1.00  0.00     0.288 C 
ATOM     19  O   UNL A   1      36.878  22.706  23.073  1.00  0.00    -0.274 OA
ATOM     20  C   UNL A   1      34.956  24.083  23.489  1.00  0.00     0.176 C 
ATOM     21  O   UNL A   1      34.382  23.101  26.886  1.00  0.00    -0.267 OA
BRANCH  16  22
ATOM     22  C   UNL A   1      36.484  21.412  25.599  1.00  0.00     0.087 C 
ATOM     23  C   UNL A   1      36.142  20.091  24.914  1.00  0.00     0.031 C 
ATOM     24  C   UNL A   1      37.993  21.666  25.514  1.00  0.00     0.031 C 
ENDBRANCH  16  22
ENDBRANCH   9  15
ENDBRANCH   6   8
ENDBRANCH   5   6
ENDBRANCH   4   5
ENDBRANCH   3   4
ENDBRANCH   2   3
ENDBRANCH   1   2
BRANCH   1  25
ATOM     25  C   UNL A   1      32.763  30.136  26.890  1.00  0.00     0.261 C 
BRANCH  25  26
ATOM     26  O   UNL A   1      34.116  29.979  27.261  1.00  0.00    -0.460 OA
BRANCH  26  27
ATOM     27  C   UNL A   1      34.660  30.904  28.069  1.00  0.00     0.338 C 
ATOM     28  O   UNL A   1      34.135  31.881  28.562  1.00  0.00    -0.246 OA
BRANCH  27  29
ATOM     29  C   UNL A   1      36.000  30.362  28.330  1.00  0.00     0.060 A 
ATOM     30  C   UNL A   1      36.257  29.764  29.566  1.00  0.00     0.016 A 
ATOM     31  C   UNL A   1      36.939  30.322  27.291  1.00  0.00     0.016 A 
ATOM     32  C   UNL A   1      37.489  29.157  29.782  1.00  0.00     0.010 A 
ATOM     33  C   UNL A   1      38.166  29.710  27.506  1.00  0.00     0.010 A 
ATOM     34  C   UNL A   1      38.456  29.162  28.765  1.00  0.00    -0.014 A 
BRANCH  34  35
ATOM     35  C   UNL A   1      39.849  28.790  29.076  1.00  0.00     0.031 A 
ATOM     36  C   UNL A   1      40.709  29.825  29.744  1.00  0.00     0.074 A 
ATOM     37  C   UNL A   1      40.325  27.572  28.765  1.00  0.00     0.049 A 
ATOM     38  N   UNL A   1      41.971  29.769  30.070  1.00  0.00    -0.248 NA
ATOM     39  C   UNL A   1      40.056  31.105  30.077  1.00  0.00     0.031 C 
ATOM     40  C   UNL A   1      39.558  26.502  28.125  1.00  0.00     0.029 A 
ATOM     41  N   UNL A   1      41.574  27.037  28.936  1.00  0.00    -0.354 N 
ATOM     42  C   UNL A   1      42.264  31.002  30.638  1.00  0.00     0.074 A 
ATOM     43  C   UNL A   1      41.063  31.803  30.576  1.00  0.00     0.031 C 
ATOM     44  C   UNL A   1      40.361  25.437  27.953  1.00  0.00     0.029 A 
ATOM     45  C   UNL A   1      41.699  25.761  28.440  1.00  0.00     0.049 A 
ATOM     46  H   UNL A   1      42.311  27.519  29.375  1.00  0.00     0.167 HD
ATOM     47  C   UNL A   1      43.430  31.420  31.178  1.00  0.00     0.037 A 
ATOM     48  C   UNL A   1      42.783  24.964  28.375  1.00  0.00     0.037 A 
ATOM     49  C   UNL A   1      44.611  30.604  31.234  1.00  0.00     0.049 A 
ATOM     50  C   UNL A   1      44.085  25.468  28.944  1.00  0.00     0.074 A 
ATOM     51  C   UNL A   1      45.844  30.910  31.777  1.00  0.00     0.029 A 
ATOM     52  N   UNL A   1      44.702  29.317  30.722  1.00  0.00    -0.354 N 
ATOM     53  N   UNL A   1      44.343  26.623  29.515  1.00  0.00    -0.248 NA
ATOM     54  C   UNL A   1      45.240  24.564  28.869  1.00  0.00     0.031 C 
ATOM     55  C   UNL A   1      46.697  29.825  31.547  1.00  0.00     0.029 A 
ATOM     56  C   UNL A   1      45.978  28.822  30.914  1.00  0.00     0.049 A 
ATOM     57  H   UNL A   1      43.967  28.828  30.284  1.00  0.00     0.167 HD
ATOM     58  C   UNL A   1      45.680  26.572  29.894  1.00  0.00     0.074 A 
ATOM     59  C   UNL A   1      46.175  25.269  29.494  1.00  0.00     0.031 C 
ATOM     60  C   UNL A   1      46.433  27.511  30.519  1.00  0.00     0.037 A 
BRANCH  47  61
ATOM     61  C   UNL A   1      43.485  32.818  31.727  1.00  0.00     0.058 A 
ATOM     62  C   UNL A   1      43.936  33.900  30.953  1.00  0.00     0.135 A 
ATOM     63  C   UNL A   1      43.061  33.084  33.039  1.00  0.00     0.135 A 
ATOM     64  F   UNL A   1      44.379  33.699  29.702  1.00  0.00    -0.206 F 
ATOM     65  C   UNL A   1      43.984  35.192  31.467  1.00  0.00     0.059 A 
ATOM     66  C   UNL A   1      43.074  34.372  33.564  1.00  0.00     0.059 A 
ATOM     67  F   UNL A   1      42.633  32.084  33.826  1.00  0.00    -0.206 F 
ATOM     68  C   UNL A   1      43.547  35.418  32.773  1.00  0.00     0.060 A 
BRANCH  68  69
ATOM     69  S   UNL A   1      43.597  37.103  33.419  1.00  0.00     0.124 S 
ATOM     70  O   UNL A   1      43.520  37.888  32.190  1.00  0.00    -0.237 OA
ATOM     71  O   UNL A   1      42.413  37.144  34.272  1.00  0.00    -0.237 OA
ATOM     72  O   UNL A   1      44.874  37.161  34.121  1.00  0.00    -0.744 OA
ENDBRANCH  68  69
ENDBRANCH  47  61
BRANCH  48  73
ATOM     73  C   UNL A   1      42.684  23.618  27.749  1.00  0.00     0.058 A 
ATOM     74  C   UNL A   1      42.510  22.464  28.528  1.00  0.00     0.135 A 
ATOM     75  C   UNL A   1      42.756  23.458  26.356  1.00  0.00     0.135 A 
ATOM     76  F   UNL A   1      42.441  22.561  29.865  1.00  0.00    -0.206 F 
ATOM     77  C   UNL A   1      42.429  21.199  27.952  1.00  0.00     0.059 A 
ATOM     78  C   UNL A   1      42.651  22.207  25.755  1.00  0.00     0.059 A 
ATOM     79  F   UNL A   1      42.907  24.530  25.563  1.00  0.00    -0.206 F 
ATOM     80  C   UNL A   1      42.499  21.082  26.562  1.00  0.00     0.060 A 
BRANCH  80  81
ATOM     81  S   UNL A   1      42.350  19.441  25.823  1.00  0.00     0.124 S 
ATOM     82  O   UNL A   1      40.957  19.437  25.394  1.00  0.00    -0.237 OA
ATOM     83  O   UNL A   1      43.347  19.494  24.758  1.00  0.00    -0.237 OA
ATOM     84  O   UNL A   1      42.674  18.544  26.929  1.00  0.00    -0.744 OA
ENDBRANCH  80  81
ENDBRANCH  48  73
BRANCH  60  85
ATOM     85  C   UNL A   1      47.853  27.155  30.852  1.00  0.00     0.058 A 
ATOM     86  C   UNL A   1      48.190  26.481  32.035  1.00  0.00     0.135 A 
ATOM     87  C   UNL A   1      48.879  27.417  29.928  1.00  0.00     0.135 A 
ATOM     88  F   UNL A   1      47.245  26.212  32.951  1.00  0.00    -0.206 F 
ATOM     89  C   UNL A   1      49.497  26.090  32.297  1.00  0.00     0.059 A 
ATOM     90  C   UNL A   1      50.188  27.008  30.156  1.00  0.00     0.059 A 
ATOM     91  F   UNL A   1      48.606  28.047  28.775  1.00  0.00    -0.206 F 
ATOM     92  C   UNL A   1      50.489  26.352  31.350  1.00  0.00     0.060 A 
BRANCH  92  93
ATOM     93  S   UNL A   1      52.171  25.788  31.680  1.00  0.00     0.124 S 
ATOM     94  O   UNL A   1      52.551  26.640  32.801  1.00  0.00    -0.237 OA
ATOM     95  O   UNL A   1      51.971  24.377  31.994  1.00  0.00    -0.237 OA
ATOM     96  O   UNL A   1      52.870  26.052  30.425  1.00  0.00    -0.744 OA
ENDBRANCH  92  93
ENDBRANCH  60  85
ENDBRANCH  34  35
ENDBRANCH  27  29
ENDBRANCH  26  27
ENDBRANCH  25  26
ENDBRANCH   1  25
TORSDOF 19
ENDMDL
MODEL 2
REMARK VINA RESULT:     -10.4      1.648      8.570
REMARK SMILES CC(C)N1C(=O)C[C@@H]([N@@H+]2CC[C@H](C(=O)OCCOCCOC(=O)c3ccc(-c4c5nc(c(-c6c(F)cc(S(=O)(=O)[O-])cc6F)c6ccc([nH]6)c(-c6c(F)cc(S(=O)(=O)[O-])cc6F)c6nc(c(-c7c(F)cc(S(=O)(=O)[O-])cc7F)c7ccc4[nH]7)C=C6)C=C5)cc3)[C@@H]2C)C1=O
REMARK SMILES IDX 19 1 18 2 17 3 16 4 15 5 13 6 14 7 12 8 9 9 10 10 90 11
REMARK SMILES IDX 11 13 91 14 8 15 4 16 5 17 92 18 6 19 7 20 93 21 2 22 1 23
REMARK SMILES IDX 3 24 20 25 21 26 22 27 23 28 24 29 25 30 89 31 26 32 88 33
REMARK SMILES IDX 27 34 28 35 29 36 82 37 30 38 87 39 81 40 83 41 31 42 86 43
REMARK SMILES IDX 80 44 79 45 32 47 66 48 45 49 65 50 46 51 49 52 64 53 84 54
REMARK SMILES IDX 47 55 48 56 63 58 85 59 50 60 33 61 34 62 43 63 35 64 36 65
REMARK SMILES IDX 42 66 44 67 37 68 38 69 39 70 40 71 41 72 67 73 68 74 77 75
REMARK SMILES IDX 69 76 70 77 76 78 78 79 71 80 72 81 73 82 74 83 75 84 51 85
REMARK SMILES IDX 52 86 61 87 53 88 54 89 60 90 62 91 55 92 56 93 57 94 58 95
REMARK SMILES IDX 59 96
REMARK H PARENT 9 12 83 46 49 57
REMARK Flexibility Score: inf
ROOT
ATOM      1  C   UNL A   1      31.787  28.318  27.647  1.00  0.00     0.202 C 
ENDROOT
BRANCH   1   2
ATOM      2  O   UNL A   1      31.326  27.037  27.250  1.00  0.00    -0.374 OA
BRANCH   2   3
ATOM      3  C   UNL A   1      31.088  26.720  25.892  1.00  0.00     0.202 C 
BRANCH   3   4
ATOM      4  C   UNL A   1      30.448  25.378  25.556  1.00  0.00     0.261 C 
BRANCH   4   5
ATOM      5  O   UNL A   1      31.378  24.285  25.434  1.00  0.00    -0.463 OA
BRANCH   5   6
ATOM      6  C   UNL A   1      31.695  23.683  26.613  1.00  0.00     0.315 C 
ATOM      7  O   UNL A   1      30.861  23.247  27.397  1.00  0.00    -0.252 OA
BRANCH   6   8
ATOM      8  C   UNL A   1      33.187  23.751  26.902  1.00  0.00     0.162 C 
ATOM      9  N   UNL A   1      34.287  21.878  25.871  1.00  0.00    -0.321 N 
ATOM     10  C   UNL A   1      33.688  21.416  27.129  1.00  0.00     0.264 C 
ATOM     11  C   UNL A   1      34.189  23.339  25.815  1.00  0.00     0.196 C 
ATOM     12  H   UNL A   1      35.287  21.679  25.866  1.00  0.00     0.349 HD
ATOM     13  C   UNL A   1      33.491  22.683  27.960  1.00  0.00     0.083 C 
ATOM     14  C   UNL A   1      34.132  23.995  24.448  1.00  0.00     0.076 C 
BRANCH   9  15
ATOM     15  C   UNL A   1      34.028  21.066  24.673  1.00  0.00     0.284 C 
ATOM     16  N   UNL A   1      33.991  18.716  24.489  1.00  0.00    -0.275 N 
ATOM     17  C   UNL A   1      32.715  19.122  24.213  1.00  0.00     0.236 C 
ATOM     18  C   UNL A   1      34.832  19.771  24.720  1.00  0.00     0.288 C 
ATOM     19  O   UNL A   1      31.781  18.406  23.879  1.00  0.00    -0.274 OA
ATOM     20  C   UNL A   1      32.603  20.599  24.405  1.00  0.00     0.176 C 
ATOM     21  O   UNL A   1      36.038  19.719  24.919  1.00  0.00    -0.267 OA
BRANCH  16  22
ATOM     22  C   UNL A   1      34.324  17.294  24.593  1.00  0.00     0.087 C 
ATOM     23  C   UNL A   1      33.525  16.518  25.637  1.00  0.00     0.031 C 
ATOM     24  C   UNL A   1      34.172  16.626  23.221  1.00  0.00     0.031 C 
ENDBRANCH  16  22
ENDBRANCH   9  15
ENDBRANCH   6   8
ENDBRANCH   5   6
ENDBRANCH   4   5
ENDBRANCH   3   4
ENDBRANCH   2   3
ENDBRANCH   1   2
BRANCH   1  25
ATOM     25  C   UNL A   1      32.979  28.997  26.967  1.00  0.00     0.261 C 
BRANCH  25  26
ATOM     26  O   UNL A   1      34.231  28.981  27.618  1.00  0.00    -0.460 OA
BRANCH  26  27
ATOM     27  C   UNL A   1      34.744  30.152  28.029  1.00  0.00     0.338 C 
ATOM     28  O   UNL A   1      34.163  31.193  28.260  1.00  0.00    -0.246 OA
BRANCH  27  29
ATOM     29  C   UNL A   1      36.154  29.824  28.276  1.00  0.00     0.060 A 
ATOM     30  C   UNL A   1      36.528  29.370  29.543  1.00  0.00     0.016 A 
ATOM     31  C   UNL A   1      37.058  29.829  27.206  1.00  0.00     0.016 A 
ATOM     32  C   UNL A   1      37.840  28.959  29.755  1.00  0.00     0.010 A 
ATOM     33  C   UNL A   1      38.364  29.411  27.417  1.00  0.00     0.010 A 
ATOM     34  C   UNL A   1      38.766  29.013  28.702  1.00  0.00    -0.014 A 
BRANCH  34  35
ATOM     35  C   UNL A   1      40.206  28.863  28.983  1.00  0.00     0.031 A 
ATOM     36  C   UNL A   1      40.844  27.546  28.642  1.00  0.00     0.074 A 
ATOM     37  C   UNL A   1      40.912  29.868  29.528  1.00  0.00     0.049 A 
ATOM     38  N   UNL A   1      42.069  27.144  28.838  1.00  0.00    -0.248 NA
ATOM     39  C   UNL A   1      39.974  26.542  28.003  1.00  0.00     0.031 C 
ATOM     40  C   UNL A   1      40.377  31.183  29.883  1.00  0.00     0.029 A 
ATOM     41  N   UNL A   1      42.231  29.932  29.891  1.00  0.00    -0.354 N 
ATOM     42  C   UNL A   1      42.115  25.842  28.355  1.00  0.00     0.074 A 
ATOM     43  C   UNL A   1      40.788  25.505  27.894  1.00  0.00     0.031 C 
ATOM     44  C   UNL A   1      41.363  31.924  30.419  1.00  0.00     0.029 A 
ATOM     45  C   UNL A   1      42.585  31.125  30.473  1.00  0.00     0.049 A 
ATOM     46  H   UNL A   1      42.866  29.193  29.746  1.00  0.00     0.167 HD
ATOM     47  C   UNL A   1      43.178  25.011  28.288  1.00  0.00     0.037 A 
ATOM     48  C   UNL A   1      43.762  31.510  31.004  1.00  0.00     0.037 A 
ATOM     49  C   UNL A   1      44.492  25.370  28.746  1.00  0.00     0.049 A 
ATOM     50  C   UNL A   1      44.923  30.549  30.958  1.00  0.00     0.074 A 
ATOM     51  C   UNL A   1      45.652  24.620  28.710  1.00  0.00     0.029 A 
ATOM     52  N   UNL A   1      44.814  26.587  29.331  1.00  0.00    -0.354 N 
ATOM     53  N   UNL A   1      44.967  29.332  30.464  1.00  0.00    -0.248 NA
ATOM     54  C   UNL A   1      46.193  31.009  31.533  1.00  0.00     0.031 C 
ATOM     55  C   UNL A   1      46.666  25.366  29.320  1.00  0.00     0.029 A 
ATOM     56  C   UNL A   1      46.151  26.602  29.682  1.00  0.00     0.049 A 
ATOM     57  H   UNL A   1      44.184  27.330  29.476  1.00  0.00     0.167 HD
ATOM     58  C   UNL A   1      46.276  28.895  30.641  1.00  0.00     0.074 A 
ATOM     59  C   UNL A   1      46.992  29.980  31.281  1.00  0.00     0.031 C 
ATOM     60  C   UNL A   1      46.839  27.708  30.302  1.00  0.00     0.037 A 
BRANCH  47  61
ATOM     61  C   UNL A   1      42.957  23.637  27.720  1.00  0.00     0.058 A 
ATOM     62  C   UNL A   1      42.529  22.565  28.521  1.00  0.00     0.135 A 
ATOM     63  C   UNL A   1      43.155  23.393  26.351  1.00  0.00     0.135 A 
ATOM     64  F   UNL A   1      42.350  22.735  29.840  1.00  0.00    -0.206 F 
ATOM     65  C   UNL A   1      42.325  21.296  27.988  1.00  0.00     0.059 A 
ATOM     66  C   UNL A   1      42.930  22.139  25.793  1.00  0.00     0.059 A 
ATOM     67  F   UNL A   1      43.575  24.379  25.544  1.00  0.00    -0.206 F 
ATOM     68  C   UNL A   1      42.525  21.094  26.622  1.00  0.00     0.060 A 
BRANCH  68  69
ATOM     69  S   UNL A   1      42.237  19.447  25.943  1.00  0.00     0.124 S 
ATOM     70  O   UNL A   1      42.713  18.596  27.030  1.00  0.00    -0.237 OA
ATOM     71  O   UNL A   1      40.793  19.447  25.726  1.00  0.00    -0.237 OA
ATOM     72  O   UNL A   1      43.050  19.430  24.732  1.00  0.00    -0.744 OA
ENDBRANCH  68  69
ENDBRANCH  47  61
BRANCH  48  73
ATOM     73  C   UNL A   1      43.899  32.855  31.623  1.00  0.00     0.058 A 
ATOM     74  C   UNL A   1      43.711  33.046  33.001  1.00  0.00     0.135 A 
ATOM     75  C   UNL A   1      44.225  33.981  30.849  1.00  0.00     0.135 A 
ATOM     76  F   UNL A   1      43.392  32.004  33.784  1.00  0.00    -0.206 F 
ATOM     77  C   UNL A   1      43.825  34.303  33.586  1.00  0.00     0.059 A 
ATOM     78  C   UNL A   1      44.369  35.244  31.416  1.00  0.00     0.059 A 
ATOM     79  F   UNL A   1      44.429  33.853  29.529  1.00  0.00    -0.206 F 
ATOM     80  C   UNL A   1      44.156  35.397  32.784  1.00  0.00     0.060 A 
BRANCH  80  81
ATOM     81  S   UNL A   1      44.343  37.016  33.561  1.00  0.00     0.124 S 
ATOM     82  O   UNL A   1      45.104  37.742  32.551  1.00  0.00    -0.237 OA
ATOM     83  O   UNL A   1      42.955  37.432  33.738  1.00  0.00    -0.237 OA
ATOM     84  O   UNL A   1      45.059  36.715  34.797  1.00  0.00    -0.744 OA
ENDBRANCH  80  81
ENDBRANCH  48  73
BRANCH  60  85
ATOM     85  C   UNL A   1      48.305  27.532  30.573  1.00  0.00     0.058 A 
ATOM     86  C   UNL A   1      49.281  27.936  29.650  1.00  0.00     0.135 A 
ATOM     87  C   UNL A   1      48.737  27.032  31.812  1.00  0.00     0.135 A 
ATOM     88  F   UNL A   1      48.918  28.416  28.449  1.00  0.00    -0.206 F 
ATOM     89  C   UNL A   1      50.637  27.838  29.941  1.00  0.00     0.059 A 
ATOM     90  C   UNL A   1      50.087  26.953  32.136  1.00  0.00     0.059 A 
ATOM     91  F   UNL A   1      47.843  26.644  32.735  1.00  0.00    -0.206 F 
ATOM     92  C   UNL A   1      51.030  27.351  31.190  1.00  0.00     0.060 A 
BRANCH  92  93
ATOM     93  S   UNL A   1      52.792  27.282  31.575  1.00  0.00     0.124 S 
ATOM     94  O   UNL A   1      53.374  27.089  30.251  1.00  0.00    -0.237 OA
ATOM     95  O   UNL A   1      53.028  28.585  32.187  1.00  0.00    -0.237 OA
ATOM     96  O   UNL A   1      52.898  26.142  32.480  1.00  0.00    -0.744 OA
ENDBRANCH  92  93
ENDBRANCH  60  85
ENDBRANCH  34  35
ENDBRANCH  27  29
ENDBRANCH  26  27
ENDBRANCH  25  26
ENDBRANCH   1  25
TORSDOF 19
ENDMDL
MODEL 3
REMARK VINA RESULT:     -10.3      3.026      3.872
REMARK SMILES CC(C)N1C(=O)C[C@@H]([N@@H+]2CC[C@H](C(=O)OCCOCCOC(=O)c3ccc(-c4c5nc(c(-c6c(F)cc(S(=O)(=O)[O-])cc6F)c6ccc([nH]6)c(-c6c(F)cc(S(=O)(=O)[O-])cc6F)c6nc(c(-c7c(F)cc(S(=O)(=O)[O-])cc7F)c7ccc4[nH]7)C=C6)C=C5)cc3)[C@@H]2C)C1=O
REMARK SMILES IDX 19 1 18 2 17 3 16 4 15 5 13 6 14 7 12 8 9 9 10 10 90 11
REMARK SMILES IDX 11 13 91 14 8 15 4 16 5 17 92 18 6 19 7 20 93 21 2 22 1 23
REMARK SMILES IDX 3 24 20 25 21 26 22 27 23 28 24 29 25 30 89 31 26 32 88 33
REMARK SMILES IDX 27 34 28 35 29 36 82 37 30 38 87 39 81 40 83 41 31 42 86 43
REMARK SMILES IDX 80 44 79 45 32 47 66 48 45 49 65 50 46 51 49 52 64 53 84 54
REMARK SMILES IDX 47 55 48 56 63 58 85 59 50 60 33 61 34 62 43 63 35 64 36 65
REMARK SMILES IDX 42 66 44 67 37 68 38 69 39 70 40 71 41 72 67 73 68 74 77 75
REMARK SMILES IDX 69 76 70 77 76 78 78 79 71 80 72 81 73 82 74 83 75 84 51 85
REMARK SMILES IDX 52 86 61 87 53 88 54 89 60 90 62 91 55 92 56 93 57 94 58 95
REMARK SMILES IDX 59 96
REMARK H PARENT 9 12 83 46 49 57
REMARK Flexibility Score: inf
ROOT
ATOM      1  C   UNL A   1      33.881  30.349  27.247  1.00  0.00     0.202 C 
ENDROOT
BRANCH   1   2
ATOM      2  O   UNL A   1      32.471  30.201  27.213  1.00  0.00    -0.374 OA
BRANCH   2   3
ATOM      3  C   UNL A   1      31.859  28.928  27.149  1.00  0.00     0.202 C 
BRANCH   3   4
ATOM      4  C   UNL A   1      32.640  27.769  26.541  1.00  0.00     0.261 C 
BRANCH   4   5
ATOM      5  O   UNL A   1      32.117  27.284  25.291  1.00  0.00    -0.463 OA
BRANCH   5   6
ATOM      6  C   UNL A   1      32.444  25.994  25.007  1.00  0.00     0.315 C 
ATOM      7  O   UNL A   1      32.331  25.495  23.894  1.00  0.00    -0.252 OA
BRANCH   6   8
ATOM      8  C   UNL A   1      32.822  25.215  26.259  1.00  0.00     0.162 C 
ATOM      9  N   UNL A   1      33.042  22.884  25.715  1.00  0.00    -0.321 N 
ATOM     10  C   UNL A   1      31.613  23.178  25.880  1.00  0.00     0.264 C 
ATOM     11  C   UNL A   1      33.814  24.050  26.155  1.00  0.00     0.196 C 
ATOM     12  H   UNL A   1      33.318  22.130  26.342  1.00  0.00     0.349 HD
ATOM     13  C   UNL A   1      31.569  24.458  26.715  1.00  0.00     0.083 C 
ATOM     14  C   UNL A   1      35.179  24.273  25.533  1.00  0.00     0.076 C 
BRANCH   9  15
ATOM     15  C   UNL A   1      33.433  22.143  24.506  1.00  0.00     0.284 C 
ATOM     16  N   UNL A   1      33.397  19.812  24.155  1.00  0.00    -0.275 N 
ATOM     17  C   UNL A   1      32.490  20.327  23.271  1.00  0.00     0.236 C 
ATOM     18  C   UNL A   1      34.027  20.789  24.878  1.00  0.00     0.288 C 
ATOM     19  O   UNL A   1      31.853  19.700  22.436  1.00  0.00    -0.274 OA
ATOM     20  C   UNL A   1      32.358  21.799  23.483  1.00  0.00     0.176 C 
ATOM     21  O   UNL A   1      34.932  20.636  25.686  1.00  0.00    -0.267 OA
BRANCH  16  22
ATOM     22  C   UNL A   1      33.559  18.366  24.313  1.00  0.00     0.087 C 
ATOM     23  C   UNL A   1      35.006  17.880  24.368  1.00  0.00     0.031 C 
ATOM     24  C   UNL A   1      32.805  17.895  25.562  1.00  0.00     0.031 C 
ENDBRANCH  16  22
ENDBRANCH   9  15
ENDBRANCH   6   8
ENDBRANCH   5   6
ENDBRANCH   4   5
ENDBRANCH   3   4
ENDBRANCH   2   3
ENDBRANCH   1   2
BRANCH   1  25
ATOM     25  C   UNL A   1      34.570  31.348  28.180  1.00  0.00     0.261 C 
BRANCH  25  26
ATOM     26  O   UNL A   1      35.972  31.276  28.335  1.00  0.00    -0.460 OA
BRANCH  26  27
ATOM     27  C   UNL A   1      36.458  31.017  29.560  1.00  0.00     0.338 C 
ATOM     28  O   UNL A   1      35.903  31.127  30.634  1.00  0.00    -0.246 OA
BRANCH  27  29
ATOM     29  C   UNL A   1      37.772  30.425  29.271  1.00  0.00     0.060 A 
ATOM     30  C   UNL A   1      38.680  30.258  30.318  1.00  0.00     0.016 A 
ATOM     31  C   UNL A   1      38.027  29.910  27.994  1.00  0.00     0.016 A 
ATOM     32  C   UNL A   1      39.883  29.605  30.074  1.00  0.00     0.010 A 
ATOM     33  C   UNL A   1      39.224  29.252  27.753  1.00  0.00     0.010 A 
ATOM     34  C   UNL A   1      40.171  29.134  28.784  1.00  0.00    -0.014 A 
BRANCH  34  35
ATOM     35  C   UNL A   1      41.543  28.711  28.445  1.00  0.00     0.031 A 
ATOM     36  C   UNL A   1      42.606  29.772  28.416  1.00  0.00     0.074 A 
ATOM     37  C   UNL A   1      41.821  27.426  28.170  1.00  0.00     0.049 A 
ATOM     38  N   UNL A   1      43.867  29.672  28.097  1.00  0.00    -0.248 NA
ATOM     39  C   UNL A   1      42.184  31.135  28.785  1.00  0.00     0.031 C 
ATOM     40  C   UNL A   1      40.853  26.328  28.185  1.00  0.00     0.029 A 
ATOM     41  N   UNL A   1      43.001  26.830  27.812  1.00  0.00    -0.354 N 
ATOM     42  C   UNL A   1      44.385  30.955  28.220  1.00  0.00     0.074 A 
ATOM     43  C   UNL A   1      43.297  31.825  28.601  1.00  0.00     0.031 C 
ATOM     44  C   UNL A   1      41.482  25.189  27.844  1.00  0.00     0.029 A 
ATOM     45  C   UNL A   1      42.883  25.485  27.558  1.00  0.00     0.049 A 
ATOM     46  H   UNL A   1      43.852  27.319  27.745  1.00  0.00     0.167 HD
ATOM     47  C   UNL A   1      45.661  31.363  28.045  1.00  0.00     0.037 A 
ATOM     48  C   UNL A   1      43.807  24.605  27.124  1.00  0.00     0.037 A 
ATOM     49  C   UNL A   1      46.729  30.478  27.671  1.00  0.00     0.049 A 
ATOM     50  C   UNL A   1      45.215  25.093  26.893  1.00  0.00     0.074 A 
ATOM     51  C   UNL A   1      48.067  30.771  27.486  1.00  0.00     0.029 A 
ATOM     52  N   UNL A   1      46.574  29.121  27.421  1.00  0.00    -0.354 N 
ATOM     53  N   UNL A   1      45.705  26.302  27.048  1.00  0.00    -0.248 NA
ATOM     54  C   UNL A   1      46.197  24.102  26.435  1.00  0.00     0.031 C 
ATOM     55  C   UNL A   1      48.712  29.601  27.074  1.00  0.00     0.029 A 
ATOM     56  C   UNL A   1      47.788  28.566  27.061  1.00  0.00     0.049 A 
ATOM     57  H   UNL A   1      45.725  28.626  27.489  1.00  0.00     0.167 HD
ATOM     58  C   UNL A   1      47.058  26.209  26.737  1.00  0.00     0.074 A 
ATOM     59  C   UNL A   1      47.310  24.825  26.392  1.00  0.00     0.031 C 
ATOM     60  C   UNL A   1      48.008  27.177  26.740  1.00  0.00     0.037 A 
BRANCH  47  61
ATOM     61  C   UNL A   1      45.960  32.824  28.236  1.00  0.00     0.058 A 
ATOM     62  C   UNL A   1      46.354  33.342  29.480  1.00  0.00     0.135 A 
ATOM     63  C   UNL A   1      45.872  33.714  27.154  1.00  0.00     0.135 A 
ATOM     64  F   UNL A   1      46.429  32.541  30.555  1.00  0.00    -0.206 F 
ATOM     65  C   UNL A   1      46.630  34.696  29.650  1.00  0.00     0.059 A 
ATOM     66  C   UNL A   1      46.170  35.066  27.294  1.00  0.00     0.059 A 
ATOM     67  F   UNL A   1      45.488  33.274  25.946  1.00  0.00    -0.206 F 
ATOM     68  C   UNL A   1      46.539  35.548  28.550  1.00  0.00     0.060 A 
BRANCH  68  69
ATOM     69  S   UNL A   1      46.919  37.298  28.781  1.00  0.00     0.124 S 
ATOM     70  O   UNL A   1      46.653  37.467  30.207  1.00  0.00    -0.237 OA
ATOM     71  O   UNL A   1      48.323  37.366  28.387  1.00  0.00    -0.237 OA
ATOM     72  O   UNL A   1      45.985  37.971  27.885  1.00  0.00    -0.744 OA
ENDBRANCH  68  69
ENDBRANCH  47  61
BRANCH  48  73
ATOM     73  C   UNL A   1      43.432  23.187  26.879  1.00  0.00     0.058 A 
ATOM     74  C   UNL A   1      43.147  22.315  27.941  1.00  0.00     0.135 A 
ATOM     75  C   UNL A   1      43.344  22.674  25.575  1.00  0.00     0.135 A 
ATOM     76  F   UNL A   1      43.223  22.754  29.207  1.00  0.00    -0.206 F 
ATOM     77  C   UNL A   1      42.807  20.983  27.722  1.00  0.00     0.059 A 
ATOM     78  C   UNL A   1      42.981  21.353  25.329  1.00  0.00     0.059 A 
ATOM     79  F   UNL A   1      43.591  23.468  24.522  1.00  0.00    -0.206 F 
ATOM     80  C   UNL A   1      42.725  20.511  26.410  1.00  0.00     0.060 A 
BRANCH  80  81
ATOM     81  S   UNL A   1      42.241  18.794  26.136  1.00  0.00     0.124 S 
ATOM     82  O   UNL A   1      42.473  18.209  27.450  1.00  0.00    -0.237 OA
ATOM     83  O   UNL A   1      40.845  18.930  25.732  1.00  0.00    -0.237 OA
ATOM     84  O   UNL A   1      43.150  18.355  25.079  1.00  0.00    -0.744 OA
ENDBRANCH  80  81
ENDBRANCH  48  73
BRANCH  60  85
ATOM     85  C   UNL A   1      49.414  26.771  26.405  1.00  0.00     0.058 A 
ATOM     86  C   UNL A   1      50.233  26.107  27.330  1.00  0.00     0.135 A 
ATOM     87  C   UNL A   1      49.915  26.973  25.108  1.00  0.00     0.135 A 
ATOM     88  F   UNL A   1      49.801  25.894  28.584  1.00  0.00    -0.206 F 
ATOM     89  C   UNL A   1      51.506  25.668  26.985  1.00  0.00     0.059 A 
ATOM     90  C   UNL A   1      51.173  26.516  24.733  1.00  0.00     0.059 A 
ATOM     91  F   UNL A   1      49.165  27.591  24.182  1.00  0.00    -0.206 F 
ATOM     92  C   UNL A   1      51.966  25.872  25.682  1.00  0.00     0.060 A 
BRANCH  92  93
ATOM     93  S   UNL A   1      53.598  25.248  25.233  1.00  0.00     0.124 S 
ATOM     94  O   UNL A   1      53.662  25.586  23.816  1.00  0.00    -0.237 OA
ATOM     95  O   UNL A   1      54.477  26.017  26.109  1.00  0.00    -0.237 OA
ATOM     96  O   UNL A   1      53.512  23.822  25.536  1.00  0.00    -0.744 OA
ENDBRANCH  92  93
ENDBRANCH  60  85
ENDBRANCH  34  35
ENDBRANCH  27  29
ENDBRANCH  26  27
ENDBRANCH  25  26
ENDBRANCH   1  25
TORSDOF 19
ENDMDL
