MODEL 1
REMARK VINA RESULT:     -11.2      0.000      0.000
REMARK SMILES Cc1ccc(C(=O)N2CCC(CC(=O)OCCOCCOC(=O)c3ccc(-c4c5nc(c(-c6c(F)cc(S(=O)(=O)[O-])cc6F)c6ccc([nH]6)c(-c6c(F)cc(S(=O)(=O)[O-])cc6F)c6nc(c(-c7c(F)cc(S(=O)(=O)[O-])cc7F)c7ccc4[nH]7)C=C6)C=C5)cc3)CC2)cn1
REMARK SMILES IDX 19 1 18 2 17 3 16 4 15 5 13 6 14 7 12 8 11 9 6 10 7 11 8 12
REMARK SMILES IDX 9 13 91 14 10 15 90 16 5 17 1 18 2 19 3 20 93 21 4 22 92 23
REMARK SMILES IDX 20 24 21 25 22 26 23 27 24 28 25 29 89 30 26 31 88 32 27 33
REMARK SMILES IDX 28 34 29 35 82 36 30 37 87 38 81 39 83 40 31 41 86 42 80 43
REMARK SMILES IDX 79 44 32 46 66 47 45 48 65 49 46 50 49 51 64 52 84 53 47 54
REMARK SMILES IDX 48 55 63 57 85 58 50 59 33 60 34 61 43 62 35 63 36 64 42 65
REMARK SMILES IDX 44 66 37 67 38 68 39 69 40 70 41 71 67 72 68 73 77 74 69 75
REMARK SMILES IDX 70 76 76 77 78 78 71 79 72 80 73 81 74 82 75 83 51 84 52 85
REMARK SMILES IDX 61 86 53 87 54 88 60 89 62 90 55 91 56 92 57 93 58 94 59 95
REMARK H PARENT 83 45 49 56
REMARK Flexibility Score: inf
ROOT
ATOM      1  C   UNL A   1      37.860  22.955  25.801  1.00  0.00     0.202 C 
ENDROOT
BRANCH   1   2
ATOM      2  O   UNL A   1      37.059  22.117  24.970  1.00  0.00    -0.374 OA
BRANCH   2   3
ATOM      3  C   UNL A   1      36.187  21.195  25.625  1.00  0.00     0.202 C 
BRANCH   3   4
ATOM      4  C   UNL A   1      35.000  20.690  24.799  1.00  0.00     0.261 C 
BRANCH   4   5
ATOM      5  O   UNL A   1      33.791  20.681  25.582  1.00  0.00    -0.463 OA
BRANCH   5   6
ATOM      6  C   UNL A   1      32.680  21.199  25.007  1.00  0.00     0.306 C 
ATOM      7  O   UNL A   1      31.550  21.130  25.476  1.00  0.00    -0.252 OA
BRANCH   6   8
ATOM      8  C   UNL A   1      32.966  21.854  23.669  1.00  0.00     0.126 C 
BRANCH   8   9
ATOM      9  C   UNL A   1      32.870  23.392  23.569  1.00  0.00     0.003 C 
ATOM     10  C   UNL A   1      32.205  26.515  26.063  1.00  0.00     0.255 C 
ATOM     11  O   UNL A   1      31.441  25.933  26.827  1.00  0.00    -0.269 OA
ATOM     12  N   UNL A   1      32.534  26.006  24.814  1.00  0.00    -0.339 N 
ATOM     13  C   UNL A   1      31.470  25.456  23.996  1.00  0.00     0.120 C 
ATOM     14  C   UNL A   1      33.884  25.557  24.508  1.00  0.00     0.120 C 
ATOM     15  C   UNL A   1      31.490  23.934  23.984  1.00  0.00     0.026 C 
ATOM     16  C   UNL A   1      33.961  24.028  24.465  1.00  0.00     0.026 C 
BRANCH  10  17
ATOM     17  C   UNL A   1      32.667  27.893  26.378  1.00  0.00     0.058 A 
ATOM     18  C   UNL A   1      34.235  31.568  27.854  1.00  0.00     0.066 C 
ATOM     19  C   UNL A   1      33.667  30.309  27.273  1.00  0.00     0.037 A 
ATOM     20  C   UNL A   1      32.304  30.195  27.010  1.00  0.00     0.024 A 
ATOM     21  N   UNL A   1      34.528  29.284  27.081  1.00  0.00    -0.261 NA
ATOM     22  C   UNL A   1      31.802  28.974  26.558  1.00  0.00     0.017 A 
ATOM     23  C   UNL A   1      34.013  28.101  26.654  1.00  0.00     0.125 A 
ENDBRANCH  10  17
ENDBRANCH   8   9
ENDBRANCH   6   8
ENDBRANCH   5   6
ENDBRANCH   4   5
ENDBRANCH   3   4
ENDBRANCH   2   3
ENDBRANCH   1   2
BRANCH   1  24
ATOM     24  C   UNL A   1      39.223  22.395  26.227  1.00  0.00     0.261 C 
BRANCH  24  25
ATOM     25  O   UNL A   1      39.767  23.082  27.367  1.00  0.00    -0.460 OA
BRANCH  25  26
ATOM     26  C   UNL A   1      40.751  23.968  27.079  1.00  0.00     0.338 C 
ATOM     27  O   UNL A   1      41.624  23.846  26.228  1.00  0.00    -0.246 OA
BRANCH  26  28
ATOM     28  C   UNL A   1      40.535  25.224  27.820  1.00  0.00     0.060 A 
ATOM     29  C   UNL A   1      41.558  26.182  27.798  1.00  0.00     0.016 A 
ATOM     30  C   UNL A   1      39.385  25.433  28.584  1.00  0.00     0.016 A 
ATOM     31  C   UNL A   1      41.457  27.334  28.577  1.00  0.00     0.010 A 
ATOM     32  C   UNL A   1      39.289  26.585  29.370  1.00  0.00     0.010 A 
ATOM     33  C   UNL A   1      40.339  27.523  29.398  1.00  0.00    -0.014 A 
BRANCH  33  34
ATOM     34  C   UNL A   1      40.327  28.597  30.420  1.00  0.00     0.031 A 
ATOM     35  C   UNL A   1      41.283  28.494  31.579  1.00  0.00     0.074 A 
ATOM     36  C   UNL A   1      39.481  29.640  30.331  1.00  0.00     0.049 A 
ATOM     37  N   UNL A   1      41.343  29.204  32.673  1.00  0.00    -0.248 NA
ATOM     38  C   UNL A   1      42.308  27.439  31.489  1.00  0.00     0.031 C 
ATOM     39  C   UNL A   1      38.559  29.890  29.224  1.00  0.00     0.029 A 
ATOM     40  N   UNL A   1      39.245  30.673  31.204  1.00  0.00    -0.354 N 
ATOM     41  C   UNL A   1      42.400  28.679  33.408  1.00  0.00     0.074 A 
ATOM     42  C   UNL A   1      42.937  27.572  32.647  1.00  0.00     0.031 C 
ATOM     43  C   UNL A   1      37.839  30.993  29.497  1.00  0.00     0.029 A 
ATOM     44  C   UNL A   1      38.214  31.497  30.817  1.00  0.00     0.049 A 
ATOM     45  H   UNL A   1      39.765  30.811  32.029  1.00  0.00     0.167 HD
ATOM     46  C   UNL A   1      42.880  29.087  34.605  1.00  0.00     0.037 A 
ATOM     47  C   UNL A   1      37.618  32.514  31.473  1.00  0.00     0.037 A 
ATOM     48  C   UNL A   1      42.338  30.189  35.354  1.00  0.00     0.049 A 
ATOM     49  C   UNL A   1      38.104  32.885  32.854  1.00  0.00     0.074 A 
ATOM     50  C   UNL A   1      42.734  30.668  36.591  1.00  0.00     0.029 A 
ATOM     51  N   UNL A   1      41.286  30.989  34.933  1.00  0.00    -0.354 N 
ATOM     52  N   UNL A   1      39.087  32.365  33.552  1.00  0.00    -0.248 NA
ATOM     53  C   UNL A   1      37.398  33.978  33.541  1.00  0.00     0.031 C 
ATOM     54  C   UNL A   1      41.896  31.732  36.936  1.00  0.00     0.029 A 
ATOM     55  C   UNL A   1      41.016  31.954  35.889  1.00  0.00     0.049 A 
ATOM     56  H   UNL A   1      40.803  30.886  34.083  1.00  0.00     0.167 HD
ATOM     57  C   UNL A   1      39.149  33.103  34.732  1.00  0.00     0.074 A 
ATOM     58  C   UNL A   1      38.100  34.097  34.659  1.00  0.00     0.031 C 
ATOM     59  C   UNL A   1      40.003  32.971  35.776  1.00  0.00     0.037 A 
BRANCH  46  60
ATOM     60  C   UNL A   1      44.041  28.334  35.191  1.00  0.00     0.058 A 
ATOM     61  C   UNL A   1      43.851  27.213  36.013  1.00  0.00     0.135 A 
ATOM     62  C   UNL A   1      45.361  28.703  34.882  1.00  0.00     0.135 A 
ATOM     63  F   UNL A   1      42.612  26.829  36.358  1.00  0.00    -0.206 F 
ATOM     64  C   UNL A   1      44.927  26.490  36.518  1.00  0.00     0.059 A 
ATOM     65  C   UNL A   1      46.453  27.980  35.354  1.00  0.00     0.059 A 
ATOM     66  F   UNL A   1      45.599  29.771  34.104  1.00  0.00    -0.206 F 
ATOM     67  C   UNL A   1      46.225  26.879  36.179  1.00  0.00     0.060 A 
BRANCH  67  68
ATOM     68  S   UNL A   1      47.608  25.916  36.825  1.00  0.00     0.124 S 
ATOM     69  O   UNL A   1      47.873  25.005  35.716  1.00  0.00    -0.237 OA
ATOM     70  O   UNL A   1      48.620  26.941  37.058  1.00  0.00    -0.237 OA
ATOM     71  O   UNL A   1      47.059  25.296  38.028  1.00  0.00    -0.744 OA
ENDBRANCH  67  68
ENDBRANCH  46  60
BRANCH  47  72
ATOM     72  C   UNL A   1      36.477  33.246  30.858  1.00  0.00     0.058 A 
ATOM     73  C   UNL A   1      36.674  34.101  29.763  1.00  0.00     0.135 A 
ATOM     74  C   UNL A   1      35.177  33.143  31.377  1.00  0.00     0.135 A 
ATOM     75  F   UNL A   1      37.899  34.243  29.235  1.00  0.00    -0.206 F 
ATOM     76  C   UNL A   1      35.634  34.853  29.227  1.00  0.00     0.059 A 
ATOM     77  C   UNL A   1      34.114  33.862  30.840  1.00  0.00     0.059 A 
ATOM     78  F   UNL A   1      34.930  32.331  32.418  1.00  0.00    -0.206 F 
ATOM     79  C   UNL A   1      34.356  34.730  29.776  1.00  0.00     0.060 A 
BRANCH  79  80
ATOM     80  S   UNL A   1      33.012  35.709  29.071  1.00  0.00     0.124 S 
ATOM     81  O   UNL A   1      32.369  34.736  28.195  1.00  0.00    -0.237 OA
ATOM     82  O   UNL A   1      32.259  36.095  30.259  1.00  0.00    -0.237 OA
ATOM     83  O   UNL A   1      33.709  36.800  28.399  1.00  0.00    -0.744 OA
ENDBRANCH  79  80
ENDBRANCH  47  72
BRANCH  59  84
ATOM     84  C   UNL A   1      39.917  33.975  36.892  1.00  0.00     0.058 A 
ATOM     85  C   UNL A   1      40.530  35.234  36.814  1.00  0.00     0.135 A 
ATOM     86  C   UNL A   1      39.113  33.705  38.013  1.00  0.00     0.135 A 
ATOM     87  F   UNL A   1      41.314  35.540  35.769  1.00  0.00    -0.206 F 
ATOM     88  C   UNL A   1      40.350  36.191  37.808  1.00  0.00     0.059 A 
ATOM     89  C   UNL A   1      38.898  34.655  39.005  1.00  0.00     0.059 A 
ATOM     90  F   UNL A   1      38.497  32.518  38.132  1.00  0.00    -0.206 F 
ATOM     91  C   UNL A   1      39.522  35.896  38.895  1.00  0.00     0.060 A 
BRANCH  91  92
ATOM     92  S   UNL A   1      39.231  37.177  40.135  1.00  0.00     0.124 S 
ATOM     93  O   UNL A   1      38.514  38.182  39.357  1.00  0.00    -0.237 OA
ATOM     94  O   UNL A   1      38.442  36.467  41.136  1.00  0.00    -0.237 OA
ATOM     95  O   UNL A   1      40.576  37.553  40.558  1.00  0.00    -0.744 OA
ENDBRANCH  91  92
ENDBRANCH  59  84
ENDBRANCH  33  34
ENDBRANCH  26  28
ENDBRANCH  25  26
ENDBRANCH  24  25
ENDBRANCH   1  24
TORSDOF 19
ENDMDL
MODEL 2
REMARK VINA RESULT:     -11.2      4.923     11.828
REMARK SMILES Cc1ccc(C(=O)N2CCC(CC(=O)OCCOCCOC(=O)c3ccc(-c4c5nc(c(-c6c(F)cc(S(=O)(=O)[O-])cc6F)c6ccc([nH]6)c(-c6c(F)cc(S(=O)(=O)[O-])cc6F)c6nc(c(-c7c(F)cc(S(=O)(=O)[O-])cc7F)c7ccc4[nH]7)C=C6)C=C5)cc3)CC2)cn1
REMARK SMILES IDX 19 1 18 2 17 3 16 4 15 5 13 6 14 7 12 8 11 9 6 10 7 11 8 12
REMARK SMILES IDX 9 13 91 14 10 15 90 16 5 17 1 18 2 19 3 20 93 21 4 22 92 23
REMARK SMILES IDX 20 24 21 25 22 26 23 27 24 28 25 29 89 30 26 31 88 32 27 33
REMARK SMILES IDX 28 34 29 35 82 36 30 37 87 38 81 39 83 40 31 41 86 42 80 43
REMARK SMILES IDX 79 44 32 46 66 47 45 48 65 49 46 50 49 51 64 52 84 53 47 54
REMARK SMILES IDX 48 55 63 57 85 58 50 59 33 60 34 61 43 62 35 63 36 64 42 65
REMARK SMILES IDX 44 66 37 67 38 68 39 69 40 70 41 71 67 72 68 73 77 74 69 75
REMARK SMILES IDX 70 76 76 77 78 78 71 79 72 80 73 81 74 82 75 83 51 84 52 85
REMARK SMILES IDX 61 86 53 87 54 88 60 89 62 90 55 91 56 92 57 93 58 94 59 95
REMARK H PARENT 83 45 49 56
REMARK Flexibility Score: inf
ROOT
ATOM      1  C   UNL A   1      33.656  33.414  28.057  1.00  0.00     0.202 C 
ENDROOT
BRANCH   1   2
ATOM      2  O   UNL A   1      34.639  34.443  28.145  1.00  0.00    -0.374 OA
BRANCH   2   3
ATOM      3  C   UNL A   1      34.168  35.778  28.332  1.00  0.00     0.202 C 
BRANCH   3   4
ATOM      4  C   UNL A   1      33.056  35.960  29.369  1.00  0.00     0.261 C 
BRANCH   4   5
ATOM      5  O   UNL A   1      33.544  36.645  30.537  1.00  0.00    -0.463 OA
BRANCH   5   6
ATOM      6  C   UNL A   1      32.953  36.348  31.718  1.00  0.00     0.306 C 
ATOM      7  O   UNL A   1      32.216  37.101  32.344  1.00  0.00    -0.252 OA
BRANCH   6   8
ATOM      8  C   UNL A   1      33.331  34.971  32.232  1.00  0.00     0.126 C 
BRANCH   8   9
ATOM      9  C   UNL A   1      34.783  34.486  32.033  1.00  0.00     0.003 C 
ATOM     10  C   UNL A   1      37.432  32.104  33.964  1.00  0.00     0.255 C 
ATOM     11  O   UNL A   1      37.053  32.357  35.104  1.00  0.00    -0.269 OA
ATOM     12  N   UNL A   1      37.066  32.880  32.872  1.00  0.00    -0.339 N 
ATOM     13  C   UNL A   1      37.111  34.323  33.012  1.00  0.00     0.120 C 
ATOM     14  C   UNL A   1      36.205  32.358  31.822  1.00  0.00     0.120 C 
ATOM     15  C   UNL A   1      35.721  34.923  33.173  1.00  0.00     0.026 C 
ATOM     16  C   UNL A   1      34.793  32.942  31.924  1.00  0.00     0.026 C 
BRANCH  10  17
ATOM     17  C   UNL A   1      38.455  31.049  33.736  1.00  0.00     0.058 A 
ATOM     18  C   UNL A   1      41.629  28.443  32.604  1.00  0.00     0.066 C 
ATOM     19  C   UNL A   1      40.496  29.315  33.057  1.00  0.00     0.037 A 
ATOM     20  C   UNL A   1      39.177  28.883  32.952  1.00  0.00     0.024 A 
ATOM     21  N   UNL A   1      40.819  30.549  33.505  1.00  0.00    -0.261 NA
ATOM     22  C   UNL A   1      38.148  29.760  33.295  1.00  0.00     0.017 A 
ATOM     23  C   UNL A   1      39.799  31.391  33.821  1.00  0.00     0.125 A 
ENDBRANCH  10  17
ENDBRANCH   8   9
ENDBRANCH   6   8
ENDBRANCH   5   6
ENDBRANCH   4   5
ENDBRANCH   3   4
ENDBRANCH   2   3
ENDBRANCH   1   2
BRANCH   1  24
ATOM     24  C   UNL A   1      34.089  32.014  28.511  1.00  0.00     0.261 C 
BRANCH  24  25
ATOM     25  O   UNL A   1      34.068  31.058  27.437  1.00  0.00    -0.460 OA
BRANCH  25  26
ATOM     26  C   UNL A   1      34.428  29.800  27.792  1.00  0.00     0.338 C 
ATOM     27  O   UNL A   1      33.758  28.782  27.673  1.00  0.00    -0.246 OA
BRANCH  26  28
ATOM     28  C   UNL A   1      35.847  29.774  28.194  1.00  0.00     0.060 A 
ATOM     29  C   UNL A   1      36.808  30.104  27.228  1.00  0.00     0.016 A 
ATOM     30  C   UNL A   1      36.237  29.366  29.471  1.00  0.00     0.016 A 
ATOM     31  C   UNL A   1      38.165  29.981  27.519  1.00  0.00     0.010 A 
ATOM     32  C   UNL A   1      37.599  29.237  29.759  1.00  0.00     0.010 A 
ATOM     33  C   UNL A   1      38.568  29.508  28.774  1.00  0.00    -0.014 A 
BRANCH  33  34
ATOM     34  C   UNL A   1      39.980  29.125  29.018  1.00  0.00     0.031 A 
ATOM     35  C   UNL A   1      40.928  30.176  29.531  1.00  0.00     0.074 A 
ATOM     36  C   UNL A   1      40.417  27.875  28.781  1.00  0.00     0.049 A 
ATOM     37  N   UNL A   1      42.228  30.134  29.656  1.00  0.00    -0.248 NA
ATOM     38  C   UNL A   1      40.324  31.450  29.958  1.00  0.00     0.031 C 
ATOM     39  C   UNL A   1      39.584  26.753  28.351  1.00  0.00     0.029 A 
ATOM     40  N   UNL A   1      41.683  27.347  28.846  1.00  0.00    -0.354 N 
ATOM     41  C   UNL A   1      42.600  31.374  30.161  1.00  0.00     0.074 A 
ATOM     42  C   UNL A   1      41.392  32.157  30.297  1.00  0.00     0.031 C 
ATOM     43  C   UNL A   1      40.366  25.674  28.168  1.00  0.00     0.029 A 
ATOM     44  C   UNL A   1      41.758  26.042  28.419  1.00  0.00     0.049 A 
ATOM     45  H   UNL A   1      42.463  27.855  29.169  1.00  0.00     0.167 HD
ATOM     46  C   UNL A   1      43.837  31.816  30.487  1.00  0.00     0.037 A 
ATOM     47  C   UNL A   1      42.833  25.252  28.216  1.00  0.00     0.037 A 
ATOM     48  C   UNL A   1      45.033  31.028  30.348  1.00  0.00     0.049 A 
ATOM     49  C   UNL A   1      44.213  25.801  28.488  1.00  0.00     0.074 A 
ATOM     50  C   UNL A   1      46.340  31.390  30.624  1.00  0.00     0.029 A 
ATOM     51  N   UNL A   1      45.067  29.716  29.899  1.00  0.00    -0.354 N 
ATOM     52  N   UNL A   1      44.558  26.985  28.941  1.00  0.00    -0.248 NA
ATOM     53  C   UNL A   1      45.353  24.912  28.218  1.00  0.00     0.031 C 
ATOM     54  C   UNL A   1      47.169  30.311  30.305  1.00  0.00     0.029 A 
ATOM     55  C   UNL A   1      46.373  29.257  29.886  1.00  0.00     0.049 A 
ATOM     56  H   UNL A   1      44.281  29.190  29.630  1.00  0.00     0.167 HD
ATOM     57  C   UNL A   1      45.945  26.959  29.060  1.00  0.00     0.074 A 
ATOM     58  C   UNL A   1      46.378  25.650  28.622  1.00  0.00     0.031 C 
ATOM     59  C   UNL A   1      46.781  27.931  29.498  1.00  0.00     0.037 A 
BRANCH  46  60
ATOM     60  C   UNL A   1      43.968  33.217  31.014  1.00  0.00     0.058 A 
ATOM     61  C   UNL A   1      43.860  33.500  32.384  1.00  0.00     0.135 A 
ATOM     62  C   UNL A   1      44.262  34.282  30.146  1.00  0.00     0.135 A 
ATOM     63  F   UNL A   1      43.560  32.524  33.255  1.00  0.00    -0.206 F 
ATOM     64  C   UNL A   1      44.026  34.791  32.875  1.00  0.00     0.059 A 
ATOM     65  C   UNL A   1      44.458  35.577  30.618  1.00  0.00     0.059 A 
ATOM     66  F   UNL A   1      44.371  34.067  28.826  1.00  0.00    -0.206 F 
ATOM     67  C   UNL A   1      44.329  35.822  31.983  1.00  0.00     0.060 A 
BRANCH  67  68
ATOM     68  S   UNL A   1      44.563  37.487  32.641  1.00  0.00     0.124 S 
ATOM     69  O   UNL A   1      44.236  37.292  34.050  1.00  0.00    -0.237 OA
ATOM     70  O   UNL A   1      45.969  37.743  32.347  1.00  0.00    -0.237 OA
ATOM     71  O   UNL A   1      43.610  38.291  31.882  1.00  0.00    -0.744 OA
ENDBRANCH  67  68
ENDBRANCH  46  60
BRANCH  47  72
ATOM     72  C   UNL A   1      42.666  23.864  27.704  1.00  0.00     0.058 A 
ATOM     73  C   UNL A   1      42.544  23.612  26.329  1.00  0.00     0.135 A 
ATOM     74  C   UNL A   1      42.580  22.768  28.577  1.00  0.00     0.135 A 
ATOM     75  F   UNL A   1      42.609  24.626  25.453  1.00  0.00    -0.206 F 
ATOM     76  C   UNL A   1      42.308  22.331  25.839  1.00  0.00     0.059 A 
ATOM     77  C   UNL A   1      42.375  21.473  28.110  1.00  0.00     0.059 A 
ATOM     78  F   UNL A   1      42.701  22.951  29.901  1.00  0.00    -0.206 F 
ATOM     79  C   UNL A   1      42.221  21.268  26.739  1.00  0.00     0.060 A 
BRANCH  79  80
ATOM     80  S   UNL A   1      41.917  19.609  26.093  1.00  0.00     0.124 S 
ATOM     81  O   UNL A   1      40.484  19.656  25.826  1.00  0.00    -0.237 OA
ATOM     82  O   UNL A   1      42.784  19.574  24.920  1.00  0.00    -0.237 OA
ATOM     83  O   UNL A   1      42.327  18.741  27.192  1.00  0.00    -0.744 OA
ENDBRANCH  79  80
ENDBRANCH  47  72
BRANCH  59  84
ATOM     84  C   UNL A   1      48.243  27.603  29.625  1.00  0.00     0.058 A 
ATOM     85  C   UNL A   1      49.178  27.965  28.645  1.00  0.00     0.135 A 
ATOM     86  C   UNL A   1      48.725  27.009  30.804  1.00  0.00     0.135 A 
ATOM     87  F   UNL A   1      48.770  28.529  27.497  1.00  0.00    -0.206 F 
ATOM     88  C   UNL A   1      50.541  27.751  28.829  1.00  0.00     0.059 A 
ATOM     89  C   UNL A   1      50.084  26.810  31.020  1.00  0.00     0.059 A 
ATOM     90  F   UNL A   1      47.872  26.650  31.777  1.00  0.00    -0.206 F 
ATOM     91  C   UNL A   1      50.986  27.182  30.025  1.00  0.00     0.060 A 
BRANCH  91  92
ATOM     92  S   UNL A   1      52.763  26.987  30.284  1.00  0.00     0.124 S 
ATOM     93  O   UNL A   1      53.234  28.362  30.144  1.00  0.00    -0.237 OA
ATOM     94  O   UNL A   1      52.822  26.430  31.631  1.00  0.00    -0.237 OA
ATOM     95  O   UNL A   1      53.164  26.076  29.216  1.00  0.00    -0.744 OA
ENDBRANCH  91  92
ENDBRANCH  59  84
ENDBRANCH  33  34
ENDBRANCH  26  28
ENDBRANCH  25  26
ENDBRANCH  24  25
ENDBRANCH   1  24
TORSDOF 19
ENDMDL
MODEL 3
REMARK VINA RESULT:     -11.0      4.854     12.189
REMARK SMILES Cc1ccc(C(=O)N2CCC(CC(=O)OCCOCCOC(=O)c3ccc(-c4c5nc(c(-c6c(F)cc(S(=O)(=O)[O-])cc6F)c6ccc([nH]6)c(-c6c(F)cc(S(=O)(=O)[O-])cc6F)c6nc(c(-c7c(F)cc(S(=O)(=O)[O-])cc7F)c7ccc4[nH]7)C=C6)C=C5)cc3)CC2)cn1
REMARK SMILES IDX 19 1 18 2 17 3 16 4 15 5 13 6 14 7 12 8 11 9 6 10 7 11 8 12
REMARK SMILES IDX 9 13 91 14 10 15 90 16 5 17 1 18 2 19 3 20 93 21 4 22 92 23
REMARK SMILES IDX 20 24 21 25 22 26 23 27 24 28 25 29 89 30 26 31 88 32 27 33
REMARK SMILES IDX 28 34 29 35 82 36 30 37 87 38 81 39 83 40 31 41 86 42 80 43
REMARK SMILES IDX 79 44 32 46 66 47 45 48 65 49 46 50 49 51 64 52 84 53 47 54
REMARK SMILES IDX 48 55 63 57 85 58 50 59 33 60 34 61 43 62 35 63 36 64 42 65
REMARK SMILES IDX 44 66 37 67 38 68 39 69 40 70 41 71 67 72 68 73 77 74 69 75
REMARK SMILES IDX 70 76 76 77 78 78 71 79 72 80 73 81 74 82 75 83 51 84 52 85
REMARK SMILES IDX 61 86 53 87 54 88 60 89 62 90 55 91 56 92 57 93 58 94 59 95
REMARK H PARENT 83 45 49 56
REMARK Flexibility Score: inf
ROOT
ATOM      1  C   UNL A   1      35.650  34.036  29.559  1.00  0.00     0.202 C 
ENDROOT
BRANCH   1   2
ATOM      2  O   UNL A   1      36.910  33.507  29.969  1.00  0.00    -0.374 OA
BRANCH   2   3
ATOM      3  C   UNL A   1      36.950  32.818  31.219  1.00  0.00     0.202 C 
BRANCH   3   4
ATOM      4  C   UNL A   1      37.307  33.666  32.443  1.00  0.00     0.261 C 
BRANCH   4   5
ATOM      5  O   UNL A   1      37.618  32.835  33.576  1.00  0.00    -0.463 OA
BRANCH   5   6
ATOM      6  C   UNL A   1      38.883  32.359  33.664  1.00  0.00     0.306 C 
ATOM      7  O   UNL A   1      39.896  33.019  33.463  1.00  0.00    -0.252 OA
BRANCH   6   8
ATOM      8  C   UNL A   1      38.930  30.881  34.002  1.00  0.00     0.126 C 
BRANCH   8   9
ATOM      9  C   UNL A   1      40.305  30.179  34.040  1.00  0.00     0.003 C 
ATOM     10  C   UNL A   1      41.813  26.620  35.255  1.00  0.00     0.255 C 
ATOM     11  O   UNL A   1      41.045  26.449  36.198  1.00  0.00    -0.269 OA
ATOM     12  N   UNL A   1      41.957  27.852  34.631  1.00  0.00    -0.339 N 
ATOM     13  C   UNL A   1      42.056  29.035  35.464  1.00  0.00     0.120 C 
ATOM     14  C   UNL A   1      41.529  28.062  33.256  1.00  0.00     0.120 C 
ATOM     15  C   UNL A   1      40.762  29.837  35.470  1.00  0.00     0.026 C 
ATOM     16  C   UNL A   1      40.236  28.881  33.199  1.00  0.00     0.026 C 
BRANCH  10  17
ATOM     17  C   UNL A   1      42.761  25.544  34.862  1.00  0.00     0.058 A 
ATOM     18  C   UNL A   1      45.471  22.292  34.391  1.00  0.00     0.066 C 
ATOM     19  C   UNL A   1      44.516  23.444  34.484  1.00  0.00     0.037 A 
ATOM     20  C   UNL A   1      44.914  24.731  34.133  1.00  0.00     0.024 A 
ATOM     21  N   UNL A   1      43.287  23.177  34.982  1.00  0.00    -0.261 NA
ATOM     22  C   UNL A   1      44.026  25.790  34.324  1.00  0.00     0.017 A 
ATOM     23  C   UNL A   1      42.445  24.227  35.172  1.00  0.00     0.125 A 
ENDBRANCH  10  17
ENDBRANCH   8   9
ENDBRANCH   6   8
ENDBRANCH   5   6
ENDBRANCH   4   5
ENDBRANCH   3   4
ENDBRANCH   2   3
ENDBRANCH   1   2
BRANCH   1  24
ATOM     24  C   UNL A   1      34.547  33.015  29.251  1.00  0.00     0.261 C 
BRANCH  24  25
ATOM     25  O   UNL A   1      34.755  32.346  27.995  1.00  0.00    -0.460 OA
BRANCH  25  26
ATOM     26  C   UNL A   1      34.531  31.009  28.021  1.00  0.00     0.338 C 
ATOM     27  O   UNL A   1      33.473  30.436  27.793  1.00  0.00    -0.246 OA
BRANCH  26  28
ATOM     28  C   UNL A   1      35.804  30.286  28.196  1.00  0.00     0.060 A 
ATOM     29  C   UNL A   1      36.054  29.690  29.440  1.00  0.00     0.016 A 
ATOM     30  C   UNL A   1      36.768  30.251  27.187  1.00  0.00     0.016 A 
ATOM     31  C   UNL A   1      37.289  29.097  29.698  1.00  0.00     0.010 A 
ATOM     32  C   UNL A   1      38.009  29.662  27.450  1.00  0.00     0.010 A 
ATOM     33  C   UNL A   1      38.288  29.115  28.717  1.00  0.00    -0.014 A 
BRANCH  33  34
ATOM     34  C   UNL A   1      39.680  28.728  29.052  1.00  0.00     0.031 A 
ATOM     35  C   UNL A   1      40.573  29.755  29.696  1.00  0.00     0.074 A 
ATOM     36  C   UNL A   1      40.149  27.496  28.782  1.00  0.00     0.049 A 
ATOM     37  N   UNL A   1      41.859  29.714  29.922  1.00  0.00    -0.248 NA
ATOM     38  C   UNL A   1      39.923  31.000  30.142  1.00  0.00     0.031 C 
ATOM     39  C   UNL A   1      39.365  26.395  28.226  1.00  0.00     0.029 A 
ATOM     40  N   UNL A   1      41.411  26.973  28.920  1.00  0.00    -0.354 N 
ATOM     41  C   UNL A   1      42.176  30.927  30.523  1.00  0.00     0.074 A 
ATOM     42  C   UNL A   1      40.952  31.694  30.604  1.00  0.00     0.031 C 
ATOM     43  C   UNL A   1      40.171  25.332  28.048  1.00  0.00     0.029 A 
ATOM     44  C   UNL A   1      41.534  25.695  28.429  1.00  0.00     0.049 A 
ATOM     45  H   UNL A   1      42.157  27.467  29.331  1.00  0.00     0.167 HD
ATOM     46  C   UNL A   1      43.378  31.358  30.971  1.00  0.00     0.037 A 
ATOM     47  C   UNL A   1      42.630  24.924  28.270  1.00  0.00     0.037 A 
ATOM     48  C   UNL A   1      44.590  30.587  30.885  1.00  0.00     0.049 A 
ATOM     49  C   UNL A   1      43.978  25.466  28.682  1.00  0.00     0.074 A 
ATOM     50  C   UNL A   1      45.867  30.942  31.285  1.00  0.00     0.029 A 
ATOM     51  N   UNL A   1      44.675  29.302  30.370  1.00  0.00    -0.354 N 
ATOM     52  N   UNL A   1      44.273  26.625  29.225  1.00  0.00    -0.248 NA
ATOM     53  C   UNL A   1      45.146  24.600  28.456  1.00  0.00     0.031 C 
ATOM     54  C   UNL A   1      46.730  29.887  30.975  1.00  0.00     0.029 A 
ATOM     55  C   UNL A   1      45.982  28.853  30.435  1.00  0.00     0.049 A 
ATOM     56  H   UNL A   1      43.918  28.787  30.009  1.00  0.00     0.167 HD
ATOM     57  C   UNL A   1      45.646  26.602  29.453  1.00  0.00     0.074 A 
ATOM     58  C   UNL A   1      46.127  25.322  28.981  1.00  0.00     0.031 C 
ATOM     59  C   UNL A   1      46.434  27.553  30.010  1.00  0.00     0.037 A 
BRANCH  46  60
ATOM     60  C   UNL A   1      43.452  32.729  31.582  1.00  0.00     0.058 A 
ATOM     61  C   UNL A   1      43.422  32.916  32.973  1.00  0.00     0.135 A 
ATOM     62  C   UNL A   1      43.611  33.865  30.772  1.00  0.00     0.135 A 
ATOM     63  F   UNL A   1      43.250  31.867  33.793  1.00  0.00    -0.206 F 
ATOM     64  C   UNL A   1      43.535  34.182  33.539  1.00  0.00     0.059 A 
ATOM     65  C   UNL A   1      43.752  35.138  31.316  1.00  0.00     0.059 A 
ATOM     66  F   UNL A   1      43.641  33.743  29.435  1.00  0.00    -0.206 F 
ATOM     67  C   UNL A   1      43.704  35.287  32.701  1.00  0.00     0.060 A 
BRANCH  67  68
ATOM     68  S   UNL A   1      43.872  36.919  33.455  1.00  0.00     0.124 S 
ATOM     69  O   UNL A   1      42.565  37.085  34.082  1.00  0.00    -0.237 OA
ATOM     70  O   UNL A   1      44.993  36.726  34.368  1.00  0.00    -0.237 OA
ATOM     71  O   UNL A   1      44.137  37.793  32.316  1.00  0.00    -0.744 OA
ENDBRANCH  67  68
ENDBRANCH  46  60
BRANCH  47  72
ATOM     72  C   UNL A   1      42.520  23.566  27.671  1.00  0.00     0.058 A 
ATOM     73  C   UNL A   1      42.397  22.427  28.482  1.00  0.00     0.135 A 
ATOM     74  C   UNL A   1      42.580  23.372  26.282  1.00  0.00     0.135 A 
ATOM     75  F   UNL A   1      42.345  22.556  29.816  1.00  0.00    -0.206 F 
ATOM     76  C   UNL A   1      42.373  21.145  27.942  1.00  0.00     0.059 A 
ATOM     77  C   UNL A   1      42.528  22.102  25.716  1.00  0.00     0.059 A 
ATOM     78  F   UNL A   1      42.688  24.427  25.459  1.00  0.00    -0.206 F 
ATOM     79  C   UNL A   1      42.444  20.992  26.556  1.00  0.00     0.060 A 
BRANCH  79  80
ATOM     80  S   UNL A   1      42.410  19.324  25.866  1.00  0.00     0.124 S 
ATOM     81  O   UNL A   1      43.276  19.471  24.701  1.00  0.00    -0.237 OA
ATOM     82  O   UNL A   1      42.945  18.527  26.964  1.00  0.00    -0.237 OA
ATOM     83  O   UNL A   1      40.995  19.109  25.577  1.00  0.00    -0.744 OA
ENDBRANCH  79  80
ENDBRANCH  47  72
BRANCH  59  84
ATOM     84  C   UNL A   1      47.885  27.228  30.235  1.00  0.00     0.058 A 
ATOM     85  C   UNL A   1      48.890  27.640  29.349  1.00  0.00     0.135 A 
ATOM     86  C   UNL A   1      48.279  26.583  31.421  1.00  0.00     0.135 A 
ATOM     87  F   UNL A   1      48.567  28.254  28.200  1.00  0.00    -0.206 F 
ATOM     88  C   UNL A   1      50.236  27.426  29.629  1.00  0.00     0.059 A 
ATOM     89  C   UNL A   1      49.619  26.382  31.733  1.00  0.00     0.059 A 
ATOM     90  F   UNL A   1      47.357  26.176  32.307  1.00  0.00    -0.206 F 
ATOM     91  C   UNL A   1      50.592  26.805  30.829  1.00  0.00     0.060 A 
BRANCH  91  92
ATOM     92  S   UNL A   1      52.345  26.609  31.217  1.00  0.00     0.124 S 
ATOM     93  O   UNL A   1      52.698  27.949  31.675  1.00  0.00    -0.237 OA
ATOM     94  O   UNL A   1      52.323  25.573  32.243  1.00  0.00    -0.237 OA
ATOM     95  O   UNL A   1      52.932  26.207  29.942  1.00  0.00    -0.744 OA
ENDBRANCH  91  92
ENDBRANCH  59  84
ENDBRANCH  33  34
ENDBRANCH  26  28
ENDBRANCH  25  26
ENDBRANCH  24  25
ENDBRANCH   1  24
TORSDOF 19
ENDMDL
