MODEL 1
REMARK VINA RESULT:     -10.2      0.000      0.000
REMARK SMILES CCC(CC)(NC(=O)Nc1cc(Cl)cc(Cl)c1)C(=O)OCCOCCOC(=O)c1ccc(-c2c3nc(c(-c4c(F)cc(S(=O)(=O)[O-])cc4F)c4ccc([nH]4)c(-c4c(F)cc(S(=O)(=O)[O-])cc4F)c4nc(c(-c5c(F)cc(S(=O)(=O)[O-])cc5F)c5ccc2[nH]5)C=C4)C=C3)cc1
REMARK SMILES IDX 24 1 23 2 22 3 21 4 20 5 18 6 19 7 3 8 2 9 1 10 4 11 5 12
REMARK SMILES IDX 6 13 7 14 8 16 9 17 10 19 11 20 17 21 12 22 15 23 13 24
REMARK SMILES IDX 14 25 16 26 25 27 26 28 27 29 28 30 29 31 30 32 94 33 31 34
REMARK SMILES IDX 93 35 32 36 33 37 34 38 87 39 35 40 92 41 86 42 88 43 36 44
REMARK SMILES IDX 91 45 85 46 84 47 37 49 71 50 50 51 70 52 51 53 54 54 69 55
REMARK SMILES IDX 89 56 52 57 53 58 68 60 90 61 55 62 38 63 39 64 48 65 40 66
REMARK SMILES IDX 41 67 47 68 49 69 42 70 43 71 44 72 45 73 46 74 72 75 73 76
REMARK SMILES IDX 82 77 74 78 75 79 81 80 83 81 76 82 77 83 78 84 79 85 80 86
REMARK SMILES IDX 56 87 57 88 66 89 58 90 59 91 65 92 67 93 60 94 61 95 62 96
REMARK SMILES IDX 63 97 64 98
REMARK H PARENT 6 15 9 18 88 48 54 59
REMARK Flexibility Score: inf
ROOT
ATOM      1  C   UNL A   1      31.801  29.304  27.159  1.00  0.00     0.202 C 
ENDROOT
BRANCH   1   2
ATOM      2  O   UNL A   1      32.436  28.290  26.377  1.00  0.00    -0.374 OA
BRANCH   2   3
ATOM      3  C   UNL A   1      32.134  26.914  26.555  1.00  0.00     0.202 C 
BRANCH   3   4
ATOM      4  C   UNL A   1      30.699  26.462  26.045  1.00  0.00     0.261 C 
BRANCH   4   5
ATOM      5  O   UNL A   1      30.356  26.928  24.709  1.00  0.00    -0.461 OA
BRANCH   5   6
ATOM      6  C   UNL A   1      30.892  26.457  23.517  1.00  0.00     0.331 C 
ATOM      7  O   UNL A   1      30.448  25.474  22.929  1.00  0.00    -0.249 OA
BRANCH   6   8
ATOM      8  C   UNL A   1      32.138  27.388  22.942  1.00  0.00     0.139 C 
BRANCH   8   9
ATOM      9  C   UNL A   1      33.701  27.500  23.208  1.00  0.00     0.037 C 
ATOM     10  C   UNL A   1      34.456  28.712  23.677  1.00  0.00     0.007 C 
ENDBRANCH   8   9
BRANCH   8  11
ATOM     11  C   UNL A   1      31.553  28.832  23.083  1.00  0.00     0.037 C 
ATOM     12  C   UNL A   1      30.339  29.240  22.254  1.00  0.00     0.007 C 
ENDBRANCH   8  11
BRANCH   8  13
ATOM     13  N   UNL A   1      32.182  26.800  21.631  1.00  0.00    -0.322 N 
ATOM     14  C   UNL A   1      32.831  25.637  21.376  1.00  0.00     0.320 C 
ATOM     15  H   UNL A   1      31.724  27.259  20.890  1.00  0.00     0.166 HD
ATOM     16  O   UNL A   1      32.888  25.299  20.189  1.00  0.00    -0.248 OA
ATOM     17  N   UNL A   1      33.494  24.861  22.303  1.00  0.00    -0.308 N 
ATOM     18  H   UNL A   1      34.140  24.331  21.783  1.00  0.00     0.171 HD
BRANCH  17  19
ATOM     19  C   UNL A   1      33.690  24.454  23.687  1.00  0.00     0.045 A 
ATOM     20  C   UNL A   1      32.811  23.977  24.670  1.00  0.00     0.046 A 
ATOM     21  C   UNL A   1      35.037  24.422  24.088  1.00  0.00     0.046 A 
ATOM     22  C   UNL A   1      33.214  23.513  25.941  1.00  0.00     0.044 A 
ATOM     23  C   UNL A   1      35.450  23.971  25.357  1.00  0.00     0.044 A 
ATOM     24  Cl  UNL A   1      32.038  22.914  27.056  1.00  0.00    -0.084 Cl
ATOM     25  C   UNL A   1      34.541  23.519  26.299  1.00  0.00     0.041 A 
ATOM     26  Cl  UNL A   1      37.125  23.956  25.745  1.00  0.00    -0.084 Cl
ENDBRANCH  17  19
ENDBRANCH   8  13
ENDBRANCH   6   8
ENDBRANCH   5   6
ENDBRANCH   4   5
ENDBRANCH   3   4
ENDBRANCH   2   3
ENDBRANCH   1   2
BRANCH   1  27
ATOM     27  C   UNL A   1      32.567  30.631  27.014  1.00  0.00     0.261 C 
BRANCH  27  28
ATOM     28  O   UNL A   1      33.970  30.375  26.964  1.00  0.00    -0.460 OA
BRANCH  28  29
ATOM     29  C   UNL A   1      34.635  31.089  27.904  1.00  0.00     0.338 C 
ATOM     30  O   UNL A   1      34.180  31.959  28.608  1.00  0.00    -0.246 OA
BRANCH  29  31
ATOM     31  C   UNL A   1      35.911  30.399  28.162  1.00  0.00     0.060 A 
ATOM     32  C   UNL A   1      35.996  29.702  29.373  1.00  0.00     0.016 A 
ATOM     33  C   UNL A   1      36.952  30.359  27.227  1.00  0.00     0.016 A 
ATOM     34  C   UNL A   1      37.171  29.053  29.704  1.00  0.00     0.010 A 
ATOM     35  C   UNL A   1      38.140  29.719  27.567  1.00  0.00     0.010 A 
ATOM     36  C   UNL A   1      38.267  29.131  28.836  1.00  0.00    -0.014 A 
BRANCH  36  37
ATOM     37  C   UNL A   1      39.596  28.871  29.416  1.00  0.00     0.031 A 
ATOM     38  C   UNL A   1      40.006  29.712  30.594  1.00  0.00     0.074 A 
ATOM     39  C   UNL A   1      40.334  27.831  29.002  1.00  0.00     0.049 A 
ATOM     40  N   UNL A   1      41.065  29.615  31.351  1.00  0.00    -0.248 NA
ATOM     41  C   UNL A   1      39.090  30.802  30.982  1.00  0.00     0.031 C 
ATOM     42  C   UNL A   1      39.988  26.927  27.907  1.00  0.00     0.029 A 
ATOM     43  N   UNL A   1      41.525  27.351  29.476  1.00  0.00    -0.354 N 
ATOM     44  C   UNL A   1      40.931  30.611  32.310  1.00  0.00     0.074 A 
ATOM     45  C   UNL A   1      39.717  31.334  32.017  1.00  0.00     0.031 C 
ATOM     46  C   UNL A   1      40.955  25.999  27.788  1.00  0.00     0.029 A 
ATOM     47  C   UNL A   1      41.991  26.260  28.786  1.00  0.00     0.049 A 
ATOM     48  H   UNL A   1      42.003  27.751  30.239  1.00  0.00     0.167 HD
ATOM     49  C   UNL A   1      41.741  30.883  33.356  1.00  0.00     0.037 A 
ATOM     50  C   UNL A   1      43.134  25.566  28.944  1.00  0.00     0.037 A 
ATOM     51  C   UNL A   1      42.954  30.161  33.630  1.00  0.00     0.049 A 
ATOM     52  C   UNL A   1      44.066  25.950  30.065  1.00  0.00     0.074 A 
ATOM     53  C   UNL A   1      43.864  30.365  34.651  1.00  0.00     0.029 A 
ATOM     54  N   UNL A   1      43.428  29.099  32.874  1.00  0.00    -0.354 N 
ATOM     55  N   UNL A   1      43.925  26.887  30.977  1.00  0.00    -0.248 NA
ATOM     56  C   UNL A   1      45.308  25.175  30.189  1.00  0.00     0.031 C 
ATOM     57  C   UNL A   1      44.916  29.460  34.481  1.00  0.00     0.029 A 
ATOM     58  C   UNL A   1      44.631  28.652  33.391  1.00  0.00     0.049 A 
ATOM     59  H   UNL A   1      42.976  28.720  32.086  1.00  0.00     0.167 HD
ATOM     60  C   UNL A   1      45.048  26.796  31.794  1.00  0.00     0.074 A 
ATOM     61  C   UNL A   1      45.841  25.695  31.285  1.00  0.00     0.031 C 
ATOM     62  C   UNL A   1      45.400  27.553  32.865  1.00  0.00     0.037 A 
BRANCH  49  63
ATOM     63  C   UNL A   1      41.354  32.015  34.264  1.00  0.00     0.058 A 
ATOM     64  C   UNL A   1      41.806  33.326  34.043  1.00  0.00     0.135 A 
ATOM     65  C   UNL A   1      40.483  31.794  35.342  1.00  0.00     0.135 A 
ATOM     66  F   UNL A   1      42.667  33.587  33.047  1.00  0.00    -0.206 F 
ATOM     67  C   UNL A   1      41.408  34.378  34.860  1.00  0.00     0.059 A 
ATOM     68  C   UNL A   1      40.051  32.835  36.156  1.00  0.00     0.059 A 
ATOM     69  F   UNL A   1      40.037  30.556  35.607  1.00  0.00    -0.206 F 
ATOM     70  C   UNL A   1      40.521  34.124  35.909  1.00  0.00     0.060 A 
BRANCH  70  71
ATOM     71  S   UNL A   1      39.975  35.509  36.928  1.00  0.00     0.124 S 
ATOM     72  O   UNL A   1      38.853  34.918  37.651  1.00  0.00    -0.237 OA
ATOM     73  O   UNL A   1      41.163  35.795  37.724  1.00  0.00    -0.237 OA
ATOM     74  O   UNL A   1      39.619  36.532  35.949  1.00  0.00    -0.744 OA
ENDBRANCH  70  71
ENDBRANCH  49  63
BRANCH  50  75
ATOM     75  C   UNL A   1      43.480  24.466  28.004  1.00  0.00     0.058 A 
ATOM     76  C   UNL A   1      44.253  24.695  26.856  1.00  0.00     0.135 A 
ATOM     77  C   UNL A   1      43.001  23.163  28.218  1.00  0.00     0.135 A 
ATOM     78  F   UNL A   1      44.730  25.924  26.604  1.00  0.00    -0.206 F 
ATOM     79  C   UNL A   1      44.507  23.684  25.935  1.00  0.00     0.059 A 
ATOM     80  C   UNL A   1      43.270  22.129  27.329  1.00  0.00     0.059 A 
ATOM     81  F   UNL A   1      42.268  22.885  29.307  1.00  0.00    -0.206 F 
ATOM     82  C   UNL A   1      44.006  22.404  26.179  1.00  0.00     0.060 A 
BRANCH  82  83
ATOM     83  S   UNL A   1      44.342  21.097  24.980  1.00  0.00     0.124 S 
ATOM     84  O   UNL A   1      44.217  21.818  23.719  1.00  0.00    -0.237 OA
ATOM     85  O   UNL A   1      45.693  20.684  25.348  1.00  0.00    -0.237 OA
ATOM     86  O   UNL A   1      43.297  20.115  25.252  1.00  0.00    -0.744 OA
ENDBRANCH  82  83
ENDBRANCH  50  75
BRANCH  62  87
ATOM     87  C   UNL A   1      46.681  27.195  33.568  1.00  0.00     0.058 A 
ATOM     88  C   UNL A   1      46.716  26.246  34.603  1.00  0.00     0.135 A 
ATOM     89  C   UNL A   1      47.894  27.792  33.185  1.00  0.00     0.135 A 
ATOM     90  F   UNL A   1      45.585  25.646  35.008  1.00  0.00    -0.206 F 
ATOM     91  C   UNL A   1      47.898  25.939  35.266  1.00  0.00     0.059 A 
ATOM     92  C   UNL A   1      49.095  27.471  33.810  1.00  0.00     0.059 A 
ATOM     93  F   UNL A   1      47.922  28.690  32.187  1.00  0.00    -0.206 F 
ATOM     94  C   UNL A   1      49.082  26.561  34.865  1.00  0.00     0.060 A 
BRANCH  94  95
ATOM     95  S   UNL A   1      50.609  26.156  35.737  1.00  0.00     0.124 S 
ATOM     96  O   UNL A   1      50.699  27.253  36.695  1.00  0.00    -0.237 OA
ATOM     97  O   UNL A   1      50.308  24.844  36.302  1.00  0.00    -0.237 OA
ATOM     98  O   UNL A   1      51.617  26.161  34.681  1.00  0.00    -0.744 OA
ENDBRANCH  94  95
ENDBRANCH  62  87
ENDBRANCH  36  37
ENDBRANCH  29  31
ENDBRANCH  28  29
ENDBRANCH  27  28
ENDBRANCH   1  27
TORSDOF 21
ENDMDL
MODEL 2
REMARK VINA RESULT:     -10.1      1.973      3.105
REMARK SMILES CCC(CC)(NC(=O)Nc1cc(Cl)cc(Cl)c1)C(=O)OCCOCCOC(=O)c1ccc(-c2c3nc(c(-c4c(F)cc(S(=O)(=O)[O-])cc4F)c4ccc([nH]4)c(-c4c(F)cc(S(=O)(=O)[O-])cc4F)c4nc(c(-c5c(F)cc(S(=O)(=O)[O-])cc5F)c5ccc2[nH]5)C=C4)C=C3)cc1
REMARK SMILES IDX 24 1 23 2 22 3 21 4 20 5 18 6 19 7 3 8 2 9 1 10 4 11 5 12
REMARK SMILES IDX 6 13 7 14 8 16 9 17 10 19 11 20 17 21 12 22 15 23 13 24
REMARK SMILES IDX 14 25 16 26 25 27 26 28 27 29 28 30 29 31 30 32 94 33 31 34
REMARK SMILES IDX 93 35 32 36 33 37 34 38 87 39 35 40 92 41 86 42 88 43 36 44
REMARK SMILES IDX 91 45 85 46 84 47 37 49 71 50 50 51 70 52 51 53 54 54 69 55
REMARK SMILES IDX 89 56 52 57 53 58 68 60 90 61 55 62 38 63 39 64 48 65 40 66
REMARK SMILES IDX 41 67 47 68 49 69 42 70 43 71 44 72 45 73 46 74 72 75 73 76
REMARK SMILES IDX 82 77 74 78 75 79 81 80 83 81 76 82 77 83 78 84 79 85 80 86
REMARK SMILES IDX 56 87 57 88 66 89 58 90 59 91 65 92 67 93 60 94 61 95 62 96
REMARK SMILES IDX 63 97 64 98
REMARK H PARENT 6 15 9 18 88 48 54 59
REMARK Flexibility Score: inf
ROOT
ATOM      1  C   UNL A   1      31.983  30.723  26.289  1.00  0.00     0.202 C 
ENDROOT
BRANCH   1   2
ATOM      2  O   UNL A   1      31.517  29.421  25.929  1.00  0.00    -0.374 OA
BRANCH   2   3
ATOM      3  C   UNL A   1      31.943  28.782  24.735  1.00  0.00     0.202 C 
BRANCH   3   4
ATOM      4  C   UNL A   1      33.133  27.744  24.907  1.00  0.00     0.261 C 
BRANCH   4   5
ATOM      5  O   UNL A   1      32.743  26.348  24.780  1.00  0.00    -0.461 OA
BRANCH   5   6
ATOM      6  C   UNL A   1      31.857  25.669  25.608  1.00  0.00     0.331 C 
ATOM      7  O   UNL A   1      31.788  25.869  26.817  1.00  0.00    -0.249 OA
BRANCH   6   8
ATOM      8  C   UNL A   1      30.866  24.619  24.790  1.00  0.00     0.139 C 
BRANCH   8   9
ATOM      9  C   UNL A   1      31.021  23.185  24.122  1.00  0.00     0.037 C 
ATOM     10  C   UNL A   1      31.778  22.846  22.869  1.00  0.00     0.007 C 
ENDBRANCH   8   9
BRANCH   8  11
ATOM     11  C   UNL A   1      30.228  25.552  23.710  1.00  0.00     0.037 C 
ATOM     12  C   UNL A   1      29.009  26.397  24.065  1.00  0.00     0.007 C 
ENDBRANCH   8  11
BRANCH   8  13
ATOM     13  N   UNL A   1      30.064  24.246  25.923  1.00  0.00    -0.322 N 
ATOM     14  C   UNL A   1      30.418  23.247  26.769  1.00  0.00     0.320 C 
ATOM     15  H   UNL A   1      29.225  24.734  26.090  1.00  0.00     0.166 HD
ATOM     16  O   UNL A   1      29.586  22.953  27.635  1.00  0.00    -0.248 OA
ATOM     17  N   UNL A   1      31.567  22.490  26.691  1.00  0.00    -0.308 N 
ATOM     18  H   UNL A   1      31.362  21.658  27.174  1.00  0.00     0.171 HD
BRANCH  17  19
ATOM     19  C   UNL A   1      32.941  22.339  26.232  1.00  0.00     0.045 A 
ATOM     20  C   UNL A   1      34.070  23.167  26.328  1.00  0.00     0.046 A 
ATOM     21  C   UNL A   1      33.226  21.076  25.688  1.00  0.00     0.046 A 
ATOM     22  C   UNL A   1      35.368  22.791  25.921  1.00  0.00     0.044 A 
ATOM     23  C   UNL A   1      34.516  20.694  25.268  1.00  0.00     0.044 A 
ATOM     24  Cl  UNL A   1      36.689  23.885  26.124  1.00  0.00    -0.084 Cl
ATOM     25  C   UNL A   1      35.598  21.551  25.374  1.00  0.00     0.041 A 
ATOM     26  Cl  UNL A   1      34.764  19.117  24.629  1.00  0.00    -0.084 Cl
ENDBRANCH  17  19
ENDBRANCH   8  13
ENDBRANCH   6   8
ENDBRANCH   5   6
ENDBRANCH   4   5
ENDBRANCH   3   4
ENDBRANCH   2   3
ENDBRANCH   1   2
BRANCH   1  27
ATOM     27  C   UNL A   1      33.148  30.603  27.288  1.00  0.00     0.261 C 
BRANCH  27  28
ATOM     28  O   UNL A   1      34.010  31.733  27.162  1.00  0.00    -0.460 OA
BRANCH  28  29
ATOM     29  C   UNL A   1      34.436  32.165  28.374  1.00  0.00     0.338 C 
ATOM     30  O   UNL A   1      33.762  32.670  29.240  1.00  0.00    -0.246 OA
BRANCH  29  31
ATOM     31  C   UNL A   1      35.783  31.609  28.592  1.00  0.00     0.060 A 
ATOM     32  C   UNL A   1      35.848  30.225  28.789  1.00  0.00     0.016 A 
ATOM     33  C   UNL A   1      36.944  32.387  28.523  1.00  0.00     0.016 A 
ATOM     34  C   UNL A   1      37.072  29.628  29.032  1.00  0.00     0.010 A 
ATOM     35  C   UNL A   1      38.174  31.790  28.781  1.00  0.00     0.010 A 
ATOM     36  C   UNL A   1      38.221  30.424  29.106  1.00  0.00    -0.014 A 
BRANCH  36  37
ATOM     37  C   UNL A   1      39.375  29.861  29.829  1.00  0.00     0.031 A 
ATOM     38  C   UNL A   1      39.576  30.307  31.253  1.00  0.00     0.074 A 
ATOM     39  C   UNL A   1      40.117  28.886  29.285  1.00  0.00     0.049 A 
ATOM     40  N   UNL A   1      40.439  29.886  32.136  1.00  0.00    -0.248 NA
ATOM     41  C   UNL A   1      38.670  31.359  31.753  1.00  0.00     0.031 C 
ATOM     42  C   UNL A   1      39.956  28.351  27.934  1.00  0.00     0.029 A 
ATOM     43  N   UNL A   1      41.145  28.158  29.820  1.00  0.00    -0.354 N 
ATOM     44  C   UNL A   1      40.167  30.603  33.294  1.00  0.00     0.074 A 
ATOM     45  C   UNL A   1      39.093  31.520  32.994  1.00  0.00     0.031 C 
ATOM     46  C   UNL A   1      40.864  27.377  27.742  1.00  0.00     0.029 A 
ATOM     47  C   UNL A   1      41.676  27.238  28.950  1.00  0.00     0.049 A 
ATOM     48  H   UNL A   1      41.473  28.281  30.740  1.00  0.00     0.167 HD
ATOM     49  C   UNL A   1      40.749  30.489  34.508  1.00  0.00     0.037 A 
ATOM     50  C   UNL A   1      42.711  26.394  29.118  1.00  0.00     0.037 A 
ATOM     51  C   UNL A   1      41.826  29.579  34.790  1.00  0.00     0.049 A 
ATOM     52  C   UNL A   1      43.404  26.353  30.457  1.00  0.00     0.074 A 
ATOM     53  C   UNL A   1      42.507  29.395  35.980  1.00  0.00     0.029 A 
ATOM     54  N   UNL A   1      42.382  28.705  33.868  1.00  0.00    -0.354 N 
ATOM     55  N   UNL A   1      43.131  27.027  31.553  1.00  0.00    -0.248 NA
ATOM     56  C   UNL A   1      44.538  25.429  30.589  1.00  0.00     0.031 C 
ATOM     57  C   UNL A   1      43.509  28.446  35.763  1.00  0.00     0.029 A 
ATOM     58  C   UNL A   1      43.414  27.995  34.455  1.00  0.00     0.049 A 
ATOM     59  H   UNL A   1      42.086  28.604  32.935  1.00  0.00     0.167 HD
ATOM     60  C   UNL A   1      44.045  26.588  32.507  1.00  0.00     0.074 A 
ATOM     61  C   UNL A   1      44.855  25.573  31.867  1.00  0.00     0.031 C 
ATOM     62  C   UNL A   1      44.206  26.988  33.794  1.00  0.00     0.037 A 
BRANCH  49  63
ATOM     63  C   UNL A   1      40.250  31.380  35.609  1.00  0.00     0.058 A 
ATOM     64  C   UNL A   1      39.020  31.147  36.246  1.00  0.00     0.135 A 
ATOM     65  C   UNL A   1      41.032  32.453  36.064  1.00  0.00     0.135 A 
ATOM     66  F   UNL A   1      38.218  30.155  35.829  1.00  0.00    -0.206 F 
ATOM     67  C   UNL A   1      38.584  31.948  37.296  1.00  0.00     0.059 A 
ATOM     68  C   UNL A   1      40.627  33.251  37.129  1.00  0.00     0.059 A 
ATOM     69  F   UNL A   1      42.206  32.730  35.477  1.00  0.00    -0.206 F 
ATOM     70  C   UNL A   1      39.399  32.992  37.737  1.00  0.00     0.060 A 
BRANCH  70  71
ATOM     71  S   UNL A   1      38.840  33.989  39.133  1.00  0.00     0.124 S 
ATOM     72  O   UNL A   1      37.499  33.456  39.355  1.00  0.00    -0.237 OA
ATOM     73  O   UNL A   1      39.827  33.668  40.158  1.00  0.00    -0.237 OA
ATOM     74  O   UNL A   1      38.894  35.354  38.620  1.00  0.00    -0.744 OA
ENDBRANCH  70  71
ENDBRANCH  49  63
BRANCH  50  75
ATOM     75  C   UNL A   1      43.180  25.547  27.988  1.00  0.00     0.058 A 
ATOM     76  C   UNL A   1      42.694  24.246  27.793  1.00  0.00     0.135 A 
ATOM     77  C   UNL A   1      44.164  26.015  27.102  1.00  0.00     0.135 A 
ATOM     78  F   UNL A   1      41.757  23.750  28.616  1.00  0.00    -0.206 F 
ATOM     79  C   UNL A   1      43.193  23.425  26.787  1.00  0.00     0.059 A 
ATOM     80  C   UNL A   1      44.654  25.226  26.068  1.00  0.00     0.059 A 
ATOM     81  F   UNL A   1      44.653  27.258  27.234  1.00  0.00    -0.206 F 
ATOM     82  C   UNL A   1      44.177  23.924  25.932  1.00  0.00     0.060 A 
BRANCH  82  83
ATOM     83  S   UNL A   1      44.817  22.853  24.626  1.00  0.00     0.124 S 
ATOM     84  O   UNL A   1      45.817  23.713  24.006  1.00  0.00    -0.237 OA
ATOM     85  O   UNL A   1      45.332  21.718  25.386  1.00  0.00    -0.237 OA
ATOM     86  O   UNL A   1      43.636  22.572  23.814  1.00  0.00    -0.744 OA
ENDBRANCH  82  83
ENDBRANCH  50  75
BRANCH  62  87
ATOM     87  C   UNL A   1      45.280  26.305  34.596  1.00  0.00     0.058 A 
ATOM     88  C   UNL A   1      46.586  26.816  34.669  1.00  0.00     0.135 A 
ATOM     89  C   UNL A   1      44.993  25.135  35.320  1.00  0.00     0.135 A 
ATOM     90  F   UNL A   1      46.914  27.931  33.997  1.00  0.00    -0.206 F 
ATOM     91  C   UNL A   1      47.581  26.166  35.390  1.00  0.00     0.059 A 
ATOM     92  C   UNL A   1      45.964  24.489  36.078  1.00  0.00     0.059 A 
ATOM     93  F   UNL A   1      43.756  24.614  35.302  1.00  0.00    -0.206 F 
ATOM     94  C   UNL A   1      47.260  25.000  36.089  1.00  0.00     0.060 A 
BRANCH  94  95
ATOM     95  S   UNL A   1      48.562  24.164  37.017  1.00  0.00     0.124 S 
ATOM     96  O   UNL A   1      48.190  22.764  36.847  1.00  0.00    -0.237 OA
ATOM     97  O   UNL A   1      49.769  24.589  36.315  1.00  0.00    -0.237 OA
ATOM     98  O   UNL A   1      48.412  24.695  38.368  1.00  0.00    -0.744 OA
ENDBRANCH  94  95
ENDBRANCH  62  87
ENDBRANCH  36  37
ENDBRANCH  29  31
ENDBRANCH  28  29
ENDBRANCH  27  28
ENDBRANCH   1  27
TORSDOF 21
ENDMDL
MODEL 3
REMARK VINA RESULT:     -10.1      4.821      6.079
REMARK SMILES CCC(CC)(NC(=O)Nc1cc(Cl)cc(Cl)c1)C(=O)OCCOCCOC(=O)c1ccc(-c2c3nc(c(-c4c(F)cc(S(=O)(=O)[O-])cc4F)c4ccc([nH]4)c(-c4c(F)cc(S(=O)(=O)[O-])cc4F)c4nc(c(-c5c(F)cc(S(=O)(=O)[O-])cc5F)c5ccc2[nH]5)C=C4)C=C3)cc1
REMARK SMILES IDX 24 1 23 2 22 3 21 4 20 5 18 6 19 7 3 8 2 9 1 10 4 11 5 12
REMARK SMILES IDX 6 13 7 14 8 16 9 17 10 19 11 20 17 21 12 22 15 23 13 24
REMARK SMILES IDX 14 25 16 26 25 27 26 28 27 29 28 30 29 31 30 32 94 33 31 34
REMARK SMILES IDX 93 35 32 36 33 37 34 38 87 39 35 40 92 41 86 42 88 43 36 44
REMARK SMILES IDX 91 45 85 46 84 47 37 49 71 50 50 51 70 52 51 53 54 54 69 55
REMARK SMILES IDX 89 56 52 57 53 58 68 60 90 61 55 62 38 63 39 64 48 65 40 66
REMARK SMILES IDX 41 67 47 68 49 69 42 70 43 71 44 72 45 73 46 74 72 75 73 76
REMARK SMILES IDX 82 77 74 78 75 79 81 80 83 81 76 82 77 83 78 84 79 85 80 86
REMARK SMILES IDX 56 87 57 88 66 89 58 90 59 91 65 92 67 93 60 94 61 95 62 96
REMARK SMILES IDX 63 97 64 98
REMARK H PARENT 6 15 9 18 88 48 54 59
REMARK Flexibility Score: inf
ROOT
ATOM      1  C   UNL A   1      34.314  31.120  27.572  1.00  0.00     0.202 C 
ENDROOT
BRANCH   1   2
ATOM      2  O   UNL A   1      33.088  30.447  27.868  1.00  0.00    -0.374 OA
BRANCH   2   3
ATOM      3  C   UNL A   1      32.137  30.155  26.855  1.00  0.00     0.202 C 
BRANCH   3   4
ATOM      4  C   UNL A   1      32.741  29.917  25.405  1.00  0.00     0.261 C 
BRANCH   4   5
ATOM      5  O   UNL A   1      32.397  28.635  24.808  1.00  0.00    -0.461 OA
BRANCH   5   6
ATOM      6  C   UNL A   1      33.132  27.961  23.841  1.00  0.00     0.331 C 
ATOM      7  O   UNL A   1      34.056  28.481  23.223  1.00  0.00    -0.249 OA
BRANCH   6   8
ATOM      8  C   UNL A   1      32.680  26.375  23.657  1.00  0.00     0.139 C 
BRANCH   8   9
ATOM      9  C   UNL A   1      31.395  25.504  24.000  1.00  0.00     0.037 C 
ATOM     10  C   UNL A   1      30.469  25.677  25.171  1.00  0.00     0.007 C 
ENDBRANCH   8   9
BRANCH   8  11
ATOM     11  C   UNL A   1      33.910  25.617  24.256  1.00  0.00     0.037 C 
ATOM     12  C   UNL A   1      34.129  25.604  25.765  1.00  0.00     0.007 C 
ENDBRANCH   8  11
BRANCH   8  13
ATOM     13  N   UNL A   1      32.539  26.416  22.227  1.00  0.00    -0.322 N 
ATOM     14  C   UNL A   1      32.958  25.406  21.425  1.00  0.00     0.320 C 
ATOM     15  H   UNL A   1      32.124  27.208  21.815  1.00  0.00     0.166 HD
ATOM     16  O   UNL A   1      32.882  25.616  20.209  1.00  0.00    -0.248 OA
ATOM     17  N   UNL A   1      33.531  24.225  21.845  1.00  0.00    -0.308 N 
ATOM     18  H   UNL A   1      34.041  23.895  21.071  1.00  0.00     0.171 HD
BRANCH  17  19
ATOM     19  C   UNL A   1      33.737  23.233  22.891  1.00  0.00     0.045 A 
ATOM     20  C   UNL A   1      32.881  22.305  23.502  1.00  0.00     0.046 A 
ATOM     21  C   UNL A   1      35.077  23.096  23.292  1.00  0.00     0.046 A 
ATOM     22  C   UNL A   1      33.300  21.328  24.431  1.00  0.00     0.044 A 
ATOM     23  C   UNL A   1      35.505  22.132  24.227  1.00  0.00     0.044 A 
ATOM     24  Cl  UNL A   1      32.156  20.213  25.088  1.00  0.00    -0.084 Cl
ATOM     25  C   UNL A   1      34.618  21.243  24.810  1.00  0.00     0.041 A 
ATOM     26  Cl  UNL A   1      37.171  22.036  24.638  1.00  0.00    -0.084 Cl
ENDBRANCH  17  19
ENDBRANCH   8  13
ENDBRANCH   6   8
ENDBRANCH   5   6
ENDBRANCH   4   5
ENDBRANCH   3   4
ENDBRANCH   2   3
ENDBRANCH   1   2
BRANCH   1  27
ATOM     27  C   UNL A   1      35.246  31.067  28.796  1.00  0.00     0.261 C 
BRANCH  27  28
ATOM     28  O   UNL A   1      35.905  29.801  28.846  1.00  0.00    -0.460 OA
BRANCH  28  29
ATOM     29  C   UNL A   1      36.644  29.676  29.975  1.00  0.00     0.338 C 
ATOM     30  O   UNL A   1      36.249  29.339  31.066  1.00  0.00    -0.246 OA
BRANCH  29  31
ATOM     31  C   UNL A   1      38.063  29.688  29.576  1.00  0.00     0.060 A 
ATOM     32  C   UNL A   1      38.312  29.654  28.200  1.00  0.00     0.016 A 
ATOM     33  C   UNL A   1      39.107  29.814  30.500  1.00  0.00     0.016 A 
ATOM     34  C   UNL A   1      39.617  29.631  27.744  1.00  0.00     0.010 A 
ATOM     35  C   UNL A   1      40.421  29.776  30.042  1.00  0.00     0.010 A 
ATOM     36  C   UNL A   1      40.667  29.612  28.669  1.00  0.00    -0.014 A 
BRANCH  36  37
ATOM     37  C   UNL A   1      41.965  29.103  28.193  1.00  0.00     0.031 A 
ATOM     38  C   UNL A   1      43.108  30.079  28.142  1.00  0.00     0.074 A 
ATOM     39  C   UNL A   1      42.146  27.794  27.960  1.00  0.00     0.049 A 
ATOM     40  N   UNL A   1      44.366  29.866  27.869  1.00  0.00    -0.248 NA
ATOM     41  C   UNL A   1      42.793  31.486  28.459  1.00  0.00     0.031 C 
ATOM     42  C   UNL A   1      41.109  26.767  28.041  1.00  0.00     0.029 A 
ATOM     43  N   UNL A   1      43.281  27.107  27.627  1.00  0.00    -0.354 N 
ATOM     44  C   UNL A   1      44.991  31.100  28.000  1.00  0.00     0.074 A 
ATOM     45  C   UNL A   1      43.973  32.068  28.330  1.00  0.00     0.031 C 
ATOM     46  C   UNL A   1      41.658  25.572  27.757  1.00  0.00     0.029 A 
ATOM     47  C   UNL A   1      43.077  25.760  27.458  1.00  0.00     0.049 A 
ATOM     48  H   UNL A   1      44.160  27.537  27.518  1.00  0.00     0.167 HD
ATOM     49  C   UNL A   1      46.304  31.393  27.877  1.00  0.00     0.037 A 
ATOM     50  C   UNL A   1      43.945  24.798  27.090  1.00  0.00     0.037 A 
ATOM     51  C   UNL A   1      47.306  30.420  27.537  1.00  0.00     0.049 A 
ATOM     52  C   UNL A   1      45.389  25.171  26.870  1.00  0.00     0.074 A 
ATOM     53  C   UNL A   1      48.665  30.610  27.365  1.00  0.00     0.029 A 
ATOM     54  N   UNL A   1      47.056  29.074  27.313  1.00  0.00    -0.354 N 
ATOM     55  N   UNL A   1      45.975  26.340  27.009  1.00  0.00    -0.248 NA
ATOM     56  C   UNL A   1      46.296  24.093  26.454  1.00  0.00     0.031 C 
ATOM     57  C   UNL A   1      49.228  29.389  26.984  1.00  0.00     0.029 A 
ATOM     58  C   UNL A   1      48.231  28.426  26.979  1.00  0.00     0.049 A 
ATOM     59  H   UNL A   1      46.172  28.645  27.381  1.00  0.00     0.167 HD
ATOM     60  C   UNL A   1      47.320  26.128  26.721  1.00  0.00     0.074 A 
ATOM     61  C   UNL A   1      47.464  24.717  26.429  1.00  0.00     0.031 C 
ATOM     62  C   UNL A   1      48.346  27.018  26.693  1.00  0.00     0.037 A 
BRANCH  49  63
ATOM     63  C   UNL A   1      46.725  32.819  28.091  1.00  0.00     0.058 A 
ATOM     64  C   UNL A   1      46.657  33.770  27.060  1.00  0.00     0.135 A 
ATOM     65  C   UNL A   1      47.158  33.249  29.355  1.00  0.00     0.135 A 
ATOM     66  F   UNL A   1      46.282  33.405  25.824  1.00  0.00    -0.206 F 
ATOM     67  C   UNL A   1      47.004  35.099  27.276  1.00  0.00     0.059 A 
ATOM     68  C   UNL A   1      47.485  34.579  29.599  1.00  0.00     0.059 A 
ATOM     69  F   UNL A   1      47.258  32.376  30.368  1.00  0.00    -0.206 F 
ATOM     70  C   UNL A   1      47.408  35.496  28.553  1.00  0.00     0.060 A 
BRANCH  70  71
ATOM     71  S   UNL A   1      47.806  37.234  28.827  1.00  0.00     0.124 S 
ATOM     72  O   UNL A   1      46.894  37.895  27.897  1.00  0.00    -0.237 OA
ATOM     73  O   UNL A   1      47.500  37.402  30.243  1.00  0.00    -0.237 OA
ATOM     74  O   UNL A   1      49.222  37.318  28.479  1.00  0.00    -0.744 OA
ENDBRANCH  70  71
ENDBRANCH  49  63
BRANCH  50  75
ATOM     75  C   UNL A   1      43.472  23.405  26.872  1.00  0.00     0.058 A 
ATOM     76  C   UNL A   1      43.316  22.506  27.937  1.00  0.00     0.135 A 
ATOM     77  C   UNL A   1      43.209  22.932  25.576  1.00  0.00     0.135 A 
ATOM     78  F   UNL A   1      43.561  22.907  29.194  1.00  0.00    -0.206 F 
ATOM     79  C   UNL A   1      42.954  21.179  27.724  1.00  0.00     0.059 A 
ATOM     80  C   UNL A   1      42.813  21.620  25.341  1.00  0.00     0.059 A 
ATOM     81  F   UNL A   1      43.329  23.754  24.522  1.00  0.00    -0.206 F 
ATOM     82  C   UNL A   1      42.709  20.745  26.420  1.00  0.00     0.060 A 
BRANCH  82  83
ATOM     83  S   UNL A   1      42.237  19.023  26.152  1.00  0.00     0.124 S 
ATOM     84  O   UNL A   1      43.168  18.624  25.105  1.00  0.00    -0.237 OA
ATOM     85  O   UNL A   1      42.465  18.435  27.469  1.00  0.00    -0.237 OA
ATOM     86  O   UNL A   1      40.837  19.118  25.750  1.00  0.00    -0.744 OA
ENDBRANCH  82  83
ENDBRANCH  50  75
BRANCH  62  87
ATOM     87  C   UNL A   1      49.712  26.480  26.364  1.00  0.00     0.058 A 
ATOM     88  C   UNL A   1      50.215  26.494  25.053  1.00  0.00     0.135 A 
ATOM     89  C   UNL A   1      50.538  25.964  27.377  1.00  0.00     0.135 A 
ATOM     90  F   UNL A   1      49.468  26.976  24.046  1.00  0.00    -0.206 F 
ATOM     91  C   UNL A   1      51.468  25.972  24.750  1.00  0.00     0.059 A 
ATOM     92  C   UNL A   1      51.809  25.471  27.102  1.00  0.00     0.059 A 
ATOM     93  F   UNL A   1      50.115  25.945  28.651  1.00  0.00    -0.206 F 
ATOM     94  C   UNL A   1      52.256  25.458  25.782  1.00  0.00     0.060 A 
BRANCH  94  95
ATOM     95  S   UNL A   1      53.877  24.779  25.374  1.00  0.00     0.124 S 
ATOM     96  O   UNL A   1      54.601  24.979  26.625  1.00  0.00    -0.237 OA
ATOM     97  O   UNL A   1      53.560  23.394  25.038  1.00  0.00    -0.237 OA
ATOM     98  O   UNL A   1      54.320  25.604  24.254  1.00  0.00    -0.744 OA
ENDBRANCH  94  95
ENDBRANCH  62  87
ENDBRANCH  36  37
ENDBRANCH  29  31
ENDBRANCH  28  29
ENDBRANCH  27  28
ENDBRANCH   1  27
TORSDOF 21
ENDMDL
