MODEL 1
REMARK VINA RESULT:     -10.5      0.000      0.000
REMARK SMILES O=C(OCCOCCOC(=O)[C@@H]1CC[C@@H](CNC(=O)c2cc(Cl)ccc2Cl)O1)c1ccc(-c2c3nc(c(-c4c(F)cc(S(=O)(=O)[O-])cc4F)c4ccc([nH]4)c(-c4c(F)cc(S(=O)(=O)[O-])cc4F)c4nc(c(-c5c(F)cc(S(=O)(=O)[O-])cc5F)c5ccc2[nH]5)C=C4)C=C3)cc1
REMARK SMILES IDX 6 1 5 2 4 3 3 4 2 5 1 6 29 7 30 8 94 9 31 10 93 11 32 12
REMARK SMILES IDX 33 13 34 14 87 15 35 16 92 17 86 18 88 19 36 20 91 21 85 22
REMARK SMILES IDX 84 23 37 25 71 26 50 27 70 28 51 29 54 30 69 31 89 32 52 33
REMARK SMILES IDX 53 34 68 36 90 37 55 38 38 39 39 40 48 41 40 42 41 43 47 44
REMARK SMILES IDX 49 45 42 46 43 47 44 48 45 49 46 50 72 51 73 52 82 53 74 54
REMARK SMILES IDX 75 55 81 56 83 57 76 58 77 59 78 60 79 61 80 62 56 63 57 64
REMARK SMILES IDX 66 65 58 66 59 67 65 68 67 69 60 70 61 71 62 72 63 73 64 74
REMARK SMILES IDX 7 75 8 76 9 77 10 78 11 79 12 80 13 81 28 82 14 83 15 84
REMARK SMILES IDX 16 85 17 86 18 87 19 89 20 90 21 91 26 92 22 93 25 94 27 95
REMARK SMILES IDX 23 96 24 97
REMARK H PARENT 88 24 54 35 17 88
REMARK Flexibility Score: inf
ROOT
ATOM      1  O   UNL A   1      42.019  21.368  27.386  1.00  0.00    -0.374 OA
ENDROOT
BRANCH   1   2
ATOM      2  C   UNL A   1      42.852  21.650  26.257  1.00  0.00     0.202 C 
BRANCH   2   3
ATOM      3  C   UNL A   1      42.730  23.033  25.599  1.00  0.00     0.261 C 
BRANCH   3   4
ATOM      4  O   UNL A   1      41.750  23.847  26.265  1.00  0.00    -0.460 OA
BRANCH   4   5
ATOM      5  C   UNL A   1      41.599  25.191  26.179  1.00  0.00     0.338 C 
ATOM      6  O   UNL A   1      41.616  25.722  25.070  1.00  0.00    -0.246 OA
BRANCH   5   7
ATOM      7  C   UNL A   1      41.427  26.060  27.379  1.00  0.00     0.060 A 
ATOM      8  C   UNL A   1      40.417  25.891  28.325  1.00  0.00     0.016 A 
ATOM      9  C   UNL A   1      42.384  27.060  27.611  1.00  0.00     0.016 A 
ATOM     10  C   UNL A   1      40.292  26.716  29.418  1.00  0.00     0.010 A 
ATOM     11  C   UNL A   1      42.301  27.871  28.748  1.00  0.00     0.010 A 
ATOM     12  C   UNL A   1      41.240  27.700  29.643  1.00  0.00    -0.014 A 
BRANCH  12  13
ATOM     13  C   UNL A   1      40.972  28.589  30.776  1.00  0.00     0.031 A 
ATOM     14  C   UNL A   1      41.925  28.557  31.926  1.00  0.00     0.074 A 
ATOM     15  C   UNL A   1      40.035  29.546  30.637  1.00  0.00     0.049 A 
ATOM     16  N   UNL A   1      41.909  29.249  33.028  1.00  0.00    -0.248 NA
ATOM     17  C   UNL A   1      43.068  27.632  31.809  1.00  0.00     0.031 C 
ATOM     18  C   UNL A   1      39.192  29.734  29.449  1.00  0.00     0.029 A 
ATOM     19  N   UNL A   1      39.666  30.565  31.467  1.00  0.00    -0.354 N 
ATOM     20  C   UNL A   1      43.022  28.833  33.744  1.00  0.00     0.074 A 
ATOM     21  C   UNL A   1      43.689  27.818  32.962  1.00  0.00     0.031 C 
ATOM     22  C   UNL A   1      38.417  30.815  29.625  1.00  0.00     0.029 A 
ATOM     23  C   UNL A   1      38.650  31.342  30.962  1.00  0.00     0.049 A 
ATOM     24  H   UNL A   1      40.085  30.728  32.343  1.00  0.00     0.167 HD
ATOM     25  C   UNL A   1      43.435  29.271  34.953  1.00  0.00     0.037 A 
ATOM     26  C   UNL A   1      37.961  32.336  31.550  1.00  0.00     0.037 A 
ATOM     27  C   UNL A   1      42.729  30.281  35.692  1.00  0.00     0.049 A 
ATOM     28  C   UNL A   1      38.356  32.707  32.953  1.00  0.00     0.074 A 
ATOM     29  C   UNL A   1      42.968  30.748  36.970  1.00  0.00     0.029 A 
ATOM     30  N   UNL A   1      41.634  30.985  35.202  1.00  0.00    -0.354 N 
ATOM     31  N   UNL A   1      39.347  32.238  33.680  1.00  0.00    -0.248 NA
ATOM     32  C   UNL A   1      37.544  33.724  33.626  1.00  0.00     0.031 C 
ATOM     33  C   UNL A   1      41.990  31.701  37.268  1.00  0.00     0.029 A 
ATOM     34  C   UNL A   1      41.176  31.874  36.156  1.00  0.00     0.049 A 
ATOM     35  H   UNL A   1      41.242  30.866  34.307  1.00  0.00     0.167 HD
ATOM     36  C   UNL A   1      39.289  32.917  34.889  1.00  0.00     0.074 A 
ATOM     37  C   UNL A   1      38.178  33.845  34.784  1.00  0.00     0.031 C 
ATOM     38  C   UNL A   1      40.071  32.787  35.990  1.00  0.00     0.037 A 
BRANCH  25  39
ATOM     39  C   UNL A   1      44.642  28.606  35.550  1.00  0.00     0.058 A 
ATOM     40  C   UNL A   1      45.943  29.083  35.326  1.00  0.00     0.135 A 
ATOM     41  C   UNL A   1      44.494  27.446  36.328  1.00  0.00     0.135 A 
ATOM     42  F   UNL A   1      46.146  30.162  34.555  1.00  0.00    -0.206 F 
ATOM     43  C   UNL A   1      47.057  28.422  35.838  1.00  0.00     0.059 A 
ATOM     44  C   UNL A   1      45.591  26.785  36.871  1.00  0.00     0.059 A 
ATOM     45  F   UNL A   1      43.274  26.935  36.553  1.00  0.00    -0.206 F 
ATOM     46  C   UNL A   1      46.870  27.273  36.610  1.00  0.00     0.060 A 
BRANCH  46  47
ATOM     47  S   UNL A   1      48.325  26.428  37.264  1.00  0.00     0.124 S 
ATOM     48  O   UNL A   1      48.278  25.162  36.538  1.00  0.00    -0.237 OA
ATOM     49  O   UNL A   1      49.405  27.333  36.887  1.00  0.00    -0.237 OA
ATOM     50  O   UNL A   1      48.053  26.340  38.695  1.00  0.00    -0.744 OA
ENDBRANCH  46  47
ENDBRANCH  25  39
BRANCH  26  51
ATOM     51  C   UNL A   1      36.802  32.971  30.863  1.00  0.00     0.058 A 
ATOM     52  C   UNL A   1      36.974  33.903  29.830  1.00  0.00     0.135 A 
ATOM     53  C   UNL A   1      35.482  32.677  31.254  1.00  0.00     0.135 A 
ATOM     54  F   UNL A   1      38.209  34.224  29.416  1.00  0.00    -0.206 F 
ATOM     55  C   UNL A   1      35.890  34.546  29.235  1.00  0.00     0.059 A 
ATOM     56  C   UNL A   1      34.383  33.279  30.652  1.00  0.00     0.059 A 
ATOM     57  F   UNL A   1      35.251  31.785  32.230  1.00  0.00    -0.206 F 
ATOM     58  C   UNL A   1      34.597  34.230  29.658  1.00  0.00     0.060 A 
BRANCH  58  59
ATOM     59  S   UNL A   1      33.198  35.074  28.890  1.00  0.00     0.124 S 
ATOM     60  O   UNL A   1      32.330  35.305  30.038  1.00  0.00    -0.237 OA
ATOM     61  O   UNL A   1      33.829  36.258  28.318  1.00  0.00    -0.237 OA
ATOM     62  O   UNL A   1      32.710  34.100  27.917  1.00  0.00    -0.744 OA
ENDBRANCH  58  59
ENDBRANCH  26  51
BRANCH  38  63
ATOM     63  C   UNL A   1      39.774  33.706  37.138  1.00  0.00     0.058 A 
ATOM     64  C   UNL A   1      38.967  33.307  38.213  1.00  0.00     0.135 A 
ATOM     65  C   UNL A   1      40.354  34.984  37.182  1.00  0.00     0.135 A 
ATOM     66  F   UNL A   1      38.386  32.096  38.210  1.00  0.00    -0.206 F 
ATOM     67  C   UNL A   1      38.722  34.155  39.285  1.00  0.00     0.059 A 
ATOM     68  C   UNL A   1      40.150  35.836  38.260  1.00  0.00     0.059 A 
ATOM     69  F   UNL A   1      41.144  35.405  36.182  1.00  0.00    -0.206 F 
ATOM     70  C   UNL A   1      39.322  35.416  39.301  1.00  0.00     0.060 A 
BRANCH  70  71
ATOM     71  S   UNL A   1      39.026  36.493  40.716  1.00  0.00     0.124 S 
ATOM     72  O   UNL A   1      40.324  36.464  41.382  1.00  0.00    -0.237 OA
ATOM     73  O   UNL A   1      38.671  37.756  40.076  1.00  0.00    -0.237 OA
ATOM     74  O   UNL A   1      37.938  35.830  41.427  1.00  0.00    -0.744 OA
ENDBRANCH  70  71
ENDBRANCH  38  63
ENDBRANCH  12  13
ENDBRANCH   5   7
ENDBRANCH   4   5
ENDBRANCH   3   4
ENDBRANCH   2   3
ENDBRANCH   1   2
BRANCH   1  75
ATOM     75  C   UNL A   1      41.393  20.079  27.413  1.00  0.00     0.202 C 
BRANCH  75  76
ATOM     76  C   UNL A   1      40.472  19.915  26.203  1.00  0.00     0.261 C 
BRANCH  76  77
ATOM     77  O   UNL A   1      39.354  20.790  26.390  1.00  0.00    -0.461 OA
BRANCH  77  78
ATOM     78  C   UNL A   1      38.398  20.685  25.426  1.00  0.00     0.335 C 
ATOM     79  O   UNL A   1      38.074  19.654  24.847  1.00  0.00    -0.249 OA
BRANCH  78  80
ATOM     80  C   UNL A   1      37.753  22.042  25.177  1.00  0.00     0.228 C 
ATOM     81  C   UNL A   1      38.331  23.111  26.072  1.00  0.00     0.047 C 
ATOM     82  O   UNL A   1      36.337  22.043  25.418  1.00  0.00    -0.361 OA
ATOM     83  C   UNL A   1      37.191  24.098  26.166  1.00  0.00     0.037 C 
ATOM     84  C   UNL A   1      35.960  23.206  26.164  1.00  0.00     0.138 C 
BRANCH  84  85
ATOM     85  C   UNL A   1      34.741  23.841  25.476  1.00  0.00     0.148 C 
BRANCH  85  86
ATOM     86  N   UNL A   1      33.509  23.762  26.255  1.00  0.00    -0.349 N 
ATOM     87  C   UNL A   1      32.441  22.908  26.145  1.00  0.00     0.252 C 
ATOM     88  H   UNL A   1      33.431  24.429  26.975  1.00  0.00     0.163 HD
ATOM     89  O   UNL A   1      31.505  22.973  26.936  1.00  0.00    -0.269 OA
BRANCH  87  90
ATOM     90  C   UNL A   1      32.418  21.889  25.078  1.00  0.00     0.059 A 
ATOM     91  C   UNL A   1      32.788  20.573  25.389  1.00  0.00     0.036 A 
ATOM     92  C   UNL A   1      31.988  22.207  23.784  1.00  0.00     0.053 A 
ATOM     93  C   UNL A   1      32.815  19.607  24.388  1.00  0.00     0.041 A 
ATOM     94  C   UNL A   1      31.984  21.218  22.794  1.00  0.00     0.023 A 
ATOM     95  Cl  UNL A   1      31.492  23.794  23.320  1.00  0.00    -0.083 Cl
ATOM     96  Cl  UNL A   1      33.367  18.020  24.749  1.00  0.00    -0.084 Cl
ATOM     97  C   UNL A   1      32.416  19.923  23.091  1.00  0.00     0.022 A 
ENDBRANCH  87  90
ENDBRANCH  85  86
ENDBRANCH  84  85
ENDBRANCH  78  80
ENDBRANCH  77  78
ENDBRANCH  76  77
ENDBRANCH  75  76
ENDBRANCH   1  75
TORSDOF 20
ENDMDL
MODEL 2
REMARK VINA RESULT:     -10.4      6.547     11.929
REMARK SMILES O=C(OCCOCCOC(=O)[C@@H]1CC[C@@H](CNC(=O)c2cc(Cl)ccc2Cl)O1)c1ccc(-c2c3nc(c(-c4c(F)cc(S(=O)(=O)[O-])cc4F)c4ccc([nH]4)c(-c4c(F)cc(S(=O)(=O)[O-])cc4F)c4nc(c(-c5c(F)cc(S(=O)(=O)[O-])cc5F)c5ccc2[nH]5)C=C4)C=C3)cc1
REMARK SMILES IDX 6 1 5 2 4 3 3 4 2 5 1 6 29 7 30 8 94 9 31 10 93 11 32 12
REMARK SMILES IDX 33 13 34 14 87 15 35 16 92 17 86 18 88 19 36 20 91 21 85 22
REMARK SMILES IDX 84 23 37 25 71 26 50 27 70 28 51 29 54 30 69 31 89 32 52 33
REMARK SMILES IDX 53 34 68 36 90 37 55 38 38 39 39 40 48 41 40 42 41 43 47 44
REMARK SMILES IDX 49 45 42 46 43 47 44 48 45 49 46 50 72 51 73 52 82 53 74 54
REMARK SMILES IDX 75 55 81 56 83 57 76 58 77 59 78 60 79 61 80 62 56 63 57 64
REMARK SMILES IDX 66 65 58 66 59 67 65 68 67 69 60 70 61 71 62 72 63 73 64 74
REMARK SMILES IDX 7 75 8 76 9 77 10 78 11 79 12 80 13 81 28 82 14 83 15 84
REMARK SMILES IDX 16 85 17 86 18 87 19 89 20 90 21 91 26 92 22 93 25 94 27 95
REMARK SMILES IDX 23 96 24 97
REMARK H PARENT 88 24 54 35 17 88
REMARK Flexibility Score: inf
ROOT
ATOM      1  O   UNL A   1      34.406  31.243  28.373  1.00  0.00    -0.374 OA
ENDROOT
BRANCH   1   2
ATOM      2  C   UNL A   1      34.636  32.419  29.155  1.00  0.00     0.202 C 
BRANCH   2   3
ATOM      3  C   UNL A   1      35.109  32.239  30.606  1.00  0.00     0.261 C 
BRANCH   3   4
ATOM      4  O   UNL A   1      36.491  31.848  30.662  1.00  0.00    -0.460 OA
BRANCH   4   5
ATOM      5  C   UNL A   1      36.992  30.588  30.667  1.00  0.00     0.338 C 
ATOM      6  O   UNL A   1      36.278  29.665  31.052  1.00  0.00    -0.246 OA
BRANCH   5   7
ATOM      7  C   UNL A   1      38.385  30.274  30.235  1.00  0.00     0.060 A 
ATOM      8  C   UNL A   1      38.790  30.199  28.904  1.00  0.00     0.016 A 
ATOM      9  C   UNL A   1      39.364  30.122  31.229  1.00  0.00     0.016 A 
ATOM     10  C   UNL A   1      40.085  29.905  28.548  1.00  0.00     0.010 A 
ATOM     11  C   UNL A   1      40.697  29.878  30.881  1.00  0.00     0.010 A 
ATOM     12  C   UNL A   1      41.048  29.757  29.533  1.00  0.00    -0.014 A 
BRANCH  12  13
ATOM     13  C   UNL A   1      42.376  29.352  29.065  1.00  0.00     0.031 A 
ATOM     14  C   UNL A   1      42.539  27.954  28.565  1.00  0.00     0.074 A 
ATOM     15  C   UNL A   1      43.315  30.300  28.889  1.00  0.00     0.049 A 
ATOM     16  N   UNL A   1      43.602  27.368  28.093  1.00  0.00    -0.248 NA
ATOM     17  C   UNL A   1      41.333  27.105  28.574  1.00  0.00     0.031 C 
ATOM     18  C   UNL A   1      43.141  31.726  29.197  1.00  0.00     0.029 A 
ATOM     19  N   UNL A   1      44.573  30.228  28.365  1.00  0.00    -0.354 N 
ATOM     20  C   UNL A   1      43.202  26.079  27.770  1.00  0.00     0.074 A 
ATOM     21  C   UNL A   1      41.802  25.959  28.108  1.00  0.00     0.031 C 
ATOM     22  C   UNL A   1      44.250  32.392  28.840  1.00  0.00     0.029 A 
ATOM     23  C   UNL A   1      45.234  31.434  28.357  1.00  0.00     0.049 A 
ATOM     24  H   UNL A   1      44.970  29.393  28.026  1.00  0.00     0.167 HD
ATOM     25  C   UNL A   1      43.954  25.092  27.238  1.00  0.00     0.037 A 
ATOM     26  C   UNL A   1      46.512  31.707  28.038  1.00  0.00     0.037 A 
ATOM     27  C   UNL A   1      45.346  25.263  26.925  1.00  0.00     0.049 A 
ATOM     28  C   UNL A   1      47.365  30.555  27.581  1.00  0.00     0.074 A 
ATOM     29  C   UNL A   1      46.257  24.325  26.482  1.00  0.00     0.029 A 
ATOM     30  N   UNL A   1      46.025  26.473  27.025  1.00  0.00    -0.354 N 
ATOM     31  N   UNL A   1      47.015  29.304  27.375  1.00  0.00    -0.248 NA
ATOM     32  C   UNL A   1      48.780  30.836  27.325  1.00  0.00     0.031 C 
ATOM     33  C   UNL A   1      47.498  24.959  26.358  1.00  0.00     0.029 A 
ATOM     34  C   UNL A   1      47.348  26.305  26.665  1.00  0.00     0.049 A 
ATOM     35  H   UNL A   1      45.622  27.324  27.311  1.00  0.00     0.167 HD
ATOM     36  C   UNL A   1      48.163  28.652  26.946  1.00  0.00     0.074 A 
ATOM     37  C   UNL A   1      49.211  29.656  26.901  1.00  0.00     0.031 C 
ATOM     38  C   UNL A   1      48.346  27.347  26.624  1.00  0.00     0.037 A 
BRANCH  25  39
ATOM     39  C   UNL A   1      43.297  23.755  27.045  1.00  0.00     0.058 A 
ATOM     40  C   UNL A   1      43.104  22.859  28.109  1.00  0.00     0.135 A 
ATOM     41  C   UNL A   1      42.890  23.348  25.765  1.00  0.00     0.135 A 
ATOM     42  F   UNL A   1      43.514  23.179  29.346  1.00  0.00    -0.206 F 
ATOM     43  C   UNL A   1      42.548  21.599  27.907  1.00  0.00     0.059 A 
ATOM     44  C   UNL A   1      42.307  22.104  25.544  1.00  0.00     0.059 A 
ATOM     45  F   UNL A   1      43.072  24.156  24.709  1.00  0.00    -0.206 F 
ATOM     46  C   UNL A   1      42.152  21.231  26.619  1.00  0.00     0.060 A 
BRANCH  46  47
ATOM     47  S   UNL A   1      41.433  19.593  26.373  1.00  0.00     0.124 S 
ATOM     48  O   UNL A   1      41.660  18.976  27.676  1.00  0.00    -0.237 OA
ATOM     49  O   UNL A   1      40.044  19.909  26.055  1.00  0.00    -0.237 OA
ATOM     50  O   UNL A   1      42.215  19.040  25.272  1.00  0.00    -0.744 OA
ENDBRANCH  46  47
ENDBRANCH  25  39
BRANCH  26  51
ATOM     51  C   UNL A   1      47.068  33.076  28.221  1.00  0.00     0.058 A 
ATOM     52  C   UNL A   1      47.096  34.009  27.174  1.00  0.00     0.135 A 
ATOM     53  C   UNL A   1      47.618  33.473  29.454  1.00  0.00     0.135 A 
ATOM     54  F   UNL A   1      46.588  33.685  25.974  1.00  0.00    -0.206 F 
ATOM     55  C   UNL A   1      47.678  35.266  27.328  1.00  0.00     0.059 A 
ATOM     56  C   UNL A   1      48.172  34.735  29.642  1.00  0.00     0.059 A 
ATOM     57  F   UNL A   1      47.611  32.630  30.498  1.00  0.00    -0.206 F 
ATOM     58  C   UNL A   1      48.218  35.617  28.566  1.00  0.00     0.060 A 
BRANCH  58  59
ATOM     59  S   UNL A   1      48.980  37.243  28.756  1.00  0.00     0.124 S 
ATOM     60  O   UNL A   1      50.181  36.917  29.515  1.00  0.00    -0.237 OA
ATOM     61  O   UNL A   1      49.191  37.648  27.370  1.00  0.00    -0.237 OA
ATOM     62  O   UNL A   1      47.966  38.007  29.477  1.00  0.00    -0.744 OA
ENDBRANCH  58  59
ENDBRANCH  26  51
BRANCH  38  63
ATOM     63  C   UNL A   1      49.715  26.956  26.152  1.00  0.00     0.058 A 
ATOM     64  C   UNL A   1      50.098  27.088  24.810  1.00  0.00     0.135 A 
ATOM     65  C   UNL A   1      50.670  26.494  27.073  1.00  0.00     0.135 A 
ATOM     66  F   UNL A   1      49.216  27.518  23.893  1.00  0.00    -0.206 F 
ATOM     67  C   UNL A   1      51.378  26.750  24.389  1.00  0.00     0.059 A 
ATOM     68  C   UNL A   1      51.965  26.184  26.680  1.00  0.00     0.059 A 
ATOM     69  F   UNL A   1      50.352  26.364  28.371  1.00  0.00    -0.206 F 
ATOM     70  C   UNL A   1      52.305  26.303  25.333  1.00  0.00     0.060 A 
BRANCH  70  71
ATOM     71  S   UNL A   1      53.974  25.904  24.780  1.00  0.00     0.124 S 
ATOM     72  O   UNL A   1      54.775  26.827  25.576  1.00  0.00    -0.237 OA
ATOM     73  O   UNL A   1      54.091  24.493  25.137  1.00  0.00    -0.237 OA
ATOM     74  O   UNL A   1      53.933  26.181  23.347  1.00  0.00    -0.744 OA
ENDBRANCH  70  71
ENDBRANCH  38  63
ENDBRANCH  12  13
ENDBRANCH   5   7
ENDBRANCH   4   5
ENDBRANCH   3   4
ENDBRANCH   2   3
ENDBRANCH   1   2
BRANCH   1  75
ATOM     75  C   UNL A   1      33.408  31.341  27.348  1.00  0.00     0.202 C 
BRANCH  75  76
ATOM     76  C   UNL A   1      32.690  30.000  27.183  1.00  0.00     0.261 C 
BRANCH  76  77
ATOM     77  O   UNL A   1      32.823  29.606  25.812  1.00  0.00    -0.461 OA
BRANCH  77  78
ATOM     78  C   UNL A   1      33.192  28.307  25.641  1.00  0.00     0.335 C 
ATOM     79  O   UNL A   1      34.014  27.700  26.320  1.00  0.00    -0.249 OA
BRANCH  78  80
ATOM     80  C   UNL A   1      32.416  27.688  24.487  1.00  0.00     0.228 C 
ATOM     81  C   UNL A   1      31.107  28.400  24.244  1.00  0.00     0.047 C 
ATOM     82  O   UNL A   1      32.084  26.309  24.710  1.00  0.00    -0.361 OA
ATOM     83  C   UNL A   1      30.265  27.315  23.616  1.00  0.00     0.037 C 
ATOM     84  C   UNL A   1      30.721  26.059  24.343  1.00  0.00     0.138 C 
BRANCH  84  85
ATOM     85  C   UNL A   1      30.685  24.796  23.470  1.00  0.00     0.148 C 
BRANCH  85  86
ATOM     86  N   UNL A   1      31.817  24.670  22.556  1.00  0.00    -0.349 N 
ATOM     87  C   UNL A   1      32.844  23.760  22.533  1.00  0.00     0.252 C 
ATOM     88  H   UNL A   1      31.849  25.346  21.841  1.00  0.00     0.163 HD
ATOM     89  O   UNL A   1      33.687  23.793  21.643  1.00  0.00    -0.269 OA
BRANCH  87  90
ATOM     90  C   UNL A   1      32.931  22.720  23.576  1.00  0.00     0.059 A 
ATOM     91  C   UNL A   1      33.440  23.064  24.836  1.00  0.00     0.036 A 
ATOM     92  C   UNL A   1      32.469  21.419  23.339  1.00  0.00     0.053 A 
ATOM     93  C   UNL A   1      33.570  22.087  25.819  1.00  0.00     0.041 A 
ATOM     94  C   UNL A   1      32.571  20.455  24.348  1.00  0.00     0.023 A 
ATOM     95  Cl  UNL A   1      31.805  20.917  21.827  1.00  0.00    -0.083 Cl
ATOM     96  Cl  UNL A   1      34.290  22.487  27.328  1.00  0.00    -0.084 Cl
ATOM     97  C   UNL A   1      33.139  20.784  25.581  1.00  0.00     0.022 A 
ENDBRANCH  87  90
ENDBRANCH  85  86
ENDBRANCH  84  85
ENDBRANCH  78  80
ENDBRANCH  77  78
ENDBRANCH  76  77
ENDBRANCH  75  76
ENDBRANCH   1  75
TORSDOF 20
ENDMDL
MODEL 3
REMARK VINA RESULT:     -10.4      3.590      6.091
REMARK SMILES O=C(OCCOCCOC(=O)[C@@H]1CC[C@@H](CNC(=O)c2cc(Cl)ccc2Cl)O1)c1ccc(-c2c3nc(c(-c4c(F)cc(S(=O)(=O)[O-])cc4F)c4ccc([nH]4)c(-c4c(F)cc(S(=O)(=O)[O-])cc4F)c4nc(c(-c5c(F)cc(S(=O)(=O)[O-])cc5F)c5ccc2[nH]5)C=C4)C=C3)cc1
REMARK SMILES IDX 6 1 5 2 4 3 3 4 2 5 1 6 29 7 30 8 94 9 31 10 93 11 32 12
REMARK SMILES IDX 33 13 34 14 87 15 35 16 92 17 86 18 88 19 36 20 91 21 85 22
REMARK SMILES IDX 84 23 37 25 71 26 50 27 70 28 51 29 54 30 69 31 89 32 52 33
REMARK SMILES IDX 53 34 68 36 90 37 55 38 38 39 39 40 48 41 40 42 41 43 47 44
REMARK SMILES IDX 49 45 42 46 43 47 44 48 45 49 46 50 72 51 73 52 82 53 74 54
REMARK SMILES IDX 75 55 81 56 83 57 76 58 77 59 78 60 79 61 80 62 56 63 57 64
REMARK SMILES IDX 66 65 58 66 59 67 65 68 67 69 60 70 61 71 62 72 63 73 64 74
REMARK SMILES IDX 7 75 8 76 9 77 10 78 11 79 12 80 13 81 28 82 14 83 15 84
REMARK SMILES IDX 16 85 17 86 18 87 19 89 20 90 21 91 26 92 22 93 25 94 27 95
REMARK SMILES IDX 23 96 24 97
REMARK H PARENT 88 24 54 35 17 88
REMARK Flexibility Score: inf
ROOT
ATOM      1  O   UNL A   1      42.137  20.316  26.634  1.00  0.00    -0.374 OA
ENDROOT
BRANCH   1   2
ATOM      2  C   UNL A   1      41.019  21.100  26.208  1.00  0.00     0.202 C 
BRANCH   2   3
ATOM      3  C   UNL A   1      40.496  22.186  27.160  1.00  0.00     0.261 C 
BRANCH   3   4
ATOM      4  O   UNL A   1      40.330  23.443  26.482  1.00  0.00    -0.460 OA
BRANCH   4   5
ATOM      5  C   UNL A   1      41.112  24.546  26.587  1.00  0.00     0.338 C 
ATOM      6  O   UNL A   1      42.029  24.704  25.784  1.00  0.00    -0.246 OA
BRANCH   5   7
ATOM      7  C   UNL A   1      40.915  25.574  27.649  1.00  0.00     0.060 A 
ATOM      8  C   UNL A   1      41.755  26.670  27.839  1.00  0.00     0.016 A 
ATOM      9  C   UNL A   1      39.771  25.476  28.457  1.00  0.00     0.016 A 
ATOM     10  C   UNL A   1      41.539  27.595  28.832  1.00  0.00     0.010 A 
ATOM     11  C   UNL A   1      39.508  26.441  29.435  1.00  0.00     0.010 A 
ATOM     12  C   UNL A   1      40.408  27.495  29.625  1.00  0.00    -0.014 A 
BRANCH  12  13
ATOM     13  C   UNL A   1      40.311  28.467  30.717  1.00  0.00     0.031 A 
ATOM     14  C   UNL A   1      41.342  28.406  31.796  1.00  0.00     0.074 A 
ATOM     15  C   UNL A   1      39.459  29.501  30.585  1.00  0.00     0.049 A 
ATOM     16  N   UNL A   1      41.474  29.157  32.851  1.00  0.00    -0.248 NA
ATOM     17  C   UNL A   1      42.382  27.370  31.656  1.00  0.00     0.031 C 
ATOM     18  C   UNL A   1      38.549  29.704  29.450  1.00  0.00     0.029 A 
ATOM     19  N   UNL A   1      39.250  30.596  31.374  1.00  0.00    -0.354 N 
ATOM     20  C   UNL A   1      42.596  28.675  33.511  1.00  0.00     0.074 A 
ATOM     21  C   UNL A   1      43.104  27.558  32.749  1.00  0.00     0.031 C 
ATOM     22  C   UNL A   1      37.893  30.864  29.613  1.00  0.00     0.029 A 
ATOM     23  C   UNL A   1      38.276  31.439  30.895  1.00  0.00     0.049 A 
ATOM     24  H   UNL A   1      39.749  30.766  32.206  1.00  0.00     0.167 HD
ATOM     25  C   UNL A   1      43.139  29.137  34.658  1.00  0.00     0.037 A 
ATOM     26  C   UNL A   1      37.729  32.526  31.466  1.00  0.00     0.037 A 
ATOM     27  C   UNL A   1      42.589  30.250  35.381  1.00  0.00     0.049 A 
ATOM     28  C   UNL A   1      38.263  32.934  32.813  1.00  0.00     0.074 A 
ATOM     29  C   UNL A   1      42.967  30.761  36.606  1.00  0.00     0.029 A 
ATOM     30  N   UNL A   1      41.529  31.028  34.927  1.00  0.00    -0.354 N 
ATOM     31  N   UNL A   1      39.258  32.412  33.495  1.00  0.00    -0.248 NA
ATOM     32  C   UNL A   1      37.602  34.061  33.477  1.00  0.00     0.031 C 
ATOM     33  C   UNL A   1      42.107  31.820  36.913  1.00  0.00     0.029 A 
ATOM     34  C   UNL A   1      41.230  32.009  35.853  1.00  0.00     0.049 A 
ATOM     35  H   UNL A   1      41.060  30.900  34.071  1.00  0.00     0.167 HD
ATOM     36  C   UNL A   1      39.357  33.159  34.660  1.00  0.00     0.074 A 
ATOM     37  C   UNL A   1      38.332  34.184  34.576  1.00  0.00     0.031 C 
ATOM     38  C   UNL A   1      40.206  33.015  35.709  1.00  0.00     0.037 A 
BRANCH  25  39
ATOM     39  C   UNL A   1      44.321  28.391  35.208  1.00  0.00     0.058 A 
ATOM     40  C   UNL A   1      44.173  27.251  36.014  1.00  0.00     0.135 A 
ATOM     41  C   UNL A   1      45.623  28.850  34.956  1.00  0.00     0.135 A 
ATOM     42  F   UNL A   1      42.949  26.794  36.323  1.00  0.00    -0.206 F 
ATOM     43  C   UNL A   1      45.274  26.603  36.566  1.00  0.00     0.059 A 
ATOM     44  C   UNL A   1      46.740  28.203  35.475  1.00  0.00     0.059 A 
ATOM     45  F   UNL A   1      45.820  29.949  34.211  1.00  0.00    -0.206 F 
ATOM     46  C   UNL A   1      46.555  27.087  36.290  1.00  0.00     0.060 A 
BRANCH  46  47
ATOM     47  S   UNL A   1      47.973  26.237  37.015  1.00  0.00     0.124 S 
ATOM     48  O   UNL A   1      48.335  25.310  35.947  1.00  0.00    -0.237 OA
ATOM     49  O   UNL A   1      48.908  27.334  37.243  1.00  0.00    -0.237 OA
ATOM     50  O   UNL A   1      47.424  25.624  38.219  1.00  0.00    -0.744 OA
ENDBRANCH  46  47
ENDBRANCH  25  39
BRANCH  26  51
ATOM     51  C   UNL A   1      36.584  33.232  30.825  1.00  0.00     0.058 A 
ATOM     52  C   UNL A   1      36.762  34.078  29.722  1.00  0.00     0.135 A 
ATOM     53  C   UNL A   1      35.278  33.096  31.331  1.00  0.00     0.135 A 
ATOM     54  F   UNL A   1      37.986  34.248  29.197  1.00  0.00    -0.206 F 
ATOM     55  C   UNL A   1      35.700  34.789  29.165  1.00  0.00     0.059 A 
ATOM     56  C   UNL A   1      34.197  33.768  30.772  1.00  0.00     0.059 A 
ATOM     57  F   UNL A   1      35.041  32.292  32.379  1.00  0.00    -0.206 F 
ATOM     58  C   UNL A   1      34.421  34.631  29.702  1.00  0.00     0.060 A 
BRANCH  58  59
ATOM     59  S   UNL A   1      33.052  35.563  28.984  1.00  0.00     0.124 S 
ATOM     60  O   UNL A   1      32.341  36.005  30.178  1.00  0.00    -0.237 OA
ATOM     61  O   UNL A   1      33.748  36.603  28.234  1.00  0.00    -0.237 OA
ATOM     62  O   UNL A   1      32.359  34.570  28.169  1.00  0.00    -0.744 OA
ENDBRANCH  58  59
ENDBRANCH  26  51
BRANCH  38  63
ATOM     63  C   UNL A   1      40.084  34.021  36.816  1.00  0.00     0.058 A 
ATOM     64  C   UNL A   1      39.271  33.791  37.935  1.00  0.00     0.135 A 
ATOM     65  C   UNL A   1      40.836  35.206  36.774  1.00  0.00     0.135 A 
ATOM     66  F   UNL A   1      38.528  32.675  38.014  1.00  0.00    -0.206 F 
ATOM     67  C   UNL A   1      39.188  34.716  38.968  1.00  0.00     0.059 A 
ATOM     68  C   UNL A   1      40.795  36.128  37.811  1.00  0.00     0.059 A 
ATOM     69  F   UNL A   1      41.638  35.462  35.728  1.00  0.00    -0.206 F 
ATOM     70  C   UNL A   1      39.957  35.879  38.898  1.00  0.00     0.060 A 
BRANCH  70  71
ATOM     71  S   UNL A   1      39.870  37.054  40.263  1.00  0.00     0.124 S 
ATOM     72  O   UNL A   1      40.137  38.316  39.581  1.00  0.00    -0.237 OA
ATOM     73  O   UNL A   1      38.503  36.870  40.744  1.00  0.00    -0.237 OA
ATOM     74  O   UNL A   1      40.915  36.596  41.173  1.00  0.00    -0.744 OA
ENDBRANCH  70  71
ENDBRANCH  38  63
ENDBRANCH  12  13
ENDBRANCH   5   7
ENDBRANCH   4   5
ENDBRANCH   3   4
ENDBRANCH   2   3
ENDBRANCH   1   2
BRANCH   1  75
ATOM     75  C   UNL A   1      43.272  20.291  25.759  1.00  0.00     0.202 C 
BRANCH  75  76
ATOM     76  C   UNL A   1      43.593  21.705  25.272  1.00  0.00     0.261 C 
BRANCH  76  77
ATOM     77  O   UNL A   1      44.425  22.323  26.261  1.00  0.00    -0.461 OA
BRANCH  77  78
ATOM     78  C   UNL A   1      45.705  22.543  25.853  1.00  0.00     0.335 C 
ATOM     79  O   UNL A   1      46.415  21.741  25.256  1.00  0.00    -0.249 OA
BRANCH  78  80
ATOM     80  C   UNL A   1      46.138  23.956  26.220  1.00  0.00     0.228 C 
ATOM     81  C   UNL A   1      46.994  24.579  25.145  1.00  0.00     0.047 C 
ATOM     82  O   UNL A   1      46.915  24.008  27.428  1.00  0.00    -0.361 OA
ATOM     83  C   UNL A   1      47.816  25.574  25.929  1.00  0.00     0.037 C 
ATOM     84  C   UNL A   1      48.050  24.864  27.252  1.00  0.00     0.138 C 
BRANCH  84  85
ATOM     85  C   UNL A   1      48.123  25.814  28.457  1.00  0.00     0.148 C 
BRANCH  85  86
ATOM     86  N   UNL A   1      47.162  26.913  28.409  1.00  0.00    -0.349 N 
ATOM     87  C   UNL A   1      45.960  27.070  29.050  1.00  0.00     0.252 C 
ATOM     88  H   UNL A   1      47.418  27.660  27.821  1.00  0.00     0.163 HD
ATOM     89  O   UNL A   1      45.310  28.101  28.914  1.00  0.00    -0.269 OA
BRANCH  87  90
ATOM     90  C   UNL A   1      45.446  26.000  29.927  1.00  0.00     0.059 A 
ATOM     91  C   UNL A   1      44.571  25.045  29.391  1.00  0.00     0.036 A 
ATOM     92  C   UNL A   1      45.857  25.900  31.262  1.00  0.00     0.053 A 
ATOM     93  C   UNL A   1      44.041  24.054  30.212  1.00  0.00     0.041 A 
ATOM     94  C   UNL A   1      45.346  24.877  32.068  1.00  0.00     0.023 A 
ATOM     95  Cl  UNL A   1      46.950  27.017  31.997  1.00  0.00    -0.083 Cl
ATOM     96  Cl  UNL A   1      42.890  22.947  29.577  1.00  0.00    -0.084 Cl
ATOM     97  C   UNL A   1      44.424  23.966  31.548  1.00  0.00     0.022 A 
ENDBRANCH  87  90
ENDBRANCH  85  86
ENDBRANCH  84  85
ENDBRANCH  78  80
ENDBRANCH  77  78
ENDBRANCH  76  77
ENDBRANCH  75  76
ENDBRANCH   1  75
TORSDOF 20
ENDMDL
