MODEL 1
REMARK VINA RESULT:     -10.4      0.000      0.000
REMARK SMILES C[C@H]1[C@H](C(=O)OCCOCCOC(=O)c2ccc(-c3c4nc(c(-c5c(F)cc(S(=O)(=O)[O-])cc5F)c5ccc([nH]5)c(-c5c(F)cc(S(=O)(=O)[O-])cc5F)c5nc(c(-c6c(F)cc(S(=O)(=O)[O-])cc6F)c6ccc3[nH]6)C=C5)C=C4)cc2)CCN1C(=O)[C@H]1CC=CCC1
REMARK SMILES IDX 10 1 9 2 8 3 7 4 6 5 4 6 5 7 3 8 1 9 2 10 83 11 81 12 82 13
REMARK SMILES IDX 84 14 85 15 86 16 87 17 91 18 88 19 90 20 89 21 11 22 12 23
REMARK SMILES IDX 13 24 14 25 15 26 16 27 80 28 17 29 79 30 18 31 19 32 20 33
REMARK SMILES IDX 73 34 21 35 78 36 72 37 74 38 22 39 77 40 71 41 70 42 23 44
REMARK SMILES IDX 57 45 36 46 56 47 37 48 40 49 55 50 75 51 38 52 39 53 54 55
REMARK SMILES IDX 76 56 41 57 24 58 25 59 34 60 26 61 27 62 33 63 35 64 28 65
REMARK SMILES IDX 29 66 30 67 31 68 32 69 58 70 59 71 68 72 60 73 61 74 67 75
REMARK SMILES IDX 69 76 62 77 63 78 64 79 65 80 66 81 42 82 43 83 52 84 44 85
REMARK SMILES IDX 45 86 51 87 53 88 46 89 47 90 48 91 49 92 50 93
REMARK H PARENT 74 43 40 54
REMARK Flexibility Score: inf
ROOT
ATOM      1  C   UNL A   1      31.966  30.429  25.891  1.00  0.00     0.202 C 
ENDROOT
BRANCH   1   2
ATOM      2  O   UNL A   1      32.874  29.654  25.108  1.00  0.00    -0.374 OA
BRANCH   2   3
ATOM      3  C   UNL A   1      32.317  28.933  24.012  1.00  0.00     0.202 C 
BRANCH   3   4
ATOM      4  C   UNL A   1      30.805  28.708  24.080  1.00  0.00     0.261 C 
BRANCH   4   5
ATOM      5  O   UNL A   1      30.384  27.517  23.385  1.00  0.00    -0.463 OA
BRANCH   5   6
ATOM      6  C   UNL A   1      30.523  26.356  24.077  1.00  0.00     0.311 C 
ATOM      7  O   UNL A   1      30.183  26.184  25.241  1.00  0.00    -0.252 OA
BRANCH   6   8
ATOM      8  C   UNL A   1      31.230  25.282  23.289  1.00  0.00     0.123 C 
ATOM      9  C   UNL A   1      33.120  25.973  21.835  1.00  0.00     0.032 C 
ATOM     10  C   UNL A   1      32.775  25.366  23.199  1.00  0.00     0.096 C 
ATOM     11  N   UNL A   1      33.229  23.967  23.323  1.00  0.00    -0.339 N 
ATOM     12  C   UNL A   1      30.942  23.901  23.857  1.00  0.00     0.039 C 
ATOM     13  C   UNL A   1      32.078  23.073  23.298  1.00  0.00     0.121 C 
BRANCH  11  14
ATOM     14  C   UNL A   1      34.470  23.389  23.473  1.00  0.00     0.226 C 
ATOM     15  O   UNL A   1      35.227  23.341  22.489  1.00  0.00    -0.275 OA
BRANCH  14  16
ATOM     16  C   UNL A   1      35.003  22.770  24.772  1.00  0.00     0.083 C 
ATOM     17  C   UNL A   1      35.753  21.446  24.617  1.00  0.00     0.040 C 
ATOM     18  C   UNL A   1      35.567  23.746  25.804  1.00  0.00     0.018 C 
ATOM     19  C   UNL A   1      37.204  21.479  24.987  1.00  0.00    -0.030 C 
ATOM     20  C   UNL A   1      37.084  23.779  25.949  1.00  0.00     0.028 C 
ATOM     21  C   UNL A   1      37.800  22.528  25.563  1.00  0.00    -0.031 C 
ENDBRANCH  14  16
ENDBRANCH  11  14
ENDBRANCH   6   8
ENDBRANCH   5   6
ENDBRANCH   4   5
ENDBRANCH   3   4
ENDBRANCH   2   3
ENDBRANCH   1   2
BRANCH   1  22
ATOM     22  C   UNL A   1      32.580  31.093  27.128  1.00  0.00     0.261 C 
BRANCH  22  23
ATOM     23  O   UNL A   1      33.604  30.266  27.712  1.00  0.00    -0.460 OA
BRANCH  23  24
ATOM     24  C   UNL A   1      34.561  30.945  28.395  1.00  0.00     0.338 C 
ATOM     25  O   UNL A   1      34.414  31.968  29.039  1.00  0.00    -0.246 OA
BRANCH  24  26
ATOM     26  C   UNL A   1      35.827  30.186  28.394  1.00  0.00     0.060 A 
ATOM     27  C   UNL A   1      36.269  29.663  29.613  1.00  0.00     0.016 A 
ATOM     28  C   UNL A   1      36.628  30.084  27.255  1.00  0.00     0.016 A 
ATOM     29  C   UNL A   1      37.543  29.106  29.709  1.00  0.00     0.010 A 
ATOM     30  C   UNL A   1      37.894  29.494  27.344  1.00  0.00     0.010 A 
ATOM     31  C   UNL A   1      38.384  29.061  28.587  1.00  0.00    -0.014 A 
BRANCH  31  32
ATOM     32  C   UNL A   1      39.826  28.749  28.777  1.00  0.00     0.031 A 
ATOM     33  C   UNL A   1      40.718  29.777  29.431  1.00  0.00     0.074 A 
ATOM     34  C   UNL A   1      40.325  27.545  28.443  1.00  0.00     0.049 A 
ATOM     35  N   UNL A   1      41.977  29.684  29.776  1.00  0.00    -0.248 NA
ATOM     36  C   UNL A   1      40.112  31.085  29.731  1.00  0.00     0.031 C 
ATOM     37  C   UNL A   1      39.576  26.466  27.800  1.00  0.00     0.029 A 
ATOM     38  N   UNL A   1      41.583  27.023  28.616  1.00  0.00    -0.354 N 
ATOM     39  C   UNL A   1      42.311  30.916  30.328  1.00  0.00     0.074 A 
ATOM     40  C   UNL A   1      41.139  31.757  30.227  1.00  0.00     0.031 C 
ATOM     41  C   UNL A   1      40.385  25.404  27.646  1.00  0.00     0.029 A 
ATOM     42  C   UNL A   1      41.710  25.729  28.172  1.00  0.00     0.049 A 
ATOM     43  H   UNL A   1      42.325  27.529  29.020  1.00  0.00     0.167 HD
ATOM     44  C   UNL A   1      43.478  31.309  30.894  1.00  0.00     0.037 A 
ATOM     45  C   UNL A   1      42.770  24.896  28.199  1.00  0.00     0.037 A 
ATOM     46  C   UNL A   1      44.639  30.470  31.021  1.00  0.00     0.049 A 
ATOM     47  C   UNL A   1      44.057  25.351  28.835  1.00  0.00     0.074 A 
ATOM     48  C   UNL A   1      45.857  30.766  31.607  1.00  0.00     0.029 A 
ATOM     49  N   UNL A   1      44.725  29.166  30.557  1.00  0.00    -0.354 N 
ATOM     50  N   UNL A   1      44.340  26.505  29.393  1.00  0.00    -0.248 NA
ATOM     51  C   UNL A   1      45.165  24.384  28.860  1.00  0.00     0.031 C 
ATOM     52  C   UNL A   1      46.690  29.649  31.472  1.00  0.00     0.029 A 
ATOM     53  C   UNL A   1      45.978  28.647  30.833  1.00  0.00     0.049 A 
ATOM     54  H   UNL A   1      44.001  28.681  30.097  1.00  0.00     0.167 HD
ATOM     55  C   UNL A   1      45.647  26.392  29.857  1.00  0.00     0.074 A 
ATOM     56  C   UNL A   1      46.094  25.056  29.525  1.00  0.00     0.031 C 
ATOM     57  C   UNL A   1      46.407  27.312  30.503  1.00  0.00     0.037 A 
BRANCH  44  58
ATOM     58  C   UNL A   1      43.550  32.715  31.421  1.00  0.00     0.058 A 
ATOM     59  C   UNL A   1      43.977  33.781  30.612  1.00  0.00     0.135 A 
ATOM     60  C   UNL A   1      43.178  33.003  32.743  1.00  0.00     0.135 A 
ATOM     61  F   UNL A   1      44.362  33.557  29.347  1.00  0.00    -0.206 F 
ATOM     62  C   UNL A   1      44.062  35.079  31.107  1.00  0.00     0.059 A 
ATOM     63  C   UNL A   1      43.232  34.297  33.251  1.00  0.00     0.059 A 
ATOM     64  F   UNL A   1      42.765  32.019  33.558  1.00  0.00    -0.206 F 
ATOM     65  C   UNL A   1      43.692  35.326  32.430  1.00  0.00     0.060 A 
BRANCH  65  66
ATOM     66  S   UNL A   1      43.815  37.012  33.062  1.00  0.00     0.124 S 
ATOM     67  O   UNL A   1      45.099  36.969  33.755  1.00  0.00    -0.237 OA
ATOM     68  O   UNL A   1      43.781  37.810  31.841  1.00  0.00    -0.237 OA
ATOM     69  O   UNL A   1      42.641  37.138  33.921  1.00  0.00    -0.744 OA
ENDBRANCH  65  66
ENDBRANCH  44  58
BRANCH  45  70
ATOM     70  C   UNL A   1      42.652  23.528  27.629  1.00  0.00     0.058 A 
ATOM     71  C   UNL A   1      42.376  22.424  28.449  1.00  0.00     0.135 A 
ATOM     72  C   UNL A   1      42.811  23.300  26.254  1.00  0.00     0.135 A 
ATOM     73  F   UNL A   1      42.225  22.591  29.772  1.00  0.00    -0.206 F 
ATOM     74  C   UNL A   1      42.278  21.138  27.928  1.00  0.00     0.059 A 
ATOM     75  C   UNL A   1      42.696  22.027  25.707  1.00  0.00     0.059 A 
ATOM     76  F   UNL A   1      43.063  24.327  25.428  1.00  0.00    -0.206 F 
ATOM     77  C   UNL A   1      42.438  20.949  26.554  1.00  0.00     0.060 A 
BRANCH  77  78
ATOM     78  S   UNL A   1      42.253  19.285  25.877  1.00  0.00     0.124 S 
ATOM     79  O   UNL A   1      40.811  19.212  25.669  1.00  0.00    -0.237 OA
ATOM     80  O   UNL A   1      43.070  19.351  24.669  1.00  0.00    -0.237 OA
ATOM     81  O   UNL A   1      42.784  18.434  26.937  1.00  0.00    -0.744 OA
ENDBRANCH  77  78
ENDBRANCH  45  70
BRANCH  57  82
ATOM     82  C   UNL A   1      47.789  26.894  30.920  1.00  0.00     0.058 A 
ATOM     83  C   UNL A   1      48.019  26.210  32.123  1.00  0.00     0.135 A 
ATOM     84  C   UNL A   1      48.891  27.154  30.090  1.00  0.00     0.135 A 
ATOM     85  F   UNL A   1      47.000  25.939  32.953  1.00  0.00    -0.206 F 
ATOM     86  C   UNL A   1      49.300  25.824  32.504  1.00  0.00     0.059 A 
ATOM     87  C   UNL A   1      50.178  26.756  30.441  1.00  0.00     0.059 A 
ATOM     88  F   UNL A   1      48.723  27.794  28.922  1.00  0.00    -0.206 F 
ATOM     89  C   UNL A   1      50.375  26.107  31.658  1.00  0.00     0.060 A 
BRANCH  89  90
ATOM     90  S   UNL A   1      52.033  25.593  32.155  1.00  0.00     0.124 S 
ATOM     91  O   UNL A   1      51.863  24.151  32.298  1.00  0.00    -0.237 OA
ATOM     92  O   UNL A   1      52.851  26.026  31.025  1.00  0.00    -0.237 OA
ATOM     93  O   UNL A   1      52.256  26.327  33.397  1.00  0.00    -0.744 OA
ENDBRANCH  89  90
ENDBRANCH  57  82
ENDBRANCH  31  32
ENDBRANCH  24  26
ENDBRANCH  23  24
ENDBRANCH  22  23
ENDBRANCH   1  22
TORSDOF 19
ENDMDL
MODEL 2
REMARK VINA RESULT:     -10.4      2.914      3.737
REMARK SMILES C[C@H]1[C@H](C(=O)OCCOCCOC(=O)c2ccc(-c3c4nc(c(-c5c(F)cc(S(=O)(=O)[O-])cc5F)c5ccc([nH]5)c(-c5c(F)cc(S(=O)(=O)[O-])cc5F)c5nc(c(-c6c(F)cc(S(=O)(=O)[O-])cc6F)c6ccc3[nH]6)C=C5)C=C4)cc2)CCN1C(=O)[C@H]1CC=CCC1
REMARK SMILES IDX 10 1 9 2 8 3 7 4 6 5 4 6 5 7 3 8 1 9 2 10 83 11 81 12 82 13
REMARK SMILES IDX 84 14 85 15 86 16 87 17 91 18 88 19 90 20 89 21 11 22 12 23
REMARK SMILES IDX 13 24 14 25 15 26 16 27 80 28 17 29 79 30 18 31 19 32 20 33
REMARK SMILES IDX 73 34 21 35 78 36 72 37 74 38 22 39 77 40 71 41 70 42 23 44
REMARK SMILES IDX 57 45 36 46 56 47 37 48 40 49 55 50 75 51 38 52 39 53 54 55
REMARK SMILES IDX 76 56 41 57 24 58 25 59 34 60 26 61 27 62 33 63 35 64 28 65
REMARK SMILES IDX 29 66 30 67 31 68 32 69 58 70 59 71 68 72 60 73 61 74 67 75
REMARK SMILES IDX 69 76 62 77 63 78 64 79 65 80 66 81 42 82 43 83 52 84 44 85
REMARK SMILES IDX 45 86 51 87 53 88 46 89 47 90 48 91 49 92 50 93
REMARK H PARENT 74 43 40 54
REMARK Flexibility Score: inf
ROOT
ATOM      1  C   UNL A   1      31.710  30.295  25.853  1.00  0.00     0.202 C 
ENDROOT
BRANCH   1   2
ATOM      2  O   UNL A   1      31.065  29.240  25.141  1.00  0.00    -0.374 OA
BRANCH   2   3
ATOM      3  C   UNL A   1      30.550  29.562  23.850  1.00  0.00     0.202 C 
BRANCH   3   4
ATOM      4  C   UNL A   1      31.102  28.720  22.699  1.00  0.00     0.261 C 
BRANCH   4   5
ATOM      5  O   UNL A   1      32.543  28.690  22.667  1.00  0.00    -0.463 OA
BRANCH   5   6
ATOM      6  C   UNL A   1      33.101  27.452  22.606  1.00  0.00     0.311 C 
ATOM      7  O   UNL A   1      33.810  27.042  21.696  1.00  0.00    -0.252 OA
BRANCH   6   8
ATOM      8  C   UNL A   1      32.696  26.567  23.757  1.00  0.00     0.123 C 
ATOM      9  C   UNL A   1      30.956  24.848  23.333  1.00  0.00     0.032 C 
ATOM     10  C   UNL A   1      32.467  25.064  23.452  1.00  0.00     0.096 C 
ATOM     11  N   UNL A   1      33.046  24.359  24.613  1.00  0.00    -0.339 N 
ATOM     12  C   UNL A   1      33.737  26.591  24.865  1.00  0.00     0.039 C 
ATOM     13  C   UNL A   1      33.426  25.326  25.635  1.00  0.00     0.121 C 
BRANCH  11  14
ATOM     14  C   UNL A   1      33.299  23.032  24.879  1.00  0.00     0.226 C 
ATOM     15  O   UNL A   1      32.700  22.490  25.822  1.00  0.00    -0.275 OA
BRANCH  14  16
ATOM     16  C   UNL A   1      34.291  22.150  24.106  1.00  0.00     0.083 C 
ATOM     17  C   UNL A   1      35.283  22.895  23.212  1.00  0.00     0.040 C 
ATOM     18  C   UNL A   1      34.838  20.935  24.854  1.00  0.00     0.018 C 
ATOM     19  C   UNL A   1      36.723  22.771  23.604  1.00  0.00    -0.030 C 
ATOM     20  C   UNL A   1      36.281  21.027  25.335  1.00  0.00     0.028 C 
ATOM     21  C   UNL A   1      37.163  21.951  24.564  1.00  0.00    -0.031 C 
ENDBRANCH  14  16
ENDBRANCH  11  14
ENDBRANCH   6   8
ENDBRANCH   5   6
ENDBRANCH   4   5
ENDBRANCH   3   4
ENDBRANCH   2   3
ENDBRANCH   1   2
BRANCH   1  22
ATOM     22  C   UNL A   1      33.194  30.061  26.155  1.00  0.00     0.261 C 
BRANCH  22  23
ATOM     23  O   UNL A   1      33.475  30.220  27.558  1.00  0.00    -0.460 OA
BRANCH  23  24
ATOM     24  C   UNL A   1      34.267  31.279  27.861  1.00  0.00     0.338 C 
ATOM     25  O   UNL A   1      33.910  32.427  28.060  1.00  0.00    -0.246 OA
BRANCH  24  26
ATOM     26  C   UNL A   1      35.657  30.834  28.082  1.00  0.00     0.060 A 
ATOM     27  C   UNL A   1      35.867  29.478  28.351  1.00  0.00     0.016 A 
ATOM     28  C   UNL A   1      36.722  31.733  28.142  1.00  0.00     0.016 A 
ATOM     29  C   UNL A   1      37.126  29.036  28.754  1.00  0.00     0.010 A 
ATOM     30  C   UNL A   1      37.995  31.284  28.513  1.00  0.00     0.010 A 
ATOM     31  C   UNL A   1      38.187  29.943  28.885  1.00  0.00    -0.014 A 
BRANCH  31  32
ATOM     32  C   UNL A   1      39.420  29.514  29.598  1.00  0.00     0.031 A 
ATOM     33  C   UNL A   1      39.763  30.158  30.920  1.00  0.00     0.074 A 
ATOM     34  C   UNL A   1      40.187  28.516  29.120  1.00  0.00     0.049 A 
ATOM     35  N   UNL A   1      40.734  29.877  31.753  1.00  0.00    -0.248 NA
ATOM     36  C   UNL A   1      38.903  31.269  31.360  1.00  0.00     0.031 C 
ATOM     37  C   UNL A   1      39.972  27.816  27.854  1.00  0.00     0.029 A 
ATOM     38  N   UNL A   1      41.296  27.911  29.655  1.00  0.00    -0.354 N 
ATOM     39  C   UNL A   1      40.601  30.775  32.807  1.00  0.00     0.074 A 
ATOM     40  C   UNL A   1      39.489  31.641  32.487  1.00  0.00     0.031 C 
ATOM     41  C   UNL A   1      40.911  26.863  27.719  1.00  0.00     0.029 A 
ATOM     42  C   UNL A   1      41.797  26.891  28.881  1.00  0.00     0.049 A 
ATOM     43  H   UNL A   1      41.696  28.181  30.513  1.00  0.00     0.167 HD
ATOM     44  C   UNL A   1      41.319  30.857  33.952  1.00  0.00     0.037 A 
ATOM     45  C   UNL A   1      42.842  26.067  29.092  1.00  0.00     0.037 A 
ATOM     46  C   UNL A   1      42.410  29.982  34.289  1.00  0.00     0.049 A 
ATOM     47  C   UNL A   1      43.627  26.173  30.374  1.00  0.00     0.074 A 
ATOM     48  C   UNL A   1      43.179  29.966  35.439  1.00  0.00     0.029 A 
ATOM     49  N   UNL A   1      42.885  28.964  33.476  1.00  0.00    -0.354 N 
ATOM     50  N   UNL A   1      43.456  26.999  31.380  1.00  0.00    -0.248 NA
ATOM     51  C   UNL A   1      44.734  25.224  30.556  1.00  0.00     0.031 C 
ATOM     52  C   UNL A   1      44.139  28.955  35.309  1.00  0.00     0.029 A 
ATOM     53  C   UNL A   1      43.943  28.321  34.093  1.00  0.00     0.049 A 
ATOM     54  H   UNL A   1      42.524  28.735  32.589  1.00  0.00     0.167 HD
ATOM     55  C   UNL A   1      44.418  26.651  32.323  1.00  0.00     0.074 A 
ATOM     56  C   UNL A   1      45.158  25.535  31.773  1.00  0.00     0.031 C 
ATOM     57  C   UNL A   1      44.666  27.205  33.536  1.00  0.00     0.037 A 
BRANCH  44  58
ATOM     58  C   UNL A   1      40.941  31.937  34.927  1.00  0.00     0.058 A 
ATOM     59  C   UNL A   1      41.552  33.201  34.898  1.00  0.00     0.135 A 
ATOM     60  C   UNL A   1      39.950  31.711  35.895  1.00  0.00     0.135 A 
ATOM     61  F   UNL A   1      42.520  33.462  34.005  1.00  0.00    -0.206 F 
ATOM     62  C   UNL A   1      41.215  34.193  35.814  1.00  0.00     0.059 A 
ATOM     63  C   UNL A   1      39.579  32.696  36.805  1.00  0.00     0.059 A 
ATOM     64  F   UNL A   1      39.336  30.519  35.968  1.00  0.00    -0.206 F 
ATOM     65  C   UNL A   1      40.231  33.929  36.767  1.00  0.00     0.060 A 
BRANCH  65  66
ATOM     66  S   UNL A   1      39.808  35.220  37.955  1.00  0.00     0.124 S 
ATOM     67  O   UNL A   1      39.699  36.389  37.087  1.00  0.00    -0.237 OA
ATOM     68  O   UNL A   1      38.553  34.732  38.518  1.00  0.00    -0.237 OA
ATOM     69  O   UNL A   1      40.943  35.222  38.872  1.00  0.00    -0.744 OA
ENDBRANCH  65  66
ENDBRANCH  44  58
BRANCH  45  70
ATOM     70  C   UNL A   1      43.193  25.041  28.075  1.00  0.00     0.058 A 
ATOM     71  C   UNL A   1      44.020  25.354  26.986  1.00  0.00     0.135 A 
ATOM     72  C   UNL A   1      42.708  23.729  28.173  1.00  0.00     0.135 A 
ATOM     73  F   UNL A   1      44.501  26.599  26.845  1.00  0.00    -0.206 F 
ATOM     74  C   UNL A   1      44.343  24.405  26.022  1.00  0.00     0.059 A 
ATOM     75  C   UNL A   1      43.034  22.757  27.233  1.00  0.00     0.059 A 
ATOM     76  F   UNL A   1      41.923  23.378  29.204  1.00  0.00    -0.206 F 
ATOM     77  C   UNL A   1      43.845  23.108  26.154  1.00  0.00     0.060 A 
BRANCH  77  78
ATOM     78  S   UNL A   1      44.314  21.867  24.928  1.00  0.00     0.124 S 
ATOM     79  O   UNL A   1      43.373  20.793  25.224  1.00  0.00    -0.237 OA
ATOM     80  O   UNL A   1      44.098  22.577  23.672  1.00  0.00    -0.237 OA
ATOM     81  O   UNL A   1      45.711  21.592  25.251  1.00  0.00    -0.744 OA
ENDBRANCH  77  78
ENDBRANCH  45  70
BRANCH  57  82
ATOM     82  C   UNL A   1      45.760  26.592  34.365  1.00  0.00     0.058 A 
ATOM     83  C   UNL A   1      47.080  27.062  34.303  1.00  0.00     0.135 A 
ATOM     84  C   UNL A   1      45.476  25.545  35.255  1.00  0.00     0.135 A 
ATOM     85  F   UNL A   1      47.405  28.060  33.466  1.00  0.00    -0.206 F 
ATOM     86  C   UNL A   1      48.090  26.493  35.073  1.00  0.00     0.059 A 
ATOM     87  C   UNL A   1      46.464  24.976  36.052  1.00  0.00     0.059 A 
ATOM     88  F   UNL A   1      44.225  25.068  35.362  1.00  0.00    -0.206 F 
ATOM     89  C   UNL A   1      47.772  25.446  35.942  1.00  0.00     0.060 A 
BRANCH  89  90
ATOM     90  S   UNL A   1      49.085  24.720  36.946  1.00  0.00     0.124 S 
ATOM     91  O   UNL A   1      50.133  25.728  36.833  1.00  0.00    -0.237 OA
ATOM     92  O   UNL A   1      48.455  24.606  38.258  1.00  0.00    -0.237 OA
ATOM     93  O   UNL A   1      49.358  23.450  36.278  1.00  0.00    -0.744 OA
ENDBRANCH  89  90
ENDBRANCH  57  82
ENDBRANCH  31  32
ENDBRANCH  24  26
ENDBRANCH  23  24
ENDBRANCH  22  23
ENDBRANCH   1  22
TORSDOF 19
ENDMDL
MODEL 3
REMARK VINA RESULT:     -10.3      1.161      8.432
REMARK SMILES C[C@H]1[C@H](C(=O)OCCOCCOC(=O)c2ccc(-c3c4nc(c(-c5c(F)cc(S(=O)(=O)[O-])cc5F)c5ccc([nH]5)c(-c5c(F)cc(S(=O)(=O)[O-])cc5F)c5nc(c(-c6c(F)cc(S(=O)(=O)[O-])cc6F)c6ccc3[nH]6)C=C5)C=C4)cc2)CCN1C(=O)[C@H]1CC=CCC1
REMARK SMILES IDX 10 1 9 2 8 3 7 4 6 5 4 6 5 7 3 8 1 9 2 10 83 11 81 12 82 13
REMARK SMILES IDX 84 14 85 15 86 16 87 17 91 18 88 19 90 20 89 21 11 22 12 23
REMARK SMILES IDX 13 24 14 25 15 26 16 27 80 28 17 29 79 30 18 31 19 32 20 33
REMARK SMILES IDX 73 34 21 35 78 36 72 37 74 38 22 39 77 40 71 41 70 42 23 44
REMARK SMILES IDX 57 45 36 46 56 47 37 48 40 49 55 50 75 51 38 52 39 53 54 55
REMARK SMILES IDX 76 56 41 57 24 58 25 59 34 60 26 61 27 62 33 63 35 64 28 65
REMARK SMILES IDX 29 66 30 67 31 68 32 69 58 70 59 71 68 72 60 73 61 74 67 75
REMARK SMILES IDX 69 76 62 77 63 78 64 79 65 80 66 81 42 82 43 83 52 84 44 85
REMARK SMILES IDX 45 86 51 87 53 88 46 89 47 90 48 91 49 92 50 93
REMARK H PARENT 74 43 40 54
REMARK Flexibility Score: inf
ROOT
ATOM      1  C   UNL A   1      32.076  29.971  25.719  1.00  0.00     0.202 C 
ENDROOT
BRANCH   1   2
ATOM      2  O   UNL A   1      33.061  29.452  24.826  1.00  0.00    -0.374 OA
BRANCH   2   3
ATOM      3  C   UNL A   1      32.713  28.270  24.108  1.00  0.00     0.202 C 
BRANCH   3   4
ATOM      4  C   UNL A   1      31.419  28.355  23.297  1.00  0.00     0.261 C 
BRANCH   4   5
ATOM      5  O   UNL A   1      30.941  27.065  22.868  1.00  0.00    -0.463 OA
BRANCH   5   6
ATOM      6  C   UNL A   1      29.934  26.537  23.612  1.00  0.00     0.311 C 
ATOM      7  O   UNL A   1      28.792  26.977  23.668  1.00  0.00    -0.252 OA
BRANCH   6   8
ATOM      8  C   UNL A   1      30.377  25.369  24.457  1.00  0.00     0.123 C 
ATOM      9  C   UNL A   1      31.411  23.433  23.296  1.00  0.00     0.032 C 
ATOM     10  C   UNL A   1      31.728  24.701  24.095  1.00  0.00     0.096 C 
ATOM     11  N   UNL A   1      32.354  24.403  25.398  1.00  0.00    -0.339 N 
ATOM     12  C   UNL A   1      30.511  25.764  25.919  1.00  0.00     0.039 C 
ATOM     13  C   UNL A   1      31.407  24.678  26.471  1.00  0.00     0.121 C 
BRANCH  11  14
ATOM     14  C   UNL A   1      33.605  23.960  25.763  1.00  0.00     0.226 C 
ATOM     15  O   UNL A   1      33.708  23.216  26.753  1.00  0.00    -0.275 OA
BRANCH  14  16
ATOM     16  C   UNL A   1      34.914  24.327  25.050  1.00  0.00     0.083 C 
ATOM     17  C   UNL A   1      36.192  24.128  25.866  1.00  0.00     0.040 C 
ATOM     18  C   UNL A   1      34.999  23.966  23.567  1.00  0.00     0.018 C 
ATOM     19  C   UNL A   1      37.139  23.094  25.341  1.00  0.00    -0.030 C 
ATOM     20  C   UNL A   1      35.882  22.778  23.207  1.00  0.00     0.028 C 
ATOM     21  C   UNL A   1      36.988  22.479  24.163  1.00  0.00    -0.031 C 
ENDBRANCH  14  16
ENDBRANCH  11  14
ENDBRANCH   6   8
ENDBRANCH   5   6
ENDBRANCH   4   5
ENDBRANCH   3   4
ENDBRANCH   2   3
ENDBRANCH   1   2
BRANCH   1  22
ATOM     22  C   UNL A   1      32.632  30.742  26.920  1.00  0.00     0.261 C 
BRANCH  22  23
ATOM     23  O   UNL A   1      33.694  30.013  27.564  1.00  0.00    -0.460 OA
BRANCH  23  24
ATOM     24  C   UNL A   1      34.560  30.781  28.273  1.00  0.00     0.338 C 
ATOM     25  O   UNL A   1      34.306  31.813  28.868  1.00  0.00    -0.246 OA
BRANCH  24  26
ATOM     26  C   UNL A   1      35.873  30.113  28.372  1.00  0.00     0.060 A 
ATOM     27  C   UNL A   1      36.256  29.622  29.624  1.00  0.00     0.016 A 
ATOM     28  C   UNL A   1      36.763  30.068  27.299  1.00  0.00     0.016 A 
ATOM     29  C   UNL A   1      37.556  29.157  29.820  1.00  0.00     0.010 A 
ATOM     30  C   UNL A   1      38.057  29.568  27.487  1.00  0.00     0.010 A 
ATOM     31  C   UNL A   1      38.481  29.171  28.766  1.00  0.00    -0.014 A 
BRANCH  31  32
ATOM     32  C   UNL A   1      39.922  28.962  29.067  1.00  0.00     0.031 A 
ATOM     33  C   UNL A   1      40.559  27.638  28.716  1.00  0.00     0.074 A 
ATOM     34  C   UNL A   1      40.676  29.954  29.575  1.00  0.00     0.049 A 
ATOM     35  N   UNL A   1      41.812  27.271  28.805  1.00  0.00    -0.248 NA
ATOM     36  C   UNL A   1      39.665  26.588  28.202  1.00  0.00     0.031 C 
ATOM     37  C   UNL A   1      40.186  31.276  29.963  1.00  0.00     0.029 A 
ATOM     38  N   UNL A   1      42.022  30.005  29.837  1.00  0.00    -0.354 N 
ATOM     39  C   UNL A   1      41.853  25.953  28.364  1.00  0.00     0.074 A 
ATOM     40  C   UNL A   1      40.495  25.567  28.054  1.00  0.00     0.031 C 
ATOM     41  C   UNL A   1      41.221  32.014  30.399  1.00  0.00     0.029 A 
ATOM     42  C   UNL A   1      42.444  31.216  30.329  1.00  0.00     0.049 A 
ATOM     43  H   UNL A   1      42.629  29.245  29.686  1.00  0.00     0.167 HD
ATOM     44  C   UNL A   1      42.926  25.141  28.202  1.00  0.00     0.037 A 
ATOM     45  C   UNL A   1      43.678  31.638  30.672  1.00  0.00     0.037 A 
ATOM     46  C   UNL A   1      44.283  25.526  28.483  1.00  0.00     0.049 A 
ATOM     47  C   UNL A   1      44.857  30.721  30.483  1.00  0.00     0.074 A 
ATOM     48  C   UNL A   1      45.441  24.785  28.322  1.00  0.00     0.029 A 
ATOM     49  N   UNL A   1      44.665  26.762  28.982  1.00  0.00    -0.354 N 
ATOM     50  N   UNL A   1      44.882  29.493  30.020  1.00  0.00    -0.248 NA
ATOM     51  C   UNL A   1      46.179  31.253  30.846  1.00  0.00     0.031 C 
ATOM     52  C   UNL A   1      46.522  25.565  28.750  1.00  0.00     0.029 A 
ATOM     53  C   UNL A   1      46.039  26.802  29.144  1.00  0.00     0.049 A 
ATOM     54  H   UNL A   1      44.050  27.502  29.191  1.00  0.00     0.167 HD
ATOM     55  C   UNL A   1      46.222  29.117  30.013  1.00  0.00     0.074 A 
ATOM     56  C   UNL A   1      46.976  30.250  30.506  1.00  0.00     0.031 C 
ATOM     57  C   UNL A   1      46.778  27.941  29.630  1.00  0.00     0.037 A 
BRANCH  44  58
ATOM     58  C   UNL A   1      42.668  23.750  27.693  1.00  0.00     0.058 A 
ATOM     59  C   UNL A   1      42.520  22.663  28.570  1.00  0.00     0.135 A 
ATOM     60  C   UNL A   1      42.555  23.502  26.317  1.00  0.00     0.135 A 
ATOM     61  F   UNL A   1      42.639  22.843  29.895  1.00  0.00    -0.206 F 
ATOM     62  C   UNL A   1      42.301  21.373  28.098  1.00  0.00     0.059 A 
ATOM     63  C   UNL A   1      42.311  22.223  25.823  1.00  0.00     0.059 A 
ATOM     64  F   UNL A   1      42.690  24.506  25.436  1.00  0.00    -0.206 F 
ATOM     65  C   UNL A   1      42.203  21.162  26.722  1.00  0.00     0.060 A 
BRANCH  65  66
ATOM     66  S   UNL A   1      41.926  19.483  26.120  1.00  0.00     0.124 S 
ATOM     67  O   UNL A   1      42.389  18.689  27.255  1.00  0.00    -0.237 OA
ATOM     68  O   UNL A   1      40.487  19.467  25.882  1.00  0.00    -0.237 OA
ATOM     69  O   UNL A   1      42.757  19.411  24.923  1.00  0.00    -0.744 OA
ENDBRANCH  65  66
ENDBRANCH  44  58
BRANCH  45  70
ATOM     70  C   UNL A   1      43.869  33.014  31.205  1.00  0.00     0.058 A 
ATOM     71  C   UNL A   1      44.071  34.102  30.344  1.00  0.00     0.135 A 
ATOM     72  C   UNL A   1      43.851  33.264  32.585  1.00  0.00     0.135 A 
ATOM     73  F   UNL A   1      44.106  33.910  29.016  1.00  0.00    -0.206 F 
ATOM     74  C   UNL A   1      44.265  35.390  30.833  1.00  0.00     0.059 A 
ATOM     75  C   UNL A   1      44.021  34.546  33.097  1.00  0.00     0.059 A 
ATOM     76  F   UNL A   1      43.648  32.256  33.448  1.00  0.00    -0.206 F 
ATOM     77  C   UNL A   1      44.237  35.602  32.212  1.00  0.00     0.060 A 
BRANCH  77  78
ATOM     78  S   UNL A   1      44.433  37.285  32.837  1.00  0.00     0.124 S 
ATOM     79  O   UNL A   1      45.850  37.307  33.181  1.00  0.00    -0.237 OA
ATOM     80  O   UNL A   1      44.043  38.090  31.684  1.00  0.00    -0.237 OA
ATOM     81  O   UNL A   1      43.506  37.331  33.965  1.00  0.00    -0.744 OA
ENDBRANCH  77  78
ENDBRANCH  45  70
BRANCH  57  82
ATOM     82  C   UNL A   1      48.275  27.829  29.699  1.00  0.00     0.058 A 
ATOM     83  C   UNL A   1      48.924  27.351  30.847  1.00  0.00     0.135 A 
ATOM     84  C   UNL A   1      49.065  28.174  28.592  1.00  0.00     0.135 A 
ATOM     85  F   UNL A   1      48.215  27.010  31.934  1.00  0.00    -0.206 F 
ATOM     86  C   UNL A   1      50.311  27.248  30.906  1.00  0.00     0.059 A 
ATOM     87  C   UNL A   1      50.451  28.057  28.620  1.00  0.00     0.059 A 
ATOM     88  F   UNL A   1      48.491  28.623  27.465  1.00  0.00    -0.206 F 
ATOM     89  C   UNL A   1      51.067  27.609  29.788  1.00  0.00     0.060 A 
BRANCH  89  90
ATOM     90  S   UNL A   1      52.864  27.462  29.868  1.00  0.00     0.124 S 
ATOM     91  O   UNL A   1      53.281  28.844  29.656  1.00  0.00    -0.237 OA
ATOM     92  O   UNL A   1      53.080  26.934  31.212  1.00  0.00    -0.237 OA
ATOM     93  O   UNL A   1      53.177  26.537  28.782  1.00  0.00    -0.744 OA
ENDBRANCH  89  90
ENDBRANCH  57  82
ENDBRANCH  31  32
ENDBRANCH  24  26
ENDBRANCH  23  24
ENDBRANCH  22  23
ENDBRANCH   1  22
TORSDOF 19
ENDMDL
