MODEL 1
REMARK VINA RESULT:     -11.3      0.000      0.000
REMARK SMILES C[C@]12CCC(=O)N1[C@H](C(=O)N1CCC[C@@H]1C(=O)OCCOCCOC(=O)c1ccc(-c3c4nc(c(-c5c(F)cc(S(=O)(=O)[O-])cc5F)c5ccc([nH]5)c(-c5c(F)cc(S(=O)(=O)[O-])cc5F)c5nc(c(-c6c(F)cc(S(=O)(=O)[O-])cc6F)c6ccc3[nH]6)C=C5)C=C4)cc1)CS2
REMARK SMILES IDX 22 1 21 2 20 3 19 4 18 5 16 6 17 7 15 8 11 9 12 10 13 11
REMARK SMILES IDX 14 12 9 13 10 14 8 15 1 16 2 17 3 18 7 19 94 20 4 21 5 22
REMARK SMILES IDX 93 23 6 24 23 25 24 26 25 27 26 28 27 29 28 30 92 31 29 32
REMARK SMILES IDX 91 33 30 34 31 35 32 36 85 37 33 38 90 39 84 40 86 41 34 42
REMARK SMILES IDX 89 43 83 44 82 45 35 47 69 48 48 49 68 50 49 51 52 52 67 53
REMARK SMILES IDX 87 54 50 55 51 56 66 58 88 59 53 60 36 61 37 62 46 63 38 64
REMARK SMILES IDX 39 65 45 66 47 67 40 68 41 69 42 70 43 71 44 72 70 73 71 74
REMARK SMILES IDX 80 75 72 76 73 77 79 78 81 79 74 80 75 81 76 82 77 83 78 84
REMARK SMILES IDX 54 85 55 86 64 87 56 88 57 89 63 90 65 91 58 92 59 93 60 94
REMARK SMILES IDX 61 95 62 96
REMARK H PARENT 86 46 52 57
REMARK Flexibility Score: inf
ROOT
ATOM      1  C   UNL A   1      39.974  21.831  26.136  1.00  0.00     0.202 C 
ENDROOT
BRANCH   1   2
ATOM      2  O   UNL A   1      38.549  21.892  26.030  1.00  0.00    -0.374 OA
BRANCH   2   3
ATOM      3  C   UNL A   1      37.915  21.133  25.002  1.00  0.00     0.202 C 
BRANCH   3   4
ATOM      4  C   UNL A   1      36.408  20.900  25.144  1.00  0.00     0.261 C 
BRANCH   4   5
ATOM      5  O   UNL A   1      35.654  21.866  24.400  1.00  0.00    -0.462 OA
BRANCH   5   6
ATOM      6  C   UNL A   1      34.800  22.625  25.140  1.00  0.00     0.328 C 
ATOM      7  O   UNL A   1      35.105  23.208  26.176  1.00  0.00    -0.250 OA
BRANCH   6   8
ATOM      8  C   UNL A   1      33.463  22.840  24.399  1.00  0.00     0.195 C 
ATOM      9  N   UNL A   1      32.426  23.259  25.346  1.00  0.00    -0.327 N 
ATOM     10  C   UNL A   1      31.476  22.195  25.606  1.00  0.00     0.120 C 
ATOM     11  C   UNL A   1      32.060  20.970  24.924  1.00  0.00     0.024 C 
ATOM     12  C   UNL A   1      32.890  21.560  23.788  1.00  0.00     0.039 C 
BRANCH   9  13
ATOM     13  C   UNL A   1      32.322  24.483  25.975  1.00  0.00     0.247 C 
ATOM     14  O   UNL A   1      31.688  24.590  27.028  1.00  0.00    -0.272 OA
BRANCH  13  15
ATOM     15  C   UNL A   1      32.913  25.718  25.255  1.00  0.00     0.186 C 
ATOM     16  C   UNL A   1      29.674  26.163  24.956  1.00  0.00     0.047 C 
ATOM     17  C   UNL A   1      30.909  27.000  24.623  1.00  0.00     0.087 C 
ATOM     18  C   UNL A   1      30.605  27.929  23.447  1.00  0.00     0.049 C 
ATOM     19  N   UNL A   1      32.040  26.218  24.185  1.00  0.00    -0.315 N 
ATOM     20  S   UNL A   1      31.529  27.883  26.101  1.00  0.00    -0.131 SA
ATOM     21  C   UNL A   1      31.900  28.009  22.660  1.00  0.00     0.103 C 
ATOM     22  C   UNL A   1      32.617  26.736  23.031  1.00  0.00     0.224 C 
ATOM     23  C   UNL A   1      33.082  26.904  26.211  1.00  0.00     0.107 C 
ATOM     24  O   UNL A   1      33.626  26.315  22.487  1.00  0.00    -0.275 OA
ENDBRANCH  13  15
ENDBRANCH   9  13
ENDBRANCH   6   8
ENDBRANCH   5   6
ENDBRANCH   4   5
ENDBRANCH   3   4
ENDBRANCH   2   3
ENDBRANCH   1   2
BRANCH   1  25
ATOM     25  C   UNL A   1      40.702  23.092  26.617  1.00  0.00     0.261 C 
BRANCH  25  26
ATOM     26  O   UNL A   1      39.955  24.296  26.359  1.00  0.00    -0.460 OA
BRANCH  26  27
ATOM     27  C   UNL A   1      40.718  25.416  26.272  1.00  0.00     0.338 C 
ATOM     28  O   UNL A   1      41.170  25.921  25.258  1.00  0.00    -0.246 OA
BRANCH  27  29
ATOM     29  C   UNL A   1      40.795  26.091  27.581  1.00  0.00     0.060 A 
ATOM     30  C   UNL A   1      39.698  25.953  28.441  1.00  0.00     0.016 A 
ATOM     31  C   UNL A   1      41.853  26.940  27.906  1.00  0.00     0.016 A 
ATOM     32  C   UNL A   1      39.631  26.706  29.609  1.00  0.00     0.010 A 
ATOM     33  C   UNL A   1      41.777  27.708  29.076  1.00  0.00     0.010 A 
ATOM     34  C   UNL A   1      40.647  27.624  29.909  1.00  0.00    -0.014 A 
BRANCH  34  35
ATOM     35  C   UNL A   1      40.419  28.602  31.001  1.00  0.00     0.031 A 
ATOM     36  C   UNL A   1      41.270  28.522  32.240  1.00  0.00     0.074 A 
ATOM     37  C   UNL A   1      39.519  29.590  30.862  1.00  0.00     0.049 A 
ATOM     38  N   UNL A   1      41.303  29.318  33.277  1.00  0.00    -0.248 NA
ATOM     39  C   UNL A   1      42.211  27.392  32.317  1.00  0.00     0.031 C 
ATOM     40  C   UNL A   1      38.649  29.783  29.703  1.00  0.00     0.029 A 
ATOM     41  N   UNL A   1      39.194  30.624  31.704  1.00  0.00    -0.354 N 
ATOM     42  C   UNL A   1      42.270  28.793  34.128  1.00  0.00     0.074 A 
ATOM     43  C   UNL A   1      42.775  27.589  33.500  1.00  0.00     0.031 C 
ATOM     44  C   UNL A   1      37.885  30.870  29.909  1.00  0.00     0.029 A 
ATOM     45  C   UNL A   1      38.206  31.443  31.216  1.00  0.00     0.049 A 
ATOM     46  H   UNL A   1      39.628  30.764  32.577  1.00  0.00     0.167 HD
ATOM     47  C   UNL A   1      42.705  29.273  35.316  1.00  0.00     0.037 A 
ATOM     48  C   UNL A   1      37.628  32.530  31.761  1.00  0.00     0.037 A 
ATOM     49  C   UNL A   1      42.198  30.466  35.942  1.00  0.00     0.049 A 
ATOM     50  C   UNL A   1      38.111  33.035  33.095  1.00  0.00     0.074 A 
ATOM     51  C   UNL A   1      42.586  31.046  37.138  1.00  0.00     0.029 A 
ATOM     52  N   UNL A   1      41.184  31.260  35.424  1.00  0.00    -0.354 N 
ATOM     53  N   UNL A   1      39.052  32.549  33.869  1.00  0.00    -0.248 NA
ATOM     54  C   UNL A   1      37.462  34.244  33.621  1.00  0.00     0.031 C 
ATOM     55  C   UNL A   1      41.781  32.171  37.359  1.00  0.00     0.029 A 
ATOM     56  C   UNL A   1      40.920  32.313  36.284  1.00  0.00     0.049 A 
ATOM     57  H   UNL A   1      40.721  31.097  34.571  1.00  0.00     0.167 HD
ATOM     58  C   UNL A   1      39.123  33.404  34.965  1.00  0.00     0.074 A 
ATOM     59  C   UNL A   1      38.138  34.444  34.744  1.00  0.00     0.031 C 
ATOM     60  C   UNL A   1      39.931  33.336  36.052  1.00  0.00     0.037 A 
BRANCH  47  61
ATOM     61  C   UNL A   1      43.770  28.484  36.026  1.00  0.00     0.058 A 
ATOM     62  C   UNL A   1      45.130  28.817  35.916  1.00  0.00     0.135 A 
ATOM     63  C   UNL A   1      43.428  27.380  36.822  1.00  0.00     0.135 A 
ATOM     64  F   UNL A   1      45.513  29.852  35.151  1.00  0.00    -0.206 F 
ATOM     65  C   UNL A   1      46.116  28.062  36.543  1.00  0.00     0.059 A 
ATOM     66  C   UNL A   1      44.395  26.625  37.477  1.00  0.00     0.059 A 
ATOM     67  F   UNL A   1      42.143  27.019  36.958  1.00  0.00    -0.206 F 
ATOM     68  C   UNL A   1      45.739  26.962  37.315  1.00  0.00     0.060 A 
BRANCH  68  69
ATOM     69  S   UNL A   1      47.026  25.974  38.106  1.00  0.00     0.124 S 
ATOM     70  O   UNL A   1      48.231  26.693  37.704  1.00  0.00    -0.237 OA
ATOM     71  O   UNL A   1      46.674  26.069  39.520  1.00  0.00    -0.237 OA
ATOM     72  O   UNL A   1      46.855  24.653  37.510  1.00  0.00    -0.744 OA
ENDBRANCH  68  69
ENDBRANCH  47  61
BRANCH  48  73
ATOM     73  C   UNL A   1      36.533  33.223  31.035  1.00  0.00     0.058 A 
ATOM     74  C   UNL A   1      35.202  33.135  31.468  1.00  0.00     0.135 A 
ATOM     75  C   UNL A   1      36.804  34.005  29.902  1.00  0.00     0.135 A 
ATOM     76  F   UNL A   1      34.894  32.391  32.540  1.00  0.00    -0.206 F 
ATOM     77  C   UNL A   1      34.175  33.794  30.800  1.00  0.00     0.059 A 
ATOM     78  C   UNL A   1      35.796  34.690  29.229  1.00  0.00     0.059 A 
ATOM     79  F   UNL A   1      38.064  34.129  29.455  1.00  0.00    -0.206 F 
ATOM     80  C   UNL A   1      34.484  34.572  29.683  1.00  0.00     0.060 A 
BRANCH  80  81
ATOM     81  S   UNL A   1      33.155  35.482  28.862  1.00  0.00     0.124 S 
ATOM     82  O   UNL A   1      33.907  36.461  28.086  1.00  0.00    -0.237 OA
ATOM     83  O   UNL A   1      32.491  34.432  28.096  1.00  0.00    -0.237 OA
ATOM     84  O   UNL A   1      32.381  36.018  29.978  1.00  0.00    -0.744 OA
ENDBRANCH  80  81
ENDBRANCH  48  73
BRANCH  60  85
ATOM     85  C   UNL A   1      39.794  34.430  37.075  1.00  0.00     0.058 A 
ATOM     86  C   UNL A   1      40.493  35.642  36.954  1.00  0.00     0.135 A 
ATOM     87  C   UNL A   1      38.944  34.270  38.180  1.00  0.00     0.135 A 
ATOM     88  F   UNL A   1      41.321  35.843  35.917  1.00  0.00    -0.206 F 
ATOM     89  C   UNL A   1      40.381  36.643  37.913  1.00  0.00     0.059 A 
ATOM     90  C   UNL A   1      38.799  35.268  39.140  1.00  0.00     0.059 A 
ATOM     91  F   UNL A   1      38.242  33.136  38.336  1.00  0.00    -0.206 F 
ATOM     92  C   UNL A   1      39.538  36.443  39.008  1.00  0.00     0.060 A 
BRANCH  92  93
ATOM     93  S   UNL A   1      39.399  37.745  40.251  1.00  0.00     0.124 S 
ATOM     94  O   UNL A   1      40.688  38.417  40.116  1.00  0.00    -0.237 OA
ATOM     95  O   UNL A   1      38.238  38.501  39.792  1.00  0.00    -0.237 OA
ATOM     96  O   UNL A   1      39.204  37.004  41.495  1.00  0.00    -0.744 OA
ENDBRANCH  92  93
ENDBRANCH  60  85
ENDBRANCH  34  35
ENDBRANCH  27  29
ENDBRANCH  26  27
ENDBRANCH  25  26
ENDBRANCH   1  25
TORSDOF 19
ENDMDL
MODEL 2
REMARK VINA RESULT:     -11.2      1.147      1.896
REMARK SMILES C[C@]12CCC(=O)N1[C@H](C(=O)N1CCC[C@@H]1C(=O)OCCOCCOC(=O)c1ccc(-c3c4nc(c(-c5c(F)cc(S(=O)(=O)[O-])cc5F)c5ccc([nH]5)c(-c5c(F)cc(S(=O)(=O)[O-])cc5F)c5nc(c(-c6c(F)cc(S(=O)(=O)[O-])cc6F)c6ccc3[nH]6)C=C5)C=C4)cc1)CS2
REMARK SMILES IDX 22 1 21 2 20 3 19 4 18 5 16 6 17 7 15 8 11 9 12 10 13 11
REMARK SMILES IDX 14 12 9 13 10 14 8 15 1 16 2 17 3 18 7 19 94 20 4 21 5 22
REMARK SMILES IDX 93 23 6 24 23 25 24 26 25 27 26 28 27 29 28 30 92 31 29 32
REMARK SMILES IDX 91 33 30 34 31 35 32 36 85 37 33 38 90 39 84 40 86 41 34 42
REMARK SMILES IDX 89 43 83 44 82 45 35 47 69 48 48 49 68 50 49 51 52 52 67 53
REMARK SMILES IDX 87 54 50 55 51 56 66 58 88 59 53 60 36 61 37 62 46 63 38 64
REMARK SMILES IDX 39 65 45 66 47 67 40 68 41 69 42 70 43 71 44 72 70 73 71 74
REMARK SMILES IDX 80 75 72 76 73 77 79 78 81 79 74 80 75 81 76 82 77 83 78 84
REMARK SMILES IDX 54 85 55 86 64 87 56 88 57 89 63 90 65 91 58 92 59 93 60 94
REMARK SMILES IDX 61 95 62 96
REMARK H PARENT 86 46 52 57
REMARK Flexibility Score: inf
ROOT
ATOM      1  C   UNL A   1      40.755  21.454  26.407  1.00  0.00     0.202 C 
ENDROOT
BRANCH   1   2
ATOM      2  O   UNL A   1      39.460  22.006  26.658  1.00  0.00    -0.374 OA
BRANCH   2   3
ATOM      3  C   UNL A   1      38.462  21.875  25.649  1.00  0.00     0.202 C 
BRANCH   3   4
ATOM      4  C   UNL A   1      37.235  22.786  25.766  1.00  0.00     0.261 C 
BRANCH   4   5
ATOM      5  O   UNL A   1      36.222  22.426  24.817  1.00  0.00    -0.462 OA
BRANCH   5   6
ATOM      6  C   UNL A   1      35.107  21.856  25.353  1.00  0.00     0.328 C 
ATOM      7  O   UNL A   1      34.616  22.170  26.433  1.00  0.00    -0.250 OA
BRANCH   6   8
ATOM      8  C   UNL A   1      34.415  20.924  24.336  1.00  0.00     0.195 C 
ATOM      9  N   UNL A   1      33.009  21.304  24.182  1.00  0.00    -0.327 N 
ATOM     10  C   UNL A   1      32.123  20.352  24.822  1.00  0.00     0.120 C 
ATOM     11  C   UNL A   1      33.041  19.414  25.588  1.00  0.00     0.024 C 
ATOM     12  C   UNL A   1      34.342  19.466  24.795  1.00  0.00     0.039 C 
BRANCH   9  13
ATOM     13  C   UNL A   1      32.517  22.428  23.550  1.00  0.00     0.247 C 
ATOM     14  O   UNL A   1      32.923  22.738  22.427  1.00  0.00    -0.272 OA
BRANCH  13  15
ATOM     15  C   UNL A   1      31.550  23.339  24.342  1.00  0.00     0.186 C 
ATOM     16  C   UNL A   1      34.212  25.225  23.974  1.00  0.00     0.047 C 
ATOM     17  C   UNL A   1      32.804  25.449  24.527  1.00  0.00     0.087 C 
ATOM     18  C   UNL A   1      32.833  26.544  25.594  1.00  0.00     0.049 C 
ATOM     19  N   UNL A   1      32.255  24.298  25.202  1.00  0.00    -0.315 N 
ATOM     20  S   UNL A   1      31.609  25.782  23.181  1.00  0.00    -0.131 SA
ATOM     21  C   UNL A   1      31.799  26.122  26.622  1.00  0.00     0.103 C 
ATOM     22  C   UNL A   1      31.704  24.630  26.435  1.00  0.00     0.224 C 
ATOM     23  C   UNL A   1      30.694  24.203  23.409  1.00  0.00     0.107 C 
ATOM     24  O   UNL A   1      31.113  23.866  27.181  1.00  0.00    -0.275 OA
ENDBRANCH  13  15
ENDBRANCH   9  13
ENDBRANCH   6   8
ENDBRANCH   5   6
ENDBRANCH   4   5
ENDBRANCH   3   4
ENDBRANCH   2   3
ENDBRANCH   1   2
BRANCH   1  25
ATOM     25  C   UNL A   1      41.922  22.434  26.232  1.00  0.00     0.261 C 
BRANCH  25  26
ATOM     26  O   UNL A   1      41.519  23.808  26.389  1.00  0.00    -0.460 OA
BRANCH  26  27
ATOM     27  C   UNL A   1      42.497  24.623  26.860  1.00  0.00     0.338 C 
ATOM     28  O   UNL A   1      43.681  24.596  26.570  1.00  0.00    -0.246 OA
BRANCH  27  29
ATOM     29  C   UNL A   1      41.916  25.715  27.664  1.00  0.00     0.060 A 
ATOM     30  C   UNL A   1      42.702  26.856  27.862  1.00  0.00     0.016 A 
ATOM     31  C   UNL A   1      40.689  25.573  28.314  1.00  0.00     0.016 A 
ATOM     32  C   UNL A   1      42.287  27.841  28.754  1.00  0.00     0.010 A 
ATOM     33  C   UNL A   1      40.279  26.559  29.222  1.00  0.00     0.010 A 
ATOM     34  C   UNL A   1      41.097  27.674  29.476  1.00  0.00    -0.014 A 
BRANCH  34  35
ATOM     35  C   UNL A   1      40.822  28.591  30.609  1.00  0.00     0.031 A 
ATOM     36  C   UNL A   1      41.676  28.500  31.845  1.00  0.00     0.074 A 
ATOM     37  C   UNL A   1      39.873  29.539  30.511  1.00  0.00     0.049 A 
ATOM     38  N   UNL A   1      41.670  29.252  32.915  1.00  0.00    -0.248 NA
ATOM     39  C   UNL A   1      42.673  27.417  31.875  1.00  0.00     0.031 C 
ATOM     40  C   UNL A   1      38.995  29.738  29.360  1.00  0.00     0.029 A 
ATOM     41  N   UNL A   1      39.498  30.517  31.397  1.00  0.00    -0.354 N 
ATOM     42  C   UNL A   1      42.662  28.739  33.744  1.00  0.00     0.074 A 
ATOM     43  C   UNL A   1      43.226  27.591  33.066  1.00  0.00     0.031 C 
ATOM     44  C   UNL A   1      38.177  30.776  29.612  1.00  0.00     0.029 A 
ATOM     45  C   UNL A   1      38.470  31.306  30.943  1.00  0.00     0.049 A 
ATOM     46  H   UNL A   1      39.925  30.641  32.276  1.00  0.00     0.167 HD
ATOM     47  C   UNL A   1      43.073  29.188  34.953  1.00  0.00     0.037 A 
ATOM     48  C   UNL A   1      37.838  32.339  31.533  1.00  0.00     0.037 A 
ATOM     49  C   UNL A   1      42.508  30.327  35.629  1.00  0.00     0.049 A 
ATOM     50  C   UNL A   1      38.296  32.809  32.889  1.00  0.00     0.074 A 
ATOM     51  C   UNL A   1      42.867  30.873  36.850  1.00  0.00     0.029 A 
ATOM     52  N   UNL A   1      41.456  31.090  35.145  1.00  0.00    -0.354 N 
ATOM     53  N   UNL A   1      39.261  32.338  33.643  1.00  0.00    -0.248 NA
ATOM     54  C   UNL A   1      37.588  33.960  33.465  1.00  0.00     0.031 C 
ATOM     55  C   UNL A   1      42.007  31.946  37.118  1.00  0.00     0.029 A 
ATOM     56  C   UNL A   1      41.140  32.091  36.048  1.00  0.00     0.049 A 
ATOM     57  H   UNL A   1      41.001  30.942  34.284  1.00  0.00     0.167 HD
ATOM     58  C   UNL A   1      39.290  33.147  34.774  1.00  0.00     0.074 A 
ATOM     59  C   UNL A   1      38.254  34.145  34.597  1.00  0.00     0.031 C 
ATOM     60  C   UNL A   1      40.100  33.073  35.859  1.00  0.00     0.037 A 
BRANCH  47  61
ATOM     61  C   UNL A   1      44.177  28.424  35.630  1.00  0.00     0.058 A 
ATOM     62  C   UNL A   1      45.530  28.722  35.399  1.00  0.00     0.135 A 
ATOM     63  C   UNL A   1      43.879  27.378  36.517  1.00  0.00     0.135 A 
ATOM     64  F   UNL A   1      45.869  29.700  34.545  1.00  0.00    -0.206 F 
ATOM     65  C   UNL A   1      46.549  27.988  35.997  1.00  0.00     0.059 A 
ATOM     66  C   UNL A   1      44.881  26.645  37.144  1.00  0.00     0.059 A 
ATOM     67  F   UNL A   1      42.602  27.051  36.771  1.00  0.00    -0.206 F 
ATOM     68  C   UNL A   1      46.214  26.945  36.862  1.00  0.00     0.060 A 
BRANCH  68  69
ATOM     69  S   UNL A   1      47.542  25.983  37.616  1.00  0.00     0.124 S 
ATOM     70  O   UNL A   1      48.187  25.408  36.440  1.00  0.00    -0.237 OA
ATOM     71  O   UNL A   1      48.309  27.003  38.325  1.00  0.00    -0.237 OA
ATOM     72  O   UNL A   1      46.832  25.035  38.470  1.00  0.00    -0.744 OA
ENDBRANCH  68  69
ENDBRANCH  47  61
BRANCH  48  73
ATOM     73  C   UNL A   1      36.710  33.007  30.836  1.00  0.00     0.058 A 
ATOM     74  C   UNL A   1      35.379  32.765  31.207  1.00  0.00     0.135 A 
ATOM     75  C   UNL A   1      36.946  33.919  29.796  1.00  0.00     0.135 A 
ATOM     76  F   UNL A   1      35.105  31.894  32.189  1.00  0.00    -0.206 F 
ATOM     77  C   UNL A   1      34.319  33.400  30.566  1.00  0.00     0.059 A 
ATOM     78  C   UNL A   1      35.904  34.581  29.154  1.00  0.00     0.059 A 
ATOM     79  F   UNL A   1      38.203  34.192  29.412  1.00  0.00    -0.206 F 
ATOM     80  C   UNL A   1      34.593  34.309  29.543  1.00  0.00     0.060 A 
BRANCH  80  81
ATOM     81  S   UNL A   1      33.216  35.182  28.764  1.00  0.00     0.124 S 
ATOM     82  O   UNL A   1      32.656  34.141  27.908  1.00  0.00    -0.237 OA
ATOM     83  O   UNL A   1      32.406  35.568  29.914  1.00  0.00    -0.237 OA
ATOM     84  O   UNL A   1      33.872  36.286  28.069  1.00  0.00    -0.744 OA
ENDBRANCH  80  81
ENDBRANCH  48  73
BRANCH  60  85
ATOM     85  C   UNL A   1      39.910  34.113  36.928  1.00  0.00     0.058 A 
ATOM     86  C   UNL A   1      40.503  35.382  36.835  1.00  0.00     0.135 A 
ATOM     87  C   UNL A   1      39.112  33.842  38.052  1.00  0.00     0.135 A 
ATOM     88  F   UNL A   1      41.277  35.689  35.782  1.00  0.00    -0.206 F 
ATOM     89  C   UNL A   1      40.343  36.334  37.835  1.00  0.00     0.059 A 
ATOM     90  C   UNL A   1      38.919  34.789  39.054  1.00  0.00     0.059 A 
ATOM     91  F   UNL A   1      38.511  32.650  38.184  1.00  0.00    -0.206 F 
ATOM     92  C   UNL A   1      39.555  36.025  38.946  1.00  0.00     0.060 A 
BRANCH  92  93
ATOM     93  S   UNL A   1      39.354  37.265  40.243  1.00  0.00     0.124 S 
ATOM     94  O   UNL A   1      38.642  36.505  41.266  1.00  0.00    -0.237 OA
ATOM     95  O   UNL A   1      40.733  37.619  40.561  1.00  0.00    -0.237 OA
ATOM     96  O   UNL A   1      38.580  38.316  39.587  1.00  0.00    -0.744 OA
ENDBRANCH  92  93
ENDBRANCH  60  85
ENDBRANCH  34  35
ENDBRANCH  27  29
ENDBRANCH  26  27
ENDBRANCH  25  26
ENDBRANCH   1  25
TORSDOF 19
ENDMDL
MODEL 3
REMARK VINA RESULT:     -11.0      6.508     12.080
REMARK SMILES C[C@]12CCC(=O)N1[C@H](C(=O)N1CCC[C@@H]1C(=O)OCCOCCOC(=O)c1ccc(-c3c4nc(c(-c5c(F)cc(S(=O)(=O)[O-])cc5F)c5ccc([nH]5)c(-c5c(F)cc(S(=O)(=O)[O-])cc5F)c5nc(c(-c6c(F)cc(S(=O)(=O)[O-])cc6F)c6ccc3[nH]6)C=C5)C=C4)cc1)CS2
REMARK SMILES IDX 22 1 21 2 20 3 19 4 18 5 16 6 17 7 15 8 11 9 12 10 13 11
REMARK SMILES IDX 14 12 9 13 10 14 8 15 1 16 2 17 3 18 7 19 94 20 4 21 5 22
REMARK SMILES IDX 93 23 6 24 23 25 24 26 25 27 26 28 27 29 28 30 92 31 29 32
REMARK SMILES IDX 91 33 30 34 31 35 32 36 85 37 33 38 90 39 84 40 86 41 34 42
REMARK SMILES IDX 89 43 83 44 82 45 35 47 69 48 48 49 68 50 49 51 52 52 67 53
REMARK SMILES IDX 87 54 50 55 51 56 66 58 88 59 53 60 36 61 37 62 46 63 38 64
REMARK SMILES IDX 39 65 45 66 47 67 40 68 41 69 42 70 43 71 44 72 70 73 71 74
REMARK SMILES IDX 80 75 72 76 73 77 79 78 81 79 74 80 75 81 76 82 77 83 78 84
REMARK SMILES IDX 54 85 55 86 64 87 56 88 57 89 63 90 65 91 58 92 59 93 60 94
REMARK SMILES IDX 61 95 62 96
REMARK H PARENT 86 46 52 57
REMARK Flexibility Score: inf
ROOT
ATOM      1  C   UNL A   1      34.797  32.797  28.444  1.00  0.00     0.202 C 
ENDROOT
BRANCH   1   2
ATOM      2  O   UNL A   1      33.843  31.769  28.166  1.00  0.00    -0.374 OA
BRANCH   2   3
ATOM      3  C   UNL A   1      34.201  30.747  27.239  1.00  0.00     0.202 C 
BRANCH   3   4
ATOM      4  C   UNL A   1      33.291  29.516  27.180  1.00  0.00     0.261 C 
BRANCH   4   5
ATOM      5  O   UNL A   1      33.782  28.544  26.246  1.00  0.00    -0.462 OA
BRANCH   5   6
ATOM      6  C   UNL A   1      33.118  28.501  25.057  1.00  0.00     0.328 C 
ATOM      7  O   UNL A   1      33.636  28.219  23.981  1.00  0.00    -0.250 OA
BRANCH   6   8
ATOM      8  C   UNL A   1      31.595  28.637  25.266  1.00  0.00     0.195 C 
ATOM      9  N   UNL A   1      30.956  27.323  25.164  1.00  0.00    -0.327 N 
ATOM     10  C   UNL A   1      30.216  27.181  23.926  1.00  0.00     0.120 C 
ATOM     11  C   UNL A   1      30.569  28.414  23.113  1.00  0.00     0.024 C 
ATOM     12  C   UNL A   1      30.900  29.456  24.177  1.00  0.00     0.039 C 
BRANCH   9  13
ATOM     13  C   UNL A   1      31.031  26.291  26.078  1.00  0.00     0.247 C 
ATOM     14  O   UNL A   1      31.432  26.502  27.225  1.00  0.00    -0.272 OA
BRANCH  13  15
ATOM     15  C   UNL A   1      30.720  24.860  25.579  1.00  0.00     0.186 C 
ATOM     16  C   UNL A   1      34.001  24.964  25.536  1.00  0.00     0.047 C 
ATOM     17  C   UNL A   1      32.958  23.871  25.307  1.00  0.00     0.087 C 
ATOM     18  C   UNL A   1      33.512  22.816  24.348  1.00  0.00     0.049 C 
ATOM     19  N   UNL A   1      31.751  24.342  24.671  1.00  0.00    -0.315 N 
ATOM     20  S   UNL A   1      32.373  23.170  26.894  1.00  0.00    -0.131 SA
ATOM     21  C   UNL A   1      32.319  22.363  23.527  1.00  0.00     0.103 C 
ATOM     22  C   UNL A   1      31.369  23.529  23.609  1.00  0.00     0.224 C 
ATOM     23  C   UNL A   1      30.674  23.854  26.735  1.00  0.00     0.107 C 
ATOM     24  O   UNL A   1      30.353  23.655  22.944  1.00  0.00    -0.275 OA
ENDBRANCH  13  15
ENDBRANCH   9  13
ENDBRANCH   6   8
ENDBRANCH   5   6
ENDBRANCH   4   5
ENDBRANCH   3   4
ENDBRANCH   2   3
ENDBRANCH   1   2
BRANCH   1  25
ATOM     25  C   UNL A   1      35.449  32.800  29.833  1.00  0.00     0.261 C 
BRANCH  25  26
ATOM     26  O   UNL A   1      35.941  31.502  30.218  1.00  0.00    -0.460 OA
BRANCH  26  27
ATOM     27  C   UNL A   1      37.048  31.537  31.001  1.00  0.00     0.338 C 
ATOM     28  O   UNL A   1      37.152  32.043  32.106  1.00  0.00    -0.246 OA
BRANCH  27  29
ATOM     29  C   UNL A   1      38.116  30.700  30.423  1.00  0.00     0.060 A 
ATOM     30  C   UNL A   1      39.122  30.252  31.288  1.00  0.00     0.016 A 
ATOM     31  C   UNL A   1      38.202  30.467  29.050  1.00  0.00     0.016 A 
ATOM     32  C   UNL A   1      40.247  29.613  30.776  1.00  0.00     0.010 A 
ATOM     33  C   UNL A   1      39.342  29.836  28.534  1.00  0.00     0.010 A 
ATOM     34  C   UNL A   1      40.386  29.445  29.392  1.00  0.00    -0.014 A 
BRANCH  34  35
ATOM     35  C   UNL A   1      41.703  29.018  28.858  1.00  0.00     0.031 A 
ATOM     36  C   UNL A   1      42.828  30.017  28.808  1.00  0.00     0.074 A 
ATOM     37  C   UNL A   1      41.915  27.742  28.494  1.00  0.00     0.049 A 
ATOM     38  N   UNL A   1      44.077  29.843  28.463  1.00  0.00    -0.248 NA
ATOM     39  C   UNL A   1      42.498  31.396  29.203  1.00  0.00     0.031 C 
ATOM     40  C   UNL A   1      40.912  26.679  28.515  1.00  0.00     0.029 A 
ATOM     41  N   UNL A   1      43.053  27.123  28.040  1.00  0.00    -0.354 N 
ATOM     42  C   UNL A   1      44.685  31.086  28.603  1.00  0.00     0.074 A 
ATOM     43  C   UNL A   1      43.659  32.012  29.032  1.00  0.00     0.031 C 
ATOM     44  C   UNL A   1      41.479  25.537  28.088  1.00  0.00     0.029 A 
ATOM     45  C   UNL A   1      42.880  25.791  27.757  1.00  0.00     0.049 A 
ATOM     46  H   UNL A   1      43.912  27.591  27.927  1.00  0.00     0.167 HD
ATOM     47  C   UNL A   1      45.981  31.424  28.403  1.00  0.00     0.037 A 
ATOM     48  C   UNL A   1      43.753  24.880  27.286  1.00  0.00     0.037 A 
ATOM     49  C   UNL A   1      47.000  30.503  27.971  1.00  0.00     0.049 A 
ATOM     50  C   UNL A   1      45.185  25.281  27.048  1.00  0.00     0.074 A 
ATOM     51  C   UNL A   1      48.347  30.743  27.757  1.00  0.00     0.029 A 
ATOM     52  N   UNL A   1      46.782  29.165  27.677  1.00  0.00    -0.354 N 
ATOM     53  N   UNL A   1      45.754  26.451  27.222  1.00  0.00    -0.248 NA
ATOM     54  C   UNL A   1      46.096  24.235  26.565  1.00  0.00     0.031 C 
ATOM     55  C   UNL A   1      48.935  29.557  27.299  1.00  0.00     0.029 A 
ATOM     56  C   UNL A   1      47.964  28.570  27.267  1.00  0.00     0.049 A 
ATOM     57  H   UNL A   1      45.915  28.705  27.751  1.00  0.00     0.167 HD
ATOM     58  C   UNL A   1      47.093  26.277  26.889  1.00  0.00     0.074 A 
ATOM     59  C   UNL A   1      47.251  24.885  26.517  1.00  0.00     0.031 C 
ATOM     60  C   UNL A   1      48.101  27.184  26.893  1.00  0.00     0.037 A 
BRANCH  47  61
ATOM     61  C   UNL A   1      46.358  32.861  28.630  1.00  0.00     0.058 A 
ATOM     62  C   UNL A   1      46.788  33.321  29.886  1.00  0.00     0.135 A 
ATOM     63  C   UNL A   1      46.286  33.790  27.581  1.00  0.00     0.135 A 
ATOM     64  F   UNL A   1      46.856  32.477  30.927  1.00  0.00    -0.206 F 
ATOM     65  C   UNL A   1      47.099  34.660  30.101  1.00  0.00     0.059 A 
ATOM     66  C   UNL A   1      46.614  35.129  27.768  1.00  0.00     0.059 A 
ATOM     67  F   UNL A   1      45.879  33.403  26.362  1.00  0.00    -0.206 F 
ATOM     68  C   UNL A   1      47.001  35.558  29.038  1.00  0.00     0.060 A 
BRANCH  68  69
ATOM     69  S   UNL A   1      47.385  37.297  29.333  1.00  0.00     0.124 S 
ATOM     70  O   UNL A   1      48.635  37.447  28.593  1.00  0.00    -0.237 OA
ATOM     71  O   UNL A   1      46.226  37.978  28.764  1.00  0.00    -0.237 OA
ATOM     72  O   UNL A   1      47.502  37.377  30.786  1.00  0.00    -0.744 OA
ENDBRANCH  68  69
ENDBRANCH  47  61
BRANCH  48  73
ATOM     73  C   UNL A   1      43.297  23.492  27.020  1.00  0.00     0.058 A 
ATOM     74  C   UNL A   1      43.037  23.049  25.715  1.00  0.00     0.135 A 
ATOM     75  C   UNL A   1      43.132  22.575  28.069  1.00  0.00     0.135 A 
ATOM     76  F   UNL A   1      43.171  23.892  24.681  1.00  0.00    -0.206 F 
ATOM     77  C   UNL A   1      42.623  21.745  25.458  1.00  0.00     0.059 A 
ATOM     78  C   UNL A   1      42.738  21.261  27.836  1.00  0.00     0.059 A 
ATOM     79  F   UNL A   1      43.379  22.949  29.335  1.00  0.00    -0.206 F 
ATOM     80  C   UNL A   1      42.480  20.858  26.527  1.00  0.00     0.060 A 
BRANCH  80  81
ATOM     81  S   UNL A   1      42.011  19.148  26.180  1.00  0.00     0.124 S 
ATOM     82  O   UNL A   1      42.341  18.492  27.440  1.00  0.00    -0.237 OA
ATOM     83  O   UNL A   1      40.589  19.274  25.878  1.00  0.00    -0.237 OA
ATOM     84  O   UNL A   1      42.856  18.795  25.043  1.00  0.00    -0.744 OA
ENDBRANCH  80  81
ENDBRANCH  48  73
BRANCH  60  85
ATOM     85  C   UNL A   1      49.467  26.692  26.501  1.00  0.00     0.058 A 
ATOM     86  C   UNL A   1      50.341  26.119  27.440  1.00  0.00     0.135 A 
ATOM     87  C   UNL A   1      49.901  26.779  25.168  1.00  0.00     0.135 A 
ATOM     88  F   UNL A   1      49.974  26.016  28.727  1.00  0.00    -0.206 F 
ATOM     89  C   UNL A   1      51.611  25.685  27.079  1.00  0.00     0.059 A 
ATOM     90  C   UNL A   1      51.160  26.328  24.780  1.00  0.00     0.059 A 
ATOM     91  F   UNL A   1      49.100  27.304  24.229  1.00  0.00    -0.206 F 
ATOM     92  C   UNL A   1      52.015  25.801  25.747  1.00  0.00     0.060 A 
BRANCH  92  93
ATOM     93  S   UNL A   1      53.667  25.238  25.285  1.00  0.00     0.124 S 
ATOM     94  O   UNL A   1      53.525  23.790  25.399  1.00  0.00    -0.237 OA
ATOM     95  O   UNL A   1      53.812  25.756  23.929  1.00  0.00    -0.237 OA
ATOM     96  O   UNL A   1      54.529  25.866  26.284  1.00  0.00    -0.744 OA
ENDBRANCH  92  93
ENDBRANCH  60  85
ENDBRANCH  34  35
ENDBRANCH  27  29
ENDBRANCH  26  27
ENDBRANCH  25  26
ENDBRANCH   1  25
TORSDOF 19
ENDMDL
