MODEL 1
REMARK VINA RESULT:     -12.3      0.000      0.000
REMARK SMILES CC1(C)[C@@]2(C(=O)OCCOCCOC(=O)c3ccc(-c4c5nc(c(-c6c(F)cc(S(=O)(=O)[O-])cc6F)c6ccc([nH]6)c(-c6c(F)cc(S(=O)(=O)[O-])cc6F)c6nc(c(-c7c(F)cc(S(=O)(=O)[O-])cc7F)c7ccc4[nH]7)C=C6)C=C5)cc3)CC[C@]1(C)/C(=N/NC(=O)c1ccc(Cl)cc1)C2
REMARK SMILES IDX 11 1 10 2 9 3 8 4 7 5 5 6 6 7 4 8 1 9 2 10 3 11 84 12 82 13
REMARK SMILES IDX 98 14 83 15 85 16 86 17 87 18 88 19 89 20 90 22 91 23 92 24
REMARK SMILES IDX 97 25 93 26 96 27 94 28 95 29 12 30 13 31 14 32 15 33 16 34
REMARK SMILES IDX 17 35 81 36 18 37 80 38 19 39 20 40 21 41 74 42 22 43 79 44
REMARK SMILES IDX 73 45 75 46 23 47 78 48 72 49 71 50 24 52 58 53 37 54 57 55
REMARK SMILES IDX 38 56 41 57 56 58 76 59 39 60 40 61 55 63 77 64 42 65 25 66
REMARK SMILES IDX 26 67 35 68 27 69 28 70 34 71 36 72 29 73 30 74 31 75 32 76
REMARK SMILES IDX 33 77 59 78 60 79 69 80 61 81 62 82 68 83 70 84 63 85 64 86
REMARK SMILES IDX 65 87 66 88 67 89 43 90 44 91 53 92 45 93 46 94 52 95 54 96
REMARK SMILES IDX 47 97 48 98 49 99 50 100 51 101
REMARK H PARENT 88 21 75 51 41 62
REMARK Flexibility Score: inf
ROOT
ATOM      1  C   UNL A   1      36.043  33.411  28.533  1.00  0.00     0.202 C 
ENDROOT
BRANCH   1   2
ATOM      2  O   UNL A   1      34.780  33.576  27.895  1.00  0.00    -0.374 OA
BRANCH   2   3
ATOM      3  C   UNL A   1      33.862  32.488  28.054  1.00  0.00     0.202 C 
BRANCH   3   4
ATOM      4  C   UNL A   1      34.380  31.114  27.615  1.00  0.00     0.261 C 
BRANCH   4   5
ATOM      5  O   UNL A   1      33.409  30.411  26.816  1.00  0.00    -0.463 OA
BRANCH   5   6
ATOM      6  C   UNL A   1      33.676  29.098  26.569  1.00  0.00     0.313 C 
ATOM      7  O   UNL A   1      34.679  28.505  26.937  1.00  0.00    -0.252 OA
BRANCH   6   8
ATOM      8  C   UNL A   1      32.563  28.465  25.754  1.00  0.00     0.079 C 
ATOM      9  C   UNL A   1      33.619  28.917  23.423  1.00  0.00     0.013 C 
ATOM     10  C   UNL A   1      32.957  27.889  24.367  1.00  0.00    -0.008 C 
ATOM     11  C   UNL A   1      33.891  26.658  24.418  1.00  0.00     0.013 C 
ATOM     12  C   UNL A   1      31.469  27.548  24.020  1.00  0.00     0.014 C 
ATOM     13  C   UNL A   1      31.458  29.512  25.407  1.00  0.00     0.021 C 
ATOM     14  C   UNL A   1      31.867  27.259  26.433  1.00  0.00     0.073 C 
ATOM     15  C   UNL A   1      30.745  28.897  24.184  1.00  0.00     0.014 C 
ATOM     16  C   UNL A   1      31.230  26.830  22.710  1.00  0.00     0.018 C 
ATOM     17  C   UNL A   1      31.043  26.764  25.280  1.00  0.00     0.046 C 
ATOM     18  N   UNL A   1      30.145  25.833  25.206  1.00  0.00    -0.181 NA
BRANCH  18  19
ATOM     19  N   UNL A   1      29.760  25.000  26.210  1.00  0.00    -0.243 N 
ATOM     20  C   UNL A   1      30.189  23.789  26.709  1.00  0.00     0.271 C 
ATOM     21  H   UNL A   1      28.981  25.348  26.702  1.00  0.00     0.194 HD
ATOM     22  O   UNL A   1      29.545  23.234  27.602  1.00  0.00    -0.267 OA
BRANCH  20  23
ATOM     23  C   UNL A   1      31.401  23.120  26.226  1.00  0.00     0.041 A 
ATOM     24  C   UNL A   1      32.454  22.952  27.137  1.00  0.00     0.015 A 
ATOM     25  C   UNL A   1      31.485  22.592  24.933  1.00  0.00     0.015 A 
ATOM     26  C   UNL A   1      33.535  22.139  26.796  1.00  0.00     0.021 A 
ATOM     27  C   UNL A   1      32.590  21.808  24.588  1.00  0.00     0.021 A 
ATOM     28  C   UNL A   1      33.589  21.554  25.532  1.00  0.00     0.041 A 
ATOM     29  Cl  UNL A   1      34.854  20.447  25.169  1.00  0.00    -0.084 Cl
ENDBRANCH  20  23
ENDBRANCH  18  19
ENDBRANCH   6   8
ENDBRANCH   5   6
ENDBRANCH   4   5
ENDBRANCH   3   4
ENDBRANCH   2   3
ENDBRANCH   1   2
BRANCH   1  30
ATOM     30  C   UNL A   1      36.041  33.441  30.063  1.00  0.00     0.261 C 
BRANCH  30  31
ATOM     31  O   UNL A   1      37.170  32.730  30.604  1.00  0.00    -0.460 OA
BRANCH  31  32
ATOM     32  C   UNL A   1      36.965  31.396  30.741  1.00  0.00     0.338 C 
ATOM     33  O   UNL A   1      35.964  30.851  31.166  1.00  0.00    -0.246 OA
BRANCH  32  34
ATOM     34  C   UNL A   1      38.078  30.646  30.122  1.00  0.00     0.060 A 
ATOM     35  C   UNL A   1      39.125  30.267  30.968  1.00  0.00     0.016 A 
ATOM     36  C   UNL A   1      38.133  30.359  28.756  1.00  0.00     0.016 A 
ATOM     37  C   UNL A   1      40.264  29.669  30.438  1.00  0.00     0.010 A 
ATOM     38  C   UNL A   1      39.269  29.727  28.230  1.00  0.00     0.010 A 
ATOM     39  C   UNL A   1      40.366  29.433  29.059  1.00  0.00    -0.014 A 
BRANCH  39  40
ATOM     40  C   UNL A   1      41.686  29.029  28.507  1.00  0.00     0.031 A 
ATOM     41  C   UNL A   1      42.818  30.025  28.491  1.00  0.00     0.074 A 
ATOM     42  C   UNL A   1      41.912  27.756  28.135  1.00  0.00     0.049 A 
ATOM     43  N   UNL A   1      44.082  29.843  28.201  1.00  0.00    -0.248 NA
ATOM     44  C   UNL A   1      42.483  31.412  28.851  1.00  0.00     0.031 C 
ATOM     45  C   UNL A   1      40.909  26.692  28.118  1.00  0.00     0.029 A 
ATOM     46  N   UNL A   1      43.066  27.135  27.726  1.00  0.00    -0.354 N 
ATOM     47  C   UNL A   1      44.690  31.084  28.350  1.00  0.00     0.074 A 
ATOM     48  C   UNL A   1      43.648  32.023  28.701  1.00  0.00     0.031 C 
ATOM     49  C   UNL A   1      41.498  25.541  27.750  1.00  0.00     0.029 A 
ATOM     50  C   UNL A   1      42.914  25.791  27.483  1.00  0.00     0.049 A 
ATOM     51  H   UNL A   1      43.923  27.608  27.619  1.00  0.00     0.167 HD
ATOM     52  C   UNL A   1      46.000  31.412  28.227  1.00  0.00     0.037 A 
ATOM     53  C   UNL A   1      43.813  24.863  27.094  1.00  0.00     0.037 A 
ATOM     54  C   UNL A   1      47.037  30.479  27.869  1.00  0.00     0.049 A 
ATOM     55  C   UNL A   1      45.254  25.261  26.912  1.00  0.00     0.074 A 
ATOM     56  C   UNL A   1      48.396  30.708  27.740  1.00  0.00     0.029 A 
ATOM     57  N   UNL A   1      46.830  29.140  27.566  1.00  0.00    -0.354 N 
ATOM     58  N   UNL A   1      45.822  26.429  27.101  1.00  0.00    -0.248 NA
ATOM     59  C   UNL A   1      46.179  24.207  26.472  1.00  0.00     0.031 C 
ATOM     60  C   UNL A   1      49.001  29.525  27.299  1.00  0.00     0.029 A 
ATOM     61  C   UNL A   1      48.031  28.539  27.217  1.00  0.00     0.049 A 
ATOM     62  H   UNL A   1      45.959  28.683  27.595  1.00  0.00     0.167 HD
ATOM     63  C   UNL A   1      47.174  26.245  26.823  1.00  0.00     0.074 A 
ATOM     64  C   UNL A   1      47.340  24.848  26.478  1.00  0.00     0.031 C 
ATOM     65  C   UNL A   1      48.186  27.151  26.852  1.00  0.00     0.037 A 
BRANCH  52  66
ATOM     66  C   UNL A   1      46.376  32.854  28.455  1.00  0.00     0.058 A 
ATOM     67  C   UNL A   1      46.744  33.337  29.722  1.00  0.00     0.135 A 
ATOM     68  C   UNL A   1      46.370  33.768  27.388  1.00  0.00     0.135 A 
ATOM     69  F   UNL A   1      46.753  32.514  30.783  1.00  0.00    -0.206 F 
ATOM     70  C   UNL A   1      47.047  34.679  29.932  1.00  0.00     0.059 A 
ATOM     71  C   UNL A   1      46.703  35.108  27.567  1.00  0.00     0.059 A 
ATOM     72  F   UNL A   1      46.029  33.364  26.153  1.00  0.00    -0.206 F 
ATOM     73  C   UNL A   1      47.020  35.558  28.848  1.00  0.00     0.060 A 
BRANCH  73  74
ATOM     74  S   UNL A   1      47.393  37.300  29.140  1.00  0.00     0.124 S 
ATOM     75  O   UNL A   1      47.270  37.385  30.592  1.00  0.00    -0.237 OA
ATOM     76  O   UNL A   1      48.748  37.421  28.612  1.00  0.00    -0.237 OA
ATOM     77  O   UNL A   1      46.362  38.002  28.381  1.00  0.00    -0.744 OA
ENDBRANCH  73  74
ENDBRANCH  52  66
BRANCH  53  78
ATOM     78  C   UNL A   1      43.373  23.459  26.873  1.00  0.00     0.058 A 
ATOM     79  C   UNL A   1      43.249  22.931  25.579  1.00  0.00     0.135 A 
ATOM     80  C   UNL A   1      43.091  22.611  27.955  1.00  0.00     0.135 A 
ATOM     81  F   UNL A   1      43.493  23.704  24.511  1.00  0.00    -0.206 F 
ATOM     82  C   UNL A   1      42.860  21.612  25.365  1.00  0.00     0.059 A 
ATOM     83  C   UNL A   1      42.727  21.281  27.768  1.00  0.00     0.059 A 
ATOM     84  F   UNL A   1      43.200  23.067  29.212  1.00  0.00    -0.206 F 
ATOM     85  C   UNL A   1      42.612  20.791  26.468  1.00  0.00     0.060 A 
BRANCH  85  86
ATOM     86  S   UNL A   1      42.189  19.059  26.180  1.00  0.00     0.124 S 
ATOM     87  O   UNL A   1      42.493  18.461  27.473  1.00  0.00    -0.237 OA
ATOM     88  O   UNL A   1      40.773  19.147  25.833  1.00  0.00    -0.237 OA
ATOM     89  O   UNL A   1      43.072  18.676  25.082  1.00  0.00    -0.744 OA
ENDBRANCH  85  86
ENDBRANCH  53  78
BRANCH  65  90
ATOM     90  C   UNL A   1      49.566  26.651  26.512  1.00  0.00     0.058 A 
ATOM     91  C   UNL A   1      50.074  26.703  25.203  1.00  0.00     0.135 A 
ATOM     92  C   UNL A   1      50.398  26.114  27.510  1.00  0.00     0.135 A 
ATOM     93  F   UNL A   1      49.324  27.205  24.208  1.00  0.00    -0.206 F 
ATOM     94  C   UNL A   1      51.329  26.193  24.886  1.00  0.00     0.059 A 
ATOM     95  C   UNL A   1      51.672  25.632  27.222  1.00  0.00     0.059 A 
ATOM     96  F   UNL A   1      49.976  26.054  28.783  1.00  0.00    -0.206 F 
ATOM     97  C   UNL A   1      52.119  25.653  25.902  1.00  0.00     0.060 A 
BRANCH  97  98
ATOM     98  S   UNL A   1      53.737  24.977  25.475  1.00  0.00     0.124 S 
ATOM     99  O   UNL A   1      54.520  25.321  26.657  1.00  0.00    -0.237 OA
ATOM    100  O   UNL A   1      53.447  23.557  25.297  1.00  0.00    -0.237 OA
ATOM    101  O   UNL A   1      54.095  25.695  24.254  1.00  0.00    -0.744 OA
ENDBRANCH  97  98
ENDBRANCH  65  90
ENDBRANCH  39  40
ENDBRANCH  32  34
ENDBRANCH  31  32
ENDBRANCH  30  31
ENDBRANCH   1  30
TORSDOF 19
ENDMDL
MODEL 2
REMARK VINA RESULT:     -12.1      6.118     11.981
REMARK SMILES CC1(C)[C@@]2(C(=O)OCCOCCOC(=O)c3ccc(-c4c5nc(c(-c6c(F)cc(S(=O)(=O)[O-])cc6F)c6ccc([nH]6)c(-c6c(F)cc(S(=O)(=O)[O-])cc6F)c6nc(c(-c7c(F)cc(S(=O)(=O)[O-])cc7F)c7ccc4[nH]7)C=C6)C=C5)cc3)CC[C@]1(C)/C(=N/NC(=O)c1ccc(Cl)cc1)C2
REMARK SMILES IDX 11 1 10 2 9 3 8 4 7 5 5 6 6 7 4 8 1 9 2 10 3 11 84 12 82 13
REMARK SMILES IDX 98 14 83 15 85 16 86 17 87 18 88 19 89 20 90 22 91 23 92 24
REMARK SMILES IDX 97 25 93 26 96 27 94 28 95 29 12 30 13 31 14 32 15 33 16 34
REMARK SMILES IDX 17 35 81 36 18 37 80 38 19 39 20 40 21 41 74 42 22 43 79 44
REMARK SMILES IDX 73 45 75 46 23 47 78 48 72 49 71 50 24 52 58 53 37 54 57 55
REMARK SMILES IDX 38 56 41 57 56 58 76 59 39 60 40 61 55 63 77 64 42 65 25 66
REMARK SMILES IDX 26 67 35 68 27 69 28 70 34 71 36 72 29 73 30 74 31 75 32 76
REMARK SMILES IDX 33 77 59 78 60 79 69 80 61 81 62 82 68 83 70 84 63 85 64 86
REMARK SMILES IDX 65 87 66 88 67 89 43 90 44 91 53 92 45 93 46 94 52 95 54 96
REMARK SMILES IDX 47 97 48 98 49 99 50 100 51 101
REMARK H PARENT 88 21 75 51 41 62
REMARK Flexibility Score: inf
ROOT
ATOM      1  C   UNL A   1      41.927  21.884  26.687  1.00  0.00     0.202 C 
ENDROOT
BRANCH   1   2
ATOM      2  O   UNL A   1      40.635  22.384  26.352  1.00  0.00    -0.374 OA
BRANCH   2   3
ATOM      3  C   UNL A   1      39.547  21.482  26.578  1.00  0.00     0.202 C 
BRANCH   3   4
ATOM      4  C   UNL A   1      38.632  21.231  25.373  1.00  0.00     0.261 C 
BRANCH   4   5
ATOM      5  O   UNL A   1      37.246  21.439  25.706  1.00  0.00    -0.463 OA
BRANCH   5   6
ATOM      6  C   UNL A   1      36.711  22.629  25.317  1.00  0.00     0.313 C 
ATOM      7  O   UNL A   1      37.291  23.705  25.352  1.00  0.00    -0.252 OA
BRANCH   6   8
ATOM      8  C   UNL A   1      35.281  22.448  24.843  1.00  0.00     0.079 C 
ATOM      9  C   UNL A   1      34.219  22.239  27.206  1.00  0.00     0.013 C 
ATOM     10  C   UNL A   1      34.161  22.910  25.816  1.00  0.00    -0.008 C 
ATOM     11  C   UNL A   1      34.100  24.436  26.055  1.00  0.00     0.013 C 
ATOM     12  C   UNL A   1      33.036  22.365  24.874  1.00  0.00     0.014 C 
ATOM     13  C   UNL A   1      34.954  20.939  24.611  1.00  0.00     0.021 C 
ATOM     14  C   UNL A   1      34.927  23.208  23.540  1.00  0.00     0.073 C 
ATOM     15  C   UNL A   1      33.413  20.885  24.685  1.00  0.00     0.014 C 
ATOM     16  C   UNL A   1      31.610  22.630  25.305  1.00  0.00     0.018 C 
ATOM     17  C   UNL A   1      33.440  23.007  23.528  1.00  0.00     0.046 C 
ATOM     18  N   UNL A   1      32.541  23.308  22.645  1.00  0.00    -0.181 NA
BRANCH  18  19
ATOM     19  N   UNL A   1      32.748  23.969  21.475  1.00  0.00    -0.243 N 
ATOM     20  C   UNL A   1      32.755  25.288  21.072  1.00  0.00     0.271 C 
ATOM     21  H   UNL A   1      32.941  23.354  20.731  1.00  0.00     0.194 HD
ATOM     22  O   UNL A   1      32.892  25.560  19.878  1.00  0.00    -0.267 OA
BRANCH  20  23
ATOM     23  C   UNL A   1      32.612  26.402  22.014  1.00  0.00     0.041 A 
ATOM     24  C   UNL A   1      31.387  27.085  22.027  1.00  0.00     0.015 A 
ATOM     25  C   UNL A   1      33.621  26.729  22.926  1.00  0.00     0.015 A 
ATOM     26  C   UNL A   1      31.124  28.005  23.043  1.00  0.00     0.021 A 
ATOM     27  C   UNL A   1      33.361  27.679  23.919  1.00  0.00     0.021 A 
ATOM     28  C   UNL A   1      32.102  28.282  23.996  1.00  0.00     0.041 A 
ATOM     29  Cl  UNL A   1      31.722  29.313  25.319  1.00  0.00    -0.084 Cl
ENDBRANCH  20  23
ENDBRANCH  18  19
ENDBRANCH   6   8
ENDBRANCH   5   6
ENDBRANCH   4   5
ENDBRANCH   3   4
ENDBRANCH   2   3
ENDBRANCH   1   2
BRANCH   1  30
ATOM     30  C   UNL A   1      43.122  22.698  26.187  1.00  0.00     0.261 C 
BRANCH  30  31
ATOM     31  O   UNL A   1      43.296  23.902  26.955  1.00  0.00    -0.460 OA
BRANCH  31  32
ATOM     32  C   UNL A   1      42.853  25.022  26.330  1.00  0.00     0.338 C 
ATOM     33  O   UNL A   1      42.844  25.234  25.134  1.00  0.00    -0.246 OA
BRANCH  32  34
ATOM     34  C   UNL A   1      42.191  25.916  27.303  1.00  0.00     0.060 A 
ATOM     35  C   UNL A   1      42.743  27.191  27.460  1.00  0.00     0.016 A 
ATOM     36  C   UNL A   1      41.096  25.519  28.077  1.00  0.00     0.016 A 
ATOM     37  C   UNL A   1      42.253  28.043  28.444  1.00  0.00     0.010 A 
ATOM     38  C   UNL A   1      40.585  26.394  29.047  1.00  0.00     0.010 A 
ATOM     39  C   UNL A   1      41.199  27.638  29.276  1.00  0.00    -0.014 A 
BRANCH  39  40
ATOM     40  C   UNL A   1      40.877  28.469  30.465  1.00  0.00     0.031 A 
ATOM     41  C   UNL A   1      41.750  28.375  31.692  1.00  0.00     0.074 A 
ATOM     42  C   UNL A   1      39.893  29.386  30.414  1.00  0.00     0.049 A 
ATOM     43  N   UNL A   1      41.744  29.113  32.774  1.00  0.00    -0.248 NA
ATOM     44  C   UNL A   1      42.764  27.310  31.702  1.00  0.00     0.031 C 
ATOM     45  C   UNL A   1      38.989  29.589  29.283  1.00  0.00     0.029 A 
ATOM     46  N   UNL A   1      39.509  30.337  31.326  1.00  0.00    -0.354 N 
ATOM     47  C   UNL A   1      42.753  28.607  33.585  1.00  0.00     0.074 A 
ATOM     48  C   UNL A   1      43.313  27.465  32.896  1.00  0.00     0.031 C 
ATOM     49  C   UNL A   1      38.175  30.623  29.555  1.00  0.00     0.029 A 
ATOM     50  C   UNL A   1      38.483  31.140  30.887  1.00  0.00     0.049 A 
ATOM     51  H   UNL A   1      39.929  30.435  32.212  1.00  0.00     0.167 HD
ATOM     52  C   UNL A   1      43.192  29.061  34.785  1.00  0.00     0.037 A 
ATOM     53  C   UNL A   1      37.865  32.178  31.488  1.00  0.00     0.037 A 
ATOM     54  C   UNL A   1      42.629  30.194  35.475  1.00  0.00     0.049 A 
ATOM     55  C   UNL A   1      38.333  32.634  32.845  1.00  0.00     0.074 A 
ATOM     56  C   UNL A   1      43.016  30.746  36.684  1.00  0.00     0.029 A 
ATOM     57  N   UNL A   1      41.547  30.940  35.027  1.00  0.00    -0.354 N 
ATOM     58  N   UNL A   1      39.319  32.173  33.579  1.00  0.00    -0.248 NA
ATOM     59  C   UNL A   1      37.608  33.759  33.449  1.00  0.00     0.031 C 
ATOM     60  C   UNL A   1      42.131  31.784  36.996  1.00  0.00     0.029 A 
ATOM     61  C   UNL A   1      41.231  31.925  35.951  1.00  0.00     0.049 A 
ATOM     62  H   UNL A   1      41.073  30.792  34.177  1.00  0.00     0.167 HD
ATOM     63  C   UNL A   1      39.345  32.966  34.723  1.00  0.00     0.074 A 
ATOM     64  C   UNL A   1      38.293  33.950  34.569  1.00  0.00     0.031 C 
ATOM     65  C   UNL A   1      40.167  32.888  35.802  1.00  0.00     0.037 A 
BRANCH  52  66
ATOM     66  C   UNL A   1      44.321  28.307  35.440  1.00  0.00     0.058 A 
ATOM     67  C   UNL A   1      45.668  28.611  35.181  1.00  0.00     0.135 A 
ATOM     68  C   UNL A   1      44.051  27.264  36.342  1.00  0.00     0.135 A 
ATOM     69  F   UNL A   1      45.988  29.587  34.316  1.00  0.00    -0.206 F 
ATOM     70  C   UNL A   1      46.704  27.881  35.757  1.00  0.00     0.059 A 
ATOM     71  C   UNL A   1      45.071  26.543  36.956  1.00  0.00     0.059 A 
ATOM     72  F   UNL A   1      42.783  26.930  36.630  1.00  0.00    -0.206 F 
ATOM     73  C   UNL A   1      46.394  26.845  36.640  1.00  0.00     0.060 A 
BRANCH  73  74
ATOM     74  S   UNL A   1      47.748  25.892  37.361  1.00  0.00     0.124 S 
ATOM     75  O   UNL A   1      48.511  25.524  36.171  1.00  0.00    -0.237 OA
ATOM     76  O   UNL A   1      48.382  26.867  38.241  1.00  0.00    -0.237 OA
ATOM     77  O   UNL A   1      47.069  24.790  38.035  1.00  0.00    -0.744 OA
ENDBRANCH  73  74
ENDBRANCH  52  66
BRANCH  53  78
ATOM     78  C   UNL A   1      36.747  32.871  30.792  1.00  0.00     0.058 A 
ATOM     79  C   UNL A   1      35.412  32.646  31.158  1.00  0.00     0.135 A 
ATOM     80  C   UNL A   1      36.997  33.791  29.762  1.00  0.00     0.135 A 
ATOM     81  F   UNL A   1      35.119  31.765  32.126  1.00  0.00    -0.206 F 
ATOM     82  C   UNL A   1      34.362  33.308  30.527  1.00  0.00     0.059 A 
ATOM     83  C   UNL A   1      35.967  34.486  29.136  1.00  0.00     0.059 A 
ATOM     84  F   UNL A   1      38.257  34.046  29.379  1.00  0.00    -0.206 F 
ATOM     85  C   UNL A   1      34.652  34.235  29.524  1.00  0.00     0.060 A 
BRANCH  85  86
ATOM     86  S   UNL A   1      33.288  35.148  28.770  1.00  0.00     0.124 S 
ATOM     87  O   UNL A   1      33.999  36.125  27.956  1.00  0.00    -0.237 OA
ATOM     88  O   UNL A   1      32.586  34.096  28.039  1.00  0.00    -0.237 OA
ATOM     89  O   UNL A   1      32.568  35.687  29.920  1.00  0.00    -0.744 OA
ENDBRANCH  85  86
ENDBRANCH  53  78
BRANCH  65  90
ATOM     90  C   UNL A   1      39.964  33.905  36.896  1.00  0.00     0.058 A 
ATOM     91  C   UNL A   1      39.084  33.678  37.968  1.00  0.00     0.135 A 
ATOM     92  C   UNL A   1      40.663  35.125  36.876  1.00  0.00     0.135 A 
ATOM     93  F   UNL A   1      38.390  32.530  38.040  1.00  0.00    -0.206 F 
ATOM     94  C   UNL A   1      38.864  34.641  38.947  1.00  0.00     0.059 A 
ATOM     95  C   UNL A   1      40.484  36.087  37.866  1.00  0.00     0.059 A 
ATOM     96  F   UNL A   1      41.530  35.392  35.888  1.00  0.00    -0.206 F 
ATOM     97  C   UNL A   1      39.564  35.847  38.884  1.00  0.00     0.060 A 
BRANCH  97  98
ATOM     98  S   UNL A   1      39.254  37.096  40.149  1.00  0.00     0.124 S 
ATOM     99  O   UNL A   1      38.501  36.332  41.138  1.00  0.00    -0.237 OA
ATOM    100  O   UNL A   1      40.604  37.486  40.543  1.00  0.00    -0.237 OA
ATOM    101  O   UNL A   1      38.495  38.121  39.437  1.00  0.00    -0.744 OA
ENDBRANCH  97  98
ENDBRANCH  65  90
ENDBRANCH  39  40
ENDBRANCH  32  34
ENDBRANCH  31  32
ENDBRANCH  30  31
ENDBRANCH   1  30
TORSDOF 19
ENDMDL
MODEL 3
REMARK VINA RESULT:     -11.6      6.340     11.826
REMARK SMILES CC1(C)[C@@]2(C(=O)OCCOCCOC(=O)c3ccc(-c4c5nc(c(-c6c(F)cc(S(=O)(=O)[O-])cc6F)c6ccc([nH]6)c(-c6c(F)cc(S(=O)(=O)[O-])cc6F)c6nc(c(-c7c(F)cc(S(=O)(=O)[O-])cc7F)c7ccc4[nH]7)C=C6)C=C5)cc3)CC[C@]1(C)/C(=N/NC(=O)c1ccc(Cl)cc1)C2
REMARK SMILES IDX 11 1 10 2 9 3 8 4 7 5 5 6 6 7 4 8 1 9 2 10 3 11 84 12 82 13
REMARK SMILES IDX 98 14 83 15 85 16 86 17 87 18 88 19 89 20 90 22 91 23 92 24
REMARK SMILES IDX 97 25 93 26 96 27 94 28 95 29 12 30 13 31 14 32 15 33 16 34
REMARK SMILES IDX 17 35 81 36 18 37 80 38 19 39 20 40 21 41 74 42 22 43 79 44
REMARK SMILES IDX 73 45 75 46 23 47 78 48 72 49 71 50 24 52 58 53 37 54 57 55
REMARK SMILES IDX 38 56 41 57 56 58 76 59 39 60 40 61 55 63 77 64 42 65 25 66
REMARK SMILES IDX 26 67 35 68 27 69 28 70 34 71 36 72 29 73 30 74 31 75 32 76
REMARK SMILES IDX 33 77 59 78 60 79 69 80 61 81 62 82 68 83 70 84 63 85 64 86
REMARK SMILES IDX 65 87 66 88 67 89 43 90 44 91 53 92 45 93 46 94 52 95 54 96
REMARK SMILES IDX 47 97 48 98 49 99 50 100 51 101
REMARK H PARENT 88 21 75 51 41 62
REMARK Flexibility Score: inf
ROOT
ATOM      1  C   UNL A   1      41.895  22.134  26.184  1.00  0.00     0.202 C 
ENDROOT
BRANCH   1   2
ATOM      2  O   UNL A   1      40.849  21.169  26.108  1.00  0.00    -0.374 OA
BRANCH   2   3
ATOM      3  C   UNL A   1      39.548  21.641  26.473  1.00  0.00     0.202 C 
BRANCH   3   4
ATOM      4  C   UNL A   1      38.492  21.603  25.362  1.00  0.00     0.261 C 
BRANCH   4   5
ATOM      5  O   UNL A   1      37.160  21.754  25.889  1.00  0.00    -0.463 OA
BRANCH   5   6
ATOM      6  C   UNL A   1      36.529  22.923  25.591  1.00  0.00     0.313 C 
ATOM      7  O   UNL A   1      36.997  24.038  25.768  1.00  0.00    -0.252 OA
BRANCH   6   8
ATOM      8  C   UNL A   1      35.148  22.660  25.019  1.00  0.00     0.079 C 
ATOM      9  C   UNL A   1      33.923  22.461  27.302  1.00  0.00     0.013 C 
ATOM     10  C   UNL A   1      33.939  23.092  25.892  1.00  0.00    -0.008 C 
ATOM     11  C   UNL A   1      33.789  24.619  26.080  1.00  0.00     0.013 C 
ATOM     12  C   UNL A   1      32.914  22.468  24.886  1.00  0.00     0.014 C 
ATOM     13  C   UNL A   1      34.911  21.131  24.809  1.00  0.00     0.021 C 
ATOM     14  C   UNL A   1      34.858  23.367  23.671  1.00  0.00     0.073 C 
ATOM     15  C   UNL A   1      33.373  21.004  24.770  1.00  0.00     0.014 C 
ATOM     16  C   UNL A   1      31.449  22.674  25.204  1.00  0.00     0.018 C 
ATOM     17  C   UNL A   1      33.387  23.093  23.556  1.00  0.00     0.046 C 
ATOM     18  N   UNL A   1      32.544  23.326  22.600  1.00  0.00    -0.181 NA
BRANCH  18  19
ATOM     19  N   UNL A   1      32.807  23.966  21.429  1.00  0.00    -0.243 N 
ATOM     20  C   UNL A   1      32.809  25.275  20.996  1.00  0.00     0.271 C 
ATOM     21  H   UNL A   1      33.058  23.339  20.713  1.00  0.00     0.194 HD
ATOM     22  O   UNL A   1      33.013  25.524  19.807  1.00  0.00    -0.267 OA
BRANCH  20  23
ATOM     23  C   UNL A   1      32.585  26.407  21.901  1.00  0.00     0.041 A 
ATOM     24  C   UNL A   1      31.280  26.607  22.374  1.00  0.00     0.015 A 
ATOM     25  C   UNL A   1      33.637  27.213  22.346  1.00  0.00     0.015 A 
ATOM     26  C   UNL A   1      31.054  27.529  23.397  1.00  0.00     0.021 A 
ATOM     27  C   UNL A   1      33.395  28.160  23.347  1.00  0.00     0.021 A 
ATOM     28  C   UNL A   1      32.114  28.286  23.893  1.00  0.00     0.041 A 
ATOM     29  Cl  UNL A   1      31.853  29.319  25.243  1.00  0.00    -0.084 Cl
ENDBRANCH  20  23
ENDBRANCH  18  19
ENDBRANCH   6   8
ENDBRANCH   5   6
ENDBRANCH   4   5
ENDBRANCH   3   4
ENDBRANCH   2   3
ENDBRANCH   1   2
BRANCH   1  30
ATOM     30  C   UNL A   1      41.478  23.563  26.541  1.00  0.00     0.261 C 
BRANCH  30  31
ATOM     31  O   UNL A   1      42.565  24.488  26.359  1.00  0.00    -0.460 OA
BRANCH  31  32
ATOM     32  C   UNL A   1      42.169  25.764  26.123  1.00  0.00     0.338 C 
ATOM     33  O   UNL A   1      41.638  26.188  25.115  1.00  0.00    -0.246 OA
BRANCH  32  34
ATOM     34  C   UNL A   1      42.300  26.570  27.355  1.00  0.00     0.060 A 
ATOM     35  C   UNL A   1      41.497  26.198  28.437  1.00  0.00     0.016 A 
ATOM     36  C   UNL A   1      43.140  27.684  27.447  1.00  0.00     0.016 A 
ATOM     37  C   UNL A   1      41.473  26.982  29.586  1.00  0.00     0.010 A 
ATOM     38  C   UNL A   1      43.136  28.453  28.619  1.00  0.00     0.010 A 
ATOM     39  C   UNL A   1      42.258  28.140  29.672  1.00  0.00    -0.014 A 
BRANCH  39  40
ATOM     40  C   UNL A   1      42.016  29.076  30.802  1.00  0.00     0.031 A 
ATOM     41  C   UNL A   1      40.805  29.974  30.773  1.00  0.00     0.074 A 
ATOM     42  C   UNL A   1      42.797  29.043  31.898  1.00  0.00     0.049 A 
ATOM     43  N   UNL A   1      40.322  30.748  31.712  1.00  0.00    -0.248 NA
ATOM     44  C   UNL A   1      40.035  30.004  29.520  1.00  0.00     0.031 C 
ATOM     45  C   UNL A   1      43.987  28.209  32.059  1.00  0.00     0.029 A 
ATOM     46  N   UNL A   1      42.688  29.708  33.094  1.00  0.00    -0.354 N 
ATOM     47  C   UNL A   1      39.193  31.348  31.168  1.00  0.00     0.074 A 
ATOM     48  C   UNL A   1      39.094  30.892  29.798  1.00  0.00     0.031 C 
ATOM     49  C   UNL A   1      44.481  28.388  33.297  1.00  0.00     0.029 A 
ATOM     50  C   UNL A   1      43.657  29.365  34.006  1.00  0.00     0.049 A 
ATOM     51  H   UNL A   1      41.981  30.367  33.281  1.00  0.00     0.167 HD
ATOM     52  C   UNL A   1      38.304  32.186  31.756  1.00  0.00     0.037 A 
ATOM     53  C   UNL A   1      43.857  29.787  35.272  1.00  0.00     0.037 A 
ATOM     54  C   UNL A   1      38.406  32.646  33.118  1.00  0.00     0.049 A 
ATOM     55  C   UNL A   1      42.887  30.759  35.890  1.00  0.00     0.074 A 
ATOM     56  C   UNL A   1      37.546  33.478  33.813  1.00  0.00     0.029 A 
ATOM     57  N   UNL A   1      39.440  32.328  33.988  1.00  0.00    -0.354 N 
ATOM     58  N   UNL A   1      41.798  31.282  35.376  1.00  0.00    -0.248 NA
ATOM     59  C   UNL A   1      43.171  31.190  37.266  1.00  0.00     0.031 C 
ATOM     60  C   UNL A   1      38.091  33.713  35.081  1.00  0.00     0.029 A 
ATOM     61  C   UNL A   1      39.258  32.974  35.201  1.00  0.00     0.049 A 
ATOM     62  H   UNL A   1      40.193  31.730  33.775  1.00  0.00     0.167 HD
ATOM     63  C   UNL A   1      41.255  32.088  36.374  1.00  0.00     0.074 A 
ATOM     64  C   UNL A   1      42.124  31.961  37.527  1.00  0.00     0.031 C 
ATOM     65  C   UNL A   1      40.139  32.862  36.339  1.00  0.00     0.037 A 
BRANCH  52  66
ATOM     66  C   UNL A   1      37.157  32.681  30.913  1.00  0.00     0.058 A 
ATOM     67  C   UNL A   1      37.293  33.769  30.034  1.00  0.00     0.135 A 
ATOM     68  C   UNL A   1      35.900  32.056  30.983  1.00  0.00     0.135 A 
ATOM     69  F   UNL A   1      38.466  34.416  29.935  1.00  0.00    -0.206 F 
ATOM     70  C   UNL A   1      36.218  34.247  29.290  1.00  0.00     0.059 A 
ATOM     71  C   UNL A   1      34.819  32.495  30.223  1.00  0.00     0.059 A 
ATOM     72  F   UNL A   1      35.710  31.010  31.803  1.00  0.00    -0.206 F 
ATOM     73  C   UNL A   1      34.983  33.605  29.396  1.00  0.00     0.060 A 
BRANCH  73  74
ATOM     74  S   UNL A   1      33.591  34.250  28.444  1.00  0.00     0.124 S 
ATOM     75  O   UNL A   1      34.244  35.272  27.630  1.00  0.00    -0.237 OA
ATOM     76  O   UNL A   1      33.130  33.067  27.724  1.00  0.00    -0.237 OA
ATOM     77  O   UNL A   1      32.681  34.752  29.468  1.00  0.00    -0.744 OA
ENDBRANCH  73  74
ENDBRANCH  52  66
BRANCH  53  78
ATOM     78  C   UNL A   1      45.018  29.269  36.046  1.00  0.00     0.058 A 
ATOM     79  C   UNL A   1      44.898  28.139  36.869  1.00  0.00     0.135 A 
ATOM     80  C   UNL A   1      46.277  29.883  35.958  1.00  0.00     0.135 A 
ATOM     81  F   UNL A   1      43.713  27.525  36.999  1.00  0.00    -0.206 F 
ATOM     82  C   UNL A   1      45.985  27.636  37.578  1.00  0.00     0.059 A 
ATOM     83  C   UNL A   1      47.384  29.383  36.635  1.00  0.00     0.059 A 
ATOM     84  F   UNL A   1      46.445  30.963  35.180  1.00  0.00    -0.206 F 
ATOM     85  C   UNL A   1      47.228  28.260  37.445  1.00  0.00     0.060 A 
BRANCH  85  86
ATOM     86  S   UNL A   1      48.648  27.549  38.305  1.00  0.00     0.124 S 
ATOM     87  O   UNL A   1      49.523  28.707  38.439  1.00  0.00    -0.237 OA
ATOM     88  O   UNL A   1      48.042  27.059  39.540  1.00  0.00    -0.237 OA
ATOM     89  O   UNL A   1      49.110  26.511  37.389  1.00  0.00    -0.744 OA
ENDBRANCH  85  86
ENDBRANCH  53  78
BRANCH  65  90
ATOM     90  C   UNL A   1      39.789  33.621  37.593  1.00  0.00     0.058 A 
ATOM     91  C   UNL A   1      40.415  34.835  37.925  1.00  0.00     0.135 A 
ATOM     92  C   UNL A   1      38.810  33.132  38.475  1.00  0.00     0.135 A 
ATOM     93  F   UNL A   1      41.358  35.351  37.120  1.00  0.00    -0.206 F 
ATOM     94  C   UNL A   1      40.123  35.505  39.109  1.00  0.00     0.059 A 
ATOM     95  C   UNL A   1      38.478  33.806  39.647  1.00  0.00     0.059 A 
ATOM     96  F   UNL A   1      38.165  31.987  38.203  1.00  0.00    -0.206 F 
ATOM     97  C   UNL A   1      39.158  34.979  39.968  1.00  0.00     0.060 A 
BRANCH  97  98
ATOM     98  S   UNL A   1      38.804  35.848  41.510  1.00  0.00     0.124 S 
ATOM     99  O   UNL A   1      39.940  35.455  42.336  1.00  0.00    -0.237 OA
ATOM    100  O   UNL A   1      38.782  37.245  41.085  1.00  0.00    -0.237 OA
ATOM    101  O   UNL A   1      37.512  35.304  41.918  1.00  0.00    -0.744 OA
ENDBRANCH  97  98
ENDBRANCH  65  90
ENDBRANCH  39  40
ENDBRANCH  32  34
ENDBRANCH  31  32
ENDBRANCH  30  31
ENDBRANCH   1  30
TORSDOF 19
ENDMDL
