MODEL 1
REMARK VINA RESULT:     -11.6      0.000      0.000
REMARK SMILES O=C(OCCOCCOC(=O)[C@@H](Cc1ccccc1)N1C(=O)/C(=C/c2ccncc2)SC1=S)c1ccc(-c2c3nc(c(-c4c(F)cc(S(=O)(=O)[O-])cc4F)c4ccc([nH]4)c(-c4c(F)cc(S(=O)(=O)[O-])cc4F)c4nc(c(-c5c(F)cc(S(=O)(=O)[O-])cc5F)c5ccc2[nH]5)C=C4)C=C3)cc1
REMARK SMILES IDX 5 1 4 2 3 3 2 4 1 5 34 6 35 7 99 8 36 9 98 10 37 11 38 12
REMARK SMILES IDX 39 13 92 14 40 15 97 16 91 17 93 18 41 19 96 20 90 21 89 22
REMARK SMILES IDX 42 24 76 25 55 26 75 27 56 28 59 29 74 30 94 31 57 32 58 33
REMARK SMILES IDX 73 35 95 36 60 37 43 38 44 39 53 40 45 41 46 42 52 43 54 44
REMARK SMILES IDX 47 45 48 46 49 47 50 48 51 49 77 50 78 51 87 52 79 53 80 54
REMARK SMILES IDX 86 55 88 56 81 57 82 58 83 59 84 60 85 61 61 62 62 63 71 64
REMARK SMILES IDX 63 65 64 66 70 67 72 68 65 69 66 70 67 71 68 72 69 73 6 74
REMARK SMILES IDX 7 75 8 76 9 77 10 78 11 79 12 80 13 81 14 82 15 83 19 84
REMARK SMILES IDX 16 85 18 86 17 87 20 88 21 89 32 90 22 91 23 92 31 93 33 94
REMARK SMILES IDX 24 95 25 96 26 97 30 98 27 99 29 100 28 101
REMARK H PARENT 93 23 59 34
REMARK Flexibility Score: inf
ROOT
ATOM      1  C   UNL A   1      33.411  30.956  27.276  1.00  0.00     0.202 C 
ENDROOT
BRANCH   1   2
ATOM      2  C   UNL A   1      34.885  31.099  27.713  1.00  0.00     0.261 C 
BRANCH   2   3
ATOM      3  O   UNL A   1      35.367  29.950  28.438  1.00  0.00    -0.460 OA
BRANCH   3   4
ATOM      4  C   UNL A   1      36.342  29.892  29.384  1.00  0.00     0.338 C 
ATOM      5  O   UNL A   1      36.032  30.086  30.558  1.00  0.00    -0.246 OA
BRANCH   4   6
ATOM      6  C   UNL A   1      37.781  29.648  29.062  1.00  0.00     0.060 A 
ATOM      7  C   UNL A   1      38.284  29.601  27.768  1.00  0.00     0.016 A 
ATOM      8  C   UNL A   1      38.703  29.518  30.116  1.00  0.00     0.016 A 
ATOM      9  C   UNL A   1      39.614  29.429  27.493  1.00  0.00     0.010 A 
ATOM     10  C   UNL A   1      40.070  29.330  29.857  1.00  0.00     0.010 A 
ATOM     11  C   UNL A   1      40.514  29.282  28.534  1.00  0.00    -0.014 A 
BRANCH  11  12
ATOM     12  C   UNL A   1      41.853  28.891  28.082  1.00  0.00     0.031 A 
ATOM     13  C   UNL A   1      42.958  29.873  28.314  1.00  0.00     0.074 A 
ATOM     14  C   UNL A   1      42.079  27.582  27.856  1.00  0.00     0.049 A 
ATOM     15  N   UNL A   1      44.239  29.728  28.132  1.00  0.00    -0.248 NA
ATOM     16  C   UNL A   1      42.573  31.180  28.879  1.00  0.00     0.031 C 
ATOM     17  C   UNL A   1      41.045  26.537  27.871  1.00  0.00     0.029 A 
ATOM     18  N   UNL A   1      43.244  26.892  27.674  1.00  0.00    -0.354 N 
ATOM     19  C   UNL A   1      44.809  30.929  28.531  1.00  0.00     0.074 A 
ATOM     20  C   UNL A   1      43.743  31.790  28.986  1.00  0.00     0.031 C 
ATOM     21  C   UNL A   1      41.631  25.338  27.737  1.00  0.00     0.029 A 
ATOM     22  C   UNL A   1      43.062  25.535  27.546  1.00  0.00     0.049 A 
ATOM     23  H   UNL A   1      44.127  27.325  27.637  1.00  0.00     0.167 HD
ATOM     24  C   UNL A   1      46.115  31.273  28.496  1.00  0.00     0.037 A 
ATOM     25  C   UNL A   1      43.960  24.575  27.259  1.00  0.00     0.037 A 
ATOM     26  C   UNL A   1      47.131  30.375  28.022  1.00  0.00     0.049 A 
ATOM     27  C   UNL A   1      45.389  25.014  27.090  1.00  0.00     0.074 A 
ATOM     28  C   UNL A   1      48.462  30.625  27.758  1.00  0.00     0.029 A 
ATOM     29  N   UNL A   1      46.908  29.028  27.748  1.00  0.00    -0.354 N 
ATOM     30  N   UNL A   1      45.909  26.206  27.288  1.00  0.00    -0.248 NA
ATOM     31  C   UNL A   1      46.347  24.004  26.635  1.00  0.00     0.031 C 
ATOM     32  C   UNL A   1      49.036  29.436  27.292  1.00  0.00     0.029 A 
ATOM     33  C   UNL A   1      48.074  28.434  27.311  1.00  0.00     0.049 A 
ATOM     34  H   UNL A   1      46.043  28.568  27.850  1.00  0.00     0.167 HD
ATOM     35  C   UNL A   1      47.255  26.092  26.973  1.00  0.00     0.074 A 
ATOM     36  C   UNL A   1      47.474  24.704  26.608  1.00  0.00     0.031 C 
ATOM     37  C   UNL A   1      48.224  27.042  26.963  1.00  0.00     0.037 A 
BRANCH  24  38
ATOM     38  C   UNL A   1      46.460  32.682  28.873  1.00  0.00     0.058 A 
ATOM     39  C   UNL A   1      46.804  33.043  30.184  1.00  0.00     0.135 A 
ATOM     40  C   UNL A   1      46.379  33.704  27.912  1.00  0.00     0.135 A 
ATOM     41  F   UNL A   1      46.849  32.114  31.153  1.00  0.00    -0.206 F 
ATOM     42  C   UNL A   1      47.039  34.371  30.535  1.00  0.00     0.059 A 
ATOM     43  C   UNL A   1      46.627  35.034  28.235  1.00  0.00     0.059 A 
ATOM     44  F   UNL A   1      46.027  33.416  26.650  1.00  0.00    -0.206 F 
ATOM     45  C   UNL A   1      46.942  35.360  29.554  1.00  0.00     0.060 A 
BRANCH  45  46
ATOM     46  S   UNL A   1      47.223  37.081  30.025  1.00  0.00     0.124 S 
ATOM     47  O   UNL A   1      47.884  37.605  28.834  1.00  0.00    -0.237 OA
ATOM     48  O   UNL A   1      45.866  37.565  30.261  1.00  0.00    -0.237 OA
ATOM     49  O   UNL A   1      48.063  36.975  31.214  1.00  0.00    -0.744 OA
ENDBRANCH  45  46
ENDBRANCH  24  38
BRANCH  25  50
ATOM     50  C   UNL A   1      43.521  23.175  26.999  1.00  0.00     0.058 A 
ATOM     51  C   UNL A   1      43.114  22.313  28.027  1.00  0.00     0.135 A 
ATOM     52  C   UNL A   1      43.523  22.661  25.689  1.00  0.00     0.135 A 
ATOM     53  F   UNL A   1      43.098  22.745  29.297  1.00  0.00    -0.206 F 
ATOM     54  C   UNL A   1      42.749  20.991  27.773  1.00  0.00     0.059 A 
ATOM     55  C   UNL A   1      43.132  21.358  25.405  1.00  0.00     0.059 A 
ATOM     56  F   UNL A   1      43.897  23.438  24.660  1.00  0.00    -0.206 F 
ATOM     57  C   UNL A   1      42.766  20.522  26.457  1.00  0.00     0.060 A 
BRANCH  57  58
ATOM     58  S   UNL A   1      42.290  18.812  26.124  1.00  0.00     0.124 S 
ATOM     59  O   UNL A   1      42.528  18.185  27.420  1.00  0.00    -0.237 OA
ATOM     60  O   UNL A   1      40.892  18.950  25.729  1.00  0.00    -0.237 OA
ATOM     61  O   UNL A   1      43.199  18.414  25.054  1.00  0.00    -0.744 OA
ENDBRANCH  57  58
ENDBRANCH  25  50
BRANCH  37  62
ATOM     62  C   UNL A   1      49.593  26.589  26.559  1.00  0.00     0.058 A 
ATOM     63  C   UNL A   1      50.493  26.066  27.498  1.00  0.00     0.135 A 
ATOM     64  C   UNL A   1      49.984  26.640  25.213  1.00  0.00     0.135 A 
ATOM     65  F   UNL A   1      50.158  26.005  28.796  1.00  0.00    -0.206 F 
ATOM     66  C   UNL A   1      51.755  25.631  27.117  1.00  0.00     0.059 A 
ATOM     67  C   UNL A   1      51.232  26.187  24.807  1.00  0.00     0.059 A 
ATOM     68  F   UNL A   1      49.147  27.123  24.281  1.00  0.00    -0.206 F 
ATOM     69  C   UNL A   1      52.115  25.697  25.770  1.00  0.00     0.060 A 
BRANCH  69  70
ATOM     70  S   UNL A   1      53.746  25.105  25.282  1.00  0.00     0.124 S 
ATOM     71  O   UNL A   1      53.543  23.661  25.276  1.00  0.00    -0.237 OA
ATOM     72  O   UNL A   1      53.927  25.726  23.974  1.00  0.00    -0.237 OA
ATOM     73  O   UNL A   1      54.619  25.614  26.335  1.00  0.00    -0.744 OA
ENDBRANCH  69  70
ENDBRANCH  37  62
ENDBRANCH  11  12
ENDBRANCH   4   6
ENDBRANCH   3   4
ENDBRANCH   2   3
ENDBRANCH   1   2
BRANCH   1  74
ATOM     74  O   UNL A   1      32.801  29.673  27.432  1.00  0.00    -0.374 OA
BRANCH  74  75
ATOM     75  C   UNL A   1      32.805  28.809  26.288  1.00  0.00     0.202 C 
BRANCH  75  76
ATOM     76  C   UNL A   1      33.244  27.414  26.685  1.00  0.00     0.261 C 
BRANCH  76  77
ATOM     77  O   UNL A   1      34.122  26.974  25.648  1.00  0.00    -0.462 OA
BRANCH  77  78
ATOM     78  C   UNL A   1      34.042  25.680  25.276  1.00  0.00     0.329 C 
ATOM     79  O   UNL A   1      34.364  24.717  25.964  1.00  0.00    -0.250 OA
BRANCH  78  80
ATOM     80  C   UNL A   1      33.670  25.555  23.803  1.00  0.00     0.206 C 
BRANCH  80  81
ATOM     81  C   UNL A   1      33.808  24.194  23.053  1.00  0.00     0.073 C 
BRANCH  81  82
ATOM     82  C   UNL A   1      34.693  23.076  23.566  1.00  0.00    -0.045 A 
ATOM     83  C   UNL A   1      34.160  21.962  24.217  1.00  0.00     0.004 A 
ATOM     84  C   UNL A   1      36.086  23.118  23.395  1.00  0.00     0.004 A 
ATOM     85  C   UNL A   1      34.996  21.018  24.822  1.00  0.00     0.000 A 
ATOM     86  C   UNL A   1      36.927  22.184  24.001  1.00  0.00     0.000 A 
ATOM     87  C   UNL A   1      36.380  21.144  24.739  1.00  0.00     0.000 A 
ENDBRANCH  81  82
ENDBRANCH  80  81
BRANCH  80  88
ATOM     88  N   UNL A   1      32.389  26.260  23.640  1.00  0.00    -0.278 N 
ATOM     89  C   UNL A   1      32.374  27.439  22.926  1.00  0.00     0.267 C 
ATOM     90  C   UNL A   1      31.155  25.782  24.028  1.00  0.00     0.149 C 
ATOM     91  O   UNL A   1      33.275  27.926  22.264  1.00  0.00    -0.268 OA
ATOM     92  C   UNL A   1      31.048  28.068  23.001  1.00  0.00     0.081 C 
ATOM     93  S   UNL A   1      29.909  26.976  23.646  1.00  0.00    -0.054 SA
ATOM     94  S   UNL A   1      30.787  24.351  24.800  1.00  0.00    -0.052 S 
ATOM     95  C   UNL A   1      30.932  29.332  22.583  1.00  0.00     0.029 C 
BRANCH  95  96
ATOM     96  C   UNL A   1      29.725  30.143  22.526  1.00  0.00    -0.021 A 
ATOM     97  C   UNL A   1      29.214  30.804  23.639  1.00  0.00     0.028 A 
ATOM     98  C   UNL A   1      29.107  30.304  21.288  1.00  0.00     0.028 A 
ATOM     99  C   UNL A   1      28.076  31.571  23.469  1.00  0.00     0.111 A 
ATOM    100  C   UNL A   1      27.976  31.095  21.221  1.00  0.00     0.111 A 
ATOM    101  N   UNL A   1      27.446  31.733  22.286  1.00  0.00    -0.265 NA
ENDBRANCH  95  96
ENDBRANCH  80  88
ENDBRANCH  78  80
ENDBRANCH  77  78
ENDBRANCH  76  77
ENDBRANCH  75  76
ENDBRANCH  74  75
ENDBRANCH   1  74
TORSDOF 21
ENDMDL
MODEL 2
REMARK VINA RESULT:     -11.5      1.335      4.534
REMARK SMILES O=C(OCCOCCOC(=O)[C@@H](Cc1ccccc1)N1C(=O)/C(=C/c2ccncc2)SC1=S)c1ccc(-c2c3nc(c(-c4c(F)cc(S(=O)(=O)[O-])cc4F)c4ccc([nH]4)c(-c4c(F)cc(S(=O)(=O)[O-])cc4F)c4nc(c(-c5c(F)cc(S(=O)(=O)[O-])cc5F)c5ccc2[nH]5)C=C4)C=C3)cc1
REMARK SMILES IDX 5 1 4 2 3 3 2 4 1 5 34 6 35 7 99 8 36 9 98 10 37 11 38 12
REMARK SMILES IDX 39 13 92 14 40 15 97 16 91 17 93 18 41 19 96 20 90 21 89 22
REMARK SMILES IDX 42 24 76 25 55 26 75 27 56 28 59 29 74 30 94 31 57 32 58 33
REMARK SMILES IDX 73 35 95 36 60 37 43 38 44 39 53 40 45 41 46 42 52 43 54 44
REMARK SMILES IDX 47 45 48 46 49 47 50 48 51 49 77 50 78 51 87 52 79 53 80 54
REMARK SMILES IDX 86 55 88 56 81 57 82 58 83 59 84 60 85 61 61 62 62 63 71 64
REMARK SMILES IDX 63 65 64 66 70 67 72 68 65 69 66 70 67 71 68 72 69 73 6 74
REMARK SMILES IDX 7 75 8 76 9 77 10 78 11 79 12 80 13 81 14 82 15 83 19 84
REMARK SMILES IDX 16 85 18 86 17 87 20 88 21 89 32 90 22 91 23 92 31 93 33 94
REMARK SMILES IDX 24 95 25 96 26 97 30 98 27 99 29 100 28 101
REMARK H PARENT 93 23 59 34
REMARK Flexibility Score: inf
ROOT
ATOM      1  C   UNL A   1      33.834  31.702  27.654  1.00  0.00     0.202 C 
ENDROOT
BRANCH   1   2
ATOM      2  C   UNL A   1      35.302  31.429  28.049  1.00  0.00     0.261 C 
BRANCH   2   3
ATOM      3  O   UNL A   1      35.478  30.155  28.700  1.00  0.00    -0.460 OA
BRANCH   3   4
ATOM      4  C   UNL A   1      36.434  29.782  29.591  1.00  0.00     0.338 C 
ATOM      5  O   UNL A   1      36.120  29.663  30.774  1.00  0.00    -0.246 OA
BRANCH   4   6
ATOM      6  C   UNL A   1      37.862  29.554  29.211  1.00  0.00     0.060 A 
ATOM      7  C   UNL A   1      38.307  29.472  27.898  1.00  0.00     0.016 A 
ATOM      8  C   UNL A   1      38.834  29.478  30.225  1.00  0.00     0.016 A 
ATOM      9  C   UNL A   1      39.626  29.315  27.567  1.00  0.00     0.010 A 
ATOM     10  C   UNL A   1      40.191  29.306  29.909  1.00  0.00     0.010 A 
ATOM     11  C   UNL A   1      40.575  29.221  28.570  1.00  0.00    -0.014 A 
BRANCH  11  12
ATOM     12  C   UNL A   1      41.899  28.839  28.070  1.00  0.00     0.031 A 
ATOM     13  C   UNL A   1      43.004  29.831  28.258  1.00  0.00     0.074 A 
ATOM     14  C   UNL A   1      42.128  27.532  27.841  1.00  0.00     0.049 A 
ATOM     15  N   UNL A   1      44.279  29.696  28.028  1.00  0.00    -0.248 NA
ATOM     16  C   UNL A   1      42.629  31.138  28.832  1.00  0.00     0.031 C 
ATOM     17  C   UNL A   1      41.105  26.478  27.898  1.00  0.00     0.029 A 
ATOM     18  N   UNL A   1      43.291  26.851  27.618  1.00  0.00    -0.354 N 
ATOM     19  C   UNL A   1      44.852  30.904  28.401  1.00  0.00     0.074 A 
ATOM     20  C   UNL A   1      43.797  31.758  28.892  1.00  0.00     0.031 C 
ATOM     21  C   UNL A   1      41.695  25.283  27.746  1.00  0.00     0.029 A 
ATOM     22  C   UNL A   1      43.116  25.492  27.502  1.00  0.00     0.049 A 
ATOM     23  H   UNL A   1      44.168  27.290  27.546  1.00  0.00     0.167 HD
ATOM     24  C   UNL A   1      46.153  31.258  28.317  1.00  0.00     0.037 A 
ATOM     25  C   UNL A   1      44.012  24.538  27.185  1.00  0.00     0.037 A 
ATOM     26  C   UNL A   1      47.158  30.367  27.809  1.00  0.00     0.049 A 
ATOM     27  C   UNL A   1      45.430  24.989  26.961  1.00  0.00     0.074 A 
ATOM     28  C   UNL A   1      48.476  30.628  27.494  1.00  0.00     0.029 A 
ATOM     29  N   UNL A   1      46.937  29.018  27.548  1.00  0.00    -0.354 N 
ATOM     30  N   UNL A   1      45.946  26.185  27.135  1.00  0.00    -0.248 NA
ATOM     31  C   UNL A   1      46.378  23.985  26.474  1.00  0.00     0.031 C 
ATOM     32  C   UNL A   1      49.043  29.441  27.012  1.00  0.00     0.029 A 
ATOM     33  C   UNL A   1      48.092  28.432  27.070  1.00  0.00     0.049 A 
ATOM     34  H   UNL A   1      46.081  28.550  27.684  1.00  0.00     0.167 HD
ATOM     35  C   UNL A   1      47.281  26.081  26.771  1.00  0.00     0.074 A 
ATOM     36  C   UNL A   1      47.498  24.694  26.403  1.00  0.00     0.031 C 
ATOM     37  C   UNL A   1      48.240  27.040  26.721  1.00  0.00     0.037 A 
BRANCH  24  38
ATOM     38  C   UNL A   1      46.500  32.672  28.676  1.00  0.00     0.058 A 
ATOM     39  C   UNL A   1      46.436  33.719  27.743  1.00  0.00     0.135 A 
ATOM     40  C   UNL A   1      46.971  32.972  29.964  1.00  0.00     0.135 A 
ATOM     41  F   UNL A   1      46.038  33.479  26.483  1.00  0.00    -0.206 F 
ATOM     42  C   UNL A   1      46.843  35.010  28.070  1.00  0.00     0.059 A 
ATOM     43  C   UNL A   1      47.366  34.258  30.319  1.00  0.00     0.059 A 
ATOM     44  F   UNL A   1      47.079  32.002  30.885  1.00  0.00    -0.206 F 
ATOM     45  C   UNL A   1      47.312  35.268  29.360  1.00  0.00     0.060 A 
BRANCH  45  46
ATOM     46  S   UNL A   1      47.862  36.941  29.765  1.00  0.00     0.124 S 
ATOM     47  O   UNL A   1      49.240  36.701  30.180  1.00  0.00    -0.237 OA
ATOM     48  O   UNL A   1      47.695  37.640  28.495  1.00  0.00    -0.237 OA
ATOM     49  O   UNL A   1      46.949  37.350  30.828  1.00  0.00    -0.744 OA
ENDBRANCH  45  46
ENDBRANCH  24  38
BRANCH  25  50
ATOM     50  C   UNL A   1      43.575  23.133  26.946  1.00  0.00     0.058 A 
ATOM     51  C   UNL A   1      43.247  22.261  27.994  1.00  0.00     0.135 A 
ATOM     52  C   UNL A   1      43.498  22.625  25.636  1.00  0.00     0.135 A 
ATOM     53  F   UNL A   1      43.308  22.687  29.265  1.00  0.00    -0.206 F 
ATOM     54  C   UNL A   1      42.884  20.936  27.757  1.00  0.00     0.059 A 
ATOM     55  C   UNL A   1      43.107  21.318  25.371  1.00  0.00     0.059 A 
ATOM     56  F   UNL A   1      43.795  23.412  24.589  1.00  0.00    -0.206 F 
ATOM     57  C   UNL A   1      42.821  20.473  26.440  1.00  0.00     0.060 A 
BRANCH  57  58
ATOM     58  S   UNL A   1      42.347  18.758  26.129  1.00  0.00     0.124 S 
ATOM     59  O   UNL A   1      42.497  18.169  27.456  1.00  0.00    -0.237 OA
ATOM     60  O   UNL A   1      40.979  18.897  25.643  1.00  0.00    -0.237 OA
ATOM     61  O   UNL A   1      43.318  18.318  25.131  1.00  0.00    -0.744 OA
ENDBRANCH  57  58
ENDBRANCH  25  50
BRANCH  37  62
ATOM     62  C   UNL A   1      49.597  26.596  26.269  1.00  0.00     0.058 A 
ATOM     63  C   UNL A   1      49.993  26.717  24.929  1.00  0.00     0.135 A 
ATOM     64  C   UNL A   1      50.519  26.088  27.195  1.00  0.00     0.135 A 
ATOM     65  F   UNL A   1      49.138  27.193  24.011  1.00  0.00    -0.206 F 
ATOM     66  C   UNL A   1      51.257  26.320  24.515  1.00  0.00     0.059 A 
ATOM     67  C   UNL A   1      51.797  25.709  26.808  1.00  0.00     0.059 A 
ATOM     68  F   UNL A   1      50.183  25.968  28.490  1.00  0.00    -0.206 F 
ATOM     69  C   UNL A   1      52.150  25.817  25.462  1.00  0.00     0.060 A 
BRANCH  69  70
ATOM     70  S   UNL A   1      53.799  25.329  24.921  1.00  0.00     0.124 S 
ATOM     71  O   UNL A   1      53.905  26.024  23.643  1.00  0.00    -0.237 OA
ATOM     72  O   UNL A   1      54.646  25.839  25.993  1.00  0.00    -0.237 OA
ATOM     73  O   UNL A   1      53.711  23.873  24.840  1.00  0.00    -0.744 OA
ENDBRANCH  69  70
ENDBRANCH  37  62
ENDBRANCH  11  12
ENDBRANCH   4   6
ENDBRANCH   3   4
ENDBRANCH   2   3
ENDBRANCH   1   2
BRANCH   1  74
ATOM     74  O   UNL A   1      32.994  30.570  27.422  1.00  0.00    -0.374 OA
BRANCH  74  75
ATOM     75  C   UNL A   1      32.784  30.186  26.057  1.00  0.00     0.202 C 
BRANCH  75  76
ATOM     76  C   UNL A   1      33.490  28.878  25.765  1.00  0.00     0.261 C 
BRANCH  76  77
ATOM     77  O   UNL A   1      32.619  28.154  24.894  1.00  0.00    -0.462 OA
BRANCH  77  78
ATOM     78  C   UNL A   1      31.619  27.450  25.462  1.00  0.00     0.329 C 
ATOM     79  O   UNL A   1      31.155  27.643  26.581  1.00  0.00    -0.250 OA
BRANCH  78  80
ATOM     80  C   UNL A   1      31.243  26.243  24.611  1.00  0.00     0.206 C 
BRANCH  80  81
ATOM     81  C   UNL A   1      30.298  26.391  23.379  1.00  0.00     0.073 C 
BRANCH  81  82
ATOM     82  C   UNL A   1      29.418  27.609  23.180  1.00  0.00    -0.045 A 
ATOM     83  C   UNL A   1      28.079  27.616  23.575  1.00  0.00     0.004 A 
ATOM     84  C   UNL A   1      29.925  28.781  22.597  1.00  0.00     0.004 A 
ATOM     85  C   UNL A   1      27.240  28.686  23.245  1.00  0.00     0.000 A 
ATOM     86  C   UNL A   1      29.094  29.849  22.257  1.00  0.00     0.000 A 
ATOM     87  C   UNL A   1      27.741  29.790  22.560  1.00  0.00     0.000 A 
ENDBRANCH  81  82
ENDBRANCH  80  81
BRANCH  80  88
ATOM     88  N   UNL A   1      32.490  25.494  24.387  1.00  0.00    -0.278 N 
ATOM     89  C   UNL A   1      33.001  24.742  25.424  1.00  0.00     0.267 C 
ATOM     90  C   UNL A   1      33.141  25.363  23.178  1.00  0.00     0.149 C 
ATOM     91  O   UNL A   1      32.474  24.484  26.493  1.00  0.00    -0.268 OA
ATOM     92  C   UNL A   1      34.316  24.195  25.063  1.00  0.00     0.081 C 
ATOM     93  S   UNL A   1      34.600  24.388  23.393  1.00  0.00    -0.054 SA
ATOM     94  S   UNL A   1      32.742  26.026  21.702  1.00  0.00    -0.052 S 
ATOM     95  C   UNL A   1      35.058  23.660  26.036  1.00  0.00     0.029 C 
BRANCH  95  96
ATOM     96  C   UNL A   1      36.364  23.030  25.916  1.00  0.00    -0.021 A 
ATOM     97  C   UNL A   1      37.547  23.689  26.237  1.00  0.00     0.028 A 
ATOM     98  C   UNL A   1      36.407  21.694  25.521  1.00  0.00     0.028 A 
ATOM     99  C   UNL A   1      38.732  22.987  26.111  1.00  0.00     0.111 A 
ATOM    100  C   UNL A   1      37.641  21.080  25.430  1.00  0.00     0.111 A 
ATOM    101  N   UNL A   1      38.807  21.698  25.716  1.00  0.00    -0.265 NA
ENDBRANCH  95  96
ENDBRANCH  80  88
ENDBRANCH  78  80
ENDBRANCH  77  78
ENDBRANCH  76  77
ENDBRANCH  75  76
ENDBRANCH  74  75
ENDBRANCH   1  74
TORSDOF 21
ENDMDL
MODEL 3
REMARK VINA RESULT:     -11.3      6.489     11.291
REMARK SMILES O=C(OCCOCCOC(=O)[C@@H](Cc1ccccc1)N1C(=O)/C(=C/c2ccncc2)SC1=S)c1ccc(-c2c3nc(c(-c4c(F)cc(S(=O)(=O)[O-])cc4F)c4ccc([nH]4)c(-c4c(F)cc(S(=O)(=O)[O-])cc4F)c4nc(c(-c5c(F)cc(S(=O)(=O)[O-])cc5F)c5ccc2[nH]5)C=C4)C=C3)cc1
REMARK SMILES IDX 5 1 4 2 3 3 2 4 1 5 34 6 35 7 99 8 36 9 98 10 37 11 38 12
REMARK SMILES IDX 39 13 92 14 40 15 97 16 91 17 93 18 41 19 96 20 90 21 89 22
REMARK SMILES IDX 42 24 76 25 55 26 75 27 56 28 59 29 74 30 94 31 57 32 58 33
REMARK SMILES IDX 73 35 95 36 60 37 43 38 44 39 53 40 45 41 46 42 52 43 54 44
REMARK SMILES IDX 47 45 48 46 49 47 50 48 51 49 77 50 78 51 87 52 79 53 80 54
REMARK SMILES IDX 86 55 88 56 81 57 82 58 83 59 84 60 85 61 61 62 62 63 71 64
REMARK SMILES IDX 63 65 64 66 70 67 72 68 65 69 66 70 67 71 68 72 69 73 6 74
REMARK SMILES IDX 7 75 8 76 9 77 10 78 11 79 12 80 13 81 14 82 15 83 19 84
REMARK SMILES IDX 16 85 18 86 17 87 20 88 21 89 32 90 22 91 23 92 31 93 33 94
REMARK SMILES IDX 24 95 25 96 26 97 30 98 27 99 29 100 28 101
REMARK H PARENT 93 23 59 34
REMARK Flexibility Score: inf
ROOT
ATOM      1  C   UNL A   1      40.338  22.445  27.087  1.00  0.00     0.202 C 
ENDROOT
BRANCH   1   2
ATOM      2  C   UNL A   1      41.402  23.489  26.686  1.00  0.00     0.261 C 
BRANCH   2   3
ATOM      3  O   UNL A   1      40.825  24.721  26.207  1.00  0.00    -0.460 OA
BRANCH   3   4
ATOM      4  C   UNL A   1      41.389  25.956  26.151  1.00  0.00     0.338 C 
ATOM      5  O   UNL A   1      41.902  26.321  25.095  1.00  0.00    -0.246 OA
BRANCH   4   6
ATOM      6  C   UNL A   1      41.456  26.878  27.327  1.00  0.00     0.060 A 
ATOM      7  C   UNL A   1      40.749  26.677  28.505  1.00  0.00     0.016 A 
ATOM      8  C   UNL A   1      42.324  27.983  27.277  1.00  0.00     0.016 A 
ATOM      9  C   UNL A   1      40.862  27.503  29.591  1.00  0.00     0.010 A 
ATOM     10  C   UNL A   1      42.448  28.850  28.375  1.00  0.00     0.010 A 
ATOM     11  C   UNL A   1      41.704  28.600  29.530  1.00  0.00    -0.014 A 
BRANCH  11  12
ATOM     12  C   UNL A   1      41.553  29.501  30.676  1.00  0.00     0.031 A 
ATOM     13  C   UNL A   1      40.338  30.377  30.691  1.00  0.00     0.074 A 
ATOM     14  C   UNL A   1      42.263  29.226  31.787  1.00  0.00     0.049 A 
ATOM     15  N   UNL A   1      39.901  31.161  31.634  1.00  0.00    -0.248 NA
ATOM     16  C   UNL A   1      39.470  30.322  29.499  1.00  0.00     0.031 C 
ATOM     17  C   UNL A   1      43.299  28.188  31.884  1.00  0.00     0.029 A 
ATOM     18  N   UNL A   1      42.161  29.711  33.060  1.00  0.00    -0.354 N 
ATOM     19  C   UNL A   1      38.727  31.713  31.142  1.00  0.00     0.074 A 
ATOM     20  C   UNL A   1      38.501  31.164  29.826  1.00  0.00     0.031 C 
ATOM     21  C   UNL A   1      43.711  28.096  33.158  1.00  0.00     0.029 A 
ATOM     22  C   UNL A   1      43.031  29.117  33.944  1.00  0.00     0.049 A 
ATOM     23  H   UNL A   1      41.526  30.417  33.319  1.00  0.00     0.167 HD
ATOM     24  C   UNL A   1      37.925  32.616  31.747  1.00  0.00     0.037 A 
ATOM     25  C   UNL A   1      43.272  29.411  35.235  1.00  0.00     0.037 A 
ATOM     26  C   UNL A   1      38.207  33.136  33.056  1.00  0.00     0.049 A 
ATOM     27  C   UNL A   1      42.454  30.519  35.840  1.00  0.00     0.074 A 
ATOM     28  C   UNL A   1      37.601  34.175  33.731  1.00  0.00     0.029 A 
ATOM     29  N   UNL A   1      39.195  32.627  33.894  1.00  0.00    -0.354 N 
ATOM     30  N   UNL A   1      41.450  31.182  35.309  1.00  0.00    -0.248 NA
ATOM     31  C   UNL A   1      42.810  30.945  37.196  1.00  0.00     0.031 C 
ATOM     32  C   UNL A   1      38.246  34.316  34.966  1.00  0.00     0.029 A 
ATOM     33  C   UNL A   1      39.221  33.334  35.079  1.00  0.00     0.049 A 
ATOM     34  H   UNL A   1      39.789  31.872  33.674  1.00  0.00     0.167 HD
ATOM     35  C   UNL A   1      41.057  32.110  36.262  1.00  0.00     0.074 A 
ATOM     36  C   UNL A   1      41.910  31.895  37.418  1.00  0.00     0.031 C 
ATOM     37  C   UNL A   1      40.099  33.068  36.193  1.00  0.00     0.037 A 
BRANCH  24  38
ATOM     38  C   UNL A   1      36.772  33.148  30.949  1.00  0.00     0.058 A 
ATOM     39  C   UNL A   1      36.937  34.117  29.948  1.00  0.00     0.135 A 
ATOM     40  C   UNL A   1      35.464  32.724  31.241  1.00  0.00     0.135 A 
ATOM     41  F   UNL A   1      38.159  34.593  29.662  1.00  0.00    -0.206 F 
ATOM     42  C   UNL A   1      35.845  34.661  29.276  1.00  0.00     0.059 A 
ATOM     43  C   UNL A   1      34.360  33.241  30.570  1.00  0.00     0.059 A 
ATOM     44  F   UNL A   1      35.249  31.820  32.209  1.00  0.00    -0.206 F 
ATOM     45  C   UNL A   1      34.560  34.220  29.599  1.00  0.00     0.060 A 
BRANCH  45  46
ATOM     46  S   UNL A   1      33.149  34.952  28.739  1.00  0.00     0.124 S 
ATOM     47  O   UNL A   1      32.704  33.837  27.909  1.00  0.00    -0.237 OA
ATOM     48  O   UNL A   1      32.265  35.314  29.843  1.00  0.00    -0.237 OA
ATOM     49  O   UNL A   1      33.737  36.076  28.018  1.00  0.00    -0.744 OA
ENDBRANCH  45  46
ENDBRANCH  24  38
BRANCH  25  50
ATOM     50  C   UNL A   1      44.385  28.748  35.971  1.00  0.00     0.058 A 
ATOM     51  C   UNL A   1      45.713  29.188  35.877  1.00  0.00     0.135 A 
ATOM     52  C   UNL A   1      44.133  27.626  36.781  1.00  0.00     0.135 A 
ATOM     53  F   UNL A   1      46.015  30.249  35.113  1.00  0.00    -0.206 F 
ATOM     54  C   UNL A   1      46.751  28.529  36.536  1.00  0.00     0.059 A 
ATOM     55  C   UNL A   1      45.145  26.973  37.475  1.00  0.00     0.059 A 
ATOM     56  F   UNL A   1      42.882  27.159  36.917  1.00  0.00    -0.206 F 
ATOM     57  C   UNL A   1      46.456  27.419  37.330  1.00  0.00     0.060 A 
BRANCH  57  58
ATOM     58  S   UNL A   1      47.797  26.567  38.188  1.00  0.00     0.124 S 
ATOM     59  O   UNL A   1      48.678  27.678  38.528  1.00  0.00    -0.237 OA
ATOM     60  O   UNL A   1      47.101  25.939  39.306  1.00  0.00    -0.237 OA
ATOM     61  O   UNL A   1      48.307  25.643  37.179  1.00  0.00    -0.744 OA
ENDBRANCH  57  58
ENDBRANCH  25  50
BRANCH  37  62
ATOM     62  C   UNL A   1      39.930  33.925  37.408  1.00  0.00     0.058 A 
ATOM     63  C   UNL A   1      39.037  33.572  38.430  1.00  0.00     0.135 A 
ATOM     64  C   UNL A   1      40.702  35.085  37.567  1.00  0.00     0.135 A 
ATOM     65  F   UNL A   1      38.276  32.473  38.314  1.00  0.00    -0.206 F 
ATOM     66  C   UNL A   1      38.894  34.361  39.563  1.00  0.00     0.059 A 
ATOM     67  C   UNL A   1      40.595  35.875  38.703  1.00  0.00     0.059 A 
ATOM     68  F   UNL A   1      41.578  35.451  36.616  1.00  0.00    -0.206 F 
ATOM     69  C   UNL A   1      39.677  35.510  39.689  1.00  0.00     0.060 A 
BRANCH  69  70
ATOM     70  S   UNL A   1      39.505  36.514  41.177  1.00  0.00     0.124 S 
ATOM     71  O   UNL A   1      38.459  35.794  41.896  1.00  0.00    -0.237 OA
ATOM     72  O   UNL A   1      40.841  36.442  41.760  1.00  0.00    -0.237 OA
ATOM     73  O   UNL A   1      39.125  37.824  40.658  1.00  0.00    -0.744 OA
ENDBRANCH  69  70
ENDBRANCH  37  62
ENDBRANCH  11  12
ENDBRANCH   4   6
ENDBRANCH   3   4
ENDBRANCH   2   3
ENDBRANCH   1   2
BRANCH   1  74
ATOM     74  O   UNL A   1      39.611  21.810  26.034  1.00  0.00    -0.374 OA
BRANCH  74  75
ATOM     75  C   UNL A   1      38.277  22.277  25.793  1.00  0.00     0.202 C 
BRANCH  75  76
ATOM     76  C   UNL A   1      37.593  21.401  24.762  1.00  0.00     0.261 C 
BRANCH  76  77
ATOM     77  O   UNL A   1      36.224  21.810  24.753  1.00  0.00    -0.462 OA
BRANCH  77  78
ATOM     78  C   UNL A   1      35.796  22.516  23.686  1.00  0.00     0.329 C 
ATOM     79  O   UNL A   1      36.511  23.124  22.896  1.00  0.00    -0.250 OA
BRANCH  78  80
ATOM     80  C   UNL A   1      34.276  22.628  23.677  1.00  0.00     0.206 C 
BRANCH  80  81
ATOM     81  C   UNL A   1      33.391  21.624  24.478  1.00  0.00     0.073 C 
BRANCH  81  82
ATOM     82  C   UNL A   1      33.306  20.155  24.114  1.00  0.00    -0.045 A 
ATOM     83  C   UNL A   1      34.161  19.210  24.683  1.00  0.00     0.004 A 
ATOM     84  C   UNL A   1      32.351  19.692  23.195  1.00  0.00     0.004 A 
ATOM     85  C   UNL A   1      34.175  17.889  24.224  1.00  0.00     0.000 A 
ATOM     86  C   UNL A   1      32.364  18.377  22.726  1.00  0.00     0.000 A 
ATOM     87  C   UNL A   1      33.297  17.479  23.224  1.00  0.00     0.000 A 
ENDBRANCH  81  82
ENDBRANCH  80  81
BRANCH  80  88
ATOM     88  N   UNL A   1      33.966  24.055  23.858  1.00  0.00    -0.278 N 
ATOM     89  C   UNL A   1      34.309  24.655  25.052  1.00  0.00     0.267 C 
ATOM     90  C   UNL A   1      33.476  24.900  22.885  1.00  0.00     0.149 C 
ATOM     91  O   UNL A   1      34.984  24.193  25.956  1.00  0.00    -0.268 OA
ATOM     92  C   UNL A   1      33.788  26.028  25.105  1.00  0.00     0.081 C 
ATOM     93  S   UNL A   1      33.246  26.516  23.564  1.00  0.00    -0.054 SA
ATOM     94  S   UNL A   1      33.069  24.548  21.307  1.00  0.00    -0.052 S 
ATOM     95  C   UNL A   1      33.808  26.658  26.283  1.00  0.00     0.029 C 
BRANCH  95  96
ATOM     96  C   UNL A   1      33.385  28.021  26.570  1.00  0.00    -0.021 A 
ATOM     97  C   UNL A   1      32.047  28.375  26.714  1.00  0.00     0.028 A 
ATOM     98  C   UNL A   1      34.375  28.981  26.767  1.00  0.00     0.028 A 
ATOM     99  C   UNL A   1      31.757  29.693  27.014  1.00  0.00     0.111 A 
ATOM    100  C   UNL A   1      33.983  30.271  27.067  1.00  0.00     0.111 A 
ATOM    101  N   UNL A   1      32.693  30.650  27.195  1.00  0.00    -0.265 NA
ENDBRANCH  95  96
ENDBRANCH  80  88
ENDBRANCH  78  80
ENDBRANCH  77  78
ENDBRANCH  76  77
ENDBRANCH  75  76
ENDBRANCH  74  75
ENDBRANCH   1  74
TORSDOF 21
ENDMDL
