MODEL 1
REMARK VINA RESULT:     -11.2      0.000      0.000
REMARK SMILES CCCOC(=O)c1c(NC(=O)[C@@H]2CC=CC[C@H]2C(=O)OCCOCCOC(=O)c2ccc(-c3c4nc(c(-c5c(F)cc(S(=O)(=O)[O-])cc5F)c5ccc([nH]5)c(-c5c(F)cc(S(=O)(=O)[O-])cc5F)c5nc(c(-c6c(F)cc(S(=O)(=O)[O-])cc6F)c6ccc3[nH]6)C=C5)C=C4)cc2)sc2c1CCCC2
REMARK SMILES IDX 21 1 20 2 18 3 19 4 17 5 12 6 13 7 14 8 16 9 15 10 10 11
REMARK SMILES IDX 9 12 11 14 8 15 7 16 97 17 95 18 96 19 98 20 101 21 99 22
REMARK SMILES IDX 100 23 5 24 6 25 4 26 3 27 2 28 1 29 22 30 23 31 24 32 25 33
REMARK SMILES IDX 26 34 27 35 28 36 29 37 30 38 94 39 31 40 93 41 32 42 33 43
REMARK SMILES IDX 34 44 87 45 35 46 92 47 86 48 88 49 36 50 91 51 85 52 84 53
REMARK SMILES IDX 37 55 71 56 50 57 70 58 51 59 54 60 69 61 89 62 52 63 53 64
REMARK SMILES IDX 68 66 90 67 55 68 38 69 39 70 48 71 40 72 41 73 47 74 49 75
REMARK SMILES IDX 42 76 43 77 44 78 45 79 46 80 72 81 73 82 82 83 74 84 75 85
REMARK SMILES IDX 81 86 83 87 76 88 77 89 78 90 79 91 80 92 56 93 57 94 66 95
REMARK SMILES IDX 58 96 59 97 65 98 67 99 60 100 61 101 62 102 63 103 64 104
REMARK H PARENT 9 13 88 54 54 65
REMARK Flexibility Score: inf
ROOT
ATOM      1  C   UNL A   1      31.710  29.724  26.289  1.00  0.00     0.261 C 
ENDROOT
BRANCH   1   2
ATOM      2  O   UNL A   1      31.642  28.524  25.505  1.00  0.00    -0.463 OA
BRANCH   2   3
ATOM      3  C   UNL A   1      31.476  27.361  26.195  1.00  0.00     0.310 C 
ATOM      4  O   UNL A   1      31.080  27.272  27.350  1.00  0.00    -0.252 OA
BRANCH   3   5
ATOM      5  C   UNL A   1      31.933  26.155  25.385  1.00  0.00     0.116 C 
ATOM      6  C   UNL A   1      30.776  25.166  25.132  1.00  0.00     0.097 C 
ATOM      7  C   UNL A   1      30.609  24.563  23.739  1.00  0.00     0.041 C 
ATOM      8  C   UNL A   1      31.230  25.343  22.647  1.00  0.00    -0.030 C 
ATOM      9  C   UNL A   1      32.639  26.752  24.155  1.00  0.00     0.043 C 
ATOM     10  C   UNL A   1      32.157  26.285  22.826  1.00  0.00    -0.030 C 
BRANCH   6  11
ATOM     11  C   UNL A   1      30.690  24.014  26.120  1.00  0.00     0.229 C 
ATOM     12  N   UNL A   1      31.194  22.764  25.865  1.00  0.00    -0.317 N 
ATOM     13  H   UNL A   1      30.565  22.007  25.816  1.00  0.00     0.170 HD
ATOM     14  O   UNL A   1      30.021  24.146  27.154  1.00  0.00    -0.274 OA
BRANCH  12  15
ATOM     15  C   UNL A   1      32.538  22.511  25.674  1.00  0.00     0.110 A 
ATOM     16  C   UNL A   1      33.361  21.721  24.887  1.00  0.00     0.098 A 
ATOM     17  C   UNL A   1      34.741  22.218  25.020  1.00  0.00    -0.017 A 
ATOM     18  S   UNL A   1      33.415  23.499  26.774  1.00  0.00    -0.122 S 
ATOM     19  C   UNL A   1      34.858  23.236  25.946  1.00  0.00     0.011 A 
ATOM     20  C   UNL A   1      35.942  21.760  24.230  1.00  0.00     0.038 C 
ATOM     21  C   UNL A   1      36.102  24.008  26.259  1.00  0.00     0.047 C 
ATOM     22  C   UNL A   1      37.262  22.261  24.838  1.00  0.00     0.005 C 
ATOM     23  C   UNL A   1      37.185  23.747  25.204  1.00  0.00     0.006 C 
BRANCH  16  24
ATOM     24  C   UNL A   1      33.052  20.607  23.970  1.00  0.00     0.341 C 
ATOM     25  O   UNL A   1      32.335  20.798  22.990  1.00  0.00    -0.246 OA
BRANCH  24  26
ATOM     26  O   UNL A   1      33.713  19.412  24.167  1.00  0.00    -0.462 OA
BRANCH  26  27
ATOM     27  C   UNL A   1      32.763  18.331  24.356  1.00  0.00     0.233 C 
BRANCH  27  28
ATOM     28  C   UNL A   1      32.860  17.198  23.325  1.00  0.00     0.038 C 
ATOM     29  C   UNL A   1      34.161  16.396  23.383  1.00  0.00     0.007 C 
ENDBRANCH  27  28
ENDBRANCH  26  27
ENDBRANCH  24  26
ENDBRANCH  16  24
ENDBRANCH  12  15
ENDBRANCH   6  11
ENDBRANCH   3   5
ENDBRANCH   2   3
ENDBRANCH   1   2
BRANCH   1  30
ATOM     30  C   UNL A   1      33.126  30.065  26.756  1.00  0.00     0.202 C 
BRANCH  30  31
ATOM     31  O   UNL A   1      33.288  31.296  27.457  1.00  0.00    -0.374 OA
BRANCH  31  32
ATOM     32  C   UNL A   1      34.624  31.737  27.716  1.00  0.00     0.202 C 
BRANCH  32  33
ATOM     33  C   UNL A   1      35.128  31.544  29.150  1.00  0.00     0.261 C 
BRANCH  33  34
ATOM     34  O   UNL A   1      35.742  30.251  29.319  1.00  0.00    -0.460 OA
BRANCH  34  35
ATOM     35  C   UNL A   1      36.539  30.160  30.411  1.00  0.00     0.338 C 
ATOM     36  O   UNL A   1      36.196  29.984  31.566  1.00  0.00    -0.246 OA
BRANCH  35  37
ATOM     37  C   UNL A   1      37.952  30.161  30.001  1.00  0.00     0.060 A 
ATOM     38  C   UNL A   1      38.244  30.034  28.638  1.00  0.00     0.016 A 
ATOM     39  C   UNL A   1      38.968  30.114  30.956  1.00  0.00     0.016 A 
ATOM     40  C   UNL A   1      39.558  29.815  28.226  1.00  0.00     0.010 A 
ATOM     41  C   UNL A   1      40.285  29.888  30.541  1.00  0.00     0.010 A 
ATOM     42  C   UNL A   1      40.579  29.699  29.179  1.00  0.00    -0.014 A 
BRANCH  42  43
ATOM     43  C   UNL A   1      41.922  29.232  28.756  1.00  0.00     0.031 A 
ATOM     44  C   UNL A   1      43.053  30.223  28.691  1.00  0.00     0.074 A 
ATOM     45  C   UNL A   1      42.137  27.937  28.467  1.00  0.00     0.049 A 
ATOM     46  N   UNL A   1      44.294  30.040  28.324  1.00  0.00    -0.248 NA
ATOM     47  C   UNL A   1      42.745  31.604  29.102  1.00  0.00     0.031 C 
ATOM     48  C   UNL A   1      41.129  26.880  28.541  1.00  0.00     0.029 A 
ATOM     49  N   UNL A   1      43.272  27.292  28.046  1.00  0.00    -0.354 N 
ATOM     50  C   UNL A   1      44.916  31.276  28.457  1.00  0.00     0.074 A 
ATOM     51  C   UNL A   1      43.910  32.209  28.917  1.00  0.00     0.031 C 
ATOM     52  C   UNL A   1      41.689  25.718  28.163  1.00  0.00     0.029 A 
ATOM     53  C   UNL A   1      43.083  25.956  27.789  1.00  0.00     0.049 A 
ATOM     54  H   UNL A   1      44.140  27.744  27.938  1.00  0.00     0.167 HD
ATOM     55  C   UNL A   1      46.210  31.601  28.223  1.00  0.00     0.037 A 
ATOM     56  C   UNL A   1      43.928  25.036  27.281  1.00  0.00     0.037 A 
ATOM     57  C   UNL A   1      47.204  30.668  27.761  1.00  0.00     0.049 A 
ATOM     58  C   UNL A   1      45.337  25.443  26.937  1.00  0.00     0.074 A 
ATOM     59  C   UNL A   1      48.548  30.891  27.519  1.00  0.00     0.029 A 
ATOM     60  N   UNL A   1      46.957  29.339  27.455  1.00  0.00    -0.354 N 
ATOM     61  N   UNL A   1      45.919  26.608  27.094  1.00  0.00    -0.248 NA
ATOM     62  C   UNL A   1      46.200  24.415  26.337  1.00  0.00     0.031 C 
ATOM     63  C   UNL A   1      49.104  29.709  27.021  1.00  0.00     0.029 A 
ATOM     64  C   UNL A   1      48.116  28.737  26.990  1.00  0.00     0.049 A 
ATOM     65  H   UNL A   1      46.087  28.888  27.553  1.00  0.00     0.167 HD
ATOM     66  C   UNL A   1      47.218  26.452  26.621  1.00  0.00     0.074 A 
ATOM     67  C   UNL A   1      47.342  25.076  26.188  1.00  0.00     0.031 C 
ATOM     68  C   UNL A   1      48.217  27.367  26.554  1.00  0.00     0.037 A 
BRANCH  55  69
ATOM     69  C   UNL A   1      46.619  33.031  28.437  1.00  0.00     0.058 A 
ATOM     70  C   UNL A   1      47.112  33.480  29.673  1.00  0.00     0.135 A 
ATOM     71  C   UNL A   1      46.552  33.956  27.383  1.00  0.00     0.135 A 
ATOM     72  F   UNL A   1      47.184  32.639  30.717  1.00  0.00    -0.206 F 
ATOM     73  C   UNL A   1      47.503  34.802  29.862  1.00  0.00     0.059 A 
ATOM     74  C   UNL A   1      46.956  35.279  27.544  1.00  0.00     0.059 A 
ATOM     75  F   UNL A   1      46.085  33.579  26.183  1.00  0.00    -0.206 F 
ATOM     76  C   UNL A   1      47.419  35.694  28.791  1.00  0.00     0.060 A 
BRANCH  76  77
ATOM     77  S   UNL A   1      47.932  37.406  29.051  1.00  0.00     0.124 S 
ATOM     78  O   UNL A   1      47.300  37.709  30.330  1.00  0.00    -0.237 OA
ATOM     79  O   UNL A   1      49.387  37.297  29.072  1.00  0.00    -0.237 OA
ATOM     80  O   UNL A   1      47.378  38.106  27.895  1.00  0.00    -0.744 OA
ENDBRANCH  76  77
ENDBRANCH  55  69
BRANCH  56  81
ATOM     81  C   UNL A   1      43.450  23.651  27.034  1.00  0.00     0.058 A 
ATOM     82  C   UNL A   1      43.338  22.722  28.076  1.00  0.00     0.135 A 
ATOM     83  C   UNL A   1      43.083  23.236  25.744  1.00  0.00     0.135 A 
ATOM     84  F   UNL A   1      43.690  23.068  29.324  1.00  0.00    -0.206 F 
ATOM     85  C   UNL A   1      42.878  21.428  27.852  1.00  0.00     0.059 A 
ATOM     86  C   UNL A   1      42.600  21.955  25.497  1.00  0.00     0.059 A 
ATOM     87  F   UNL A   1      43.166  24.090  24.712  1.00  0.00    -0.206 F 
ATOM     88  C   UNL A   1      42.506  21.055  26.558  1.00  0.00     0.060 A 
BRANCH  88  89
ATOM     89  S   UNL A   1      41.849  19.395  26.285  1.00  0.00     0.124 S 
ATOM     90  O   UNL A   1      42.306  18.698  27.480  1.00  0.00    -0.237 OA
ATOM     91  O   UNL A   1      40.413  19.642  26.199  1.00  0.00    -0.237 OA
ATOM     92  O   UNL A   1      42.482  18.988  25.034  1.00  0.00    -0.744 OA
ENDBRANCH  88  89
ENDBRANCH  56  81
BRANCH  68  93
ATOM     93  C   UNL A   1      49.534  26.916  25.988  1.00  0.00     0.058 A 
ATOM     94  C   UNL A   1      49.851  27.113  24.635  1.00  0.00     0.135 A 
ATOM     95  C   UNL A   1      50.517  26.356  26.820  1.00  0.00     0.135 A 
ATOM     96  F   UNL A   1      48.942  27.637  23.798  1.00  0.00    -0.206 F 
ATOM     97  C   UNL A   1      51.098  26.767  24.125  1.00  0.00     0.059 A 
ATOM     98  C   UNL A   1      51.777  26.022  26.335  1.00  0.00     0.059 A 
ATOM     99  F   UNL A   1      50.264  26.155  28.123  1.00  0.00    -0.206 F 
ATOM    100  C   UNL A   1      52.057  26.226  24.984  1.00  0.00     0.060 A 
BRANCH 100 101
ATOM    101  S   UNL A   1      53.691  25.838  24.321  1.00  0.00     0.124 S 
ATOM    102  O   UNL A   1      53.468  25.982  22.887  1.00  0.00    -0.237 OA
ATOM    103  O   UNL A   1      54.530  26.859  24.938  1.00  0.00    -0.237 OA
ATOM    104  O   UNL A   1      53.930  24.474  24.786  1.00  0.00    -0.744 OA
ENDBRANCH 100 101
ENDBRANCH  68  93
ENDBRANCH  42  43
ENDBRANCH  35  37
ENDBRANCH  34  35
ENDBRANCH  33  34
ENDBRANCH  32  33
ENDBRANCH  31  32
ENDBRANCH  30  31
ENDBRANCH   1  30
TORSDOF 23
ENDMDL
MODEL 2
REMARK VINA RESULT:     -11.0      0.686      7.965
REMARK SMILES CCCOC(=O)c1c(NC(=O)[C@@H]2CC=CC[C@H]2C(=O)OCCOCCOC(=O)c2ccc(-c3c4nc(c(-c5c(F)cc(S(=O)(=O)[O-])cc5F)c5ccc([nH]5)c(-c5c(F)cc(S(=O)(=O)[O-])cc5F)c5nc(c(-c6c(F)cc(S(=O)(=O)[O-])cc6F)c6ccc3[nH]6)C=C5)C=C4)cc2)sc2c1CCCC2
REMARK SMILES IDX 21 1 20 2 18 3 19 4 17 5 12 6 13 7 14 8 16 9 15 10 10 11
REMARK SMILES IDX 9 12 11 14 8 15 7 16 97 17 95 18 96 19 98 20 101 21 99 22
REMARK SMILES IDX 100 23 5 24 6 25 4 26 3 27 2 28 1 29 22 30 23 31 24 32 25 33
REMARK SMILES IDX 26 34 27 35 28 36 29 37 30 38 94 39 31 40 93 41 32 42 33 43
REMARK SMILES IDX 34 44 87 45 35 46 92 47 86 48 88 49 36 50 91 51 85 52 84 53
REMARK SMILES IDX 37 55 71 56 50 57 70 58 51 59 54 60 69 61 89 62 52 63 53 64
REMARK SMILES IDX 68 66 90 67 55 68 38 69 39 70 48 71 40 72 41 73 47 74 49 75
REMARK SMILES IDX 42 76 43 77 44 78 45 79 46 80 72 81 73 82 82 83 74 84 75 85
REMARK SMILES IDX 81 86 83 87 76 88 77 89 78 90 79 91 80 92 56 93 57 94 66 95
REMARK SMILES IDX 58 96 59 97 65 98 67 99 60 100 61 101 62 102 63 103 64 104
REMARK H PARENT 9 13 88 54 54 65
REMARK Flexibility Score: inf
ROOT
ATOM      1  C   UNL A   1      31.876  30.144  26.508  1.00  0.00     0.261 C 
ENDROOT
BRANCH   1   2
ATOM      2  O   UNL A   1      31.694  28.902  25.812  1.00  0.00    -0.463 OA
BRANCH   2   3
ATOM      3  C   UNL A   1      31.652  27.780  26.584  1.00  0.00     0.310 C 
ATOM      4  O   UNL A   1      31.274  27.732  27.747  1.00  0.00    -0.252 OA
BRANCH   3   5
ATOM      5  C   UNL A   1      32.227  26.573  25.854  1.00  0.00     0.116 C 
ATOM      6  C   UNL A   1      31.141  25.813  25.064  1.00  0.00     0.097 C 
ATOM      7  C   UNL A   1      31.450  25.345  23.644  1.00  0.00     0.041 C 
ATOM      8  C   UNL A   1      32.540  26.083  22.971  1.00  0.00    -0.030 C 
ATOM      9  C   UNL A   1      33.425  27.126  25.062  1.00  0.00     0.043 C 
ATOM     10  C   UNL A   1      33.439  26.840  23.601  1.00  0.00    -0.030 C 
BRANCH   6  11
ATOM     11  C   UNL A   1      30.531  24.626  25.793  1.00  0.00     0.229 C 
ATOM     12  N   UNL A   1      30.737  23.323  25.414  1.00  0.00    -0.317 N 
ATOM     13  H   UNL A   1      29.961  22.797  25.112  1.00  0.00     0.170 HD
ATOM     14  O   UNL A   1      29.701  24.823  26.690  1.00  0.00    -0.274 OA
BRANCH  12  15
ATOM     15  C   UNL A   1      31.975  22.712  25.435  1.00  0.00     0.110 A 
ATOM     16  C   UNL A   1      32.671  21.717  24.767  1.00  0.00     0.098 A 
ATOM     17  C   UNL A   1      34.093  21.823  25.139  1.00  0.00    -0.017 A 
ATOM     18  S   UNL A   1      32.892  23.438  26.695  1.00  0.00    -0.122 S 
ATOM     19  C   UNL A   1      34.326  22.781  26.104  1.00  0.00     0.011 A 
ATOM     20  C   UNL A   1      35.239  21.044  24.540  1.00  0.00     0.038 C 
ATOM     21  C   UNL A   1      35.663  23.190  26.641  1.00  0.00     0.047 C 
ATOM     22  C   UNL A   1      36.526  21.175  25.370  1.00  0.00     0.005 C 
ATOM     23  C   UNL A   1      36.794  22.630  25.767  1.00  0.00     0.006 C 
BRANCH  16  24
ATOM     24  C   UNL A   1      32.229  20.719  23.776  1.00  0.00     0.341 C 
ATOM     25  O   UNL A   1      32.084  21.042  22.600  1.00  0.00    -0.246 OA
BRANCH  24  26
ATOM     26  O   UNL A   1      32.139  19.404  24.187  1.00  0.00    -0.462 OA
BRANCH  26  27
ATOM     27  C   UNL A   1      32.318  18.505  23.061  1.00  0.00     0.233 C 
BRANCH  27  28
ATOM     28  C   UNL A   1      33.304  17.356  23.303  1.00  0.00     0.038 C 
ATOM     29  C   UNL A   1      33.377  16.875  24.754  1.00  0.00     0.007 C 
ENDBRANCH  27  28
ENDBRANCH  26  27
ENDBRANCH  24  26
ENDBRANCH  16  24
ENDBRANCH  12  15
ENDBRANCH   6  11
ENDBRANCH   3   5
ENDBRANCH   2   3
ENDBRANCH   1   2
BRANCH   1  30
ATOM     30  C   UNL A   1      33.326  30.399  26.925  1.00  0.00     0.202 C 
BRANCH  30  31
ATOM     31  O   UNL A   1      33.586  31.618  27.617  1.00  0.00    -0.374 OA
BRANCH  31  32
ATOM     32  C   UNL A   1      34.945  31.908  27.954  1.00  0.00     0.202 C 
BRANCH  32  33
ATOM     33  C   UNL A   1      35.391  31.495  29.360  1.00  0.00     0.261 C 
BRANCH  33  34
ATOM     34  O   UNL A   1      35.953  30.168  29.362  1.00  0.00    -0.460 OA
BRANCH  34  35
ATOM     35  C   UNL A   1      36.747  29.908  30.430  1.00  0.00     0.338 C 
ATOM     36  O   UNL A   1      36.402  29.537  31.536  1.00  0.00    -0.246 OA
BRANCH  35  37
ATOM     37  C   UNL A   1      38.162  29.999  30.036  1.00  0.00     0.060 A 
ATOM     38  C   UNL A   1      38.466  30.029  28.670  1.00  0.00     0.016 A 
ATOM     39  C   UNL A   1      39.173  29.883  30.990  1.00  0.00     0.016 A 
ATOM     40  C   UNL A   1      39.789  29.898  28.250  1.00  0.00     0.010 A 
ATOM     41  C   UNL A   1      40.499  29.745  30.567  1.00  0.00     0.010 A 
ATOM     42  C   UNL A   1      40.807  29.713  29.195  1.00  0.00    -0.014 A 
BRANCH  42  43
ATOM     43  C   UNL A   1      42.168  29.338  28.738  1.00  0.00     0.031 A 
ATOM     44  C   UNL A   1      42.430  27.920  28.308  1.00  0.00     0.074 A 
ATOM     45  C   UNL A   1      43.146  30.258  28.675  1.00  0.00     0.049 A 
ATOM     46  N   UNL A   1      43.544  27.370  27.901  1.00  0.00    -0.248 NA
ATOM     47  C   UNL A   1      41.280  26.999  28.335  1.00  0.00     0.031 C 
ATOM     48  C   UNL A   1      42.996  31.671  29.020  1.00  0.00     0.029 A 
ATOM     49  N   UNL A   1      44.462  30.139  28.305  1.00  0.00    -0.354 N 
ATOM     50  C   UNL A   1      43.234  26.043  27.623  1.00  0.00     0.074 A 
ATOM     51  C   UNL A   1      41.832  25.863  27.930  1.00  0.00     0.031 C 
ATOM     52  C   UNL A   1      44.180  32.287  28.858  1.00  0.00     0.029 A 
ATOM     53  C   UNL A   1      45.177  31.306  28.432  1.00  0.00     0.049 A 
ATOM     54  H   UNL A   1      44.856  29.298  27.979  1.00  0.00     0.167 HD
ATOM     55  C   UNL A   1      44.045  25.068  27.149  1.00  0.00     0.037 A 
ATOM     56  C   UNL A   1      46.491  31.547  28.254  1.00  0.00     0.037 A 
ATOM     57  C   UNL A   1      45.440  25.253  26.850  1.00  0.00     0.049 A 
ATOM     58  C   UNL A   1      47.393  30.422  27.819  1.00  0.00     0.074 A 
ATOM     59  C   UNL A   1      46.342  24.336  26.340  1.00  0.00     0.029 A 
ATOM     60  N   UNL A   1      46.140  26.434  27.050  1.00  0.00    -0.354 N 
ATOM     61  N   UNL A   1      47.082  29.180  27.533  1.00  0.00    -0.248 NA
ATOM     62  C   UNL A   1      48.826  30.727  27.692  1.00  0.00     0.031 C 
ATOM     63  C   UNL A   1      47.598  24.947  26.277  1.00  0.00     0.029 A 
ATOM     64  C   UNL A   1      47.471  26.259  26.709  1.00  0.00     0.049 A 
ATOM     65  H   UNL A   1      45.749  27.273  27.385  1.00  0.00     0.167 HD
ATOM     66  C   UNL A   1      48.276  28.558  27.185  1.00  0.00     0.074 A 
ATOM     67  C   UNL A   1      49.314  29.564  27.279  1.00  0.00     0.031 C 
ATOM     68  C   UNL A   1      48.492  27.270  26.819  1.00  0.00     0.037 A 
BRANCH  55  69
ATOM     69  C   UNL A   1      43.449  23.703  26.949  1.00  0.00     0.058 A 
ATOM     70  C   UNL A   1      43.038  23.256  25.683  1.00  0.00     0.135 A 
ATOM     71  C   UNL A   1      43.321  22.817  28.031  1.00  0.00     0.135 A 
ATOM     72  F   UNL A   1      43.126  24.068  24.618  1.00  0.00    -0.206 F 
ATOM     73  C   UNL A   1      42.500  21.985  25.501  1.00  0.00     0.059 A 
ATOM     74  C   UNL A   1      42.803  21.535  27.868  1.00  0.00     0.059 A 
ATOM     75  F   UNL A   1      43.696  23.196  29.262  1.00  0.00    -0.206 F 
ATOM     76  C   UNL A   1      42.384  21.133  26.601  1.00  0.00     0.060 A 
BRANCH  76  77
ATOM     77  S   UNL A   1      41.686  19.487  26.349  1.00  0.00     0.124 S 
ATOM     78  O   UNL A   1      40.284  19.801  26.097  1.00  0.00    -0.237 OA
ATOM     79  O   UNL A   1      42.443  18.998  25.201  1.00  0.00    -0.237 OA
ATOM     80  O   UNL A   1      41.960  18.805  27.610  1.00  0.00    -0.744 OA
ENDBRANCH  76  77
ENDBRANCH  55  69
BRANCH  56  81
ATOM     81  C   UNL A   1      47.036  32.903  28.525  1.00  0.00     0.058 A 
ATOM     82  C   UNL A   1      47.117  33.871  27.516  1.00  0.00     0.135 A 
ATOM     83  C   UNL A   1      47.475  33.259  29.811  1.00  0.00     0.135 A 
ATOM     84  F   UNL A   1      46.723  33.573  26.268  1.00  0.00    -0.206 F 
ATOM     85  C   UNL A   1      47.614  35.146  27.768  1.00  0.00     0.059 A 
ATOM     86  C   UNL A   1      47.955  34.533  30.094  1.00  0.00     0.059 A 
ATOM     87  F   UNL A   1      47.412  32.369  30.814  1.00  0.00    -0.206 F 
ATOM     88  C   UNL A   1      48.025  35.469  29.063  1.00  0.00     0.060 A 
BRANCH  88  89
ATOM     89  S   UNL A   1      48.608  37.146  29.399  1.00  0.00     0.124 S 
ATOM     90  O   UNL A   1      49.712  37.268  28.454  1.00  0.00    -0.237 OA
ATOM     91  O   UNL A   1      47.425  37.948  29.106  1.00  0.00    -0.237 OA
ATOM     92  O   UNL A   1      48.985  37.091  30.808  1.00  0.00    -0.744 OA
ENDBRANCH  88  89
ENDBRANCH  56  81
BRANCH  68  93
ATOM     93  C   UNL A   1      49.904  26.868  26.496  1.00  0.00     0.058 A 
ATOM     94  C   UNL A   1      50.775  26.402  27.493  1.00  0.00     0.135 A 
ATOM     95  C   UNL A   1      50.363  26.871  25.169  1.00  0.00     0.135 A 
ATOM     96  F   UNL A   1      50.385  26.387  28.777  1.00  0.00    -0.206 F 
ATOM     97  C   UNL A   1      52.056  25.956  27.186  1.00  0.00     0.059 A 
ATOM     98  C   UNL A   1      51.634  26.411  24.837  1.00  0.00     0.059 A 
ATOM     99  F   UNL A   1      49.564  27.300  24.179  1.00  0.00    -0.206 F 
ATOM    100  C   UNL A   1      52.475  25.960  25.854  1.00  0.00     0.060 A 
BRANCH 100 101
ATOM    101  S   UNL A   1      54.118  25.322  25.462  1.00  0.00     0.124 S 
ATOM    102  O   UNL A   1      54.668  25.089  26.793  1.00  0.00    -0.237 OA
ATOM    103  O   UNL A   1      53.813  24.126  24.684  1.00  0.00    -0.237 OA
ATOM    104  O   UNL A   1      54.734  26.412  24.709  1.00  0.00    -0.744 OA
ENDBRANCH 100 101
ENDBRANCH  68  93
ENDBRANCH  42  43
ENDBRANCH  35  37
ENDBRANCH  34  35
ENDBRANCH  33  34
ENDBRANCH  32  33
ENDBRANCH  31  32
ENDBRANCH  30  31
ENDBRANCH   1  30
TORSDOF 23
ENDMDL
MODEL 3
REMARK VINA RESULT:     -10.6      1.550      8.245
REMARK SMILES CCCOC(=O)c1c(NC(=O)[C@@H]2CC=CC[C@H]2C(=O)OCCOCCOC(=O)c2ccc(-c3c4nc(c(-c5c(F)cc(S(=O)(=O)[O-])cc5F)c5ccc([nH]5)c(-c5c(F)cc(S(=O)(=O)[O-])cc5F)c5nc(c(-c6c(F)cc(S(=O)(=O)[O-])cc6F)c6ccc3[nH]6)C=C5)C=C4)cc2)sc2c1CCCC2
REMARK SMILES IDX 21 1 20 2 18 3 19 4 17 5 12 6 13 7 14 8 16 9 15 10 10 11
REMARK SMILES IDX 9 12 11 14 8 15 7 16 97 17 95 18 96 19 98 20 101 21 99 22
REMARK SMILES IDX 100 23 5 24 6 25 4 26 3 27 2 28 1 29 22 30 23 31 24 32 25 33
REMARK SMILES IDX 26 34 27 35 28 36 29 37 30 38 94 39 31 40 93 41 32 42 33 43
REMARK SMILES IDX 34 44 87 45 35 46 92 47 86 48 88 49 36 50 91 51 85 52 84 53
REMARK SMILES IDX 37 55 71 56 50 57 70 58 51 59 54 60 69 61 89 62 52 63 53 64
REMARK SMILES IDX 68 66 90 67 55 68 38 69 39 70 48 71 40 72 41 73 47 74 49 75
REMARK SMILES IDX 42 76 43 77 44 78 45 79 46 80 72 81 73 82 82 83 74 84 75 85
REMARK SMILES IDX 81 86 83 87 76 88 77 89 78 90 79 91 80 92 56 93 57 94 66 95
REMARK SMILES IDX 58 96 59 97 65 98 67 99 60 100 61 101 62 102 63 103 64 104
REMARK H PARENT 9 13 88 54 54 65
REMARK Flexibility Score: inf
ROOT
ATOM      1  C   UNL A   1      33.049  28.666  26.406  1.00  0.00     0.261 C 
ENDROOT
BRANCH   1   2
ATOM      2  O   UNL A   1      32.107  28.222  25.418  1.00  0.00    -0.463 OA
BRANCH   2   3
ATOM      3  C   UNL A   1      32.367  28.585  24.130  1.00  0.00     0.310 C 
ATOM      4  O   UNL A   1      33.238  29.368  23.777  1.00  0.00    -0.252 OA
BRANCH   3   5
ATOM      5  C   UNL A   1      31.372  27.964  23.159  1.00  0.00     0.116 C 
ATOM      6  C   UNL A   1      31.454  26.423  23.164  1.00  0.00     0.097 C 
ATOM      7  C   UNL A   1      30.160  25.613  23.176  1.00  0.00     0.041 C 
ATOM      8  C   UNL A   1      28.978  26.340  23.689  1.00  0.00    -0.030 C 
ATOM      9  C   UNL A   1      30.020  28.604  23.518  1.00  0.00     0.043 C 
ATOM     10  C   UNL A   1      28.900  27.666  23.803  1.00  0.00    -0.030 C 
BRANCH   6  11
ATOM     11  C   UNL A   1      32.335  25.824  22.079  1.00  0.00     0.229 C 
ATOM     12  N   UNL A   1      33.544  25.228  22.336  1.00  0.00    -0.317 N 
ATOM     13  H   UNL A   1      34.357  25.638  21.959  1.00  0.00     0.170 HD
ATOM     14  O   UNL A   1      32.033  25.988  20.890  1.00  0.00    -0.274 OA
BRANCH  12  15
ATOM     15  C   UNL A   1      33.680  24.081  23.093  1.00  0.00     0.110 A 
ATOM     16  C   UNL A   1      34.157  23.688  24.333  1.00  0.00     0.098 A 
ATOM     17  C   UNL A   1      33.682  22.318  24.594  1.00  0.00    -0.017 A 
ATOM     18  S   UNL A   1      33.060  22.771  22.169  1.00  0.00    -0.122 S 
ATOM     19  C   UNL A   1      33.003  21.771  23.524  1.00  0.00     0.011 A 
ATOM     20  C   UNL A   1      33.831  21.545  25.882  1.00  0.00     0.038 C 
ATOM     21  C   UNL A   1      32.329  20.435  23.493  1.00  0.00     0.047 C 
ATOM     22  C   UNL A   1      33.504  20.054  25.706  1.00  0.00     0.005 C 
ATOM     23  C   UNL A   1      32.211  19.852  24.908  1.00  0.00     0.006 C 
BRANCH  16  24
ATOM     24  C   UNL A   1      34.936  24.417  25.352  1.00  0.00     0.341 C 
ATOM     25  O   UNL A   1      34.606  25.554  25.680  1.00  0.00    -0.246 OA
BRANCH  24  26
ATOM     26  O   UNL A   1      35.930  23.726  26.015  1.00  0.00    -0.462 OA
BRANCH  26  27
ATOM     27  C   UNL A   1      37.134  23.666  25.207  1.00  0.00     0.233 C 
BRANCH  27  28
ATOM     28  C   UNL A   1      37.206  22.475  24.242  1.00  0.00     0.038 C 
ATOM     29  C   UNL A   1      37.520  21.135  24.910  1.00  0.00     0.007 C 
ENDBRANCH  27  28
ENDBRANCH  26  27
ENDBRANCH  24  26
ENDBRANCH  16  24
ENDBRANCH  12  15
ENDBRANCH   6  11
ENDBRANCH   3   5
ENDBRANCH   2   3
ENDBRANCH   1   2
BRANCH   1  30
ATOM     30  C   UNL A   1      32.640  29.972  27.090  1.00  0.00     0.202 C 
BRANCH  30  31
ATOM     31  O   UNL A   1      33.575  31.046  27.026  1.00  0.00    -0.374 OA
BRANCH  31  32
ATOM     32  C   UNL A   1      34.120  31.521  28.260  1.00  0.00     0.202 C 
BRANCH  32  33
ATOM     33  C   UNL A   1      35.617  31.278  28.471  1.00  0.00     0.261 C 
BRANCH  33  34
ATOM     34  O   UNL A   1      35.888  29.888  28.744  1.00  0.00    -0.460 OA
BRANCH  34  35
ATOM     35  C   UNL A   1      36.659  29.684  29.839  1.00  0.00     0.338 C 
ATOM     36  O   UNL A   1      36.294  29.344  30.949  1.00  0.00    -0.246 OA
BRANCH  35  37
ATOM     37  C   UNL A   1      38.082  29.790  29.477  1.00  0.00     0.060 A 
ATOM     38  C   UNL A   1      38.428  29.687  28.124  1.00  0.00     0.016 A 
ATOM     39  C   UNL A   1      39.065  29.819  30.466  1.00  0.00     0.016 A 
ATOM     40  C   UNL A   1      39.768  29.567  27.758  1.00  0.00     0.010 A 
ATOM     41  C   UNL A   1      40.409  29.692  30.096  1.00  0.00     0.010 A 
ATOM     42  C   UNL A   1      40.762  29.526  28.745  1.00  0.00    -0.014 A 
BRANCH  42  43
ATOM     43  C   UNL A   1      42.150  29.162  28.368  1.00  0.00     0.031 A 
ATOM     44  C   UNL A   1      42.457  27.735  28.002  1.00  0.00     0.074 A 
ATOM     45  C   UNL A   1      43.114  30.098  28.321  1.00  0.00     0.049 A 
ATOM     46  N   UNL A   1      43.599  27.193  27.669  1.00  0.00    -0.248 NA
ATOM     47  C   UNL A   1      41.323  26.795  28.004  1.00  0.00     0.031 C 
ATOM     48  C   UNL A   1      42.923  31.519  28.609  1.00  0.00     0.029 A 
ATOM     49  N   UNL A   1      44.449  29.991  28.021  1.00  0.00    -0.354 N 
ATOM     50  C   UNL A   1      43.326  25.852  27.423  1.00  0.00     0.074 A 
ATOM     51  C   UNL A   1      41.913  25.656  27.666  1.00  0.00     0.031 C 
ATOM     52  C   UNL A   1      44.102  32.150  28.485  1.00  0.00     0.029 A 
ATOM     53  C   UNL A   1      45.136  31.174  28.142  1.00  0.00     0.049 A 
ATOM     54  H   UNL A   1      44.873  29.147  27.744  1.00  0.00     0.167 HD
ATOM     55  C   UNL A   1      44.176  24.877  27.023  1.00  0.00     0.037 A 
ATOM     56  C   UNL A   1      46.454  31.434  28.021  1.00  0.00     0.037 A 
ATOM     57  C   UNL A   1      45.581  25.078  26.787  1.00  0.00     0.049 A 
ATOM     58  C   UNL A   1      47.395  30.312  27.670  1.00  0.00     0.074 A 
ATOM     59  C   UNL A   1      46.523  24.161  26.354  1.00  0.00     0.029 A 
ATOM     60  N   UNL A   1      46.250  26.277  26.980  1.00  0.00    -0.354 N 
ATOM     61  N   UNL A   1      47.120  29.056  27.413  1.00  0.00    -0.248 NA
ATOM     62  C   UNL A   1      48.827  30.640  27.603  1.00  0.00     0.031 C 
ATOM     63  C   UNL A   1      47.770  24.793  26.331  1.00  0.00     0.029 A 
ATOM     64  C   UNL A   1      47.599  26.116  26.711  1.00  0.00     0.049 A 
ATOM     65  H   UNL A   1      45.829  27.120  27.266  1.00  0.00     0.167 HD
ATOM     66  C   UNL A   1      48.340  28.445  27.146  1.00  0.00     0.074 A 
ATOM     67  C   UNL A   1      49.355  29.472  27.256  1.00  0.00     0.031 C 
ATOM     68  C   UNL A   1      48.596  27.150  26.835  1.00  0.00     0.037 A 
BRANCH  55  69
ATOM     69  C   UNL A   1      43.614  23.495  26.842  1.00  0.00     0.058 A 
ATOM     70  C   UNL A   1      43.357  22.964  25.567  1.00  0.00     0.135 A 
ATOM     71  C   UNL A   1      43.364  22.676  27.955  1.00  0.00     0.135 A 
ATOM     72  F   UNL A   1      43.566  23.710  24.470  1.00  0.00    -0.206 F 
ATOM     73  C   UNL A   1      42.850  21.678  25.404  1.00  0.00     0.059 A 
ATOM     74  C   UNL A   1      42.875  21.380  27.814  1.00  0.00     0.059 A 
ATOM     75  F   UNL A   1      43.589  23.137  29.195  1.00  0.00    -0.206 F 
ATOM     76  C   UNL A   1      42.610  20.895  26.535  1.00  0.00     0.060 A 
BRANCH  76  77
ATOM     77  S   UNL A   1      41.954  19.228  26.308  1.00  0.00     0.124 S 
ATOM     78  O   UNL A   1      42.113  18.669  27.646  1.00  0.00    -0.237 OA
ATOM     79  O   UNL A   1      40.580  19.487  25.888  1.00  0.00    -0.237 OA
ATOM     80  O   UNL A   1      42.821  18.658  25.282  1.00  0.00    -0.744 OA
ENDBRANCH  76  77
ENDBRANCH  55  69
BRANCH  56  81
ATOM     81  C   UNL A   1      46.961  32.808  28.272  1.00  0.00     0.058 A 
ATOM     82  C   UNL A   1      47.075  33.743  27.234  1.00  0.00     0.135 A 
ATOM     83  C   UNL A   1      47.328  33.216  29.564  1.00  0.00     0.135 A 
ATOM     84  F   UNL A   1      46.750  33.396  25.980  1.00  0.00    -0.206 F 
ATOM     85  C   UNL A   1      47.537  35.035  27.466  1.00  0.00     0.059 A 
ATOM     86  C   UNL A   1      47.772  34.508  29.826  1.00  0.00     0.059 A 
ATOM     87  F   UNL A   1      47.231  32.360  30.593  1.00  0.00    -0.206 F 
ATOM     88  C   UNL A   1      47.878  35.410  28.768  1.00  0.00     0.060 A 
BRANCH  88  89
ATOM     89  S   UNL A   1      48.415  37.107  29.073  1.00  0.00     0.124 S 
ATOM     90  O   UNL A   1      47.889  37.345  30.412  1.00  0.00    -0.237 OA
ATOM     91  O   UNL A   1      49.865  36.996  28.966  1.00  0.00    -0.237 OA
ATOM     92  O   UNL A   1      47.771  37.858  27.998  1.00  0.00    -0.744 OA
ENDBRANCH  88  89
ENDBRANCH  56  81
BRANCH  68  93
ATOM     93  C   UNL A   1      50.029  26.763  26.597  1.00  0.00     0.058 A 
ATOM     94  C   UNL A   1      50.594  26.817  25.314  1.00  0.00     0.135 A 
ATOM     95  C   UNL A   1      50.864  26.414  27.670  1.00  0.00     0.135 A 
ATOM     96  F   UNL A   1      49.834  27.138  24.254  1.00  0.00    -0.206 F 
ATOM     97  C   UNL A   1      51.939  26.535  25.101  1.00  0.00     0.059 A 
ATOM     98  C   UNL A   1      52.217  26.147  27.483  1.00  0.00     0.059 A 
ATOM     99  F   UNL A   1      50.372  26.356  28.918  1.00  0.00    -0.206 F 
ATOM    100  C   UNL A   1      52.744  26.205  26.194  1.00  0.00     0.060 A 
BRANCH 100 101
ATOM    101  S   UNL A   1      54.501  25.899  25.912  1.00  0.00     0.124 S 
ATOM    102  O   UNL A   1      54.711  24.673  26.673  1.00  0.00    -0.237 OA
ATOM    103  O   UNL A   1      54.567  25.765  24.461  1.00  0.00    -0.237 OA
ATOM    104  O   UNL A   1      55.145  27.093  26.455  1.00  0.00    -0.744 OA
ENDBRANCH 100 101
ENDBRANCH  68  93
ENDBRANCH  42  43
ENDBRANCH  35  37
ENDBRANCH  34  35
ENDBRANCH  33  34
ENDBRANCH  32  33
ENDBRANCH  31  32
ENDBRANCH  30  31
ENDBRANCH   1  30
TORSDOF 23
ENDMDL
