MODEL 1
REMARK VINA RESULT:      -9.7      0.000      0.000
REMARK SMILES O=Cc1ccc(-c2ccc(C(=O)OCCOCCOC(=O)c3ccc(-c4c5nc(c(-c6c(F)cc(S(=O)(=O)[O-])cc6F)c6ccc([nH]6)c(-c6c(F)cc(S(=O)(=O)[O-])cc6F)c6nc(c(-c7c(F)cc(S(=O)(=O)[O-])cc7F)c7ccc4[nH]7)C=C6)C=C5)cc3)cn2)cc1
REMARK SMILES IDX 17 1 16 2 15 3 14 4 13 5 11 6 12 7 10 8 7 9 8 10 89 11 9 12
REMARK SMILES IDX 88 13 6 14 3 15 4 16 91 17 5 18 90 19 2 20 1 21 18 22 19 23
REMARK SMILES IDX 20 24 21 25 22 26 23 27 87 28 24 29 86 30 25 31 26 32 27 33
REMARK SMILES IDX 80 34 28 35 85 36 79 37 81 38 29 39 84 40 78 41 77 42 30 44
REMARK SMILES IDX 64 45 43 46 63 47 44 48 47 49 62 50 82 51 45 52 46 53 61 55
REMARK SMILES IDX 83 56 48 57 31 58 32 59 41 60 33 61 34 62 40 63 42 64 35 65
REMARK SMILES IDX 36 66 37 67 38 68 39 69 65 70 66 71 75 72 67 73 68 74 74 75
REMARK SMILES IDX 76 76 69 77 70 78 71 79 72 80 73 81 49 82 50 83 59 84 51 85
REMARK SMILES IDX 52 86 58 87 60 88 53 89 54 90 55 91 56 92 57 93
REMARK H PARENT 81 43 47 54
REMARK Flexibility Score: inf
ROOT
ATOM      1  C   UNL A   1      41.642  19.942  26.394  1.00  0.00     0.202 C 
ENDROOT
BRANCH   1   2
ATOM      2  O   UNL A   1      42.230  19.346  25.237  1.00  0.00    -0.374 OA
BRANCH   2   3
ATOM      3  C   UNL A   1      43.593  18.931  25.334  1.00  0.00     0.202 C 
BRANCH   3   4
ATOM      4  C   UNL A   1      44.453  19.113  24.080  1.00  0.00     0.261 C 
BRANCH   4   5
ATOM      5  O   UNL A   1      44.634  20.504  23.766  1.00  0.00    -0.460 OA
BRANCH   5   6
ATOM      6  C   UNL A   1      45.472  21.168  24.593  1.00  0.00     0.339 C 
ATOM      7  O   UNL A   1      46.531  20.759  25.054  1.00  0.00    -0.246 OA
BRANCH   6   8
ATOM      8  C   UNL A   1      45.029  22.560  24.769  1.00  0.00     0.078 A 
ATOM      9  C   UNL A   1      44.451  25.195  25.289  1.00  0.00     0.070 A 
ATOM     10  C   UNL A   1      43.409  24.319  24.978  1.00  0.00     0.030 A 
ATOM     11  N   UNL A   1      45.752  24.815  25.264  1.00  0.00    -0.255 NA
ATOM     12  C   UNL A   1      43.703  22.982  24.701  1.00  0.00     0.019 A 
ATOM     13  C   UNL A   1      46.009  23.509  25.024  1.00  0.00     0.127 A 
BRANCH   9  14
ATOM     14  C   UNL A   1      44.225  26.539  25.828  1.00  0.00     0.000 A 
ATOM     15  C   UNL A   1      43.938  29.208  26.663  1.00  0.00     0.014 A 
ATOM     16  C   UNL A   1      42.886  28.569  26.000  1.00  0.00     0.012 A 
ATOM     17  C   UNL A   1      45.124  28.524  26.927  1.00  0.00     0.012 A 
ATOM     18  C   UNL A   1      43.036  27.244  25.578  1.00  0.00     0.011 A 
ATOM     19  C   UNL A   1      45.260  27.196  26.518  1.00  0.00     0.011 A 
BRANCH  15  20
ATOM     20  C   UNL A   1      43.799  30.623  27.059  1.00  0.00     0.260 C 
ATOM     21  O   UNL A   1      44.259  31.539  26.388  1.00  0.00    -0.298 OA
ENDBRANCH  15  20
ENDBRANCH   9  14
ENDBRANCH   6   8
ENDBRANCH   5   6
ENDBRANCH   4   5
ENDBRANCH   3   4
ENDBRANCH   2   3
ENDBRANCH   1   2
BRANCH   1  22
ATOM     22  C   UNL A   1      40.300  20.657  26.202  1.00  0.00     0.261 C 
BRANCH  22  23
ATOM     23  O   UNL A   1      40.433  22.089  26.249  1.00  0.00    -0.460 OA
BRANCH  23  24
ATOM     24  C   UNL A   1      39.261  22.767  26.219  1.00  0.00     0.338 C 
ATOM     25  O   UNL A   1      38.177  22.345  25.837  1.00  0.00    -0.246 OA
BRANCH  24  26
ATOM     26  C   UNL A   1      39.411  24.068  26.896  1.00  0.00     0.060 A 
ATOM     27  C   UNL A   1      40.095  25.079  26.208  1.00  0.00     0.016 A 
ATOM     28  C   UNL A   1      38.951  24.280  28.197  1.00  0.00     0.016 A 
ATOM     29  C   UNL A   1      40.364  26.292  26.838  1.00  0.00     0.010 A 
ATOM     30  C   UNL A   1      39.229  25.497  28.830  1.00  0.00     0.010 A 
ATOM     31  C   UNL A   1      39.965  26.495  28.166  1.00  0.00    -0.014 A 
BRANCH  31  32
ATOM     32  C   UNL A   1      40.428  27.702  28.893  1.00  0.00     0.031 A 
ATOM     33  C   UNL A   1      41.816  27.721  29.475  1.00  0.00     0.074 A 
ATOM     34  C   UNL A   1      39.630  28.779  29.011  1.00  0.00     0.049 A 
ATOM     35  N   UNL A   1      42.410  28.655  30.171  1.00  0.00    -0.248 NA
ATOM     36  C   UNL A   1      42.642  26.525  29.244  1.00  0.00     0.031 C 
ATOM     37  C   UNL A   1      38.279  28.891  28.462  1.00  0.00     0.029 A 
ATOM     38  N   UNL A   1      39.840  29.982  29.637  1.00  0.00    -0.354 N 
ATOM     39  C   UNL A   1      43.676  28.161  30.467  1.00  0.00     0.074 A 
ATOM     40  C   UNL A   1      43.752  26.830  29.901  1.00  0.00     0.031 C 
ATOM     41  C   UNL A   1      37.776  30.095  28.785  1.00  0.00     0.029 A 
ATOM     42  C   UNL A   1      38.755  30.824  29.590  1.00  0.00     0.049 A 
ATOM     43  H   UNL A   1      40.687  30.219  30.079  1.00  0.00     0.167 HD
ATOM     44  C   UNL A   1      44.684  28.764  31.139  1.00  0.00     0.037 A 
ATOM     45  C   UNL A   1      38.567  32.037  30.148  1.00  0.00     0.037 A 
ATOM     46  C   UNL A   1      44.603  30.090  31.696  1.00  0.00     0.049 A 
ATOM     47  C   UNL A   1      39.683  32.664  30.942  1.00  0.00     0.074 A 
ATOM     48  C   UNL A   1      45.578  30.799  32.375  1.00  0.00     0.029 A 
ATOM     49  N   UNL A   1      43.480  30.903  31.648  1.00  0.00    -0.354 N 
ATOM     50  N   UNL A   1      40.884  32.197  31.190  1.00  0.00    -0.248 NA
ATOM     51  C   UNL A   1      39.421  33.987  31.527  1.00  0.00     0.031 C 
ATOM     52  C   UNL A   1      45.030  32.020  32.780  1.00  0.00     0.029 A 
ATOM     53  C   UNL A   1      43.730  32.096  32.307  1.00  0.00     0.049 A 
ATOM     54  H   UNL A   1      42.631  30.667  31.209  1.00  0.00     0.167 HD
ATOM     55  C   UNL A   1      41.528  33.178  31.938  1.00  0.00     0.074 A 
ATOM     56  C   UNL A   1      40.588  34.269  32.090  1.00  0.00     0.031 C 
ATOM     57  C   UNL A   1      42.785  33.177  32.448  1.00  0.00     0.037 A 
BRANCH  44  58
ATOM     58  C   UNL A   1      45.957  27.987  31.332  1.00  0.00     0.058 A 
ATOM     59  C   UNL A   1      46.107  27.056  32.371  1.00  0.00     0.135 A 
ATOM     60  C   UNL A   1      47.031  28.149  30.440  1.00  0.00     0.135 A 
ATOM     61  F   UNL A   1      45.120  26.873  33.262  1.00  0.00    -0.206 F 
ATOM     62  C   UNL A   1      47.284  26.332  32.535  1.00  0.00     0.059 A 
ATOM     63  C   UNL A   1      48.207  27.417  30.569  1.00  0.00     0.059 A 
ATOM     64  F   UNL A   1      46.943  29.029  29.429  1.00  0.00    -0.206 F 
ATOM     65  C   UNL A   1      48.329  26.519  31.629  1.00  0.00     0.060 A 
BRANCH  65  66
ATOM     66  S   UNL A   1      49.847  25.569  31.852  1.00  0.00     0.124 S 
ATOM     67  O   UNL A   1      50.069  25.056  30.504  1.00  0.00    -0.237 OA
ATOM     68  O   UNL A   1      50.789  26.586  32.305  1.00  0.00    -0.237 OA
ATOM     69  O   UNL A   1      49.479  24.570  32.850  1.00  0.00    -0.744 OA
ENDBRANCH  65  66
ENDBRANCH  44  58
BRANCH  45  70
ATOM     70  C   UNL A   1      37.263  32.733  29.985  1.00  0.00     0.058 A 
ATOM     71  C   UNL A   1      36.195  32.490  30.860  1.00  0.00     0.135 A 
ATOM     72  C   UNL A   1      37.063  33.661  28.951  1.00  0.00     0.135 A 
ATOM     73  F   UNL A   1      36.333  31.603  31.858  1.00  0.00    -0.206 F 
ATOM     74  C   UNL A   1      34.969  33.130  30.708  1.00  0.00     0.059 A 
ATOM     75  C   UNL A   1      35.856  34.333  28.794  1.00  0.00     0.059 A 
ATOM     76  F   UNL A   1      38.058  33.939  28.094  1.00  0.00    -0.206 F 
ATOM     77  C   UNL A   1      34.811  34.053  29.673  1.00  0.00     0.060 A 
BRANCH  77  78
ATOM     78  S   UNL A   1      33.234  34.920  29.517  1.00  0.00     0.124 S 
ATOM     79  O   UNL A   1      33.655  36.197  28.953  1.00  0.00    -0.237 OA
ATOM     80  O   UNL A   1      32.488  34.040  28.623  1.00  0.00    -0.237 OA
ATOM     81  O   UNL A   1      32.741  34.968  30.891  1.00  0.00    -0.744 OA
ENDBRANCH  77  78
ENDBRANCH  45  70
BRANCH  57  82
ATOM     82  C   UNL A   1      43.233  34.405  33.194  1.00  0.00     0.058 A 
ATOM     83  C   UNL A   1      43.829  35.493  32.537  1.00  0.00     0.135 A 
ATOM     84  C   UNL A   1      43.019  34.512  34.578  1.00  0.00     0.135 A 
ATOM     85  F   UNL A   1      44.062  35.439  31.216  1.00  0.00    -0.206 F 
ATOM     86  C   UNL A   1      44.219  36.634  33.230  1.00  0.00     0.059 A 
ATOM     87  C   UNL A   1      43.376  35.657  35.286  1.00  0.00     0.059 A 
ATOM     88  F   UNL A   1      42.442  33.506  35.254  1.00  0.00    -0.206 F 
ATOM     89  C   UNL A   1      43.988  36.708  34.605  1.00  0.00     0.060 A 
BRANCH  89  90
ATOM     90  S   UNL A   1      44.473  38.206  35.486  1.00  0.00     0.124 S 
ATOM     91  O   UNL A   1      45.927  38.152  35.380  1.00  0.00    -0.237 OA
ATOM     92  O   UNL A   1      43.818  39.253  34.708  1.00  0.00    -0.237 OA
ATOM     93  O   UNL A   1      43.933  38.001  36.828  1.00  0.00    -0.744 OA
ENDBRANCH  89  90
ENDBRANCH  57  82
ENDBRANCH  31  32
ENDBRANCH  24  26
ENDBRANCH  23  24
ENDBRANCH  22  23
ENDBRANCH   1  22
TORSDOF 19
ENDMDL
MODEL 2
REMARK VINA RESULT:      -9.3      3.567      5.384
REMARK SMILES O=Cc1ccc(-c2ccc(C(=O)OCCOCCOC(=O)c3ccc(-c4c5nc(c(-c6c(F)cc(S(=O)(=O)[O-])cc6F)c6ccc([nH]6)c(-c6c(F)cc(S(=O)(=O)[O-])cc6F)c6nc(c(-c7c(F)cc(S(=O)(=O)[O-])cc7F)c7ccc4[nH]7)C=C6)C=C5)cc3)cn2)cc1
REMARK SMILES IDX 17 1 16 2 15 3 14 4 13 5 11 6 12 7 10 8 7 9 8 10 89 11 9 12
REMARK SMILES IDX 88 13 6 14 3 15 4 16 91 17 5 18 90 19 2 20 1 21 18 22 19 23
REMARK SMILES IDX 20 24 21 25 22 26 23 27 87 28 24 29 86 30 25 31 26 32 27 33
REMARK SMILES IDX 80 34 28 35 85 36 79 37 81 38 29 39 84 40 78 41 77 42 30 44
REMARK SMILES IDX 64 45 43 46 63 47 44 48 47 49 62 50 82 51 45 52 46 53 61 55
REMARK SMILES IDX 83 56 48 57 31 58 32 59 41 60 33 61 34 62 40 63 42 64 35 65
REMARK SMILES IDX 36 66 37 67 38 68 39 69 65 70 66 71 75 72 67 73 68 74 74 75
REMARK SMILES IDX 76 76 69 77 70 78 71 79 72 80 73 81 49 82 50 83 59 84 51 85
REMARK SMILES IDX 52 86 58 87 60 88 53 89 54 90 55 91 56 92 57 93
REMARK H PARENT 81 43 47 54
REMARK Flexibility Score: inf
ROOT
ATOM      1  C   UNL A   1      44.000  22.026  25.514  1.00  0.00     0.202 C 
ENDROOT
BRANCH   1   2
ATOM      2  O   UNL A   1      44.218  20.978  24.567  1.00  0.00    -0.374 OA
BRANCH   2   3
ATOM      3  C   UNL A   1      44.571  19.694  25.081  1.00  0.00     0.202 C 
BRANCH   3   4
ATOM      4  C   UNL A   1      43.412  18.738  25.382  1.00  0.00     0.261 C 
BRANCH   4   5
ATOM      5  O   UNL A   1      42.143  19.405  25.281  1.00  0.00    -0.460 OA
BRANCH   5   6
ATOM      6  C   UNL A   1      41.537  19.653  26.464  1.00  0.00     0.339 C 
ATOM      7  O   UNL A   1      41.932  19.330  27.577  1.00  0.00    -0.246 OA
BRANCH   6   8
ATOM      8  C   UNL A   1      40.369  20.527  26.272  1.00  0.00     0.078 A 
ATOM      9  C   UNL A   1      38.141  22.007  25.641  1.00  0.00     0.070 A 
ATOM     10  C   UNL A   1      39.138  22.582  26.432  1.00  0.00     0.030 A 
ATOM     11  N   UNL A   1      38.189  20.713  25.238  1.00  0.00    -0.255 NA
ATOM     12  C   UNL A   1      40.265  21.827  26.764  1.00  0.00     0.019 A 
ATOM     13  C   UNL A   1      39.305  20.012  25.546  1.00  0.00     0.127 A 
BRANCH   9  14
ATOM     14  C   UNL A   1      37.053  22.784  25.042  1.00  0.00     0.000 A 
ATOM     15  C   UNL A   1      34.814  24.067  23.928  1.00  0.00     0.014 A 
ATOM     16  C   UNL A   1      35.212  24.371  25.233  1.00  0.00     0.012 A 
ATOM     17  C   UNL A   1      35.530  23.142  23.169  1.00  0.00     0.012 A 
ATOM     18  C   UNL A   1      36.322  23.724  25.787  1.00  0.00     0.011 A 
ATOM     19  C   UNL A   1      36.647  22.513  23.723  1.00  0.00     0.011 A 
BRANCH  15  20
ATOM     20  C   UNL A   1      33.610  24.709  23.364  1.00  0.00     0.260 C 
ATOM     21  O   UNL A   1      33.583  25.164  22.227  1.00  0.00    -0.298 OA
ENDBRANCH  15  20
ENDBRANCH   9  14
ENDBRANCH   6   8
ENDBRANCH   5   6
ENDBRANCH   4   5
ENDBRANCH   3   4
ENDBRANCH   2   3
ENDBRANCH   1   2
BRANCH   1  22
ATOM     22  C   UNL A   1      43.075  23.171  25.083  1.00  0.00     0.261 C 
BRANCH  22  23
ATOM     23  O   UNL A   1      42.792  24.078  26.163  1.00  0.00    -0.460 OA
BRANCH  23  24
ATOM     24  C   UNL A   1      43.061  25.378  25.894  1.00  0.00     0.338 C 
ATOM     25  O   UNL A   1      43.571  25.828  24.877  1.00  0.00    -0.246 OA
BRANCH  24  26
ATOM     26  C   UNL A   1      42.479  26.242  26.937  1.00  0.00     0.060 A 
ATOM     27  C   UNL A   1      42.919  27.571  26.995  1.00  0.00     0.016 A 
ATOM     28  C   UNL A   1      41.572  25.753  27.879  1.00  0.00     0.016 A 
ATOM     29  C   UNL A   1      42.489  28.404  28.026  1.00  0.00     0.010 A 
ATOM     30  C   UNL A   1      41.147  26.590  28.917  1.00  0.00     0.010 A 
ATOM     31  C   UNL A   1      41.629  27.908  29.014  1.00  0.00    -0.014 A 
BRANCH  31  32
ATOM     32  C   UNL A   1      41.338  28.733  30.212  1.00  0.00     0.031 A 
ATOM     33  C   UNL A   1      42.186  28.565  31.443  1.00  0.00     0.074 A 
ATOM     34  C   UNL A   1      40.344  29.640  30.193  1.00  0.00     0.049 A 
ATOM     35  N   UNL A   1      42.087  29.157  32.605  1.00  0.00    -0.248 NA
ATOM     36  C   UNL A   1      43.289  27.596  31.354  1.00  0.00     0.031 C 
ATOM     37  C   UNL A   1      39.476  29.916  29.048  1.00  0.00     0.029 A 
ATOM     38  N   UNL A   1      39.895  30.493  31.170  1.00  0.00    -0.354 N 
ATOM     39  C   UNL A   1      43.110  28.632  33.387  1.00  0.00     0.074 A 
ATOM     40  C   UNL A   1      43.798  27.649  32.577  1.00  0.00     0.031 C 
ATOM     41  C   UNL A   1      38.590  30.867  29.393  1.00  0.00     0.029 A 
ATOM     42  C   UNL A   1      38.807  31.243  30.789  1.00  0.00     0.049 A 
ATOM     43  H   UNL A   1      40.311  30.561  32.059  1.00  0.00     0.167 HD
ATOM     44  C   UNL A   1      43.450  28.948  34.658  1.00  0.00     0.037 A 
ATOM     45  C   UNL A   1      38.061  32.118  31.493  1.00  0.00     0.037 A 
ATOM     46  C   UNL A   1      42.764  29.930  35.458  1.00  0.00     0.049 A 
ATOM     47  C   UNL A   1      38.423  32.410  32.925  1.00  0.00     0.074 A 
ATOM     48  C   UNL A   1      43.047  30.338  36.749  1.00  0.00     0.029 A 
ATOM     49  N   UNL A   1      41.653  30.652  35.045  1.00  0.00    -0.354 N 
ATOM     50  N   UNL A   1      39.409  31.926  33.643  1.00  0.00    -0.248 NA
ATOM     51  C   UNL A   1      37.574  33.371  33.643  1.00  0.00     0.031 C 
ATOM     52  C   UNL A   1      42.078  31.270  37.136  1.00  0.00     0.029 A 
ATOM     53  C   UNL A   1      41.223  31.485  36.066  1.00  0.00     0.049 A 
ATOM     54  H   UNL A   1      41.233  30.584  34.158  1.00  0.00     0.167 HD
ATOM     55  C   UNL A   1      39.314  32.542  34.887  1.00  0.00     0.074 A 
ATOM     56  C   UNL A   1      38.183  33.443  34.820  1.00  0.00     0.031 C 
ATOM     57  C   UNL A   1      40.095  32.380  35.984  1.00  0.00     0.037 A 
BRANCH  44  58
ATOM     58  C   UNL A   1      44.603  28.206  35.277  1.00  0.00     0.058 A 
ATOM     59  C   UNL A   1      44.424  26.991  35.956  1.00  0.00     0.135 A 
ATOM     60  C   UNL A   1      45.913  28.699  35.155  1.00  0.00     0.135 A 
ATOM     61  F   UNL A   1      43.192  26.482  36.117  1.00  0.00    -0.206 F 
ATOM     62  C   UNL A   1      45.497  26.304  36.514  1.00  0.00     0.059 A 
ATOM     63  C   UNL A   1      47.005  28.016  35.683  1.00  0.00     0.059 A 
ATOM     64  F   UNL A   1      46.142  29.858  34.518  1.00  0.00    -0.206 F 
ATOM     65  C   UNL A   1      46.785  26.825  36.373  1.00  0.00     0.060 A 
BRANCH  65  66
ATOM     66  S   UNL A   1      48.167  25.920  37.099  1.00  0.00     0.124 S 
ATOM     67  O   UNL A   1      48.688  26.898  38.048  1.00  0.00    -0.237 OA
ATOM     68  O   UNL A   1      47.507  24.759  37.685  1.00  0.00    -0.237 OA
ATOM     69  O   UNL A   1      49.027  25.637  35.954  1.00  0.00    -0.744 OA
ENDBRANCH  65  66
ENDBRANCH  44  58
BRANCH  45  70
ATOM     70  C   UNL A   1      36.889  32.773  30.855  1.00  0.00     0.058 A 
ATOM     71  C   UNL A   1      37.046  33.870  29.997  1.00  0.00     0.135 A 
ATOM     72  C   UNL A   1      35.585  32.309  31.090  1.00  0.00     0.135 A 
ATOM     73  F   UNL A   1      38.272  34.358  29.751  1.00  0.00    -0.206 F 
ATOM     74  C   UNL A   1      35.954  34.496  29.405  1.00  0.00     0.059 A 
ATOM     75  C   UNL A   1      34.478  32.900  30.489  1.00  0.00     0.059 A 
ATOM     76  F   UNL A   1      35.380  31.253  31.893  1.00  0.00    -0.206 F 
ATOM     77  C   UNL A   1      34.673  33.999  29.654  1.00  0.00     0.060 A 
BRANCH  77  78
ATOM     78  S   UNL A   1      33.265  34.782  28.838  1.00  0.00     0.124 S 
ATOM     79  O   UNL A   1      33.897  35.932  28.200  1.00  0.00    -0.237 OA
ATOM     80  O   UNL A   1      32.806  33.726  27.941  1.00  0.00    -0.237 OA
ATOM     81  O   UNL A   1      32.364  35.089  29.945  1.00  0.00    -0.744 OA
ENDBRANCH  77  78
ENDBRANCH  45  70
BRANCH  57  82
ATOM     82  C   UNL A   1      39.777  33.216  37.194  1.00  0.00     0.058 A 
ATOM     83  C   UNL A   1      38.820  32.816  38.139  1.00  0.00     0.135 A 
ATOM     84  C   UNL A   1      40.476  34.411  37.435  1.00  0.00     0.135 A 
ATOM     85  F   UNL A   1      38.120  31.686  37.954  1.00  0.00    -0.206 F 
ATOM     86  C   UNL A   1      38.549  33.583  39.268  1.00  0.00     0.059 A 
ATOM     87  C   UNL A   1      40.241  35.179  38.572  1.00  0.00     0.059 A 
ATOM     88  F   UNL A   1      41.411  34.835  36.570  1.00  0.00    -0.206 F 
ATOM     89  C   UNL A   1      39.265  34.763  39.477  1.00  0.00     0.060 A 
BRANCH  89  90
ATOM     90  S   UNL A   1      38.923  35.733  40.960  1.00  0.00     0.124 S 
ATOM     91  O   UNL A   1      38.589  37.034  40.390  1.00  0.00    -0.237 OA
ATOM     92  O   UNL A   1      37.815  35.001  41.564  1.00  0.00    -0.237 OA
ATOM     93  O   UNL A   1      40.181  35.676  41.701  1.00  0.00    -0.744 OA
ENDBRANCH  89  90
ENDBRANCH  57  82
ENDBRANCH  31  32
ENDBRANCH  24  26
ENDBRANCH  23  24
ENDBRANCH  22  23
ENDBRANCH   1  22
TORSDOF 19
ENDMDL
MODEL 3
REMARK VINA RESULT:      -9.3      2.463      3.932
REMARK SMILES O=Cc1ccc(-c2ccc(C(=O)OCCOCCOC(=O)c3ccc(-c4c5nc(c(-c6c(F)cc(S(=O)(=O)[O-])cc6F)c6ccc([nH]6)c(-c6c(F)cc(S(=O)(=O)[O-])cc6F)c6nc(c(-c7c(F)cc(S(=O)(=O)[O-])cc7F)c7ccc4[nH]7)C=C6)C=C5)cc3)cn2)cc1
REMARK SMILES IDX 17 1 16 2 15 3 14 4 13 5 11 6 12 7 10 8 7 9 8 10 89 11 9 12
REMARK SMILES IDX 88 13 6 14 3 15 4 16 91 17 5 18 90 19 2 20 1 21 18 22 19 23
REMARK SMILES IDX 20 24 21 25 22 26 23 27 87 28 24 29 86 30 25 31 26 32 27 33
REMARK SMILES IDX 80 34 28 35 85 36 79 37 81 38 29 39 84 40 78 41 77 42 30 44
REMARK SMILES IDX 64 45 43 46 63 47 44 48 47 49 62 50 82 51 45 52 46 53 61 55
REMARK SMILES IDX 83 56 48 57 31 58 32 59 41 60 33 61 34 62 40 63 42 64 35 65
REMARK SMILES IDX 36 66 37 67 38 68 39 69 65 70 66 71 75 72 67 73 68 74 74 75
REMARK SMILES IDX 76 76 69 77 70 78 71 79 72 80 73 81 49 82 50 83 59 84 51 85
REMARK SMILES IDX 52 86 58 87 60 88 53 89 54 90 55 91 56 92 57 93
REMARK H PARENT 81 43 47 54
REMARK Flexibility Score: inf
ROOT
ATOM      1  C   UNL A   1      41.363  19.652  26.452  1.00  0.00     0.202 C 
ENDROOT
BRANCH   1   2
ATOM      2  O   UNL A   1      42.149  19.222  25.340  1.00  0.00    -0.374 OA
BRANCH   2   3
ATOM      3  C   UNL A   1      43.536  18.979  25.573  1.00  0.00     0.202 C 
BRANCH   3   4
ATOM      4  C   UNL A   1      44.523  19.786  24.723  1.00  0.00     0.261 C 
BRANCH   4   5
ATOM      5  O   UNL A   1      44.984  20.954  25.423  1.00  0.00    -0.460 OA
BRANCH   5   6
ATOM      6  C   UNL A   1      44.135  22.006  25.392  1.00  0.00     0.339 C 
ATOM      7  O   UNL A   1      43.433  22.359  24.453  1.00  0.00    -0.246 OA
BRANCH   6   8
ATOM      8  C   UNL A   1      44.028  22.622  26.724  1.00  0.00     0.078 A 
ATOM      9  C   UNL A   1      44.127  23.680  29.258  1.00  0.00     0.070 A 
ATOM     10  C   UNL A   1      42.901  23.244  28.751  1.00  0.00     0.030 A 
ATOM     11  N   UNL A   1      45.262  23.680  28.516  1.00  0.00    -0.255 NA
ATOM     12  C   UNL A   1      42.847  22.716  27.459  1.00  0.00     0.019 A 
ATOM     13  C   UNL A   1      45.191  23.136  27.279  1.00  0.00     0.127 A 
BRANCH   9  14
ATOM     14  C   UNL A   1      44.330  24.015  30.670  1.00  0.00     0.000 A 
ATOM     15  C   UNL A   1      44.490  24.785  33.369  1.00  0.00     0.014 A 
ATOM     16  C   UNL A   1      44.124  23.477  33.039  1.00  0.00     0.012 A 
ATOM     17  C   UNL A   1      44.793  25.707  32.367  1.00  0.00     0.012 A 
ATOM     18  C   UNL A   1      44.036  23.100  31.694  1.00  0.00     0.011 A 
ATOM     19  C   UNL A   1      44.719  25.319  31.028  1.00  0.00     0.011 A 
BRANCH  15  20
ATOM     20  C   UNL A   1      44.528  25.197  34.785  1.00  0.00     0.260 C 
ATOM     21  O   UNL A   1      45.061  24.514  35.652  1.00  0.00    -0.298 OA
ENDBRANCH  15  20
ENDBRANCH   9  14
ENDBRANCH   6   8
ENDBRANCH   5   6
ENDBRANCH   4   5
ENDBRANCH   3   4
ENDBRANCH   2   3
ENDBRANCH   1   2
BRANCH   1  22
ATOM     22  C   UNL A   1      40.006  20.293  26.138  1.00  0.00     0.261 C 
BRANCH  22  23
ATOM     23  O   UNL A   1      39.789  21.504  26.884  1.00  0.00    -0.460 OA
BRANCH  23  24
ATOM     24  C   UNL A   1      39.047  22.438  26.242  1.00  0.00     0.338 C 
ATOM     25  O   UNL A   1      38.109  22.236  25.481  1.00  0.00    -0.246 OA
BRANCH  24  26
ATOM     26  C   UNL A   1      39.399  23.785  26.726  1.00  0.00     0.060 A 
ATOM     27  C   UNL A   1      39.978  24.671  25.807  1.00  0.00     0.016 A 
ATOM     28  C   UNL A   1      39.228  24.158  28.060  1.00  0.00     0.016 A 
ATOM     29  C   UNL A   1      40.433  25.917  26.231  1.00  0.00     0.010 A 
ATOM     30  C   UNL A   1      39.692  25.409  28.485  1.00  0.00     0.010 A 
ATOM     31  C   UNL A   1      40.326  26.279  27.580  1.00  0.00    -0.014 A 
BRANCH  31  32
ATOM     32  C   UNL A   1      40.990  27.516  28.061  1.00  0.00     0.031 A 
ATOM     33  C   UNL A   1      42.487  27.630  27.964  1.00  0.00     0.074 A 
ATOM     34  C   UNL A   1      40.264  28.535  28.556  1.00  0.00     0.049 A 
ATOM     35  N   UNL A   1      43.271  28.602  28.350  1.00  0.00    -0.248 NA
ATOM     36  C   UNL A   1      43.195  26.494  27.352  1.00  0.00     0.031 C 
ATOM     37  C   UNL A   1      38.806  28.553  28.671  1.00  0.00     0.029 A 
ATOM     38  N   UNL A   1      40.658  29.749  29.060  1.00  0.00    -0.354 N 
ATOM     39  C   UNL A   1      44.563  28.196  28.035  1.00  0.00     0.074 A 
ATOM     40  C   UNL A   1      44.460  26.875  27.454  1.00  0.00     0.031 C 
ATOM     41  C   UNL A   1      38.428  29.720  29.222  1.00  0.00     0.029 A 
ATOM     42  C   UNL A   1      39.616  30.515  29.527  1.00  0.00     0.049 A 
ATOM     43  H   UNL A   1      41.596  30.044  29.085  1.00  0.00     0.167 HD
ATOM     44  C   UNL A   1      45.726  28.868  28.205  1.00  0.00     0.037 A 
ATOM     45  C   UNL A   1      39.623  31.711  30.148  1.00  0.00     0.037 A 
ATOM     46  C   UNL A   1      45.821  30.185  28.781  1.00  0.00     0.049 A 
ATOM     47  C   UNL A   1      40.935  32.414  30.380  1.00  0.00     0.074 A 
ATOM     48  C   UNL A   1      46.952  30.959  28.975  1.00  0.00     0.029 A 
ATOM     49  N   UNL A   1      44.747  30.919  29.264  1.00  0.00    -0.354 N 
ATOM     50  N   UNL A   1      42.146  32.031  30.052  1.00  0.00    -0.248 NA
ATOM     51  C   UNL A   1      40.882  33.715  31.061  1.00  0.00     0.031 C 
ATOM     52  C   UNL A   1      46.568  32.140  29.619  1.00  0.00     0.029 A 
ATOM     53  C   UNL A   1      45.191  32.127  29.778  1.00  0.00     0.049 A 
ATOM     54  H   UNL A   1      43.808  30.625  29.243  1.00  0.00     0.167 HD
ATOM     55  C   UNL A   1      42.995  33.054  30.464  1.00  0.00     0.074 A 
ATOM     56  C   UNL A   1      42.158  34.077  31.053  1.00  0.00     0.031 C 
ATOM     57  C   UNL A   1      44.345  33.140  30.360  1.00  0.00     0.037 A 
BRANCH  44  58
ATOM     58  C   UNL A   1      46.997  28.181  27.786  1.00  0.00     0.058 A 
ATOM     59  C   UNL A   1      47.509  28.300  26.484  1.00  0.00     0.135 A 
ATOM     60  C   UNL A   1      47.734  27.422  28.711  1.00  0.00     0.135 A 
ATOM     61  F   UNL A   1      46.837  28.998  25.555  1.00  0.00    -0.206 F 
ATOM     62  C   UNL A   1      48.691  27.671  26.108  1.00  0.00     0.059 A 
ATOM     63  C   UNL A   1      48.933  26.807  28.363  1.00  0.00     0.059 A 
ATOM     64  F   UNL A   1      47.289  27.273  29.969  1.00  0.00    -0.206 F 
ATOM     65  C   UNL A   1      49.397  26.926  27.054  1.00  0.00     0.060 A 
BRANCH  65  66
ATOM     66  S   UNL A   1      50.932  26.121  26.551  1.00  0.00     0.124 S 
ATOM     67  O   UNL A   1      51.930  27.008  27.141  1.00  0.00    -0.237 OA
ATOM     68  O   UNL A   1      50.811  24.805  27.168  1.00  0.00    -0.237 OA
ATOM     69  O   UNL A   1      50.862  26.136  25.094  1.00  0.00    -0.744 OA
ENDBRANCH  65  66
ENDBRANCH  44  58
BRANCH  45  70
ATOM     70  C   UNL A   1      38.344  32.316  30.606  1.00  0.00     0.058 A 
ATOM     71  C   UNL A   1      37.653  33.242  29.812  1.00  0.00     0.135 A 
ATOM     72  C   UNL A   1      37.787  31.976  31.849  1.00  0.00     0.135 A 
ATOM     73  F   UNL A   1      38.151  33.609  28.621  1.00  0.00    -0.206 F 
ATOM     74  C   UNL A   1      36.461  33.821  30.237  1.00  0.00     0.059 A 
ATOM     75  C   UNL A   1      36.584  32.520  32.285  1.00  0.00     0.059 A 
ATOM     76  F   UNL A   1      38.403  31.085  32.642  1.00  0.00    -0.206 F 
ATOM     77  C   UNL A   1      35.932  33.450  31.475  1.00  0.00     0.060 A 
BRANCH  77  78
ATOM     78  S   UNL A   1      34.357  34.164  31.994  1.00  0.00     0.124 S 
ATOM     79  O   UNL A   1      33.667  34.313  30.718  1.00  0.00    -0.237 OA
ATOM     80  O   UNL A   1      33.834  33.134  32.887  1.00  0.00    -0.237 OA
ATOM     81  O   UNL A   1      34.753  35.408  32.649  1.00  0.00    -0.744 OA
ENDBRANCH  77  78
ENDBRANCH  45  70
BRANCH  57  82
ATOM     82  C   UNL A   1      45.003  34.395  30.864  1.00  0.00     0.058 A 
ATOM     83  C   UNL A   1      45.551  34.477  32.154  1.00  0.00     0.135 A 
ATOM     84  C   UNL A   1      45.129  35.516  30.027  1.00  0.00     0.135 A 
ATOM     85  F   UNL A   1      45.453  33.436  32.996  1.00  0.00    -0.206 F 
ATOM     86  C   UNL A   1      46.180  35.633  32.604  1.00  0.00     0.059 A 
ATOM     87  C   UNL A   1      45.778  36.673  30.447  1.00  0.00     0.059 A 
ATOM     88  F   UNL A   1      44.633  35.489  28.780  1.00  0.00    -0.206 F 
ATOM     89  C   UNL A   1      46.290  36.727  31.743  1.00  0.00     0.060 A 
BRANCH  89  90
ATOM     90  S   UNL A   1      47.132  38.211  32.331  1.00  0.00     0.124 S 
ATOM     91  O   UNL A   1      48.500  37.729  32.490  1.00  0.00    -0.237 OA
ATOM     92  O   UNL A   1      46.914  39.149  31.234  1.00  0.00    -0.237 OA
ATOM     93  O   UNL A   1      46.431  38.532  33.571  1.00  0.00    -0.744 OA
ENDBRANCH  89  90
ENDBRANCH  57  82
ENDBRANCH  31  32
ENDBRANCH  24  26
ENDBRANCH  23  24
ENDBRANCH  22  23
ENDBRANCH   1  22
TORSDOF 19
ENDMDL
