MODEL 1
REMARK VINA RESULT:     -11.0      0.000      0.000
REMARK SMILES COc1ccc2cc([C@H](C)C(=O)OCCOCCOC(=O)c3ccc(-c4c5nc(c(-c6c(F)cc(S(=O)(=O)[O-])cc6F)c6ccc([nH]6)c(-c6c(F)cc(S(=O)(=O)[O-])cc6F)c6nc(c(-c7c(F)cc(S(=O)(=O)[O-])cc7F)c7ccc4[nH]7)C=C6)C=C5)cc3)ccc2c1
REMARK SMILES IDX 17 1 16 2 15 3 14 4 13 5 11 6 12 7 9 8 10 9 8 10 3 11 4 12
REMARK SMILES IDX 91 13 5 14 90 15 6 16 89 17 7 18 88 19 2 20 1 21 18 22 19 23
REMARK SMILES IDX 20 24 21 25 22 26 23 27 87 28 24 29 86 30 25 31 26 32 27 33
REMARK SMILES IDX 80 34 28 35 85 36 79 37 81 38 29 39 84 40 78 41 77 42 30 44
REMARK SMILES IDX 64 45 43 46 63 47 44 48 47 49 62 50 82 51 45 52 46 53 61 55
REMARK SMILES IDX 83 56 48 57 31 58 32 59 41 60 33 61 34 62 40 63 42 64 35 65
REMARK SMILES IDX 36 66 37 67 38 68 39 69 65 70 66 71 75 72 67 73 68 74 74 75
REMARK SMILES IDX 76 76 69 77 70 78 71 79 72 80 73 81 49 82 50 83 59 84 51 85
REMARK SMILES IDX 52 86 58 87 60 88 53 89 54 90 55 91 56 92 57 93
REMARK H PARENT 81 43 47 54
REMARK Flexibility Score: inf
ROOT
ATOM      1  C   UNL A   1      39.446  21.194  26.137  1.00  0.00     0.202 C 
ENDROOT
BRANCH   1   2
ATOM      2  O   UNL A   1      38.417  21.883  25.432  1.00  0.00    -0.374 OA
BRANCH   2   3
ATOM      3  C   UNL A   1      37.387  21.083  24.847  1.00  0.00     0.202 C 
BRANCH   3   4
ATOM      4  C   UNL A   1      36.101  21.831  24.493  1.00  0.00     0.261 C 
BRANCH   4   5
ATOM      5  O   UNL A   1      35.048  21.487  25.405  1.00  0.00    -0.463 OA
BRANCH   5   6
ATOM      6  C   UNL A   1      33.795  21.968  25.151  1.00  0.00     0.313 C 
ATOM      7  O   UNL A   1      33.144  21.761  24.135  1.00  0.00    -0.252 OA
BRANCH   6   8
ATOM      8  C   UNL A   1      33.308  22.835  26.320  1.00  0.00     0.126 C 
ATOM      9  C   UNL A   1      34.248  22.682  27.516  1.00  0.00     0.025 C 
BRANCH   8  10
ATOM     10  C   UNL A   1      33.121  24.247  25.780  1.00  0.00    -0.033 A 
ATOM     11  C   UNL A   1      33.003  29.223  26.513  1.00  0.00     0.119 A 
ATOM     12  C   UNL A   1      31.875  28.717  27.158  1.00  0.00     0.047 A 
ATOM     13  C   UNL A   1      33.771  28.383  25.704  1.00  0.00     0.055 A 
ATOM     14  C   UNL A   1      31.554  27.363  27.042  1.00  0.00     0.012 A 
ATOM     15  C   UNL A   1      33.481  27.017  25.603  1.00  0.00    -0.015 A 
ATOM     16  C   UNL A   1      32.373  26.497  26.303  1.00  0.00    -0.018 A 
ATOM     17  C   UNL A   1      34.317  26.153  24.885  1.00  0.00     0.009 A 
ATOM     18  C   UNL A   1      32.170  25.114  26.339  1.00  0.00     0.013 A 
ATOM     19  C   UNL A   1      34.146  24.775  24.981  1.00  0.00     0.005 A 
BRANCH  11  20
ATOM     20  O   UNL A   1      33.463  30.506  26.593  1.00  0.00    -0.497 OA
ATOM     21  C   UNL A   1      34.031  30.903  27.836  1.00  0.00     0.278 C 
ENDBRANCH  11  20
ENDBRANCH   8  10
ENDBRANCH   6   8
ENDBRANCH   5   6
ENDBRANCH   4   5
ENDBRANCH   3   4
ENDBRANCH   2   3
ENDBRANCH   1   2
BRANCH   1  22
ATOM     22  C   UNL A   1      40.514  22.071  26.798  1.00  0.00     0.261 C 
BRANCH  22  23
ATOM     23  O   UNL A   1      40.216  23.475  26.711  1.00  0.00    -0.460 OA
BRANCH  23  24
ATOM     24  C   UNL A   1      41.280  24.282  26.929  1.00  0.00     0.338 C 
ATOM     25  O   UNL A   1      42.412  24.148  26.470  1.00  0.00    -0.246 OA
BRANCH  24  26
ATOM     26  C   UNL A   1      40.893  25.471  27.708  1.00  0.00     0.060 A 
ATOM     27  C   UNL A   1      41.829  26.508  27.800  1.00  0.00     0.016 A 
ATOM     28  C   UNL A   1      39.697  25.530  28.429  1.00  0.00     0.016 A 
ATOM     29  C   UNL A   1      41.605  27.576  28.665  1.00  0.00     0.010 A 
ATOM     30  C   UNL A   1      39.475  26.604  29.299  1.00  0.00     0.010 A 
ATOM     31  C   UNL A   1      40.448  27.608  29.453  1.00  0.00    -0.014 A 
BRANCH  31  32
ATOM     32  C   UNL A   1      40.337  28.616  30.538  1.00  0.00     0.031 A 
ATOM     33  C   UNL A   1      41.226  28.497  31.747  1.00  0.00     0.074 A 
ATOM     34  C   UNL A   1      39.480  29.646  30.433  1.00  0.00     0.049 A 
ATOM     35  N   UNL A   1      41.292  29.262  32.805  1.00  0.00    -0.248 NA
ATOM     36  C   UNL A   1      42.163  27.365  31.762  1.00  0.00     0.031 C 
ATOM     37  C   UNL A   1      38.587  29.888  29.302  1.00  0.00     0.029 A 
ATOM     38  N   UNL A   1      39.220  30.679  31.300  1.00  0.00    -0.354 N 
ATOM     39  C   UNL A   1      42.272  28.703  33.617  1.00  0.00     0.074 A 
ATOM     40  C   UNL A   1      42.749  27.515  32.942  1.00  0.00     0.031 C 
ATOM     41  C   UNL A   1      37.858  30.989  29.556  1.00  0.00     0.029 A 
ATOM     42  C   UNL A   1      38.216  31.511  30.874  1.00  0.00     0.049 A 
ATOM     43  H   UNL A   1      39.706  30.809  32.145  1.00  0.00     0.167 HD
ATOM     44  C   UNL A   1      42.740  29.144  34.810  1.00  0.00     0.037 A 
ATOM     45  C   UNL A   1      37.633  32.563  31.482  1.00  0.00     0.037 A 
ATOM     46  C   UNL A   1      42.264  30.325  35.480  1.00  0.00     0.049 A 
ATOM     47  C   UNL A   1      38.133  33.013  32.827  1.00  0.00     0.074 A 
ATOM     48  C   UNL A   1      42.699  30.872  36.675  1.00  0.00     0.029 A 
ATOM     49  N   UNL A   1      41.235  31.135  35.022  1.00  0.00    -0.354 N 
ATOM     50  N   UNL A   1      39.089  32.500  33.563  1.00  0.00    -0.248 NA
ATOM     51  C   UNL A   1      37.483  34.191  33.420  1.00  0.00     0.031 C 
ATOM     52  C   UNL A   1      41.901  31.986  36.963  1.00  0.00     0.029 A 
ATOM     53  C   UNL A   1      41.000  32.161  35.924  1.00  0.00     0.049 A 
ATOM     54  H   UNL A   1      40.744  31.001  34.180  1.00  0.00     0.167 HD
ATOM     55  C   UNL A   1      39.169  33.301  34.697  1.00  0.00     0.074 A 
ATOM     56  C   UNL A   1      38.172  34.340  34.545  1.00  0.00     0.031 C 
ATOM     57  C   UNL A   1      39.998  33.187  35.766  1.00  0.00     0.037 A 
BRANCH  44  58
ATOM     58  C   UNL A   1      43.802  28.314  35.479  1.00  0.00     0.058 A 
ATOM     59  C   UNL A   1      45.167  28.486  35.193  1.00  0.00     0.135 A 
ATOM     60  C   UNL A   1      43.448  27.328  36.412  1.00  0.00     0.135 A 
ATOM     61  F   UNL A   1      45.560  29.405  34.297  1.00  0.00    -0.206 F 
ATOM     62  C   UNL A   1      46.138  27.677  35.774  1.00  0.00     0.059 A 
ATOM     63  C   UNL A   1      44.405  26.526  37.028  1.00  0.00     0.059 A 
ATOM     64  F   UNL A   1      42.159  27.123  36.725  1.00  0.00    -0.206 F 
ATOM     65  C   UNL A   1      45.746  26.692  36.683  1.00  0.00     0.060 A 
BRANCH  65  66
ATOM     66  S   UNL A   1      47.011  25.623  37.402  1.00  0.00     0.124 S 
ATOM     67  O   UNL A   1      48.114  26.563  37.584  1.00  0.00    -0.237 OA
ATOM     68  O   UNL A   1      46.369  25.156  38.626  1.00  0.00    -0.237 OA
ATOM     69  O   UNL A   1      47.217  24.605  36.377  1.00  0.00    -0.744 OA
ENDBRANCH  65  66
ENDBRANCH  44  58
BRANCH  45  70
ATOM     70  C   UNL A   1      36.494  33.245  30.817  1.00  0.00     0.058 A 
ATOM     71  C   UNL A   1      35.177  33.073  31.265  1.00  0.00     0.135 A 
ATOM     72  C   UNL A   1      36.714  34.129  29.749  1.00  0.00     0.135 A 
ATOM     73  F   UNL A   1      34.917  32.231  32.277  1.00  0.00    -0.206 F 
ATOM     74  C   UNL A   1      34.118  33.759  30.683  1.00  0.00     0.059 A 
ATOM     75  C   UNL A   1      35.674  34.841  29.163  1.00  0.00     0.059 A 
ATOM     76  F   UNL A   1      37.961  34.341  29.297  1.00  0.00    -0.206 F 
ATOM     77  C   UNL A   1      34.379  34.650  29.640  1.00  0.00     0.060 A 
BRANCH  77  78
ATOM     78  S   UNL A   1      33.011  35.620  28.968  1.00  0.00     0.124 S 
ATOM     79  O   UNL A   1      32.278  35.972  30.177  1.00  0.00    -0.237 OA
ATOM     80  O   UNL A   1      33.717  36.712  28.305  1.00  0.00    -0.237 OA
ATOM     81  O   UNL A   1      32.346  34.679  28.073  1.00  0.00    -0.744 OA
ENDBRANCH  77  78
ENDBRANCH  45  70
BRANCH  57  82
ATOM     82  C   UNL A   1      39.877  34.221  36.852  1.00  0.00     0.058 A 
ATOM     83  C   UNL A   1      40.509  35.469  36.755  1.00  0.00     0.135 A 
ATOM     84  C   UNL A   1      39.076  33.978  37.980  1.00  0.00     0.135 A 
ATOM     85  F   UNL A   1      41.292  35.750  35.700  1.00  0.00    -0.206 F 
ATOM     86  C   UNL A   1      40.368  36.435  37.746  1.00  0.00     0.059 A 
ATOM     87  C   UNL A   1      38.901  34.938  38.972  1.00  0.00     0.059 A 
ATOM     88  F   UNL A   1      38.441  32.803  38.118  1.00  0.00    -0.206 F 
ATOM     89  C   UNL A   1      39.561  36.161  38.852  1.00  0.00     0.060 A 
BRANCH  89  90
ATOM     90  S   UNL A   1      39.359  37.432  40.118  1.00  0.00     0.124 S 
ATOM     91  O   UNL A   1      40.728  37.909  40.275  1.00  0.00    -0.237 OA
ATOM     92  O   UNL A   1      38.432  38.364  39.481  1.00  0.00    -0.237 OA
ATOM     93  O   UNL A   1      38.813  36.697  41.254  1.00  0.00    -0.744 OA
ENDBRANCH  89  90
ENDBRANCH  57  82
ENDBRANCH  31  32
ENDBRANCH  24  26
ENDBRANCH  23  24
ENDBRANCH  22  23
ENDBRANCH   1  22
TORSDOF 19
ENDMDL
MODEL 2
REMARK VINA RESULT:     -10.9      1.622      3.853
REMARK SMILES COc1ccc2cc([C@H](C)C(=O)OCCOCCOC(=O)c3ccc(-c4c5nc(c(-c6c(F)cc(S(=O)(=O)[O-])cc6F)c6ccc([nH]6)c(-c6c(F)cc(S(=O)(=O)[O-])cc6F)c6nc(c(-c7c(F)cc(S(=O)(=O)[O-])cc7F)c7ccc4[nH]7)C=C6)C=C5)cc3)ccc2c1
REMARK SMILES IDX 17 1 16 2 15 3 14 4 13 5 11 6 12 7 9 8 10 9 8 10 3 11 4 12
REMARK SMILES IDX 91 13 5 14 90 15 6 16 89 17 7 18 88 19 2 20 1 21 18 22 19 23
REMARK SMILES IDX 20 24 21 25 22 26 23 27 87 28 24 29 86 30 25 31 26 32 27 33
REMARK SMILES IDX 80 34 28 35 85 36 79 37 81 38 29 39 84 40 78 41 77 42 30 44
REMARK SMILES IDX 64 45 43 46 63 47 44 48 47 49 62 50 82 51 45 52 46 53 61 55
REMARK SMILES IDX 83 56 48 57 31 58 32 59 41 60 33 61 34 62 40 63 42 64 35 65
REMARK SMILES IDX 36 66 37 67 38 68 39 69 65 70 66 71 75 72 67 73 68 74 74 75
REMARK SMILES IDX 76 76 69 77 70 78 71 79 72 80 73 81 49 82 50 83 59 84 51 85
REMARK SMILES IDX 52 86 58 87 60 88 53 89 54 90 55 91 56 92 57 93
REMARK H PARENT 81 43 47 54
REMARK Flexibility Score: inf
ROOT
ATOM      1  C   UNL A   1      44.905  23.040  24.628  1.00  0.00     0.202 C 
ENDROOT
BRANCH   1   2
ATOM      2  O   UNL A   1      44.625  22.055  25.617  1.00  0.00    -0.374 OA
BRANCH   2   3
ATOM      3  C   UNL A   1      44.793  20.688  25.235  1.00  0.00     0.202 C 
BRANCH   3   4
ATOM      4  C   UNL A   1      43.528  19.833  25.292  1.00  0.00     0.261 C 
BRANCH   4   5
ATOM      5  O   UNL A   1      42.369  20.655  25.501  1.00  0.00    -0.463 OA
BRANCH   5   6
ATOM      6  C   UNL A   1      41.296  20.104  26.141  1.00  0.00     0.313 C 
ATOM      7  O   UNL A   1      40.859  18.976  25.956  1.00  0.00    -0.252 OA
BRANCH   6   8
ATOM      8  C   UNL A   1      40.685  21.111  27.125  1.00  0.00     0.126 C 
ATOM      9  C   UNL A   1      41.793  21.866  27.861  1.00  0.00     0.025 C 
BRANCH   8  10
ATOM     10  C   UNL A   1      39.694  21.957  26.338  1.00  0.00    -0.033 A 
ATOM     11  C   UNL A   1      34.954  23.249  25.251  1.00  0.00     0.119 A 
ATOM     12  C   UNL A   1      35.126  21.965  24.735  1.00  0.00     0.047 A 
ATOM     13  C   UNL A   1      36.057  23.948  25.746  1.00  0.00     0.055 A 
ATOM     14  C   UNL A   1      36.385  21.361  24.771  1.00  0.00     0.012 A 
ATOM     15  C   UNL A   1      37.318  23.345  25.820  1.00  0.00    -0.015 A 
ATOM     16  C   UNL A   1      37.476  22.025  25.349  1.00  0.00    -0.018 A 
ATOM     17  C   UNL A   1      38.399  24.003  26.421  1.00  0.00     0.009 A 
ATOM     18  C   UNL A   1      38.687  21.359  25.565  1.00  0.00     0.013 A 
ATOM     19  C   UNL A   1      39.576  23.311  26.690  1.00  0.00     0.005 A 
BRANCH  11  20
ATOM     20  O   UNL A   1      33.772  23.927  25.333  1.00  0.00    -0.497 OA
ATOM     21  C   UNL A   1      33.810  25.313  25.010  1.00  0.00     0.278 C 
ENDBRANCH  11  20
ENDBRANCH   8  10
ENDBRANCH   6   8
ENDBRANCH   5   6
ENDBRANCH   4   5
ENDBRANCH   3   4
ENDBRANCH   2   3
ENDBRANCH   1   2
BRANCH   1  22
ATOM     22  C   UNL A   1      44.245  24.408  24.831  1.00  0.00     0.261 C 
BRANCH  22  23
ATOM     23  O   UNL A   1      43.359  24.437  25.964  1.00  0.00    -0.460 OA
BRANCH  23  24
ATOM     24  C   UNL A   1      42.485  25.470  25.958  1.00  0.00     0.338 C 
ATOM     25  O   UNL A   1      41.715  25.776  25.051  1.00  0.00    -0.246 OA
BRANCH  24  26
ATOM     26  C   UNL A   1      42.454  26.147  27.266  1.00  0.00     0.060 A 
ATOM     27  C   UNL A   1      41.389  25.838  28.122  1.00  0.00     0.016 A 
ATOM     28  C   UNL A   1      43.372  27.144  27.608  1.00  0.00     0.016 A 
ATOM     29  C   UNL A   1      41.198  26.570  29.290  1.00  0.00     0.010 A 
ATOM     30  C   UNL A   1      43.176  27.880  28.782  1.00  0.00     0.010 A 
ATOM     31  C   UNL A   1      42.064  27.626  29.605  1.00  0.00    -0.014 A 
BRANCH  31  32
ATOM     32  C   UNL A   1      41.711  28.547  30.715  1.00  0.00     0.031 A 
ATOM     33  C   UNL A   1      42.495  28.488  31.998  1.00  0.00     0.074 A 
ATOM     34  C   UNL A   1      40.727  29.451  30.570  1.00  0.00     0.049 A 
ATOM     35  N   UNL A   1      42.355  29.196  33.088  1.00  0.00    -0.248 NA
ATOM     36  C   UNL A   1      43.582  27.499  32.057  1.00  0.00     0.031 C 
ATOM     37  C   UNL A   1      39.913  29.627  29.369  1.00  0.00     0.029 A 
ATOM     38  N   UNL A   1      40.243  30.388  31.449  1.00  0.00    -0.354 N 
ATOM     39  C   UNL A   1      43.328  28.736  33.967  1.00  0.00     0.074 A 
ATOM     40  C   UNL A   1      44.031  27.665  33.293  1.00  0.00     0.031 C 
ATOM     41  C   UNL A   1      39.013  30.599  29.596  1.00  0.00     0.029 A 
ATOM     42  C   UNL A   1      39.172  31.093  30.962  1.00  0.00     0.049 A 
ATOM     43  H   UNL A   1      40.627  30.538  32.343  1.00  0.00     0.167 HD
ATOM     44  C   UNL A   1      43.618  29.172  35.217  1.00  0.00     0.037 A 
ATOM     45  C   UNL A   1      38.390  32.018  31.555  1.00  0.00     0.037 A 
ATOM     46  C   UNL A   1      42.918  30.236  35.886  1.00  0.00     0.049 A 
ATOM     47  C   UNL A   1      38.697  32.459  32.959  1.00  0.00     0.074 A 
ATOM     48  C   UNL A   1      43.159  30.773  37.139  1.00  0.00     0.029 A 
ATOM     49  N   UNL A   1      41.828  30.918  35.365  1.00  0.00    -0.354 N 
ATOM     50  N   UNL A   1      39.647  32.046  33.763  1.00  0.00    -0.248 NA
ATOM     51  C   UNL A   1      37.833  33.500  33.534  1.00  0.00     0.031 C 
ATOM     52  C   UNL A   1      42.186  31.746  37.394  1.00  0.00     0.029 A 
ATOM     53  C   UNL A   1      41.367  31.849  36.281  1.00  0.00     0.049 A 
ATOM     54  H   UNL A   1      41.439  30.762  34.474  1.00  0.00     0.167 HD
ATOM     55  C   UNL A   1      39.508  32.787  34.931  1.00  0.00     0.074 A 
ATOM     56  C   UNL A   1      38.388  33.683  34.726  1.00  0.00     0.031 C 
ATOM     57  C   UNL A   1      40.245  32.732  36.070  1.00  0.00     0.037 A 
BRANCH  44  58
ATOM     58  C   UNL A   1      44.724  28.464  35.951  1.00  0.00     0.058 A 
ATOM     59  C   UNL A   1      44.472  27.373  36.799  1.00  0.00     0.135 A 
ATOM     60  C   UNL A   1      46.054  28.890  35.811  1.00  0.00     0.135 A 
ATOM     61  F   UNL A   1      43.217  26.933  36.981  1.00  0.00    -0.206 F 
ATOM     62  C   UNL A   1      45.494  26.759  37.518  1.00  0.00     0.059 A 
ATOM     63  C   UNL A   1      47.096  28.274  36.498  1.00  0.00     0.059 A 
ATOM     64  F   UNL A   1      46.352  29.927  35.012  1.00  0.00    -0.206 F 
ATOM     65  C   UNL A   1      46.802  27.224  37.368  1.00  0.00     0.060 A 
BRANCH  65  66
ATOM     66  S   UNL A   1      48.114  26.446  38.334  1.00  0.00     0.124 S 
ATOM     67  O   UNL A   1      47.397  26.084  39.554  1.00  0.00    -0.237 OA
ATOM     68  O   UNL A   1      48.515  25.333  37.481  1.00  0.00    -0.237 OA
ATOM     69  O   UNL A   1      49.104  27.508  38.480  1.00  0.00    -0.744 OA
ENDBRANCH  65  66
ENDBRANCH  44  58
BRANCH  45  70
ATOM     70  C   UNL A   1      37.229  32.569  30.811  1.00  0.00     0.058 A 
ATOM     71  C   UNL A   1      35.938  32.054  30.987  1.00  0.00     0.135 A 
ATOM     72  C   UNL A   1      37.387  33.664  29.947  1.00  0.00     0.135 A 
ATOM     73  F   UNL A   1      35.740  31.002  31.796  1.00  0.00    -0.206 F 
ATOM     74  C   UNL A   1      34.841  32.609  30.339  1.00  0.00     0.059 A 
ATOM     75  C   UNL A   1      36.303  34.249  29.302  1.00  0.00     0.059 A 
ATOM     76  F   UNL A   1      38.602  34.204  29.761  1.00  0.00    -0.206 F 
ATOM     77  C   UNL A   1      35.032  33.714  29.508  1.00  0.00     0.060 A 
BRANCH  77  78
ATOM     78  S   UNL A   1      33.586  34.498  28.761  1.00  0.00     0.124 S 
ATOM     79  O   UNL A   1      33.044  33.409  27.959  1.00  0.00    -0.237 OA
ATOM     80  O   UNL A   1      32.810  34.876  29.938  1.00  0.00    -0.237 OA
ATOM     81  O   UNL A   1      34.162  35.612  28.015  1.00  0.00    -0.744 OA
ENDBRANCH  77  78
ENDBRANCH  45  70
BRANCH  57  82
ATOM     82  C   UNL A   1      39.878  33.677  37.181  1.00  0.00     0.058 A 
ATOM     83  C   UNL A   1      38.926  33.337  38.154  1.00  0.00     0.135 A 
ATOM     84  C   UNL A   1      40.523  34.919  37.301  1.00  0.00     0.135 A 
ATOM     85  F   UNL A   1      38.275  32.165  38.081  1.00  0.00    -0.206 F 
ATOM     86  C   UNL A   1      38.613  34.202  39.198  1.00  0.00     0.059 A 
ATOM     87  C   UNL A   1      40.243  35.790  38.350  1.00  0.00     0.059 A 
ATOM     88  F   UNL A   1      41.448  35.290  36.401  1.00  0.00    -0.206 F 
ATOM     89  C   UNL A   1      39.278  35.427  39.289  1.00  0.00     0.060 A 
BRANCH  89  90
ATOM     90  S   UNL A   1      38.887  36.527  40.665  1.00  0.00     0.124 S 
ATOM     91  O   UNL A   1      38.370  37.699  39.966  1.00  0.00    -0.237 OA
ATOM     92  O   UNL A   1      37.904  35.753  41.417  1.00  0.00    -0.237 OA
ATOM     93  O   UNL A   1      40.173  36.708  41.331  1.00  0.00    -0.744 OA
ENDBRANCH  89  90
ENDBRANCH  57  82
ENDBRANCH  31  32
ENDBRANCH  24  26
ENDBRANCH  23  24
ENDBRANCH  22  23
ENDBRANCH   1  22
TORSDOF 19
ENDMDL
MODEL 3
REMARK VINA RESULT:     -10.8      6.611     12.137
REMARK SMILES COc1ccc2cc([C@H](C)C(=O)OCCOCCOC(=O)c3ccc(-c4c5nc(c(-c6c(F)cc(S(=O)(=O)[O-])cc6F)c6ccc([nH]6)c(-c6c(F)cc(S(=O)(=O)[O-])cc6F)c6nc(c(-c7c(F)cc(S(=O)(=O)[O-])cc7F)c7ccc4[nH]7)C=C6)C=C5)cc3)ccc2c1
REMARK SMILES IDX 17 1 16 2 15 3 14 4 13 5 11 6 12 7 9 8 10 9 8 10 3 11 4 12
REMARK SMILES IDX 91 13 5 14 90 15 6 16 89 17 7 18 88 19 2 20 1 21 18 22 19 23
REMARK SMILES IDX 20 24 21 25 22 26 23 27 87 28 24 29 86 30 25 31 26 32 27 33
REMARK SMILES IDX 80 34 28 35 85 36 79 37 81 38 29 39 84 40 78 41 77 42 30 44
REMARK SMILES IDX 64 45 43 46 63 47 44 48 47 49 62 50 82 51 45 52 46 53 61 55
REMARK SMILES IDX 83 56 48 57 31 58 32 59 41 60 33 61 34 62 40 63 42 64 35 65
REMARK SMILES IDX 36 66 37 67 38 68 39 69 65 70 66 71 75 72 67 73 68 74 74 75
REMARK SMILES IDX 76 76 69 77 70 78 71 79 72 80 73 81 49 82 50 83 59 84 51 85
REMARK SMILES IDX 52 86 58 87 60 88 53 89 54 90 55 91 56 92 57 93
REMARK H PARENT 81 43 47 54
REMARK Flexibility Score: inf
ROOT
ATOM      1  C   UNL A   1      34.640  32.333  28.054  1.00  0.00     0.202 C 
ENDROOT
BRANCH   1   2
ATOM      2  O   UNL A   1      33.473  31.656  27.599  1.00  0.00    -0.374 OA
BRANCH   2   3
ATOM      3  C   UNL A   1      33.663  30.379  26.987  1.00  0.00     0.202 C 
BRANCH   3   4
ATOM      4  C   UNL A   1      32.540  29.368  27.220  1.00  0.00     0.261 C 
BRANCH   4   5
ATOM      5  O   UNL A   1      32.988  28.036  26.930  1.00  0.00    -0.463 OA
BRANCH   5   6
ATOM      6  C   UNL A   1      32.049  27.094  26.622  1.00  0.00     0.313 C 
ATOM      7  O   UNL A   1      31.022  26.879  27.252  1.00  0.00    -0.252 OA
BRANCH   6   8
ATOM      8  C   UNL A   1      32.468  26.310  25.370  1.00  0.00     0.126 C 
ATOM      9  C   UNL A   1      32.198  24.818  25.569  1.00  0.00     0.025 C 
BRANCH   8  10
ATOM     10  C   UNL A   1      31.785  26.971  24.181  1.00  0.00    -0.033 A 
ATOM     11  C   UNL A   1      28.327  30.121  22.328  1.00  0.00     0.119 A 
ATOM     12  C   UNL A   1      27.616  29.042  22.852  1.00  0.00     0.047 A 
ATOM     13  C   UNL A   1      29.719  30.054  22.242  1.00  0.00     0.055 A 
ATOM     14  C   UNL A   1      28.301  27.928  23.343  1.00  0.00     0.012 A 
ATOM     15  C   UNL A   1      30.422  28.960  22.759  1.00  0.00    -0.015 A 
ATOM     16  C   UNL A   1      29.702  27.895  23.340  1.00  0.00    -0.018 A 
ATOM     17  C   UNL A   1      31.822  28.944  22.776  1.00  0.00     0.009 A 
ATOM     18  C   UNL A   1      30.396  26.877  24.001  1.00  0.00     0.013 A 
ATOM     19  C   UNL A   1      32.501  27.963  23.492  1.00  0.00     0.005 A 
BRANCH  11  20
ATOM     20  O   UNL A   1      27.788  31.290  21.874  1.00  0.00    -0.497 OA
ATOM     21  C   UNL A   1      27.968  31.579  20.492  1.00  0.00     0.278 C 
ENDBRANCH  11  20
ENDBRANCH   8  10
ENDBRANCH   6   8
ENDBRANCH   5   6
ENDBRANCH   4   5
ENDBRANCH   3   4
ENDBRANCH   2   3
ENDBRANCH   1   2
BRANCH   1  22
ATOM     22  C   UNL A   1      34.831  32.404  29.573  1.00  0.00     0.261 C 
BRANCH  22  23
ATOM     23  O   UNL A   1      35.626  31.322  30.086  1.00  0.00    -0.460 OA
BRANCH  23  24
ATOM     24  C   UNL A   1      36.797  31.709  30.643  1.00  0.00     0.338 C 
ATOM     25  O   UNL A   1      36.951  32.570  31.507  1.00  0.00    -0.246 OA
BRANCH  24  26
ATOM     26  C   UNL A   1      37.911  30.863  30.182  1.00  0.00     0.060 A 
ATOM     27  C   UNL A   1      38.883  30.512  31.128  1.00  0.00     0.016 A 
ATOM     28  C   UNL A   1      38.071  30.514  28.838  1.00  0.00     0.016 A 
ATOM     29  C   UNL A   1      40.050  29.871  30.723  1.00  0.00     0.010 A 
ATOM     30  C   UNL A   1      39.247  29.871  28.434  1.00  0.00     0.010 A 
ATOM     31  C   UNL A   1      40.260  29.587  29.368  1.00  0.00    -0.014 A 
BRANCH  31  32
ATOM     32  C   UNL A   1      41.600  29.129  28.922  1.00  0.00     0.031 A 
ATOM     33  C   UNL A   1      42.730  30.120  28.848  1.00  0.00     0.074 A 
ATOM     34  C   UNL A   1      41.819  27.837  28.620  1.00  0.00     0.049 A 
ATOM     35  N   UNL A   1      43.973  29.935  28.485  1.00  0.00    -0.248 NA
ATOM     36  C   UNL A   1      42.415  31.503  29.236  1.00  0.00     0.031 C 
ATOM     37  C   UNL A   1      40.816  26.776  28.678  1.00  0.00     0.029 A 
ATOM     38  N   UNL A   1      42.961  27.204  28.197  1.00  0.00    -0.354 N 
ATOM     39  C   UNL A   1      44.589  31.176  28.593  1.00  0.00     0.074 A 
ATOM     40  C   UNL A   1      43.572  32.113  29.024  1.00  0.00     0.031 C 
ATOM     41  C   UNL A   1      41.384  25.624  28.281  1.00  0.00     0.029 A 
ATOM     42  C   UNL A   1      42.778  25.873  27.919  1.00  0.00     0.049 A 
ATOM     43  H   UNL A   1      43.828  27.661  28.101  1.00  0.00     0.167 HD
ATOM     44  C   UNL A   1      45.883  31.505  28.364  1.00  0.00     0.037 A 
ATOM     45  C   UNL A   1      43.628  24.959  27.409  1.00  0.00     0.037 A 
ATOM     46  C   UNL A   1      46.892  30.573  27.935  1.00  0.00     0.049 A 
ATOM     47  C   UNL A   1      45.050  25.351  27.117  1.00  0.00     0.074 A 
ATOM     48  C   UNL A   1      48.238  30.802  27.710  1.00  0.00     0.029 A 
ATOM     49  N   UNL A   1      46.663  29.234  27.650  1.00  0.00    -0.354 N 
ATOM     50  N   UNL A   1      45.629  26.517  27.265  1.00  0.00    -0.248 NA
ATOM     51  C   UNL A   1      45.938  24.299  26.601  1.00  0.00     0.031 C 
ATOM     52  C   UNL A   1      48.813  29.614  27.243  1.00  0.00     0.029 A 
ATOM     53  C   UNL A   1      47.836  28.632  27.224  1.00  0.00     0.049 A 
ATOM     54  H   UNL A   1      45.795  28.779  27.739  1.00  0.00     0.167 HD
ATOM     55  C   UNL A   1      46.953  26.339  26.877  1.00  0.00     0.074 A 
ATOM     56  C   UNL A   1      47.092  24.947  26.499  1.00  0.00     0.031 C 
ATOM     57  C   UNL A   1      47.962  27.246  26.842  1.00  0.00     0.037 A 
BRANCH  44  58
ATOM     58  C   UNL A   1      46.266  32.949  28.544  1.00  0.00     0.058 A 
ATOM     59  C   UNL A   1      46.710  33.450  29.779  1.00  0.00     0.135 A 
ATOM     60  C   UNL A   1      46.179  33.845  27.467  1.00  0.00     0.135 A 
ATOM     61  F   UNL A   1      46.799  32.640  30.845  1.00  0.00    -0.206 F 
ATOM     62  C   UNL A   1      47.009  34.799  29.950  1.00  0.00     0.059 A 
ATOM     63  C   UNL A   1      46.500  35.192  27.608  1.00  0.00     0.059 A 
ATOM     64  F   UNL A   1      45.763  33.419  26.264  1.00  0.00    -0.206 F 
ATOM     65  C   UNL A   1      46.891  35.664  28.861  1.00  0.00     0.060 A 
BRANCH  65  66
ATOM     66  S   UNL A   1      47.244  37.417  29.105  1.00  0.00     0.124 S 
ATOM     67  O   UNL A   1      45.989  38.027  28.674  1.00  0.00    -0.237 OA
ATOM     68  O   UNL A   1      47.523  37.486  30.535  1.00  0.00    -0.237 OA
ATOM     69  O   UNL A   1      48.390  37.658  28.233  1.00  0.00    -0.744 OA
ENDBRANCH  65  66
ENDBRANCH  44  58
BRANCH  45  70
ATOM     70  C   UNL A   1      43.134  23.587  27.128  1.00  0.00     0.058 A 
ATOM     71  C   UNL A   1      42.758  23.197  25.835  1.00  0.00     0.135 A 
ATOM     72  C   UNL A   1      43.081  22.623  28.147  1.00  0.00     0.135 A 
ATOM     73  F   UNL A   1      42.784  24.087  24.832  1.00  0.00    -0.206 F 
ATOM     74  C   UNL A   1      42.356  21.895  25.559  1.00  0.00     0.059 A 
ATOM     75  C   UNL A   1      42.700  21.311  27.893  1.00  0.00     0.059 A 
ATOM     76  F   UNL A   1      43.449  22.945  29.397  1.00  0.00    -0.206 F 
ATOM     77  C   UNL A   1      42.342  20.957  26.593  1.00  0.00     0.060 A 
BRANCH  77  78
ATOM     78  S   UNL A   1      41.926  19.243  26.201  1.00  0.00     0.124 S 
ATOM     79  O   UNL A   1      40.497  19.341  25.933  1.00  0.00    -0.237 OA
ATOM     80  O   UNL A   1      42.780  18.986  25.046  1.00  0.00    -0.237 OA
ATOM     81  O   UNL A   1      42.297  18.526  27.417  1.00  0.00    -0.744 OA
ENDBRANCH  77  78
ENDBRANCH  45  70
BRANCH  57  82
ATOM     82  C   UNL A   1      49.314  26.762  26.394  1.00  0.00     0.058 A 
ATOM     83  C   UNL A   1      49.758  26.933  25.074  1.00  0.00     0.135 A 
ATOM     84  C   UNL A   1      50.196  26.167  27.311  1.00  0.00     0.135 A 
ATOM     85  F   UNL A   1      48.952  27.490  24.157  1.00  0.00    -0.206 F 
ATOM     86  C   UNL A   1      51.022  26.513  24.673  1.00  0.00     0.059 A 
ATOM     87  C   UNL A   1      51.474  25.761  26.937  1.00  0.00     0.059 A 
ATOM     88  F   UNL A   1      49.824  25.988  28.589  1.00  0.00    -0.206 F 
ATOM     89  C   UNL A   1      51.875  25.928  25.612  1.00  0.00     0.060 A 
BRANCH  89  90
ATOM     90  S   UNL A   1      53.524  25.416  25.088  1.00  0.00     0.124 S 
ATOM     91  O   UNL A   1      53.567  24.036  25.560  1.00  0.00    -0.237 OA
ATOM     92  O   UNL A   1      53.461  25.589  23.640  1.00  0.00    -0.237 OA
ATOM     93  O   UNL A   1      54.406  26.347  25.786  1.00  0.00    -0.744 OA
ENDBRANCH  89  90
ENDBRANCH  57  82
ENDBRANCH  31  32
ENDBRANCH  24  26
ENDBRANCH  23  24
ENDBRANCH  22  23
ENDBRANCH   1  22
TORSDOF 19
ENDMDL
