MODEL 1
REMARK VINA RESULT:     -10.8      0.000      0.000
REMARK SMILES Cc1cc(Nc2ccc(C(=O)OCCOCCOC(=O)c3ccc(-c4c5nc(c(-c6c(F)cc(S(=O)(=O)[O-])cc6F)c6ccc([nH]6)c(-c6c(F)cc(S(=O)(=O)[O-])cc6F)c6nc(c(-c7c(F)cc(S(=O)(=O)[O-])cc7F)c7ccc4[nH]7)C=C6)C=C5)cc3)cc2)nc(C(C)C)n1
REMARK SMILES IDX 15 1 14 2 13 3 12 4 10 5 11 6 9 7 6 8 7 9 88 10 8 11 87 12
REMARK SMILES IDX 5 13 4 15 1 16 2 17 3 18 94 19 90 20 89 21 91 22 92 23 93 24
REMARK SMILES IDX 16 25 17 26 18 27 19 28 20 29 21 30 22 31 86 32 23 33 85 34
REMARK SMILES IDX 24 35 25 36 26 37 79 38 27 39 84 40 78 41 80 42 28 43 83 44
REMARK SMILES IDX 77 45 76 46 29 48 63 49 42 50 62 51 43 52 46 53 61 54 81 55
REMARK SMILES IDX 44 56 45 57 60 59 82 60 47 61 30 62 31 63 40 64 32 65 33 66
REMARK SMILES IDX 39 67 41 68 34 69 35 70 36 71 37 72 38 73 64 74 65 75 74 76
REMARK SMILES IDX 66 77 67 78 73 79 75 80 68 81 69 82 70 83 71 84 72 85 48 86
REMARK SMILES IDX 49 87 58 88 50 89 51 90 57 91 59 92 52 93 53 94 54 95 55 96
REMARK SMILES IDX 56 97
REMARK H PARENT 5 14 80 47 46 58
REMARK Flexibility Score: inf
ROOT
ATOM      1  O   UNL A   1      34.526  30.756  28.153  1.00  0.00    -0.374 OA
ENDROOT
BRANCH   1   2
ATOM      2  C   UNL A   1      34.010  30.236  26.925  1.00  0.00     0.202 C 
BRANCH   2   3
ATOM      3  C   UNL A   1      32.588  29.669  26.984  1.00  0.00     0.261 C 
BRANCH   3   4
ATOM      4  O   UNL A   1      32.499  28.428  26.267  1.00  0.00    -0.460 OA
BRANCH   4   5
ATOM      5  C   UNL A   1      31.683  27.502  26.820  1.00  0.00     0.338 C 
ATOM      6  O   UNL A   1      31.032  27.618  27.850  1.00  0.00    -0.246 OA
BRANCH   5   7
ATOM      7  C   UNL A   1      31.541  26.337  25.918  1.00  0.00     0.060 A 
ATOM      8  C   UNL A   1      31.423  23.997  24.376  1.00  0.00     0.040 A 
ATOM      9  C   UNL A   1      31.027  23.976  25.717  1.00  0.00     0.027 A 
ATOM     10  C   UNL A   1      31.804  25.219  23.798  1.00  0.00     0.027 A 
ATOM     11  C   UNL A   1      31.095  25.137  26.487  1.00  0.00     0.018 A 
ATOM     12  C   UNL A   1      31.854  26.391  24.558  1.00  0.00     0.018 A 
BRANCH   8  13
ATOM     13  N   UNL A   1      31.642  22.774  23.704  1.00  0.00    -0.340 N 
ATOM     14  H   UNL A   1      31.051  22.541  22.953  1.00  0.00     0.168 HD
BRANCH  13  15
ATOM     15  C   UNL A   1      32.668  21.868  24.057  1.00  0.00     0.134 A 
ATOM     16  C   UNL A   1      33.175  18.266  24.953  1.00  0.00     0.067 C 
ATOM     17  C   UNL A   1      33.406  19.717  24.658  1.00  0.00     0.043 A 
ATOM     18  C   UNL A   1      32.363  20.541  24.275  1.00  0.00     0.070 A 
ATOM     19  N   UNL A   1      34.673  20.159  24.782  1.00  0.00    -0.238 NA
ATOM     20  C   UNL A   1      34.889  21.459  24.518  1.00  0.00     0.133 A 
ATOM     21  N   UNL A   1      33.927  22.320  24.165  1.00  0.00    -0.216 NA
BRANCH  20  22
ATOM     22  C   UNL A   1      36.290  22.014  24.609  1.00  0.00     0.051 C 
ATOM     23  C   UNL A   1      37.304  20.910  24.900  1.00  0.00     0.016 C 
ATOM     24  C   UNL A   1      36.651  22.791  23.346  1.00  0.00     0.016 C 
ENDBRANCH  20  22
ENDBRANCH  13  15
ENDBRANCH   8  13
ENDBRANCH   5   7
ENDBRANCH   4   5
ENDBRANCH   3   4
ENDBRANCH   2   3
ENDBRANCH   1   2
BRANCH   1  25
ATOM     25  C   UNL A   1      34.572  32.178  28.284  1.00  0.00     0.202 C 
BRANCH  25  26
ATOM     26  C   UNL A   1      35.148  32.723  29.595  1.00  0.00     0.261 C 
BRANCH  26  27
ATOM     27  O   UNL A   1      36.575  32.553  29.665  1.00  0.00    -0.460 OA
BRANCH  27  28
ATOM     28  C   UNL A   1      36.985  31.668  30.602  1.00  0.00     0.338 C 
ATOM     29  O   UNL A   1      36.494  31.493  31.710  1.00  0.00    -0.246 OA
BRANCH  28  30
ATOM     30  C   UNL A   1      38.034  30.784  30.060  1.00  0.00     0.060 A 
ATOM     31  C   UNL A   1      39.021  30.350  30.952  1.00  0.00     0.016 A 
ATOM     32  C   UNL A   1      38.112  30.456  28.703  1.00  0.00     0.016 A 
ATOM     33  C   UNL A   1      40.135  29.664  30.480  1.00  0.00     0.010 A 
ATOM     34  C   UNL A   1      39.234  29.767  28.228  1.00  0.00     0.010 A 
ATOM     35  C   UNL A   1      40.276  29.419  29.107  1.00  0.00    -0.014 A 
BRANCH  35  36
ATOM     36  C   UNL A   1      41.599  28.981  28.598  1.00  0.00     0.031 A 
ATOM     37  C   UNL A   1      42.729  29.978  28.567  1.00  0.00     0.074 A 
ATOM     38  C   UNL A   1      41.817  27.700  28.250  1.00  0.00     0.049 A 
ATOM     39  N   UNL A   1      43.985  29.801  28.245  1.00  0.00    -0.248 NA
ATOM     40  C   UNL A   1      42.398  31.359  28.954  1.00  0.00     0.031 C 
ATOM     41  C   UNL A   1      40.814  26.637  28.271  1.00  0.00     0.029 A 
ATOM     42  N   UNL A   1      42.962  27.076  27.825  1.00  0.00    -0.354 N 
ATOM     43  C   UNL A   1      44.591  31.045  28.385  1.00  0.00     0.074 A 
ATOM     44  C   UNL A   1      43.558  31.975  28.787  1.00  0.00     0.031 C 
ATOM     45  C   UNL A   1      41.393  25.485  27.890  1.00  0.00     0.029 A 
ATOM     46  C   UNL A   1      42.800  25.733  27.581  1.00  0.00     0.049 A 
ATOM     47  H   UNL A   1      43.820  27.545  27.707  1.00  0.00     0.167 HD
ATOM     48  C   UNL A   1      45.891  31.382  28.208  1.00  0.00     0.037 A 
ATOM     49  C   UNL A   1      43.688  24.812  27.160  1.00  0.00     0.037 A 
ATOM     50  C   UNL A   1      46.917  30.452  27.818  1.00  0.00     0.049 A 
ATOM     51  C   UNL A   1      45.121  25.218  26.928  1.00  0.00     0.074 A 
ATOM     52  C   UNL A   1      48.270  30.686  27.640  1.00  0.00     0.029 A 
ATOM     53  N   UNL A   1      46.704  29.110  27.538  1.00  0.00    -0.354 N 
ATOM     54  N   UNL A   1      45.686  26.390  27.097  1.00  0.00    -0.248 NA
ATOM     55  C   UNL A   1      46.038  24.171  26.455  1.00  0.00     0.031 C 
ATOM     56  C   UNL A   1      48.867  29.496  27.208  1.00  0.00     0.029 A 
ATOM     57  C   UNL A   1      47.895  28.508  27.166  1.00  0.00     0.049 A 
ATOM     58  H   UNL A   1      45.835  28.653  27.597  1.00  0.00     0.167 HD
ATOM     59  C   UNL A   1      47.032  26.212  26.789  1.00  0.00     0.074 A 
ATOM     60  C   UNL A   1      47.194  24.819  26.425  1.00  0.00     0.031 C 
ATOM     61  C   UNL A   1      48.043  27.118  26.813  1.00  0.00     0.037 A 
BRANCH  48  62
ATOM     62  C   UNL A   1      46.263  32.826  28.404  1.00  0.00     0.058 A 
ATOM     63  C   UNL A   1      46.676  33.324  29.651  1.00  0.00     0.135 A 
ATOM     64  C   UNL A   1      46.204  33.726  27.329  1.00  0.00     0.135 A 
ATOM     65  F   UNL A   1      46.734  32.510  30.719  1.00  0.00    -0.206 F 
ATOM     66  C   UNL A   1      46.981  34.669  29.833  1.00  0.00     0.059 A 
ATOM     67  C   UNL A   1      46.529  35.070  27.481  1.00  0.00     0.059 A 
ATOM     68  F   UNL A   1      45.815  33.303  26.115  1.00  0.00    -0.206 F 
ATOM     69  C   UNL A   1      46.897  35.537  28.742  1.00  0.00     0.060 A 
BRANCH  69  70
ATOM     70  S   UNL A   1      47.272  37.284  28.994  1.00  0.00     0.124 S 
ATOM     71  O   UNL A   1      45.966  37.807  29.388  1.00  0.00    -0.237 OA
ATOM     72  O   UNL A   1      48.281  37.241  30.048  1.00  0.00    -0.237 OA
ATOM     73  O   UNL A   1      47.753  37.720  27.687  1.00  0.00    -0.744 OA
ENDBRANCH  69  70
ENDBRANCH  48  62
BRANCH  49  74
ATOM     74  C   UNL A   1      43.257  23.404  26.957  1.00  0.00     0.058 A 
ATOM     75  C   UNL A   1      42.970  22.913  25.675  1.00  0.00     0.135 A 
ATOM     76  C   UNL A   1      43.128  22.520  28.040  1.00  0.00     0.135 A 
ATOM     77  F   UNL A   1      43.070  23.722  24.609  1.00  0.00    -0.206 F 
ATOM     78  C   UNL A   1      42.561  21.598  25.472  1.00  0.00     0.059 A 
ATOM     79  C   UNL A   1      42.742  21.196  27.861  1.00  0.00     0.059 A 
ATOM     80  F   UNL A   1      43.399  22.939  29.286  1.00  0.00    -0.206 F 
ATOM     81  C   UNL A   1      42.452  20.746  26.572  1.00  0.00     0.060 A 
BRANCH  81  82
ATOM     82  S   UNL A   1      41.972  19.028  26.293  1.00  0.00     0.124 S 
ATOM     83  O   UNL A   1      42.113  18.462  27.629  1.00  0.00    -0.237 OA
ATOM     84  O   UNL A   1      40.605  19.168  25.799  1.00  0.00    -0.237 OA
ATOM     85  O   UNL A   1      42.942  18.565  25.305  1.00  0.00    -0.744 OA
ENDBRANCH  81  82
ENDBRANCH  49  74
BRANCH  61  86
ATOM     86  C   UNL A   1      49.423  26.620  26.480  1.00  0.00     0.058 A 
ATOM     87  C   UNL A   1      49.947  26.699  25.182  1.00  0.00     0.135 A 
ATOM     88  C   UNL A   1      50.243  26.083  27.487  1.00  0.00     0.135 A 
ATOM     89  F   UNL A   1      49.204  27.202  24.182  1.00  0.00    -0.206 F 
ATOM     90  C   UNL A   1      51.223  26.231  24.883  1.00  0.00     0.059 A 
ATOM     91  C   UNL A   1      51.531  25.633  27.216  1.00  0.00     0.059 A 
ATOM     92  F   UNL A   1      49.796  25.996  28.750  1.00  0.00    -0.206 F 
ATOM     93  C   UNL A   1      52.006  25.695  25.907  1.00  0.00     0.060 A 
BRANCH  93  94
ATOM     94  S   UNL A   1      53.664  25.098  25.513  1.00  0.00     0.124 S 
ATOM     95  O   UNL A   1      53.993  25.899  24.340  1.00  0.00    -0.237 OA
ATOM     96  O   UNL A   1      54.410  25.416  26.728  1.00  0.00    -0.237 OA
ATOM     97  O   UNL A   1      53.462  23.674  25.266  1.00  0.00    -0.744 OA
ENDBRANCH  93  94
ENDBRANCH  61  86
ENDBRANCH  35  36
ENDBRANCH  28  30
ENDBRANCH  27  28
ENDBRANCH  26  27
ENDBRANCH  25  26
ENDBRANCH   1  25
TORSDOF 20
ENDMDL
MODEL 2
REMARK VINA RESULT:     -10.6      0.875      8.190
REMARK SMILES Cc1cc(Nc2ccc(C(=O)OCCOCCOC(=O)c3ccc(-c4c5nc(c(-c6c(F)cc(S(=O)(=O)[O-])cc6F)c6ccc([nH]6)c(-c6c(F)cc(S(=O)(=O)[O-])cc6F)c6nc(c(-c7c(F)cc(S(=O)(=O)[O-])cc7F)c7ccc4[nH]7)C=C6)C=C5)cc3)cc2)nc(C(C)C)n1
REMARK SMILES IDX 15 1 14 2 13 3 12 4 10 5 11 6 9 7 6 8 7 9 88 10 8 11 87 12
REMARK SMILES IDX 5 13 4 15 1 16 2 17 3 18 94 19 90 20 89 21 91 22 92 23 93 24
REMARK SMILES IDX 16 25 17 26 18 27 19 28 20 29 21 30 22 31 86 32 23 33 85 34
REMARK SMILES IDX 24 35 25 36 26 37 79 38 27 39 84 40 78 41 80 42 28 43 83 44
REMARK SMILES IDX 77 45 76 46 29 48 63 49 42 50 62 51 43 52 46 53 61 54 81 55
REMARK SMILES IDX 44 56 45 57 60 59 82 60 47 61 30 62 31 63 40 64 32 65 33 66
REMARK SMILES IDX 39 67 41 68 34 69 35 70 36 71 37 72 38 73 64 74 65 75 74 76
REMARK SMILES IDX 66 77 67 78 73 79 75 80 68 81 69 82 70 83 71 84 72 85 48 86
REMARK SMILES IDX 49 87 58 88 50 89 51 90 57 91 59 92 52 93 53 94 54 95 55 96
REMARK SMILES IDX 56 97
REMARK H PARENT 5 14 80 47 46 58
REMARK Flexibility Score: inf
ROOT
ATOM      1  O   UNL A   1      34.032  31.227  27.325  1.00  0.00    -0.374 OA
ENDROOT
BRANCH   1   2
ATOM      2  C   UNL A   1      32.895  30.398  27.071  1.00  0.00     0.202 C 
BRANCH   2   3
ATOM      3  C   UNL A   1      32.901  29.643  25.738  1.00  0.00     0.261 C 
BRANCH   3   4
ATOM      4  O   UNL A   1      31.886  28.627  25.718  1.00  0.00    -0.460 OA
BRANCH   4   5
ATOM      5  C   UNL A   1      31.111  28.612  24.610  1.00  0.00     0.338 C 
ATOM      6  O   UNL A   1      30.612  29.580  24.049  1.00  0.00    -0.246 OA
BRANCH   5   7
ATOM      7  C   UNL A   1      31.057  27.248  24.038  1.00  0.00     0.060 A 
ATOM      8  C   UNL A   1      31.100  24.585  23.158  1.00  0.00     0.040 A 
ATOM      9  C   UNL A   1      30.624  24.895  24.436  1.00  0.00     0.027 A 
ATOM     10  C   UNL A   1      31.479  25.631  22.301  1.00  0.00     0.027 A 
ATOM     11  C   UNL A   1      30.612  26.218  24.878  1.00  0.00     0.018 A 
ATOM     12  C   UNL A   1      31.449  26.961  22.729  1.00  0.00     0.018 A 
BRANCH   8  13
ATOM     13  N   UNL A   1      31.394  23.240  22.841  1.00  0.00    -0.340 N 
ATOM     14  H   UNL A   1      30.851  22.792  22.154  1.00  0.00     0.168 HD
BRANCH  13  15
ATOM     15  C   UNL A   1      32.430  22.506  23.462  1.00  0.00     0.134 A 
ATOM     16  C   UNL A   1      33.083  19.165  25.026  1.00  0.00     0.067 C 
ATOM     17  C   UNL A   1      33.241  20.563  24.510  1.00  0.00     0.043 A 
ATOM     18  C   UNL A   1      32.199  21.211  23.873  1.00  0.00     0.070 A 
ATOM     19  N   UNL A   1      34.446  21.137  24.700  1.00  0.00    -0.238 NA
ATOM     20  C   UNL A   1      34.597  22.391  24.239  1.00  0.00     0.133 A 
ATOM     21  N   UNL A   1      33.628  23.087  23.633  1.00  0.00    -0.216 NA
BRANCH  20  22
ATOM     22  C   UNL A   1      35.930  23.084  24.391  1.00  0.00     0.051 C 
ATOM     23  C   UNL A   1      36.674  22.585  25.628  1.00  0.00     0.016 C 
ATOM     24  C   UNL A   1      36.772  22.929  23.128  1.00  0.00     0.016 C 
ENDBRANCH  20  22
ENDBRANCH  13  15
ENDBRANCH   8  13
ENDBRANCH   5   7
ENDBRANCH   4   5
ENDBRANCH   3   4
ENDBRANCH   2   3
ENDBRANCH   1   2
BRANCH   1  25
ATOM     25  C   UNL A   1      33.869  32.271  28.285  1.00  0.00     0.202 C 
BRANCH  25  26
ATOM     26  C   UNL A   1      35.072  32.558  29.191  1.00  0.00     0.261 C 
BRANCH  26  27
ATOM     27  O   UNL A   1      36.186  31.700  28.891  1.00  0.00    -0.460 OA
BRANCH  27  28
ATOM     28  C   UNL A   1      36.808  31.192  29.980  1.00  0.00     0.338 C 
ATOM     29  O   UNL A   1      36.407  31.230  31.136  1.00  0.00    -0.246 OA
BRANCH  28  30
ATOM     30  C   UNL A   1      37.996  30.412  29.585  1.00  0.00     0.060 A 
ATOM     31  C   UNL A   1      38.920  30.112  30.592  1.00  0.00     0.016 A 
ATOM     32  C   UNL A   1      38.253  30.058  28.258  1.00  0.00     0.016 A 
ATOM     33  C   UNL A   1      40.144  29.537  30.266  1.00  0.00     0.010 A 
ATOM     34  C   UNL A   1      39.486  29.481  27.931  1.00  0.00     0.010 A 
ATOM     35  C   UNL A   1      40.458  29.272  28.927  1.00  0.00    -0.014 A 
BRANCH  35  36
ATOM     36  C   UNL A   1      41.866  28.965  28.576  1.00  0.00     0.031 A 
ATOM     37  C   UNL A   1      42.216  27.563  28.147  1.00  0.00     0.074 A 
ATOM     38  C   UNL A   1      42.801  29.932  28.556  1.00  0.00     0.049 A 
ATOM     39  N   UNL A   1      43.356  27.086  27.717  1.00  0.00    -0.248 NA
ATOM     40  C   UNL A   1      41.134  26.566  28.211  1.00  0.00     0.031 C 
ATOM     41  C   UNL A   1      42.576  31.331  28.915  1.00  0.00     0.029 A 
ATOM     42  N   UNL A   1      44.125  29.883  28.203  1.00  0.00    -0.354 N 
ATOM     43  C   UNL A   1      43.131  25.737  27.464  1.00  0.00     0.074 A 
ATOM     44  C   UNL A   1      41.756  25.464  27.822  1.00  0.00     0.031 C 
ATOM     45  C   UNL A   1      43.723  32.013  28.749  1.00  0.00     0.029 A 
ATOM     46  C   UNL A   1      44.765  31.095  28.290  1.00  0.00     0.049 A 
ATOM     47  H   UNL A   1      44.576  29.056  27.913  1.00  0.00     0.167 HD
ATOM     48  C   UNL A   1      43.986  24.811  26.966  1.00  0.00     0.037 A 
ATOM     49  C   UNL A   1      46.044  31.426  28.027  1.00  0.00     0.037 A 
ATOM     50  C   UNL A   1      45.350  25.089  26.601  1.00  0.00     0.049 A 
ATOM     51  C   UNL A   1      46.989  30.370  27.514  1.00  0.00     0.074 A 
ATOM     52  C   UNL A   1      46.290  24.229  26.060  1.00  0.00     0.029 A 
ATOM     53  N   UNL A   1      45.972  26.321  26.745  1.00  0.00    -0.354 N 
ATOM     54  N   UNL A   1      46.753  29.107  27.247  1.00  0.00    -0.248 NA
ATOM     55  C   UNL A   1      48.375  30.789  27.258  1.00  0.00     0.031 C 
ATOM     56  C   UNL A   1      47.494  24.928  25.920  1.00  0.00     0.029 A 
ATOM     57  C   UNL A   1      47.290  26.238  26.327  1.00  0.00     0.049 A 
ATOM     58  H   UNL A   1      45.540  27.133  27.093  1.00  0.00     0.167 HD
ATOM     59  C   UNL A   1      47.949  28.591  26.756  1.00  0.00     0.074 A 
ATOM     60  C   UNL A   1      48.905  29.680  26.763  1.00  0.00     0.031 C 
ATOM     61  C   UNL A   1      48.228  27.333  26.332  1.00  0.00     0.037 A 
BRANCH  48  62
ATOM     62  C   UNL A   1      43.472  23.405  26.821  1.00  0.00     0.058 A 
ATOM     63  C   UNL A   1      43.238  22.581  27.934  1.00  0.00     0.135 A 
ATOM     64  C   UNL A   1      43.212  22.873  25.549  1.00  0.00     0.135 A 
ATOM     65  F   UNL A   1      43.486  23.034  29.174  1.00  0.00    -0.206 F 
ATOM     66  C   UNL A   1      42.800  21.268  27.789  1.00  0.00     0.059 A 
ATOM     67  C   UNL A   1      42.749  21.572  25.381  1.00  0.00     0.059 A 
ATOM     68  F   UNL A   1      43.419  23.617  24.450  1.00  0.00    -0.206 F 
ATOM     69  C   UNL A   1      42.565  20.770  26.506  1.00  0.00     0.060 A 
BRANCH  69  70
ATOM     70  S   UNL A   1      42.020  19.059  26.327  1.00  0.00     0.124 S 
ATOM     71  O   UNL A   1      42.291  18.528  27.661  1.00  0.00    -0.237 OA
ATOM     72  O   UNL A   1      40.611  19.212  25.981  1.00  0.00    -0.237 OA
ATOM     73  O   UNL A   1      42.872  18.541  25.262  1.00  0.00    -0.744 OA
ENDBRANCH  69  70
ENDBRANCH  48  62
BRANCH  49  74
ATOM     74  C   UNL A   1      46.502  32.828  28.213  1.00  0.00     0.058 A 
ATOM     75  C   UNL A   1      46.390  33.768  27.179  1.00  0.00     0.135 A 
ATOM     76  C   UNL A   1      47.056  33.256  29.430  1.00  0.00     0.135 A 
ATOM     77  F   UNL A   1      45.875  33.405  25.994  1.00  0.00    -0.206 F 
ATOM     78  C   UNL A   1      46.820  35.082  27.339  1.00  0.00     0.059 A 
ATOM     79  C   UNL A   1      47.472  34.569  29.621  1.00  0.00     0.059 A 
ATOM     80  F   UNL A   1      47.177  32.396  30.453  1.00  0.00    -0.206 F 
ATOM     81  C   UNL A   1      47.357  35.474  28.566  1.00  0.00     0.060 A 
BRANCH  81  82
ATOM     82  S   UNL A   1      47.863  37.194  28.781  1.00  0.00     0.124 S 
ATOM     83  O   UNL A   1      48.424  37.502  27.472  1.00  0.00    -0.237 OA
ATOM     84  O   UNL A   1      46.598  37.847  29.105  1.00  0.00    -0.237 OA
ATOM     85  O   UNL A   1      48.822  37.126  29.881  1.00  0.00    -0.744 OA
ENDBRANCH  81  82
ENDBRANCH  49  74
BRANCH  61  86
ATOM     86  C   UNL A   1      49.610  27.076  25.795  1.00  0.00     0.058 A 
ATOM     87  C   UNL A   1      50.654  26.627  26.618  1.00  0.00     0.135 A 
ATOM     88  C   UNL A   1      49.883  27.255  24.429  1.00  0.00     0.135 A 
ATOM     89  F   UNL A   1      50.448  26.442  27.932  1.00  0.00    -0.206 F 
ATOM     90  C   UNL A   1      51.930  26.397  26.112  1.00  0.00     0.059 A 
ATOM     91  C   UNL A   1      51.144  27.007  23.897  1.00  0.00     0.059 A 
ATOM     92  F   UNL A   1      48.916  27.671  23.594  1.00  0.00    -0.206 F 
ATOM     93  C   UNL A   1      52.166  26.595  24.750  1.00  0.00     0.060 A 
BRANCH  93  94
ATOM     94  S   UNL A   1      53.823  26.287  24.101  1.00  0.00     0.124 S 
ATOM     95  O   UNL A   1      54.526  27.499  24.505  1.00  0.00    -0.237 OA
ATOM     96  O   UNL A   1      54.212  25.065  24.800  1.00  0.00    -0.237 OA
ATOM     97  O   UNL A   1      53.602  26.136  22.666  1.00  0.00    -0.744 OA
ENDBRANCH  93  94
ENDBRANCH  61  86
ENDBRANCH  35  36
ENDBRANCH  28  30
ENDBRANCH  27  28
ENDBRANCH  26  27
ENDBRANCH  25  26
ENDBRANCH   1  25
TORSDOF 20
ENDMDL
MODEL 3
REMARK VINA RESULT:     -10.6      0.533      2.069
REMARK SMILES Cc1cc(Nc2ccc(C(=O)OCCOCCOC(=O)c3ccc(-c4c5nc(c(-c6c(F)cc(S(=O)(=O)[O-])cc6F)c6ccc([nH]6)c(-c6c(F)cc(S(=O)(=O)[O-])cc6F)c6nc(c(-c7c(F)cc(S(=O)(=O)[O-])cc7F)c7ccc4[nH]7)C=C6)C=C5)cc3)cc2)nc(C(C)C)n1
REMARK SMILES IDX 15 1 14 2 13 3 12 4 10 5 11 6 9 7 6 8 7 9 88 10 8 11 87 12
REMARK SMILES IDX 5 13 4 15 1 16 2 17 3 18 94 19 90 20 89 21 91 22 92 23 93 24
REMARK SMILES IDX 16 25 17 26 18 27 19 28 20 29 21 30 22 31 86 32 23 33 85 34
REMARK SMILES IDX 24 35 25 36 26 37 79 38 27 39 84 40 78 41 80 42 28 43 83 44
REMARK SMILES IDX 77 45 76 46 29 48 63 49 42 50 62 51 43 52 46 53 61 54 81 55
REMARK SMILES IDX 44 56 45 57 60 59 82 60 47 61 30 62 31 63 40 64 32 65 33 66
REMARK SMILES IDX 39 67 41 68 34 69 35 70 36 71 37 72 38 73 64 74 65 75 74 76
REMARK SMILES IDX 66 77 67 78 73 79 75 80 68 81 69 82 70 83 71 84 72 85 48 86
REMARK SMILES IDX 49 87 58 88 50 89 51 90 57 91 59 92 52 93 53 94 54 95 55 96
REMARK SMILES IDX 56 97
REMARK H PARENT 5 14 80 47 46 58
REMARK Flexibility Score: inf
ROOT
ATOM      1  O   UNL A   1      34.661  30.686  28.297  1.00  0.00    -0.374 OA
ENDROOT
BRANCH   1   2
ATOM      2  C   UNL A   1      34.124  30.110  27.104  1.00  0.00     0.202 C 
BRANCH   2   3
ATOM      3  C   UNL A   1      32.596  30.014  27.036  1.00  0.00     0.261 C 
BRANCH   3   4
ATOM      4  O   UNL A   1      32.186  28.978  26.131  1.00  0.00    -0.460 OA
BRANCH   4   5
ATOM      5  C   UNL A   1      31.647  27.884  26.716  1.00  0.00     0.338 C 
ATOM      6  O   UNL A   1      31.117  27.826  27.818  1.00  0.00    -0.246 OA
BRANCH   5   7
ATOM      7  C   UNL A   1      31.634  26.747  25.768  1.00  0.00     0.060 A 
ATOM      8  C   UNL A   1      31.731  24.453  24.156  1.00  0.00     0.040 A 
ATOM      9  C   UNL A   1      31.127  24.402  25.416  1.00  0.00     0.027 A 
ATOM     10  C   UNL A   1      32.215  25.684  23.683  1.00  0.00     0.027 A 
ATOM     11  C   UNL A   1      31.087  25.539  26.222  1.00  0.00     0.018 A 
ATOM     12  C   UNL A   1      32.159  26.833  24.476  1.00  0.00     0.018 A 
BRANCH   8  13
ATOM     13  N   UNL A   1      32.037  23.246  23.490  1.00  0.00    -0.340 N 
ATOM     14  H   UNL A   1      31.589  23.057  22.634  1.00  0.00     0.168 HD
BRANCH  13  15
ATOM     15  C   UNL A   1      32.954  22.295  23.991  1.00  0.00     0.134 A 
ATOM     16  C   UNL A   1      36.302  22.092  25.659  1.00  0.00     0.067 C 
ATOM     17  C   UNL A   1      34.993  21.737  25.024  1.00  0.00     0.043 A 
ATOM     18  C   UNL A   1      34.120  22.719  24.593  1.00  0.00     0.070 A 
ATOM     19  N   UNL A   1      34.723  20.422  24.904  1.00  0.00    -0.238 NA
ATOM     20  C   UNL A   1      33.549  20.095  24.335  1.00  0.00     0.133 A 
ATOM     21  N   UNL A   1      32.666  20.989  23.875  1.00  0.00    -0.216 NA
BRANCH  20  22
ATOM     22  C   UNL A   1      33.170  18.640  24.197  1.00  0.00     0.051 C 
ATOM     23  C   UNL A   1      32.300  18.411  22.963  1.00  0.00     0.016 C 
ATOM     24  C   UNL A   1      34.411  17.752  24.182  1.00  0.00     0.016 C 
ENDBRANCH  20  22
ENDBRANCH  13  15
ENDBRANCH   8  13
ENDBRANCH   5   7
ENDBRANCH   4   5
ENDBRANCH   3   4
ENDBRANCH   2   3
ENDBRANCH   1   2
BRANCH   1  25
ATOM     25  C   UNL A   1      34.684  32.112  28.372  1.00  0.00     0.202 C 
BRANCH  25  26
ATOM     26  C   UNL A   1      35.197  32.718  29.683  1.00  0.00     0.261 C 
BRANCH  26  27
ATOM     27  O   UNL A   1      36.620  32.561  29.824  1.00  0.00    -0.460 OA
BRANCH  27  28
ATOM     28  C   UNL A   1      36.990  31.621  30.725  1.00  0.00     0.338 C 
ATOM     29  O   UNL A   1      36.463  31.397  31.807  1.00  0.00    -0.246 OA
BRANCH  28  30
ATOM     30  C   UNL A   1      38.042  30.750  30.167  1.00  0.00     0.060 A 
ATOM     31  C   UNL A   1      39.053  30.339  31.042  1.00  0.00     0.016 A 
ATOM     32  C   UNL A   1      38.098  30.415  28.811  1.00  0.00     0.016 A 
ATOM     33  C   UNL A   1      40.169  29.668  30.552  1.00  0.00     0.010 A 
ATOM     34  C   UNL A   1      39.221  29.741  28.319  1.00  0.00     0.010 A 
ATOM     35  C   UNL A   1      40.287  29.416  29.179  1.00  0.00    -0.014 A 
BRANCH  35  36
ATOM     36  C   UNL A   1      41.606  28.996  28.646  1.00  0.00     0.031 A 
ATOM     37  C   UNL A   1      42.726  30.004  28.609  1.00  0.00     0.074 A 
ATOM     38  C   UNL A   1      41.831  27.721  28.283  1.00  0.00     0.049 A 
ATOM     39  N   UNL A   1      43.978  29.843  28.267  1.00  0.00    -0.248 NA
ATOM     40  C   UNL A   1      42.386  31.378  29.014  1.00  0.00     0.031 C 
ATOM     41  C   UNL A   1      40.839  26.648  28.308  1.00  0.00     0.029 A 
ATOM     42  N   UNL A   1      42.976  27.112  27.835  1.00  0.00    -0.354 N 
ATOM     43  C   UNL A   1      44.574  31.091  28.410  1.00  0.00     0.074 A 
ATOM     44  C   UNL A   1      43.538  32.007  28.836  1.00  0.00     0.031 C 
ATOM     45  C   UNL A   1      41.424  25.505  27.907  1.00  0.00     0.029 A 
ATOM     46  C   UNL A   1      42.824  25.770  27.580  1.00  0.00     0.049 A 
ATOM     47  H   UNL A   1      43.828  27.590  27.709  1.00  0.00     0.167 HD
ATOM     48  C   UNL A   1      45.868  31.443  28.217  1.00  0.00     0.037 A 
ATOM     49  C   UNL A   1      43.714  24.861  27.137  1.00  0.00     0.037 A 
ATOM     50  C   UNL A   1      46.898  30.527  27.803  1.00  0.00     0.049 A 
ATOM     51  C   UNL A   1      45.139  25.284  26.888  1.00  0.00     0.074 A 
ATOM     52  C   UNL A   1      48.245  30.776  27.608  1.00  0.00     0.029 A 
ATOM     53  N   UNL A   1      46.694  29.185  27.513  1.00  0.00    -0.354 N 
ATOM     54  N   UNL A   1      45.696  26.460  27.061  1.00  0.00    -0.248 NA
ATOM     55  C   UNL A   1      46.060  24.251  26.392  1.00  0.00     0.031 C 
ATOM     56  C   UNL A   1      48.847  29.596  27.156  1.00  0.00     0.029 A 
ATOM     57  C   UNL A   1      47.884  28.599  27.118  1.00  0.00     0.049 A 
ATOM     58  H   UNL A   1      45.830  28.719  27.580  1.00  0.00     0.167 HD
ATOM     59  C   UNL A   1      47.039  26.298  26.732  1.00  0.00     0.074 A 
ATOM     60  C   UNL A   1      47.209  24.911  26.351  1.00  0.00     0.031 C 
ATOM     61  C   UNL A   1      48.041  27.214  26.750  1.00  0.00     0.037 A 
BRANCH  48  62
ATOM     62  C   UNL A   1      46.229  32.888  28.422  1.00  0.00     0.058 A 
ATOM     63  C   UNL A   1      46.201  33.818  27.369  1.00  0.00     0.135 A 
ATOM     64  C   UNL A   1      46.609  33.351  29.691  1.00  0.00     0.135 A 
ATOM     65  F   UNL A   1      45.861  33.426  26.130  1.00  0.00    -0.206 F 
ATOM     66  C   UNL A   1      46.573  35.145  27.559  1.00  0.00     0.059 A 
ATOM     67  C   UNL A   1      46.960  34.680  29.911  1.00  0.00     0.059 A 
ATOM     68  F   UNL A   1      46.653  32.505  30.734  1.00  0.00    -0.206 F 
ATOM     69  C   UNL A   1      46.959  35.564  28.834  1.00  0.00     0.060 A 
BRANCH  69  70
ATOM     70  S   UNL A   1      47.463  37.282  29.065  1.00  0.00     0.124 S 
ATOM     71  O   UNL A   1      48.880  37.218  28.715  1.00  0.00    -0.237 OA
ATOM     72  O   UNL A   1      46.608  37.991  28.118  1.00  0.00    -0.237 OA
ATOM     73  O   UNL A   1      47.177  37.533  30.474  1.00  0.00    -0.744 OA
ENDBRANCH  69  70
ENDBRANCH  48  62
BRANCH  49  74
ATOM     74  C   UNL A   1      43.294  23.451  26.928  1.00  0.00     0.058 A 
ATOM     75  C   UNL A   1      43.155  22.570  28.010  1.00  0.00     0.135 A 
ATOM     76  C   UNL A   1      43.018  22.958  25.643  1.00  0.00     0.135 A 
ATOM     77  F   UNL A   1      43.417  22.992  29.257  1.00  0.00    -0.206 F 
ATOM     78  C   UNL A   1      42.768  21.246  27.827  1.00  0.00     0.059 A 
ATOM     79  C   UNL A   1      42.608  21.645  25.437  1.00  0.00     0.059 A 
ATOM     80  F   UNL A   1      43.128  23.764  24.575  1.00  0.00    -0.206 F 
ATOM     81  C   UNL A   1      42.494  20.794  26.536  1.00  0.00     0.060 A 
BRANCH  81  82
ATOM     82  S   UNL A   1      41.940  19.089  26.314  1.00  0.00     0.124 S 
ATOM     83  O   UNL A   1      42.882  18.601  25.314  1.00  0.00    -0.237 OA
ATOM     84  O   UNL A   1      42.092  18.540  27.658  1.00  0.00    -0.237 OA
ATOM     85  O   UNL A   1      40.560  19.241  25.861  1.00  0.00    -0.744 OA
ENDBRANCH  81  82
ENDBRANCH  49  74
BRANCH  61  86
ATOM     86  C   UNL A   1      49.420  26.733  26.391  1.00  0.00     0.058 A 
ATOM     87  C   UNL A   1      50.249  26.093  27.325  1.00  0.00     0.135 A 
ATOM     88  C   UNL A   1      49.906  26.889  25.082  1.00  0.00     0.135 A 
ATOM     89  F   UNL A   1      49.835  25.920  28.590  1.00  0.00    -0.206 F 
ATOM     90  C   UNL A   1      51.526  25.657  26.984  1.00  0.00     0.059 A 
ATOM     91  C   UNL A   1      51.168  26.437  24.713  1.00  0.00     0.059 A 
ATOM     92  F   UNL A   1      49.148  27.482  24.145  1.00  0.00    -0.206 F 
ATOM     93  C   UNL A   1      51.978  25.837  25.676  1.00  0.00     0.060 A 
BRANCH  93  94
ATOM     94  S   UNL A   1      53.633  25.261  25.240  1.00  0.00     0.124 S 
ATOM     95  O   UNL A   1      54.451  25.927  26.248  1.00  0.00    -0.237 OA
ATOM     96  O   UNL A   1      53.509  23.812  25.380  1.00  0.00    -0.237 OA
ATOM     97  O   UNL A   1      53.809  25.737  23.872  1.00  0.00    -0.744 OA
ENDBRANCH  93  94
ENDBRANCH  61  86
ENDBRANCH  35  36
ENDBRANCH  28  30
ENDBRANCH  27  28
ENDBRANCH  26  27
ENDBRANCH  25  26
ENDBRANCH   1  25
TORSDOF 20
ENDMDL
