MODEL 1
REMARK VINA RESULT:      -8.1      0.000      0.000
REMARK SMILES C[C@@H](C(=O)OCCOCCOC(=O)c1ccc(-c2c3nc(c(-c4c(F)cc(S(=O)(=O)[O-])cc4F)c4ccc([nH]4)c(-c4c(F)cc(S(=O)(=O)[O-])cc4F)c4nc(c(-c5c(F)cc(S(=O)(=O)[O-])cc5F)c5ccc2[nH]5)C=C4)C=C3)cc1)c1ccc(-c2cccc(OC(=O)NCCCc3ccccc3)c2)c(F)c1
REMARK SMILES IDX 6 1 5 2 3 3 4 4 2 5 1 6 80 7 81 8 105 9 82 10 103 11 83 12
REMARK SMILES IDX 104 13 84 14 85 15 102 16 86 17 88 18 87 19 89 20 90 21
REMARK SMILES IDX 91 22 92 23 93 25 94 26 95 27 96 28 97 29 101 30 98 31
REMARK SMILES IDX 100 32 99 33 7 34 8 35 9 36 10 37 11 38 12 39 13 40 14 41
REMARK SMILES IDX 15 42 79 43 16 44 78 45 17 46 18 47 19 48 72 49 20 50 77 51
REMARK SMILES IDX 71 52 73 53 21 54 76 55 70 56 69 57 22 59 56 60 35 61 55 62
REMARK SMILES IDX 36 63 39 64 54 65 74 66 37 67 38 68 53 70 75 71 40 72 23 73
REMARK SMILES IDX 24 74 33 75 25 76 26 77 32 78 34 79 27 80 28 81 29 82 30 83
REMARK SMILES IDX 31 84 57 85 58 86 67 87 59 88 60 89 66 90 68 91 61 92 62 93
REMARK SMILES IDX 63 94 64 95 65 96 41 97 42 98 51 99 43 100 44 101 50 102
REMARK SMILES IDX 52 103 45 104 46 105 47 106 48 107 49 108
REMARK H PARENT 92 24 73 58 39 69
REMARK Flexibility Score: inf
ROOT
ATOM      1  C   UNL A   1      35.883  34.653  32.425  1.00  0.00     0.261 C 
ENDROOT
BRANCH   1   2
ATOM      2  O   UNL A   1      36.523  33.373  32.259  1.00  0.00    -0.463 OA
BRANCH   2   3
ATOM      3  C   UNL A   1      37.711  33.216  32.900  1.00  0.00     0.313 C 
ATOM      4  O   UNL A   1      38.751  33.777  32.572  1.00  0.00    -0.252 OA
BRANCH   3   5
ATOM      5  C   UNL A   1      37.615  32.279  34.112  1.00  0.00     0.126 C 
ATOM      6  C   UNL A   1      37.629  32.957  35.488  1.00  0.00     0.025 C 
BRANCH   5   7
ATOM      7  C   UNL A   1      38.696  31.204  34.055  1.00  0.00    -0.031 A 
ATOM      8  C   UNL A   1      39.787  31.234  34.932  1.00  0.00     0.005 A 
ATOM      9  C   UNL A   1      38.621  30.155  33.131  1.00  0.00     0.044 A 
ATOM     10  C   UNL A   1      40.764  30.229  34.891  1.00  0.00     0.012 A 
ATOM     11  C   UNL A   1      39.596  29.169  33.086  1.00  0.00     0.131 A 
ATOM     12  C   UNL A   1      40.684  29.181  33.962  1.00  0.00     0.018 A 
ATOM     13  F   UNL A   1      39.463  28.193  32.174  1.00  0.00    -0.206 F 
BRANCH  12  14
ATOM     14  C   UNL A   1      41.719  28.149  33.868  1.00  0.00    -0.012 A 
ATOM     15  C   UNL A   1      42.713  28.181  32.879  1.00  0.00     0.009 A 
ATOM     16  C   UNL A   1      41.743  27.111  34.813  1.00  0.00     0.056 A 
ATOM     17  C   UNL A   1      43.708  27.202  32.838  1.00  0.00     0.004 A 
ATOM     18  C   UNL A   1      42.729  26.135  34.768  1.00  0.00     0.133 A 
ATOM     19  C   UNL A   1      43.716  26.177  33.783  1.00  0.00     0.047 A 
BRANCH  18  20
ATOM     20  O   UNL A   1      42.832  25.071  35.693  1.00  0.00    -0.410 OA
BRANCH  20  21
ATOM     21  C   UNL A   1      42.571  25.141  37.059  1.00  0.00     0.412 C 
ATOM     22  O   UNL A   1      41.516  25.474  37.594  1.00  0.00    -0.224 OA
ATOM     23  N   UNL A   1      43.635  24.765  37.825  1.00  0.00    -0.321 N 
ATOM     24  H   UNL A   1      43.556  24.886  38.799  1.00  0.00     0.167 HD
BRANCH  23  25
ATOM     25  C   UNL A   1      44.865  24.203  37.325  1.00  0.00     0.120 C 
BRANCH  25  26
ATOM     26  C   UNL A   1      45.774  25.209  36.622  1.00  0.00     0.026 C 
BRANCH  26  27
ATOM     27  C   UNL A   1      46.028  26.562  37.301  1.00  0.00     0.037 C 
BRANCH  27  28
ATOM     28  C   UNL A   1      45.610  27.852  36.633  1.00  0.00    -0.048 A 
ATOM     29  C   UNL A   1      44.440  28.559  36.926  1.00  0.00     0.004 A 
ATOM     30  C   UNL A   1      46.425  28.336  35.594  1.00  0.00     0.004 A 
ATOM     31  C   UNL A   1      44.088  29.703  36.199  1.00  0.00     0.000 A 
ATOM     32  C   UNL A   1      46.083  29.484  34.876  1.00  0.00     0.000 A 
ATOM     33  C   UNL A   1      44.909  30.164  35.175  1.00  0.00     0.000 A 
ENDBRANCH  27  28
ENDBRANCH  26  27
ENDBRANCH  25  26
ENDBRANCH  23  25
ENDBRANCH  20  21
ENDBRANCH  18  20
ENDBRANCH  12  14
ENDBRANCH   5   7
ENDBRANCH   3   5
ENDBRANCH   2   3
ENDBRANCH   1   2
BRANCH   1  34
ATOM     34  C   UNL A   1      34.559  34.698  31.658  1.00  0.00     0.202 C 
BRANCH  34  35
ATOM     35  O   UNL A   1      34.312  33.643  30.724  1.00  0.00    -0.374 OA
BRANCH  35  36
ATOM     36  C   UNL A   1      34.307  33.987  29.342  1.00  0.00     0.202 C 
BRANCH  36  37
ATOM     37  C   UNL A   1      34.101  32.870  28.314  1.00  0.00     0.261 C 
BRANCH  37  38
ATOM     38  O   UNL A   1      34.222  31.567  28.896  1.00  0.00    -0.460 OA
BRANCH  38  39
ATOM     39  C   UNL A   1      34.444  30.586  27.989  1.00  0.00     0.338 C 
ATOM     40  O   UNL A   1      33.739  30.283  27.042  1.00  0.00    -0.246 OA
BRANCH  39  41
ATOM     41  C   UNL A   1      35.796  30.036  28.182  1.00  0.00     0.060 A 
ATOM     42  C   UNL A   1      36.195  29.781  29.500  1.00  0.00     0.016 A 
ATOM     43  C   UNL A   1      36.668  29.820  27.113  1.00  0.00     0.016 A 
ATOM     44  C   UNL A   1      37.494  29.367  29.762  1.00  0.00     0.010 A 
ATOM     45  C   UNL A   1      37.977  29.413  27.380  1.00  0.00     0.010 A 
ATOM     46  C   UNL A   1      38.404  29.228  28.708  1.00  0.00    -0.014 A 
BRANCH  46  47
ATOM     47  C   UNL A   1      39.841  29.058  29.018  1.00  0.00     0.031 A 
ATOM     48  C   UNL A   1      40.502  27.750  28.675  1.00  0.00     0.074 A 
ATOM     49  C   UNL A   1      40.550  30.068  29.549  1.00  0.00     0.049 A 
ATOM     50  N   UNL A   1      41.735  27.369  28.872  1.00  0.00    -0.248 NA
ATOM     51  C   UNL A   1      39.655  26.736  28.023  1.00  0.00     0.031 C 
ATOM     52  C   UNL A   1      40.019  31.391  29.873  1.00  0.00     0.029 A 
ATOM     53  N   UNL A   1      41.870  30.137  29.910  1.00  0.00    -0.354 N 
ATOM     54  C   UNL A   1      41.811  26.069  28.384  1.00  0.00     0.074 A 
ATOM     55  C   UNL A   1      40.492  25.716  27.908  1.00  0.00     0.031 C 
ATOM     56  C   UNL A   1      41.007  32.142  30.392  1.00  0.00     0.029 A 
ATOM     57  C   UNL A   1      42.226  31.340  30.470  1.00  0.00     0.049 A 
ATOM     58  H   UNL A   1      42.504  29.394  29.781  1.00  0.00     0.167 HD
ATOM     59  C   UNL A   1      42.888  25.250  28.332  1.00  0.00     0.037 A 
ATOM     60  C   UNL A   1      43.398  31.738  31.003  1.00  0.00     0.037 A 
ATOM     61  C   UNL A   1      44.196  25.620  28.805  1.00  0.00     0.049 A 
ATOM     62  C   UNL A   1      44.563  30.783  30.995  1.00  0.00     0.074 A 
ATOM     63  C   UNL A   1      45.362  24.876  28.778  1.00  0.00     0.029 A 
ATOM     64  N   UNL A   1      44.511  26.835  29.399  1.00  0.00    -0.354 N 
ATOM     65  N   UNL A   1      44.631  29.565  30.511  1.00  0.00    -0.248 NA
ATOM     66  C   UNL A   1      45.814  31.257  31.604  1.00  0.00     0.031 C 
ATOM     67  C   UNL A   1      46.365  25.616  29.411  1.00  0.00     0.029 A 
ATOM     68  C   UNL A   1      45.844  26.848  29.773  1.00  0.00     0.049 A 
ATOM     69  H   UNL A   1      43.878  27.577  29.535  1.00  0.00     0.167 HD
ATOM     70  C   UNL A   1      45.937  29.140  30.728  1.00  0.00     0.074 A 
ATOM     71  C   UNL A   1      46.628  30.234  31.378  1.00  0.00     0.031 C 
ATOM     72  C   UNL A   1      46.516  27.953  30.413  1.00  0.00     0.037 A 
BRANCH  59  73
ATOM     73  C   UNL A   1      42.689  23.864  27.782  1.00  0.00     0.058 A 
ATOM     74  C   UNL A   1      42.500  22.750  28.616  1.00  0.00     0.135 A 
ATOM     75  C   UNL A   1      42.655  23.653  26.394  1.00  0.00     0.135 A 
ATOM     76  F   UNL A   1      42.543  22.889  29.951  1.00  0.00    -0.206 F 
ATOM     77  C   UNL A   1      42.306  21.475  28.095  1.00  0.00     0.059 A 
ATOM     78  C   UNL A   1      42.433  22.390  25.850  1.00  0.00     0.059 A 
ATOM     79  F   UNL A   1      42.836  24.679  25.549  1.00  0.00    -0.206 F 
ATOM     80  C   UNL A   1      42.272  21.305  26.709  1.00  0.00     0.060 A 
BRANCH  80  81
ATOM     81  S   UNL A   1      42.010  19.646  26.048  1.00  0.00     0.124 S 
ATOM     82  O   UNL A   1      42.351  18.816  27.200  1.00  0.00    -0.237 OA
ATOM     83  O   UNL A   1      40.597  19.676  25.685  1.00  0.00    -0.237 OA
ATOM     84  O   UNL A   1      42.942  19.574  24.927  1.00  0.00    -0.744 OA
ENDBRANCH  80  81
ENDBRANCH  59  73
BRANCH  60  85
ATOM     85  C   UNL A   1      43.523  33.096  31.595  1.00  0.00     0.058 A 
ATOM     86  C   UNL A   1      43.803  34.213  30.795  1.00  0.00     0.135 A 
ATOM     87  C   UNL A   1      43.360  33.306  32.974  1.00  0.00     0.135 A 
ATOM     88  F   UNL A   1      43.978  34.064  29.472  1.00  0.00    -0.206 F 
ATOM     89  C   UNL A   1      43.933  35.487  31.340  1.00  0.00     0.059 A 
ATOM     90  C   UNL A   1      43.456  34.573  33.539  1.00  0.00     0.059 A 
ATOM     91  F   UNL A   1      43.078  32.272  33.783  1.00  0.00    -0.206 F 
ATOM     92  C   UNL A   1      43.754  35.657  32.714  1.00  0.00     0.060 A 
BRANCH  92  93
ATOM     93  S   UNL A   1      43.878  37.321  33.404  1.00  0.00     0.124 S 
ATOM     94  O   UNL A   1      42.530  37.527  33.921  1.00  0.00    -0.237 OA
ATOM     95  O   UNL A   1      44.928  37.157  34.404  1.00  0.00    -0.237 OA
ATOM     96  O   UNL A   1      44.244  38.136  32.250  1.00  0.00    -0.744 OA
ENDBRANCH  92  93
ENDBRANCH  60  85
BRANCH  72  97
ATOM     97  C   UNL A   1      47.978  27.788  30.729  1.00  0.00     0.058 A 
ATOM     98  C   UNL A   1      48.420  27.299  31.968  1.00  0.00     0.135 A 
ATOM     99  C   UNL A   1      48.949  28.072  29.753  1.00  0.00     0.135 A 
ATOM    100  F   UNL A   1      47.535  27.017  32.938  1.00  0.00    -0.206 F 
ATOM    101  C   UNL A   1      49.773  27.122  32.238  1.00  0.00     0.059 A 
ATOM    102  C   UNL A   1      50.304  27.871  29.991  1.00  0.00     0.059 A 
ATOM    103  F   UNL A   1      48.581  28.530  28.547  1.00  0.00    -0.206 F 
ATOM    104  C   UNL A   1      50.707  27.408  31.242  1.00  0.00     0.060 A 
BRANCH 104 105
ATOM    105  S   UNL A   1      52.458  27.141  31.596  1.00  0.00     0.124 S 
ATOM    106  O   UNL A   1      52.627  27.902  32.829  1.00  0.00    -0.237 OA
ATOM    107  O   UNL A   1      52.531  25.690  31.730  1.00  0.00    -0.237 OA
ATOM    108  O   UNL A   1      53.131  27.691  30.422  1.00  0.00    -0.744 OA
ENDBRANCH 104 105
ENDBRANCH  72  97
ENDBRANCH  46  47
ENDBRANCH  39  41
ENDBRANCH  38  39
ENDBRANCH  37  38
ENDBRANCH  36  37
ENDBRANCH  35  36
ENDBRANCH  34  35
ENDBRANCH   1  34
TORSDOF 25
ENDMDL
MODEL 2
REMARK VINA RESULT:      -7.3      4.545     12.542
REMARK SMILES C[C@@H](C(=O)OCCOCCOC(=O)c1ccc(-c2c3nc(c(-c4c(F)cc(S(=O)(=O)[O-])cc4F)c4ccc([nH]4)c(-c4c(F)cc(S(=O)(=O)[O-])cc4F)c4nc(c(-c5c(F)cc(S(=O)(=O)[O-])cc5F)c5ccc2[nH]5)C=C4)C=C3)cc1)c1ccc(-c2cccc(OC(=O)NCCCc3ccccc3)c2)c(F)c1
REMARK SMILES IDX 6 1 5 2 3 3 4 4 2 5 1 6 80 7 81 8 105 9 82 10 103 11 83 12
REMARK SMILES IDX 104 13 84 14 85 15 102 16 86 17 88 18 87 19 89 20 90 21
REMARK SMILES IDX 91 22 92 23 93 25 94 26 95 27 96 28 97 29 101 30 98 31
REMARK SMILES IDX 100 32 99 33 7 34 8 35 9 36 10 37 11 38 12 39 13 40 14 41
REMARK SMILES IDX 15 42 79 43 16 44 78 45 17 46 18 47 19 48 72 49 20 50 77 51
REMARK SMILES IDX 71 52 73 53 21 54 76 55 70 56 69 57 22 59 56 60 35 61 55 62
REMARK SMILES IDX 36 63 39 64 54 65 74 66 37 67 38 68 53 70 75 71 40 72 23 73
REMARK SMILES IDX 24 74 33 75 25 76 26 77 32 78 34 79 27 80 28 81 29 82 30 83
REMARK SMILES IDX 31 84 57 85 58 86 67 87 59 88 60 89 66 90 68 91 61 92 62 93
REMARK SMILES IDX 63 94 64 95 65 96 41 97 42 98 51 99 43 100 44 101 50 102
REMARK SMILES IDX 52 103 45 104 46 105 47 106 48 107 49 108
REMARK H PARENT 92 24 73 58 39 69
REMARK Flexibility Score: inf
ROOT
ATOM      1  C   UNL A   1      43.891  22.671  24.751  1.00  0.00     0.261 C 
ENDROOT
BRANCH   1   2
ATOM      2  O   UNL A   1      43.669  21.992  26.002  1.00  0.00    -0.463 OA
BRANCH   2   3
ATOM      3  C   UNL A   1      43.067  20.777  25.919  1.00  0.00     0.313 C 
ATOM      4  O   UNL A   1      43.373  19.909  25.108  1.00  0.00    -0.252 OA
BRANCH   3   5
ATOM      5  C   UNL A   1      41.973  20.581  26.978  1.00  0.00     0.126 C 
ATOM      6  C   UNL A   1      41.905  19.192  27.625  1.00  0.00     0.025 C 
BRANCH   5   7
ATOM      7  C   UNL A   1      40.603  20.958  26.420  1.00  0.00    -0.031 A 
ATOM      8  C   UNL A   1      39.816  20.015  25.749  1.00  0.00     0.005 A 
ATOM      9  C   UNL A   1      40.095  22.254  26.573  1.00  0.00     0.044 A 
ATOM     10  C   UNL A   1      38.548  20.361  25.261  1.00  0.00     0.012 A 
ATOM     11  C   UNL A   1      38.844  22.595  26.079  1.00  0.00     0.131 A 
ATOM     12  C   UNL A   1      38.044  21.661  25.416  1.00  0.00     0.018 A 
ATOM     13  F   UNL A   1      38.418  23.855  26.258  1.00  0.00    -0.206 F 
BRANCH  12  14
ATOM     14  C   UNL A   1      36.744  22.058  24.870  1.00  0.00    -0.012 A 
ATOM     15  C   UNL A   1      36.616  22.627  23.595  1.00  0.00     0.009 A 
ATOM     16  C   UNL A   1      35.583  21.836  25.628  1.00  0.00     0.056 A 
ATOM     17  C   UNL A   1      35.357  22.961  23.088  1.00  0.00     0.004 A 
ATOM     18  C   UNL A   1      34.334  22.173  25.126  1.00  0.00     0.133 A 
ATOM     19  C   UNL A   1      34.215  22.735  23.854  1.00  0.00     0.047 A 
BRANCH  18  20
ATOM     20  O   UNL A   1      33.120  21.963  25.819  1.00  0.00    -0.410 OA
BRANCH  20  21
ATOM     21  C   UNL A   1      32.785  22.479  27.068  1.00  0.00     0.412 C 
ATOM     22  O   UNL A   1      33.172  22.073  28.162  1.00  0.00    -0.224 OA
ATOM     23  N   UNL A   1      31.957  23.559  26.994  1.00  0.00    -0.321 N 
ATOM     24  H   UNL A   1      31.598  23.912  27.841  1.00  0.00     0.167 HD
BRANCH  23  25
ATOM     25  C   UNL A   1      31.563  24.227  25.779  1.00  0.00     0.120 C 
BRANCH  25  26
ATOM     26  C   UNL A   1      30.311  25.091  25.914  1.00  0.00     0.026 C 
BRANCH  26  27
ATOM     27  C   UNL A   1      30.354  26.527  25.375  1.00  0.00     0.037 C 
BRANCH  27  28
ATOM     28  C   UNL A   1      31.534  27.426  25.665  1.00  0.00    -0.048 A 
ATOM     29  C   UNL A   1      32.419  27.917  24.702  1.00  0.00     0.004 A 
ATOM     30  C   UNL A   1      31.798  27.731  27.013  1.00  0.00     0.004 A 
ATOM     31  C   UNL A   1      33.536  28.676  25.069  1.00  0.00     0.000 A 
ATOM     32  C   UNL A   1      32.904  28.499  27.381  1.00  0.00     0.000 A 
ATOM     33  C   UNL A   1      33.779  28.967  26.408  1.00  0.00     0.000 A 
ENDBRANCH  27  28
ENDBRANCH  26  27
ENDBRANCH  25  26
ENDBRANCH  23  25
ENDBRANCH  20  21
ENDBRANCH  18  20
ENDBRANCH  12  14
ENDBRANCH   5   7
ENDBRANCH   3   5
ENDBRANCH   2   3
ENDBRANCH   1   2
BRANCH   1  34
ATOM     34  C   UNL A   1      43.809  24.189  24.939  1.00  0.00     0.202 C 
BRANCH  34  35
ATOM     35  O   UNL A   1      44.975  24.949  24.607  1.00  0.00    -0.374 OA
BRANCH  35  36
ATOM     36  C   UNL A   1      46.239  24.337  24.843  1.00  0.00     0.202 C 
BRANCH  36  37
ATOM     37  C   UNL A   1      46.971  24.657  26.149  1.00  0.00     0.261 C 
BRANCH  37  38
ATOM     38  O   UNL A   1      46.213  25.528  26.998  1.00  0.00    -0.460 OA
BRANCH  38  39
ATOM     39  C   UNL A   1      45.471  24.873  27.922  1.00  0.00     0.338 C 
ATOM     40  O   UNL A   1      45.543  23.695  28.230  1.00  0.00    -0.246 OA
BRANCH  39  41
ATOM     41  C   UNL A   1      44.665  25.845  28.681  1.00  0.00     0.060 A 
ATOM     42  C   UNL A   1      45.005  27.196  28.542  1.00  0.00     0.016 A 
ATOM     43  C   UNL A   1      43.640  25.447  29.541  1.00  0.00     0.016 A 
ATOM     44  C   UNL A   1      44.360  28.155  29.311  1.00  0.00     0.010 A 
ATOM     45  C   UNL A   1      42.999  26.412  30.321  1.00  0.00     0.010 A 
ATOM     46  C   UNL A   1      43.389  27.762  30.239  1.00  0.00    -0.014 A 
BRANCH  46  47
ATOM     47  C   UNL A   1      42.911  28.743  31.238  1.00  0.00     0.031 A 
ATOM     48  C   UNL A   1      43.703  28.926  32.504  1.00  0.00     0.074 A 
ATOM     49  C   UNL A   1      41.819  29.489  30.996  1.00  0.00     0.049 A 
ATOM     50  N   UNL A   1      43.466  29.708  33.523  1.00  0.00    -0.248 NA
ATOM     51  C   UNL A   1      44.927  28.117  32.637  1.00  0.00     0.031 C 
ATOM     52  C   UNL A   1      41.008  29.426  29.781  1.00  0.00     0.029 A 
ATOM     53  N   UNL A   1      41.206  30.445  31.762  1.00  0.00    -0.354 N 
ATOM     54  C   UNL A   1      44.499  29.475  34.425  1.00  0.00     0.074 A 
ATOM     55  C   UNL A   1      45.350  28.460  33.844  1.00  0.00     0.031 C 
ATOM     56  C   UNL A   1      39.997  30.306  29.887  1.00  0.00     0.029 A 
ATOM     57  C   UNL A   1      40.069  30.963  31.189  1.00  0.00     0.049 A 
ATOM     58  H   UNL A   1      41.547  30.734  32.640  1.00  0.00     0.167 HD
ATOM     59  C   UNL A   1      44.720  30.065  35.623  1.00  0.00     0.037 A 
ATOM     60  C   UNL A   1      39.180  31.852  31.675  1.00  0.00     0.037 A 
ATOM     61  C   UNL A   1      43.867  31.080  36.183  1.00  0.00     0.049 A 
ATOM     62  C   UNL A   1      39.411  32.443  33.041  1.00  0.00     0.074 A 
ATOM     63  C   UNL A   1      44.012  31.761  37.379  1.00  0.00     0.029 A 
ATOM     64  N   UNL A   1      42.705  31.554  35.591  1.00  0.00    -0.354 N 
ATOM     65  N   UNL A   1      40.403  32.234  33.875  1.00  0.00    -0.248 NA
ATOM     66  C   UNL A   1      38.403  33.393  33.533  1.00  0.00     0.031 C 
ATOM     67  C   UNL A   1      42.905  32.600  37.538  1.00  0.00     0.029 A 
ATOM     68  C   UNL A   1      42.104  32.494  36.412  1.00  0.00     0.049 A 
ATOM     69  H   UNL A   1      42.358  31.264  34.716  1.00  0.00     0.167 HD
ATOM     70  C   UNL A   1      40.156  33.050  34.974  1.00  0.00     0.074 A 
ATOM     71  C   UNL A   1      38.926  33.762  34.694  1.00  0.00     0.031 C 
ATOM     72  C   UNL A   1      40.882  33.200  36.111  1.00  0.00     0.037 A 
BRANCH  59  73
ATOM     73  C   UNL A   1      45.906  29.601  36.426  1.00  0.00     0.058 A 
ATOM     74  C   UNL A   1      47.162  30.220  36.326  1.00  0.00     0.135 A 
ATOM     75  C   UNL A   1      45.772  28.539  37.334  1.00  0.00     0.135 A 
ATOM     76  F   UNL A   1      47.354  31.227  35.459  1.00  0.00    -0.206 F 
ATOM     77  C   UNL A   1      48.248  29.788  37.081  1.00  0.00     0.059 A 
ATOM     78  C   UNL A   1      46.836  28.109  38.122  1.00  0.00     0.059 A 
ATOM     79  F   UNL A   1      44.595  27.906  37.467  1.00  0.00    -0.206 F 
ATOM     80  C   UNL A   1      48.075  28.732  37.979  1.00  0.00     0.060 A 
BRANCH  80  81
ATOM     81  S   UNL A   1      49.490  28.190  38.960  1.00  0.00     0.124 S 
ATOM     82  O   UNL A   1      48.920  27.067  39.698  1.00  0.00    -0.237 OA
ATOM     83  O   UNL A   1      50.465  27.842  37.930  1.00  0.00    -0.237 OA
ATOM     84  O   UNL A   1      49.820  29.364  39.761  1.00  0.00    -0.744 OA
ENDBRANCH  80  81
ENDBRANCH  59  73
BRANCH  60  85
ATOM     85  C   UNL A   1      37.988  32.227  30.868  1.00  0.00     0.058 A 
ATOM     86  C   UNL A   1      36.758  31.580  31.046  1.00  0.00     0.135 A 
ATOM     87  C   UNL A   1      38.056  33.246  29.904  1.00  0.00     0.135 A 
ATOM     88  F   UNL A   1      36.643  30.593  31.949  1.00  0.00    -0.206 F 
ATOM     89  C   UNL A   1      35.640  31.917  30.290  1.00  0.00     0.059 A 
ATOM     90  C   UNL A   1      36.946  33.621  29.155  1.00  0.00     0.059 A 
ATOM     91  F   UNL A   1      39.208  33.906  29.701  1.00  0.00    -0.206 F 
ATOM     92  C   UNL A   1      35.743  32.943  29.348  1.00  0.00     0.060 A 
BRANCH  92  93
ATOM     93  S   UNL A   1      34.274  33.403  28.404  1.00  0.00     0.124 S 
ATOM     94  O   UNL A   1      33.449  34.028  29.431  1.00  0.00    -0.237 OA
ATOM     95  O   UNL A   1      34.830  34.302  27.397  1.00  0.00    -0.237 OA
ATOM     96  O   UNL A   1      33.789  32.125  27.894  1.00  0.00    -0.744 OA
ENDBRANCH  92  93
ENDBRANCH  60  85
BRANCH  72  97
ATOM     97  C   UNL A   1      40.392  34.201  37.121  1.00  0.00     0.058 A 
ATOM     98  C   UNL A   1      39.619  33.821  38.230  1.00  0.00     0.135 A 
ATOM     99  C   UNL A   1      40.749  35.555  37.006  1.00  0.00     0.135 A 
ATOM    100  F   UNL A   1      39.245  32.541  38.386  1.00  0.00    -0.206 F 
ATOM    101  C   UNL A   1      39.196  34.751  39.175  1.00  0.00     0.059 A 
ATOM    102  C   UNL A   1      40.365  36.496  37.956  1.00  0.00     0.059 A 
ATOM    103  F   UNL A   1      41.496  35.972  35.973  1.00  0.00    -0.206 F 
ATOM    104  C   UNL A   1      39.578  36.086  39.030  1.00  0.00     0.060 A 
BRANCH 104 105
ATOM    105  S   UNL A   1      39.050  37.276  40.281  1.00  0.00     0.124 S 
ATOM    106  O   UNL A   1      38.460  38.327  39.457  1.00  0.00    -0.237 OA
ATOM    107  O   UNL A   1      38.111  36.494  41.079  1.00  0.00    -0.237 OA
ATOM    108  O   UNL A   1      40.293  37.633  40.959  1.00  0.00    -0.744 OA
ENDBRANCH 104 105
ENDBRANCH  72  97
ENDBRANCH  46  47
ENDBRANCH  39  41
ENDBRANCH  38  39
ENDBRANCH  37  38
ENDBRANCH  36  37
ENDBRANCH  35  36
ENDBRANCH  34  35
ENDBRANCH   1  34
TORSDOF 25
ENDMDL
MODEL 3
REMARK VINA RESULT:      -7.0      1.637      2.695
REMARK SMILES C[C@@H](C(=O)OCCOCCOC(=O)c1ccc(-c2c3nc(c(-c4c(F)cc(S(=O)(=O)[O-])cc4F)c4ccc([nH]4)c(-c4c(F)cc(S(=O)(=O)[O-])cc4F)c4nc(c(-c5c(F)cc(S(=O)(=O)[O-])cc5F)c5ccc2[nH]5)C=C4)C=C3)cc1)c1ccc(-c2cccc(OC(=O)NCCCc3ccccc3)c2)c(F)c1
REMARK SMILES IDX 6 1 5 2 3 3 4 4 2 5 1 6 80 7 81 8 105 9 82 10 103 11 83 12
REMARK SMILES IDX 104 13 84 14 85 15 102 16 86 17 88 18 87 19 89 20 90 21
REMARK SMILES IDX 91 22 92 23 93 25 94 26 95 27 96 28 97 29 101 30 98 31
REMARK SMILES IDX 100 32 99 33 7 34 8 35 9 36 10 37 11 38 12 39 13 40 14 41
REMARK SMILES IDX 15 42 79 43 16 44 78 45 17 46 18 47 19 48 72 49 20 50 77 51
REMARK SMILES IDX 71 52 73 53 21 54 76 55 70 56 69 57 22 59 56 60 35 61 55 62
REMARK SMILES IDX 36 63 39 64 54 65 74 66 37 67 38 68 53 70 75 71 40 72 23 73
REMARK SMILES IDX 24 74 33 75 25 76 26 77 32 78 34 79 27 80 28 81 29 82 30 83
REMARK SMILES IDX 31 84 57 85 58 86 67 87 59 88 60 89 66 90 68 91 61 92 62 93
REMARK SMILES IDX 63 94 64 95 65 96 41 97 42 98 51 99 43 100 44 101 50 102
REMARK SMILES IDX 52 103 45 104 46 105 47 106 48 107 49 108
REMARK H PARENT 92 24 73 58 39 69
REMARK Flexibility Score: inf
ROOT
ATOM      1  C   UNL A   1      37.090  34.240  32.954  1.00  0.00     0.261 C 
ENDROOT
BRANCH   1   2
ATOM      2  O   UNL A   1      37.548  32.905  32.667  1.00  0.00    -0.463 OA
BRANCH   2   3
ATOM      3  C   UNL A   1      38.676  32.511  33.315  1.00  0.00     0.313 C 
ATOM      4  O   UNL A   1      39.755  33.089  33.235  1.00  0.00    -0.252 OA
BRANCH   3   5
ATOM      5  C   UNL A   1      38.454  31.274  34.197  1.00  0.00     0.126 C 
ATOM      6  C   UNL A   1      38.023  31.549  35.644  1.00  0.00     0.025 C 
BRANCH   5   7
ATOM      7  C   UNL A   1      39.686  30.374  34.189  1.00  0.00    -0.031 A 
ATOM      8  C   UNL A   1      40.571  30.355  35.273  1.00  0.00     0.005 A 
ATOM      9  C   UNL A   1      39.958  29.535  33.100  1.00  0.00     0.044 A 
ATOM     10  C   UNL A   1      41.687  29.506  35.269  1.00  0.00     0.012 A 
ATOM     11  C   UNL A   1      41.069  28.706  33.096  1.00  0.00     0.131 A 
ATOM     12  C   UNL A   1      41.955  28.670  34.175  1.00  0.00     0.018 A 
ATOM     13  F   UNL A   1      41.271  27.929  32.019  1.00  0.00    -0.206 F 
BRANCH  12  14
ATOM     14  C   UNL A   1      43.142  27.812  34.128  1.00  0.00    -0.012 A 
ATOM     15  C   UNL A   1      44.340  28.235  33.535  1.00  0.00     0.009 A 
ATOM     16  C   UNL A   1      43.095  26.540  34.721  1.00  0.00     0.056 A 
ATOM     17  C   UNL A   1      45.466  27.408  33.539  1.00  0.00     0.004 A 
ATOM     18  C   UNL A   1      44.213  25.718  34.719  1.00  0.00     0.133 A 
ATOM     19  C   UNL A   1      45.403  26.147  34.131  1.00  0.00     0.047 A 
BRANCH  18  20
ATOM     20  O   UNL A   1      44.250  24.434  35.311  1.00  0.00    -0.410 OA
BRANCH  20  21
ATOM     21  C   UNL A   1      44.497  24.154  36.653  1.00  0.00     0.412 C 
ATOM     22  O   UNL A   1      44.230  24.866  37.617  1.00  0.00    -0.224 OA
ATOM     23  N   UNL A   1      45.078  22.935  36.844  1.00  0.00    -0.321 N 
ATOM     24  H   UNL A   1      45.373  22.713  37.758  1.00  0.00     0.167 HD
BRANCH  23  25
ATOM     25  C   UNL A   1      45.293  21.944  35.820  1.00  0.00     0.120 C 
BRANCH  25  26
ATOM     26  C   UNL A   1      46.055  20.707  36.293  1.00  0.00     0.026 C 
BRANCH  26  27
ATOM     27  C   UNL A   1      47.283  20.255  35.491  1.00  0.00     0.037 C 
BRANCH  27  28
ATOM     28  C   UNL A   1      48.295  21.263  34.995  1.00  0.00    -0.048 A 
ATOM     29  C   UNL A   1      49.288  20.996  34.049  1.00  0.00     0.004 A 
ATOM     30  C   UNL A   1      48.276  22.541  35.583  1.00  0.00     0.004 A 
ATOM     31  C   UNL A   1      50.239  21.966  33.709  1.00  0.00     0.000 A 
ATOM     32  C   UNL A   1      49.215  23.514  35.237  1.00  0.00     0.000 A 
ATOM     33  C   UNL A   1      50.202  23.224  34.303  1.00  0.00     0.000 A 
ENDBRANCH  27  28
ENDBRANCH  26  27
ENDBRANCH  25  26
ENDBRANCH  23  25
ENDBRANCH  20  21
ENDBRANCH  18  20
ENDBRANCH  12  14
ENDBRANCH   5   7
ENDBRANCH   3   5
ENDBRANCH   2   3
ENDBRANCH   1   2
BRANCH   1  34
ATOM     34  C   UNL A   1      35.833  34.566  32.142  1.00  0.00     0.202 C 
BRANCH  34  35
ATOM     35  O   UNL A   1      35.321  33.534  31.294  1.00  0.00    -0.374 OA
BRANCH  35  36
ATOM     36  C   UNL A   1      35.066  33.876  29.935  1.00  0.00     0.202 C 
BRANCH  36  37
ATOM     37  C   UNL A   1      34.491  32.801  29.009  1.00  0.00     0.261 C 
BRANCH  37  38
ATOM     38  O   UNL A   1      34.853  31.478  29.422  1.00  0.00    -0.460 OA
BRANCH  38  39
ATOM     39  C   UNL A   1      35.005  30.611  28.393  1.00  0.00     0.338 C 
ATOM     40  O   UNL A   1      34.244  30.433  27.457  1.00  0.00    -0.246 OA
BRANCH  39  41
ATOM     41  C   UNL A   1      36.356  30.025  28.441  1.00  0.00     0.060 A 
ATOM     42  C   UNL A   1      36.774  29.497  29.668  1.00  0.00     0.016 A 
ATOM     43  C   UNL A   1      37.207  30.032  27.335  1.00  0.00     0.016 A 
ATOM     44  C   UNL A   1      38.073  29.029  29.814  1.00  0.00     0.010 A 
ATOM     45  C   UNL A   1      38.516  29.571  27.486  1.00  0.00     0.010 A 
ATOM     46  C   UNL A   1      38.964  29.109  28.738  1.00  0.00    -0.014 A 
BRANCH  46  47
ATOM     47  C   UNL A   1      40.404  28.869  28.978  1.00  0.00     0.031 A 
ATOM     48  C   UNL A   1      40.986  27.535  28.596  1.00  0.00     0.074 A 
ATOM     49  C   UNL A   1      41.184  29.840  29.483  1.00  0.00     0.049 A 
ATOM     50  N   UNL A   1      42.208  27.095  28.731  1.00  0.00    -0.248 NA
ATOM     51  C   UNL A   1      40.063  26.568  27.977  1.00  0.00     0.031 C 
ATOM     52  C   UNL A   1      40.731  31.184  29.841  1.00  0.00     0.029 A 
ATOM     53  N   UNL A   1      42.521  29.844  29.782  1.00  0.00    -0.354 N 
ATOM     54  C   UNL A   1      42.200  25.798  28.232  1.00  0.00     0.074 A 
ATOM     55  C   UNL A   1      40.846  25.511  27.815  1.00  0.00     0.031 C 
ATOM     56  C   UNL A   1      41.776  31.883  30.317  1.00  0.00     0.029 A 
ATOM     57  C   UNL A   1      42.958  31.025  30.332  1.00  0.00     0.049 A 
ATOM     58  H   UNL A   1      43.113  29.074  29.617  1.00  0.00     0.167 HD
ATOM     59  C   UNL A   1      43.234  24.930  28.123  1.00  0.00     0.037 A 
ATOM     60  C   UNL A   1      44.171  31.362  30.813  1.00  0.00     0.037 A 
ATOM     61  C   UNL A   1      44.578  25.234  28.536  1.00  0.00     0.049 A 
ATOM     62  C   UNL A   1      45.290  30.354  30.743  1.00  0.00     0.074 A 
ATOM     63  C   UNL A   1      45.706  24.437  28.449  1.00  0.00     0.029 A 
ATOM     64  N   UNL A   1      44.977  26.428  29.123  1.00  0.00    -0.354 N 
ATOM     65  N   UNL A   1      45.277  29.139  30.248  1.00  0.00    -0.248 NA
ATOM     66  C   UNL A   1      46.588  30.764  31.296  1.00  0.00     0.031 C 
ATOM     67  C   UNL A   1      46.771  25.124  29.040  1.00  0.00     0.029 A 
ATOM     68  C   UNL A   1      46.325  26.376  29.435  1.00  0.00     0.049 A 
ATOM     69  H   UNL A   1      44.387  27.197  29.294  1.00  0.00     0.167 HD
ATOM     70  C   UNL A   1      46.571  28.652  30.400  1.00  0.00     0.074 A 
ATOM     71  C   UNL A   1      47.341  29.707  31.024  1.00  0.00     0.031 C 
ATOM     72  C   UNL A   1      47.078  27.441  30.050  1.00  0.00     0.037 A 
BRANCH  59  73
ATOM     73  C   UNL A   1      42.945  23.560  27.573  1.00  0.00     0.058 A 
ATOM     74  C   UNL A   1      43.088  23.258  26.208  1.00  0.00     0.135 A 
ATOM     75  C   UNL A   1      42.549  22.522  28.432  1.00  0.00     0.135 A 
ATOM     76  F   UNL A   1      43.444  24.216  25.337  1.00  0.00    -0.206 F 
ATOM     77  C   UNL A   1      42.828  21.984  25.714  1.00  0.00     0.059 A 
ATOM     78  C   UNL A   1      42.313  21.233  27.964  1.00  0.00     0.059 A 
ATOM     79  F   UNL A   1      42.391  22.754  29.745  1.00  0.00    -0.206 F 
ATOM     80  C   UNL A   1      42.442  20.976  26.600  1.00  0.00     0.060 A 
BRANCH  80  81
ATOM     81  S   UNL A   1      42.118  19.326  25.945  1.00  0.00     0.124 S 
ATOM     82  O   UNL A   1      43.004  19.294  24.785  1.00  0.00    -0.237 OA
ATOM     83  O   UNL A   1      42.505  18.468  27.061  1.00  0.00    -0.237 OA
ATOM     84  O   UNL A   1      40.691  19.353  25.643  1.00  0.00    -0.744 OA
ENDBRANCH  80  81
ENDBRANCH  59  73
BRANCH  60  85
ATOM     85  C   UNL A   1      44.388  32.708  31.407  1.00  0.00     0.058 A 
ATOM     86  C   UNL A   1      44.867  33.774  30.634  1.00  0.00     0.135 A 
ATOM     87  C   UNL A   1      44.115  32.955  32.763  1.00  0.00     0.135 A 
ATOM     88  F   UNL A   1      45.152  33.587  29.336  1.00  0.00    -0.206 F 
ATOM     89  C   UNL A   1      45.083  35.034  31.183  1.00  0.00     0.059 A 
ATOM     90  C   UNL A   1      44.295  34.213  33.329  1.00  0.00     0.059 A 
ATOM     91  F   UNL A   1      43.643  31.972  33.545  1.00  0.00    -0.206 F 
ATOM     92  C   UNL A   1      44.790  35.245  32.532  1.00  0.00     0.060 A 
BRANCH  92  93
ATOM     93  S   UNL A   1      45.029  36.896  33.223  1.00  0.00     0.124 S 
ATOM     94  O   UNL A   1      45.843  36.608  34.398  1.00  0.00    -0.237 OA
ATOM     95  O   UNL A   1      45.707  37.587  32.130  1.00  0.00    -0.237 OA
ATOM     96  O   UNL A   1      43.668  37.348  33.491  1.00  0.00    -0.744 OA
ENDBRANCH  92  93
ENDBRANCH  60  85
BRANCH  72  97
ATOM     97  C   UNL A   1      48.543  27.206  30.295  1.00  0.00     0.058 A 
ATOM     98  C   UNL A   1      49.532  27.737  29.452  1.00  0.00     0.135 A 
ATOM     99  C   UNL A   1      48.965  26.484  31.425  1.00  0.00     0.135 A 
ATOM    100  F   UNL A   1      49.185  28.431  28.356  1.00  0.00    -0.206 F 
ATOM    101  C   UNL A   1      50.886  27.539  29.706  1.00  0.00     0.059 A 
ATOM    102  C   UNL A   1      50.313  26.302  31.715  1.00  0.00     0.059 A 
ATOM    103  F   UNL A   1      48.063  25.965  32.271  1.00  0.00    -0.206 F 
ATOM    104  C   UNL A   1      51.266  26.822  30.842  1.00  0.00     0.060 A 
BRANCH 104 105
ATOM    105  S   UNL A   1      53.027  26.602  31.175  1.00  0.00     0.124 S 
ATOM    106  O   UNL A   1      53.402  27.926  31.660  1.00  0.00    -0.237 OA
ATOM    107  O   UNL A   1      53.024  25.538  32.175  1.00  0.00    -0.237 OA
ATOM    108  O   UNL A   1      53.577  26.230  29.875  1.00  0.00    -0.744 OA
ENDBRANCH 104 105
ENDBRANCH  72  97
ENDBRANCH  46  47
ENDBRANCH  39  41
ENDBRANCH  38  39
ENDBRANCH  37  38
ENDBRANCH  36  37
ENDBRANCH  35  36
ENDBRANCH  34  35
ENDBRANCH   1  34
TORSDOF 25
ENDMDL
