MODEL 1
REMARK VINA RESULT:     -11.2      0.000      0.000
REMARK SMILES Cc1ccc(C)n1-c1ccccc1S[C@H](C)C(=O)OCCOCCOC(=O)c1ccc(-c2c3nc(c(-c4c(F)cc(S(=O)(=O)[O-])cc4F)c4ccc([nH]4)c(-c4c(F)cc(S(=O)(=O)[O-])cc4F)c4nc(c(-c5c(F)cc(S(=O)(=O)[O-])cc5F)c5ccc2[nH]5)C=C4)C=C3)cc1
REMARK SMILES IDX 22 1 21 2 20 3 19 4 17 5 18 6 15 7 16 8 14 9 13 10 8 11 9 12
REMARK SMILES IDX 10 13 12 14 11 15 7 16 1 17 2 18 3 19 4 20 5 21 6 22 23 23
REMARK SMILES IDX 24 24 25 25 26 26 27 27 28 28 29 29 93 30 30 31 92 32 31 33
REMARK SMILES IDX 32 34 33 35 86 36 34 37 91 38 85 39 87 40 35 41 90 42 84 43
REMARK SMILES IDX 83 44 36 46 70 47 49 48 69 49 50 50 53 51 68 52 88 53 51 54
REMARK SMILES IDX 52 55 67 57 89 58 54 59 37 60 38 61 47 62 39 63 40 64 46 65
REMARK SMILES IDX 48 66 41 67 42 68 43 69 44 70 45 71 71 72 72 73 81 74 73 75
REMARK SMILES IDX 74 76 80 77 82 78 75 79 76 80 77 81 78 82 79 83 55 84 56 85
REMARK SMILES IDX 65 86 57 87 58 88 64 89 66 90 59 91 60 92 61 93 62 94 63 95
REMARK H PARENT 87 45 53 56
REMARK Flexibility Score: inf
ROOT
ATOM      1  O   UNL A   1      34.307  32.516  27.753  1.00  0.00    -0.374 OA
ENDROOT
BRANCH   1   2
ATOM      2  C   UNL A   1      34.144  31.127  28.031  1.00  0.00     0.202 C 
BRANCH   2   3
ATOM      3  C   UNL A   1      32.973  30.435  27.308  1.00  0.00     0.261 C 
BRANCH   3   4
ATOM      4  O   UNL A   1      33.215  29.023  27.241  1.00  0.00    -0.462 OA
BRANCH   4   5
ATOM      5  C   UNL A   1      32.132  28.201  27.192  1.00  0.00     0.319 C 
ATOM      6  O   UNL A   1      31.300  28.087  28.087  1.00  0.00    -0.251 OA
BRANCH   5   7
ATOM      7  C   UNL A   1      32.026  27.507  25.827  1.00  0.00     0.158 C 
ATOM      8  C   UNL A   1      31.483  28.392  24.706  1.00  0.00     0.032 C 
BRANCH   7   9
ATOM      9  S   UNL A   1      33.608  26.620  25.473  1.00  0.00    -0.109 SA
BRANCH   9  10
ATOM     10  C   UNL A   1      33.218  25.410  24.197  1.00  0.00     0.032 A 
ATOM     11  C   UNL A   1      33.258  24.016  24.414  1.00  0.00     0.059 A 
ATOM     12  C   UNL A   1      33.190  23.131  23.322  1.00  0.00     0.028 A 
ATOM     13  C   UNL A   1      33.071  23.620  22.021  1.00  0.00     0.002 A 
ATOM     14  C   UNL A   1      32.967  25.868  22.892  1.00  0.00     0.017 A 
ATOM     15  C   UNL A   1      32.943  24.988  21.808  1.00  0.00     0.001 A 
BRANCH  11  16
ATOM     16  N   UNL A   1      33.359  23.456  25.722  1.00  0.00    -0.317 N 
ATOM     17  C   UNL A   1      35.911  23.508  25.905  1.00  0.00     0.065 C 
ATOM     18  C   UNL A   1      34.546  23.158  26.394  1.00  0.00     0.020 A 
ATOM     19  C   UNL A   1      34.220  22.563  27.598  1.00  0.00     0.023 A 
ATOM     20  C   UNL A   1      32.823  22.616  27.736  1.00  0.00     0.023 A 
ATOM     21  C   UNL A   1      32.302  23.206  26.599  1.00  0.00     0.020 A 
ATOM     22  C   UNL A   1      30.858  23.452  26.314  1.00  0.00     0.065 C 
ENDBRANCH  11  16
ENDBRANCH   9  10
ENDBRANCH   7   9
ENDBRANCH   5   7
ENDBRANCH   4   5
ENDBRANCH   3   4
ENDBRANCH   2   3
ENDBRANCH   1   2
BRANCH   1  23
ATOM     23  C   UNL A   1      33.174  33.380  27.929  1.00  0.00     0.202 C 
BRANCH  23  24
ATOM     24  C   UNL A   1      33.254  34.575  28.963  1.00  0.00     0.261 C 
BRANCH  24  25
ATOM     25  O   UNL A   1      34.424  34.833  29.866  1.00  0.00    -0.460 OA
BRANCH  25  26
ATOM     26  C   UNL A   1      34.485  34.080  31.036  1.00  0.00     0.338 C 
ATOM     27  O   UNL A   1      33.551  34.117  31.836  1.00  0.00    -0.246 OA
BRANCH  26  28
ATOM     28  C   UNL A   1      35.668  33.072  31.316  1.00  0.00     0.060 A 
ATOM     29  C   UNL A   1      36.787  33.164  30.492  1.00  0.00     0.016 A 
ATOM     30  C   UNL A   1      35.689  31.888  32.098  1.00  0.00     0.016 A 
ATOM     31  C   UNL A   1      37.862  32.179  30.489  1.00  0.00     0.010 A 
ATOM     32  C   UNL A   1      36.777  30.828  32.031  1.00  0.00     0.010 A 
ATOM     33  C   UNL A   1      37.921  30.920  31.207  1.00  0.00    -0.014 A 
BRANCH  33  34
ATOM     34  C   UNL A   1      39.037  29.751  30.645  1.00  0.00     0.031 A 
ATOM     35  C   UNL A   1      39.900  29.587  31.853  1.00  0.00     0.074 A 
ATOM     36  C   UNL A   1      39.551  28.985  29.557  1.00  0.00     0.049 A 
ATOM     37  N   UNL A   1      40.462  30.639  32.379  1.00  0.00    -0.248 NA
ATOM     38  C   UNL A   1      39.847  28.420  32.738  1.00  0.00     0.031 C 
ATOM     39  C   UNL A   1      39.164  29.020  28.130  1.00  0.00     0.029 A 
ATOM     40  N   UNL A   1      40.597  27.958  29.450  1.00  0.00    -0.354 N 
ATOM     41  C   UNL A   1      41.110  30.212  33.503  1.00  0.00     0.074 A 
ATOM     42  C   UNL A   1      40.512  28.913  33.791  1.00  0.00     0.031 C 
ATOM     43  C   UNL A   1      39.779  28.047  27.380  1.00  0.00     0.029 A 
ATOM     44  C   UNL A   1      40.732  27.252  28.165  1.00  0.00     0.049 A 
ATOM     45  H   UNL A   1      41.186  27.750  30.211  1.00  0.00     0.167 HD
ATOM     46  C   UNL A   1      42.414  30.598  33.603  1.00  0.00     0.037 A 
ATOM     47  C   UNL A   1      41.593  26.215  27.719  1.00  0.00     0.037 A 
ATOM     48  C   UNL A   1      43.314  29.533  33.256  1.00  0.00     0.049 A 
ATOM     49  C   UNL A   1      42.827  26.380  28.499  1.00  0.00     0.074 A 
ATOM     50  C   UNL A   1      43.327  28.182  33.535  1.00  0.00     0.029 A 
ATOM     51  N   UNL A   1      44.081  29.713  32.122  1.00  0.00    -0.354 N 
ATOM     52  N   UNL A   1      43.665  27.340  28.255  1.00  0.00    -0.248 NA
ATOM     53  C   UNL A   1      43.270  25.394  29.482  1.00  0.00     0.031 C 
ATOM     54  C   UNL A   1      43.602  27.575  32.292  1.00  0.00     0.029 A 
ATOM     55  C   UNL A   1      44.125  28.528  31.427  1.00  0.00     0.049 A 
ATOM     56  H   UNL A   1      44.524  30.552  31.856  1.00  0.00     0.167 HD
ATOM     57  C   UNL A   1      44.432  27.370  29.375  1.00  0.00     0.074 A 
ATOM     58  C   UNL A   1      44.350  26.033  29.937  1.00  0.00     0.031 C 
ATOM     59  C   UNL A   1      44.468  28.557  30.026  1.00  0.00     0.037 A 
BRANCH  46  60
ATOM     60  C   UNL A   1      42.662  32.041  33.252  1.00  0.00     0.058 A 
ATOM     61  C   UNL A   1      42.699  32.414  31.906  1.00  0.00     0.135 A 
ATOM     62  C   UNL A   1      42.945  33.041  34.211  1.00  0.00     0.135 A 
ATOM     63  F   UNL A   1      42.400  31.518  30.950  1.00  0.00    -0.206 F 
ATOM     64  C   UNL A   1      43.046  33.706  31.522  1.00  0.00     0.059 A 
ATOM     65  C   UNL A   1      43.342  34.322  33.849  1.00  0.00     0.059 A 
ATOM     66  F   UNL A   1      42.822  32.780  35.523  1.00  0.00    -0.206 F 
ATOM     67  C   UNL A   1      43.389  34.646  32.499  1.00  0.00     0.060 A 
BRANCH  67  68
ATOM     68  S   UNL A   1      43.922  36.283  31.960  1.00  0.00     0.124 S 
ATOM     69  O   UNL A   1      43.407  36.345  30.596  1.00  0.00    -0.237 OA
ATOM     70  O   UNL A   1      43.253  37.144  32.923  1.00  0.00    -0.237 OA
ATOM     71  O   UNL A   1      45.383  36.218  32.057  1.00  0.00    -0.744 OA
ENDBRANCH  67  68
ENDBRANCH  46  60
BRANCH  47  72
ATOM     72  C   UNL A   1      41.918  25.096  26.599  1.00  0.00     0.058 A 
ATOM     73  C   UNL A   1      42.845  25.349  25.510  1.00  0.00     0.135 A 
ATOM     74  C   UNL A   1      41.719  23.716  26.790  1.00  0.00     0.135 A 
ATOM     75  F   UNL A   1      43.137  26.599  25.123  1.00  0.00    -0.206 F 
ATOM     76  C   UNL A   1      43.585  24.364  24.806  1.00  0.00     0.059 A 
ATOM     77  C   UNL A   1      42.432  22.701  26.063  1.00  0.00     0.059 A 
ATOM     78  F   UNL A   1      40.884  23.296  27.749  1.00  0.00    -0.206 F 
ATOM     79  C   UNL A   1      43.402  23.031  25.112  1.00  0.00     0.060 A 
BRANCH  79  80
ATOM     80  S   UNL A   1      44.527  21.791  24.370  1.00  0.00     0.124 S 
ATOM     81  O   UNL A   1      43.962  20.524  24.823  1.00  0.00    -0.237 OA
ATOM     82  O   UNL A   1      44.396  22.060  22.940  1.00  0.00    -0.237 OA
ATOM     83  O   UNL A   1      45.829  22.130  24.939  1.00  0.00    -0.744 OA
ENDBRANCH  79  80
ENDBRANCH  47  72
BRANCH  59  84
ATOM     84  C   UNL A   1      44.667  29.803  29.177  1.00  0.00     0.058 A 
ATOM     85  C   UNL A   1      43.689  30.468  28.399  1.00  0.00     0.135 A 
ATOM     86  C   UNL A   1      45.974  30.306  29.076  1.00  0.00     0.135 A 
ATOM     87  F   UNL A   1      42.386  30.162  28.484  1.00  0.00    -0.206 F 
ATOM     88  C   UNL A   1      44.014  31.493  27.507  1.00  0.00     0.059 A 
ATOM     89  C   UNL A   1      46.312  31.363  28.231  1.00  0.00     0.059 A 
ATOM     90  F   UNL A   1      46.954  29.760  29.813  1.00  0.00    -0.206 F 
ATOM     91  C   UNL A   1      45.333  31.923  27.416  1.00  0.00     0.060 A 
BRANCH  91  92
ATOM     92  S   UNL A   1      45.754  33.223  26.235  1.00  0.00     0.124 S 
ATOM     93  O   UNL A   1      45.260  34.418  26.914  1.00  0.00    -0.237 OA
ATOM     94  O   UNL A   1      47.207  33.115  26.140  1.00  0.00    -0.237 OA
ATOM     95  O   UNL A   1      45.013  32.844  25.036  1.00  0.00    -0.744 OA
ENDBRANCH  91  92
ENDBRANCH  59  84
ENDBRANCH  33  34
ENDBRANCH  26  28
ENDBRANCH  25  26
ENDBRANCH  24  25
ENDBRANCH  23  24
ENDBRANCH   1  23
TORSDOF 20
ENDMDL
MODEL 2
REMARK VINA RESULT:     -11.1      3.856      9.366
REMARK SMILES Cc1ccc(C)n1-c1ccccc1S[C@H](C)C(=O)OCCOCCOC(=O)c1ccc(-c2c3nc(c(-c4c(F)cc(S(=O)(=O)[O-])cc4F)c4ccc([nH]4)c(-c4c(F)cc(S(=O)(=O)[O-])cc4F)c4nc(c(-c5c(F)cc(S(=O)(=O)[O-])cc5F)c5ccc2[nH]5)C=C4)C=C3)cc1
REMARK SMILES IDX 22 1 21 2 20 3 19 4 17 5 18 6 15 7 16 8 14 9 13 10 8 11 9 12
REMARK SMILES IDX 10 13 12 14 11 15 7 16 1 17 2 18 3 19 4 20 5 21 6 22 23 23
REMARK SMILES IDX 24 24 25 25 26 26 27 27 28 28 29 29 93 30 30 31 92 32 31 33
REMARK SMILES IDX 32 34 33 35 86 36 34 37 91 38 85 39 87 40 35 41 90 42 84 43
REMARK SMILES IDX 83 44 36 46 70 47 49 48 69 49 50 50 53 51 68 52 88 53 51 54
REMARK SMILES IDX 52 55 67 57 89 58 54 59 37 60 38 61 47 62 39 63 40 64 46 65
REMARK SMILES IDX 48 66 41 67 42 68 43 69 44 70 45 71 71 72 72 73 81 74 73 75
REMARK SMILES IDX 74 76 80 77 82 78 75 79 76 80 77 81 78 82 79 83 55 84 56 85
REMARK SMILES IDX 65 86 57 87 58 88 64 89 66 90 59 91 60 92 61 93 62 94 63 95
REMARK H PARENT 87 45 53 56
REMARK Flexibility Score: inf
ROOT
ATOM      1  O   UNL A   1      39.611  22.135  26.574  1.00  0.00    -0.374 OA
ENDROOT
BRANCH   1   2
ATOM      2  C   UNL A   1      38.387  22.605  26.014  1.00  0.00     0.202 C 
BRANCH   2   3
ATOM      3  C   UNL A   1      37.738  21.687  24.962  1.00  0.00     0.261 C 
BRANCH   3   4
ATOM      4  O   UNL A   1      36.319  21.897  24.948  1.00  0.00    -0.462 OA
BRANCH   4   5
ATOM      5  C   UNL A   1      35.806  22.658  23.944  1.00  0.00     0.319 C 
ATOM      6  O   UNL A   1      36.419  22.988  22.935  1.00  0.00    -0.251 OA
BRANCH   5   7
ATOM      7  C   UNL A   1      34.323  22.969  24.189  1.00  0.00     0.158 C 
ATOM      8  C   UNL A   1      33.574  21.900  24.985  1.00  0.00     0.032 C 
BRANCH   7   9
ATOM      9  S   UNL A   1      34.159  24.705  24.800  1.00  0.00    -0.109 SA
BRANCH   9  10
ATOM     10  C   UNL A   1      33.217  25.583  23.541  1.00  0.00     0.032 A 
ATOM     11  C   UNL A   1      32.227  26.542  23.845  1.00  0.00     0.059 A 
ATOM     12  C   UNL A   1      31.360  27.002  22.836  1.00  0.00     0.028 A 
ATOM     13  C   UNL A   1      31.476  26.525  21.530  1.00  0.00     0.002 A 
ATOM     14  C   UNL A   1      33.394  25.220  22.195  1.00  0.00     0.017 A 
ATOM     15  C   UNL A   1      32.503  25.647  21.207  1.00  0.00     0.001 A 
BRANCH  11  16
ATOM     16  N   UNL A   1      32.072  27.082  25.156  1.00  0.00    -0.317 N 
ATOM     17  C   UNL A   1      33.686  29.051  24.892  1.00  0.00     0.065 C 
ATOM     18  C   UNL A   1      32.765  28.177  25.676  1.00  0.00     0.020 A 
ATOM     19  C   UNL A   1      32.389  28.337  26.996  1.00  0.00     0.023 A 
ATOM     20  C   UNL A   1      31.354  27.423  27.258  1.00  0.00     0.023 A 
ATOM     21  C   UNL A   1      31.134  26.684  26.110  1.00  0.00     0.020 A 
ATOM     22  C   UNL A   1      30.134  25.590  25.942  1.00  0.00     0.065 C 
ENDBRANCH  11  16
ENDBRANCH   9  10
ENDBRANCH   7   9
ENDBRANCH   5   7
ENDBRANCH   4   5
ENDBRANCH   3   4
ENDBRANCH   2   3
ENDBRANCH   1   2
BRANCH   1  23
ATOM     23  C   UNL A   1      40.069  20.827  26.200  1.00  0.00     0.202 C 
BRANCH  23  24
ATOM     24  C   UNL A   1      41.567  20.409  26.490  1.00  0.00     0.261 C 
BRANCH  24  25
ATOM     25  O   UNL A   1      42.653  21.372  26.870  1.00  0.00    -0.460 OA
BRANCH  25  26
ATOM     26  C   UNL A   1      43.012  22.316  25.911  1.00  0.00     0.338 C 
ATOM     27  O   UNL A   1      43.285  21.953  24.768  1.00  0.00    -0.246 OA
BRANCH  26  28
ATOM     28  C   UNL A   1      42.957  23.866  26.208  1.00  0.00     0.060 A 
ATOM     29  C   UNL A   1      42.685  24.250  27.519  1.00  0.00     0.016 A 
ATOM     30  C   UNL A   1      42.868  24.962  25.311  1.00  0.00     0.016 A 
ATOM     31  C   UNL A   1      42.400  25.626  27.906  1.00  0.00     0.010 A 
ATOM     32  C   UNL A   1      42.492  26.380  25.715  1.00  0.00     0.010 A 
ATOM     33  C   UNL A   1      42.228  26.780  27.044  1.00  0.00    -0.014 A 
BRANCH  33  34
ATOM     34  C   UNL A   1      41.417  28.136  27.702  1.00  0.00     0.031 A 
ATOM     35  C   UNL A   1      42.541  29.116  27.789  1.00  0.00     0.074 A 
ATOM     36  C   UNL A   1      40.233  28.682  28.278  1.00  0.00     0.049 A 
ATOM     37  N   UNL A   1      43.623  28.785  28.437  1.00  0.00    -0.248 NA
ATOM     38  C   UNL A   1      42.702  30.251  26.877  1.00  0.00     0.031 C 
ATOM     39  C   UNL A   1      38.963  28.003  28.615  1.00  0.00     0.029 A 
ATOM     40  N   UNL A   1      39.861  30.027  28.738  1.00  0.00    -0.354 N 
ATOM     41  C   UNL A   1      44.500  29.821  28.281  1.00  0.00     0.074 A 
ATOM     42  C   UNL A   1      43.976  30.569  27.144  1.00  0.00     0.031 C 
ATOM     43  C   UNL A   1      37.983  28.868  29.037  1.00  0.00     0.029 A 
ATOM     44  C   UNL A   1      38.458  30.255  29.124  1.00  0.00     0.049 A 
ATOM     45  H   UNL A   1      40.527  30.752  28.786  1.00  0.00     0.167 HD
ATOM     46  C   UNL A   1      45.054  30.290  29.435  1.00  0.00     0.037 A 
ATOM     47  C   UNL A   1      37.756  31.401  29.582  1.00  0.00     0.037 A 
ATOM     48  C   UNL A   1      44.430  31.509  29.870  1.00  0.00     0.049 A 
ATOM     49  C   UNL A   1      38.760  32.207  30.289  1.00  0.00     0.074 A 
ATOM     50  C   UNL A   1      44.003  32.639  29.202  1.00  0.00     0.029 A 
ATOM     51  N   UNL A   1      43.726  31.458  31.056  1.00  0.00    -0.354 N 
ATOM     52  N   UNL A   1      39.206  31.868  31.459  1.00  0.00    -0.248 NA
ATOM     53  C   UNL A   1      39.200  33.513  29.802  1.00  0.00     0.031 C 
ATOM     54  C   UNL A   1      42.715  32.882  29.721  1.00  0.00     0.029 A 
ATOM     55  C   UNL A   1      42.566  32.181  30.912  1.00  0.00     0.049 A 
ATOM     56  H   UNL A   1      44.009  30.984  31.872  1.00  0.00     0.167 HD
ATOM     57  C   UNL A   1      40.330  32.619  31.588  1.00  0.00     0.074 A 
ATOM     58  C   UNL A   1      40.130  33.770  30.725  1.00  0.00     0.031 C 
ATOM     59  C   UNL A   1      41.472  31.926  31.817  1.00  0.00     0.037 A 
BRANCH  46  60
ATOM     60  C   UNL A   1      45.520  29.215  30.381  1.00  0.00     0.058 A 
ATOM     61  C   UNL A   1      46.877  29.141  30.706  1.00  0.00     0.135 A 
ATOM     62  C   UNL A   1      44.671  28.211  30.903  1.00  0.00     0.135 A 
ATOM     63  F   UNL A   1      47.726  30.089  30.273  1.00  0.00    -0.206 F 
ATOM     64  C   UNL A   1      47.381  28.097  31.476  1.00  0.00     0.059 A 
ATOM     65  C   UNL A   1      45.160  27.133  31.631  1.00  0.00     0.059 A 
ATOM     66  F   UNL A   1      43.342  28.281  30.721  1.00  0.00    -0.206 F 
ATOM     67  C   UNL A   1      46.520  27.085  31.912  1.00  0.00     0.060 A 
BRANCH  67  68
ATOM     68  S   UNL A   1      47.224  25.699  32.828  1.00  0.00     0.124 S 
ATOM     69  O   UNL A   1      46.096  24.779  32.916  1.00  0.00    -0.237 OA
ATOM     70  O   UNL A   1      48.307  25.284  31.950  1.00  0.00    -0.237 OA
ATOM     71  O   UNL A   1      47.622  26.298  34.105  1.00  0.00    -0.744 OA
ENDBRANCH  67  68
ENDBRANCH  46  60
BRANCH  47  72
ATOM     72  C   UNL A   1      36.331  32.102  29.876  1.00  0.00     0.058 A 
ATOM     73  C   UNL A   1      35.706  32.047  31.187  1.00  0.00     0.135 A 
ATOM     74  C   UNL A   1      35.796  33.147  29.100  1.00  0.00     0.135 A 
ATOM     75  F   UNL A   1      36.029  31.091  32.070  1.00  0.00    -0.206 F 
ATOM     76  C   UNL A   1      34.783  32.991  31.706  1.00  0.00     0.059 A 
ATOM     77  C   UNL A   1      34.834  34.095  29.595  1.00  0.00     0.059 A 
ATOM     78  F   UNL A   1      36.248  33.342  27.855  1.00  0.00    -0.206 F 
ATOM     79  C   UNL A   1      34.374  34.045  30.913  1.00  0.00     0.060 A 
BRANCH  79  80
ATOM     80  S   UNL A   1      33.374  35.382  31.667  1.00  0.00     0.124 S 
ATOM     81  O   UNL A   1      32.491  34.658  32.575  1.00  0.00    -0.237 OA
ATOM     82  O   UNL A   1      34.390  36.212  32.310  1.00  0.00    -0.237 OA
ATOM     83  O   UNL A   1      32.716  36.001  30.520  1.00  0.00    -0.744 OA
ENDBRANCH  79  80
ENDBRANCH  47  72
BRANCH  59  84
ATOM     84  C   UNL A   1      41.410  30.823  32.862  1.00  0.00     0.058 A 
ATOM     85  C   UNL A   1      41.605  30.961  34.257  1.00  0.00     0.135 A 
ATOM     86  C   UNL A   1      41.227  29.511  32.397  1.00  0.00     0.135 A 
ATOM     87  F   UNL A   1      41.683  32.162  34.848  1.00  0.00    -0.206 F 
ATOM     88  C   UNL A   1      41.714  29.859  35.109  1.00  0.00     0.059 A 
ATOM     89  C   UNL A   1      41.279  28.398  33.237  1.00  0.00     0.059 A 
ATOM     90  F   UNL A   1      40.993  29.296  31.092  1.00  0.00    -0.206 F 
ATOM     91  C   UNL A   1      41.566  28.578  34.586  1.00  0.00     0.060 A 
BRANCH  91  92
ATOM     92  S   UNL A   1      41.744  27.155  35.685  1.00  0.00     0.124 S 
ATOM     93  O   UNL A   1      43.186  26.922  35.644  1.00  0.00    -0.237 OA
ATOM     94  O   UNL A   1      41.229  27.660  36.954  1.00  0.00    -0.237 OA
ATOM     95  O   UNL A   1      40.934  26.127  35.039  1.00  0.00    -0.744 OA
ENDBRANCH  91  92
ENDBRANCH  59  84
ENDBRANCH  33  34
ENDBRANCH  26  28
ENDBRANCH  25  26
ENDBRANCH  24  25
ENDBRANCH  23  24
ENDBRANCH   1  23
TORSDOF 20
ENDMDL
MODEL 3
REMARK VINA RESULT:     -11.1      1.652      2.664
REMARK SMILES Cc1ccc(C)n1-c1ccccc1S[C@H](C)C(=O)OCCOCCOC(=O)c1ccc(-c2c3nc(c(-c4c(F)cc(S(=O)(=O)[O-])cc4F)c4ccc([nH]4)c(-c4c(F)cc(S(=O)(=O)[O-])cc4F)c4nc(c(-c5c(F)cc(S(=O)(=O)[O-])cc5F)c5ccc2[nH]5)C=C4)C=C3)cc1
REMARK SMILES IDX 22 1 21 2 20 3 19 4 17 5 18 6 15 7 16 8 14 9 13 10 8 11 9 12
REMARK SMILES IDX 10 13 12 14 11 15 7 16 1 17 2 18 3 19 4 20 5 21 6 22 23 23
REMARK SMILES IDX 24 24 25 25 26 26 27 27 28 28 29 29 93 30 30 31 92 32 31 33
REMARK SMILES IDX 32 34 33 35 86 36 34 37 91 38 85 39 87 40 35 41 90 42 84 43
REMARK SMILES IDX 83 44 36 46 70 47 49 48 69 49 50 50 53 51 68 52 88 53 51 54
REMARK SMILES IDX 52 55 67 57 89 58 54 59 37 60 38 61 47 62 39 63 40 64 46 65
REMARK SMILES IDX 48 66 41 67 42 68 43 69 44 70 45 71 71 72 72 73 81 74 73 75
REMARK SMILES IDX 74 76 80 77 82 78 75 79 76 80 77 81 78 82 79 83 55 84 56 85
REMARK SMILES IDX 65 86 57 87 58 88 64 89 66 90 59 91 60 92 61 93 62 94 63 95
REMARK H PARENT 87 45 53 56
REMARK Flexibility Score: inf
ROOT
ATOM      1  O   UNL A   1      32.959  30.728  26.154  1.00  0.00    -0.374 OA
ENDROOT
BRANCH   1   2
ATOM      2  C   UNL A   1      32.048  29.666  25.878  1.00  0.00     0.202 C 
BRANCH   2   3
ATOM      3  C   UNL A   1      31.744  28.724  27.058  1.00  0.00     0.261 C 
BRANCH   3   4
ATOM      4  O   UNL A   1      32.522  27.526  26.932  1.00  0.00    -0.462 OA
BRANCH   4   5
ATOM      5  C   UNL A   1      31.880  26.397  26.526  1.00  0.00     0.319 C 
ATOM      6  O   UNL A   1      30.742  26.084  26.861  1.00  0.00    -0.251 OA
BRANCH   5   7
ATOM      7  C   UNL A   1      32.724  25.614  25.513  1.00  0.00     0.158 C 
ATOM      8  C   UNL A   1      33.877  26.409  24.898  1.00  0.00     0.032 C 
BRANCH   7   9
ATOM      9  S   UNL A   1      33.161  23.967  26.229  1.00  0.00    -0.109 SA
BRANCH   9  10
ATOM     10  C   UNL A   1      34.750  23.523  25.507  1.00  0.00     0.032 A 
ATOM     11  C   UNL A   1      34.901  22.513  24.533  1.00  0.00     0.059 A 
ATOM     12  C   UNL A   1      36.186  22.046  24.197  1.00  0.00     0.028 A 
ATOM     13  C   UNL A   1      37.317  22.581  24.813  1.00  0.00     0.002 A 
ATOM     14  C   UNL A   1      35.911  24.132  26.013  1.00  0.00     0.017 A 
ATOM     15  C   UNL A   1      37.180  23.635  25.709  1.00  0.00     0.001 A 
BRANCH  11  16
ATOM     16  N   UNL A   1      33.785  21.941  23.855  1.00  0.00    -0.317 N 
ATOM     17  C   UNL A   1      33.430  19.953  25.427  1.00  0.00     0.065 C 
ATOM     18  C   UNL A   1      33.139  20.752  24.201  1.00  0.00     0.020 A 
ATOM     19  C   UNL A   1      32.160  20.504  23.259  1.00  0.00     0.023 A 
ATOM     20  C   UNL A   1      32.103  21.615  22.400  1.00  0.00     0.023 A 
ATOM     21  C   UNL A   1      33.075  22.514  22.798  1.00  0.00     0.020 A 
ATOM     22  C   UNL A   1      33.378  23.828  22.159  1.00  0.00     0.065 C 
ENDBRANCH  11  16
ENDBRANCH   9  10
ENDBRANCH   7   9
ENDBRANCH   5   7
ENDBRANCH   4   5
ENDBRANCH   3   4
ENDBRANCH   2   3
ENDBRANCH   1   2
BRANCH   1  23
ATOM     23  C   UNL A   1      33.439  30.877  27.498  1.00  0.00     0.202 C 
BRANCH  23  24
ATOM     24  C   UNL A   1      34.653  31.848  27.794  1.00  0.00     0.261 C 
BRANCH  24  25
ATOM     25  O   UNL A   1      34.535  33.139  28.548  1.00  0.00    -0.460 OA
BRANCH  25  26
ATOM     26  C   UNL A   1      35.073  33.162  29.832  1.00  0.00     0.338 C 
ATOM     27  O   UNL A   1      34.633  33.952  30.666  1.00  0.00    -0.246 OA
BRANCH  26  28
ATOM     28  C   UNL A   1      36.154  32.110  30.300  1.00  0.00     0.060 A 
ATOM     29  C   UNL A   1      37.293  31.978  29.509  1.00  0.00     0.016 A 
ATOM     30  C   UNL A   1      36.054  31.062  31.252  1.00  0.00     0.016 A 
ATOM     31  C   UNL A   1      38.275  30.916  29.690  1.00  0.00     0.010 A 
ATOM     32  C   UNL A   1      37.042  29.914  31.381  1.00  0.00     0.010 A 
ATOM     33  C   UNL A   1      38.206  29.780  30.591  1.00  0.00    -0.014 A 
BRANCH  33  34
ATOM     34  C   UNL A   1      39.223  28.447  30.249  1.00  0.00     0.031 A 
ATOM     35  C   UNL A   1      39.991  28.348  31.526  1.00  0.00     0.074 A 
ATOM     36  C   UNL A   1      39.716  27.507  29.296  1.00  0.00     0.049 A 
ATOM     37  N   UNL A   1      40.630  29.397  31.964  1.00  0.00    -0.248 NA
ATOM     38  C   UNL A   1      39.763  27.310  32.533  1.00  0.00     0.031 C 
ATOM     39  C   UNL A   1      39.419  27.405  27.850  1.00  0.00     0.029 A 
ATOM     40  N   UNL A   1      40.651  26.377  29.383  1.00  0.00    -0.354 N 
ATOM     41  C   UNL A   1      41.162  29.048  33.173  1.00  0.00     0.074 A 
ATOM     42  C   UNL A   1      40.414  27.859  33.567  1.00  0.00     0.031 C 
ATOM     43  C   UNL A   1      39.970  26.292  27.264  1.00  0.00     0.029 A 
ATOM     44  C   UNL A   1      40.786  25.509  28.200  1.00  0.00     0.049 A 
ATOM     45  H   UNL A   1      41.169  26.206  30.202  1.00  0.00     0.167 HD
ATOM     46  C   UNL A   1      42.491  29.314  33.320  1.00  0.00     0.037 A 
ATOM     47  C   UNL A   1      41.557  24.345  27.939  1.00  0.00     0.037 A 
ATOM     48  C   UNL A   1      43.292  28.132  33.163  1.00  0.00     0.049 A 
ATOM     49  C   UNL A   1      42.753  24.483  28.781  1.00  0.00     0.074 A 
ATOM     50  C   UNL A   1      43.146  26.830  33.598  1.00  0.00     0.029 A 
ATOM     51  N   UNL A   1      44.139  28.095  32.074  1.00  0.00    -0.354 N 
ATOM     52  N   UNL A   1      43.701  25.319  28.487  1.00  0.00    -0.248 NA
ATOM     53  C   UNL A   1      43.030  23.586  29.901  1.00  0.00     0.031 C 
ATOM     54  C   UNL A   1      43.427  26.051  32.456  1.00  0.00     0.029 A 
ATOM     55  C   UNL A   1      44.097  26.836  31.525  1.00  0.00     0.049 A 
ATOM     56  H   UNL A   1      44.683  28.847  31.744  1.00  0.00     0.167 HD
ATOM     57  C   UNL A   1      44.399  25.410  29.648  1.00  0.00     0.074 A 
ATOM     58  C   UNL A   1      44.143  24.167  30.354  1.00  0.00     0.031 C 
ATOM     59  C   UNL A   1      44.523  26.659  30.158  1.00  0.00     0.037 A 
BRANCH  46  60
ATOM     60  C   UNL A   1      42.911  30.672  32.822  1.00  0.00     0.058 A 
ATOM     61  C   UNL A   1      43.211  31.670  33.752  1.00  0.00     0.135 A 
ATOM     62  C   UNL A   1      42.941  31.027  31.454  1.00  0.00     0.135 A 
ATOM     63  F   UNL A   1      43.238  31.383  35.064  1.00  0.00    -0.206 F 
ATOM     64  C   UNL A   1      43.485  32.975  33.350  1.00  0.00     0.059 A 
ATOM     65  C   UNL A   1      43.162  32.332  31.033  1.00  0.00     0.059 A 
ATOM     66  F   UNL A   1      42.770  30.093  30.504  1.00  0.00    -0.206 F 
ATOM     67  C   UNL A   1      43.434  33.302  31.991  1.00  0.00     0.060 A 
BRANCH  67  68
ATOM     68  S   UNL A   1      43.703  35.021  31.515  1.00  0.00     0.124 S 
ATOM     69  O   UNL A   1      45.158  35.117  31.503  1.00  0.00    -0.237 OA
ATOM     70  O   UNL A   1      43.060  35.071  30.211  1.00  0.00    -0.237 OA
ATOM     71  O   UNL A   1      43.051  35.780  32.586  1.00  0.00    -0.744 OA
ENDBRANCH  67  68
ENDBRANCH  46  60
BRANCH  47  72
ATOM     72  C   UNL A   1      41.826  23.071  26.983  1.00  0.00     0.058 A 
ATOM     73  C   UNL A   1      42.666  23.165  25.802  1.00  0.00     0.135 A 
ATOM     74  C   UNL A   1      41.673  21.735  27.396  1.00  0.00     0.135 A 
ATOM     75  F   UNL A   1      42.901  24.343  25.208  1.00  0.00    -0.206 F 
ATOM     76  C   UNL A   1      43.376  22.092  25.203  1.00  0.00     0.059 A 
ATOM     77  C   UNL A   1      42.355  20.628  26.781  1.00  0.00     0.059 A 
ATOM     78  F   UNL A   1      40.919  21.458  28.467  1.00  0.00    -0.206 F 
ATOM     79  C   UNL A   1      43.247  20.820  25.722  1.00  0.00     0.060 A 
BRANCH  79  80
ATOM     80  S   UNL A   1      44.344  19.493  25.096  1.00  0.00     0.124 S 
ATOM     81  O   UNL A   1      44.237  19.637  23.648  1.00  0.00    -0.237 OA
ATOM     82  O   UNL A   1      45.638  19.856  25.669  1.00  0.00    -0.237 OA
ATOM     83  O   UNL A   1      43.752  18.276  25.646  1.00  0.00    -0.744 OA
ENDBRANCH  79  80
ENDBRANCH  47  72
BRANCH  59  84
ATOM     84  C   UNL A   1      44.902  27.765  29.186  1.00  0.00     0.058 A 
ATOM     85  C   UNL A   1      44.050  28.417  28.264  1.00  0.00     0.135 A 
ATOM     86  C   UNL A   1      46.258  28.129  29.128  1.00  0.00     0.135 A 
ATOM     87  F   UNL A   1      42.720  28.246  28.284  1.00  0.00    -0.206 F 
ATOM     88  C   UNL A   1      44.534  29.288  27.285  1.00  0.00     0.059 A 
ATOM     89  C   UNL A   1      46.756  29.037  28.194  1.00  0.00     0.059 A 
ATOM     90  F   UNL A   1      47.128  27.589  29.998  1.00  0.00    -0.206 F 
ATOM     91  C   UNL A   1      45.894  29.580  27.246  1.00  0.00     0.060 A 
BRANCH  91  92
ATOM     92  S   UNL A   1      46.521  30.678  25.956  1.00  0.00     0.124 S 
ATOM     93  O   UNL A   1      45.549  31.768  25.992  1.00  0.00    -0.237 OA
ATOM     94  O   UNL A   1      47.856  31.016  26.441  1.00  0.00    -0.237 OA
ATOM     95  O   UNL A   1      46.475  29.850  24.756  1.00  0.00    -0.744 OA
ENDBRANCH  91  92
ENDBRANCH  59  84
ENDBRANCH  33  34
ENDBRANCH  26  28
ENDBRANCH  25  26
ENDBRANCH  24  25
ENDBRANCH  23  24
ENDBRANCH   1  23
TORSDOF 20
ENDMDL
