MODEL 1
REMARK VINA RESULT:     -11.2      0.000      0.000
REMARK SMILES O=C(COc1ccccc1/C=N/N1[C@@H](S)N=N[C@H]1[C@@H]1C=C(c2ccccc2)N=N1)OCCOCCOC(=O)c1ccc(-c2c3nc(c(-c4c(F)cc(S(=O)(=O)[O-])cc4F)c4ccc([nH]4)c(-c4c(F)cc(S(=O)(=O)[O-])cc4F)c4nc(c(-c5c(F)cc(S(=O)(=O)[O-])cc5F)c5ccc2[nH]5)C=C4)C=C3)cc1
REMARK SMILES IDX 31 1 30 2 2 3 1 4 3 5 4 6 5 7 6 8 10 9 7 10 9 11 8 12 11 13
REMARK SMILES IDX 12 14 13 15 14 16 18 17 16 18 17 19 15 20 19 22 20 23 29 24
REMARK SMILES IDX 21 25 28 26 22 27 23 28 27 29 24 30 26 31 25 32 32 33 33 34
REMARK SMILES IDX 34 35 35 36 36 37 37 38 38 39 39 40 40 41 104 42 41 43
REMARK SMILES IDX 103 44 42 45 43 46 44 47 97 48 45 49 102 50 96 51 98 52
REMARK SMILES IDX 46 53 101 54 95 55 94 56 47 58 81 59 60 60 80 61 61 62 64 63
REMARK SMILES IDX 79 64 99 65 62 66 63 67 78 69 100 70 65 71 48 72 49 73 58 74
REMARK SMILES IDX 50 75 51 76 57 77 59 78 52 79 53 80 54 81 55 82 56 83 82 84
REMARK SMILES IDX 83 85 92 86 84 87 85 88 91 89 93 90 86 91 87 92 88 93 89 94
REMARK SMILES IDX 90 95 66 96 67 97 76 98 68 99 69 100 75 101 77 102 70 103
REMARK SMILES IDX 71 104 72 105 73 106 74 107
REMARK H PARENT 15 21 98 57 64 68
REMARK Flexibility Score: inf
ROOT
ATOM      1  C   UNL A   1      32.018  31.077  26.868  1.00  0.00     0.261 C 
ENDROOT
BRANCH   1   2
ATOM      2  O   UNL A   1      32.455  29.720  27.030  1.00  0.00    -0.461 OA
BRANCH   2   3
ATOM      3  C   UNL A   1      33.375  29.084  26.275  1.00  0.00     0.344 C 
ATOM      4  O   UNL A   1      34.389  28.617  26.791  1.00  0.00    -0.248 OA
BRANCH   3   5
ATOM      5  C   UNL A   1      33.122  28.950  24.795  1.00  0.00     0.352 C 
BRANCH   5   6
ATOM      6  O   UNL A   1      32.587  27.652  24.583  1.00  0.00    -0.481 OA
BRANCH   6   7
ATOM      7  C   UNL A   1      31.374  27.630  23.956  1.00  0.00     0.129 A 
ATOM      8  C   UNL A   1      30.958  28.742  23.222  1.00  0.00     0.047 A 
ATOM      9  C   UNL A   1      30.467  26.601  24.254  1.00  0.00     0.037 A 
ATOM     10  C   UNL A   1      29.632  28.833  22.801  1.00  0.00     0.004 A 
ATOM     11  C   UNL A   1      29.135  26.704  23.852  1.00  0.00     0.013 A 
ATOM     12  C   UNL A   1      28.720  27.826  23.129  1.00  0.00     0.001 A 
BRANCH   9  13
ATOM     13  C   UNL A   1      30.943  25.415  24.989  1.00  0.00     0.145 C 
ATOM     14  N   UNL A   1      30.953  24.206  24.502  1.00  0.00    -0.180 NA
BRANCH  14  15
ATOM     15  N   UNL A   1      31.425  23.341  25.449  1.00  0.00    -0.233 NA
ATOM     16  C   UNL A   1      31.107  23.549  26.871  1.00  0.00     0.298 C 
ATOM     17  C   UNL A   1      32.879  23.120  25.582  1.00  0.00     0.274 C 
ATOM     18  N   UNL A   1      32.084  22.737  27.641  1.00  0.00    -0.153 NA
ATOM     19  N   UNL A   1      33.076  22.476  26.909  1.00  0.00    -0.161 NA
BRANCH  16  20
ATOM     20  S   UNL A   1      29.355  23.222  27.234  1.00  0.00    -0.128 SA
ATOM     21  H   UNL A   1      28.778  22.608  26.166  1.00  0.00     0.106 HD
ENDBRANCH  16  20
BRANCH  17  22
ATOM     22  C   UNL A   1      33.568  22.266  24.492  1.00  0.00     0.202 C 
ATOM     23  C   UNL A   1      32.945  20.917  24.293  1.00  0.00     0.037 C 
ATOM     24  N   UNL A   1      34.957  21.915  24.889  1.00  0.00    -0.177 NA
ATOM     25  C   UNL A   1      33.891  20.041  24.625  1.00  0.00     0.091 C 
ATOM     26  N   UNL A   1      35.064  20.664  24.961  1.00  0.00    -0.155 NA
BRANCH  25  27
ATOM     27  C   UNL A   1      33.785  18.584  24.745  1.00  0.00     0.002 A 
ATOM     28  C   UNL A   1      34.487  17.741  23.874  1.00  0.00     0.010 A 
ATOM     29  C   UNL A   1      32.818  18.023  25.591  1.00  0.00     0.010 A 
ATOM     30  C   UNL A   1      34.165  16.382  23.789  1.00  0.00     0.001 A 
ATOM     31  C   UNL A   1      32.506  16.663  25.517  1.00  0.00     0.001 A 
ATOM     32  C   UNL A   1      33.162  15.849  24.597  1.00  0.00     0.000 A 
ENDBRANCH  25  27
ENDBRANCH  17  22
ENDBRANCH  14  15
ENDBRANCH   9  13
ENDBRANCH   6   7
ENDBRANCH   5   6
ENDBRANCH   3   5
ENDBRANCH   2   3
ENDBRANCH   1   2
BRANCH   1  33
ATOM     33  C   UNL A   1      32.917  32.149  27.499  1.00  0.00     0.202 C 
BRANCH  33  34
ATOM     34  O   UNL A   1      32.502  33.495  27.649  1.00  0.00    -0.374 OA
BRANCH  34  35
ATOM     35  C   UNL A   1      33.312  34.467  28.294  1.00  0.00     0.202 C 
BRANCH  35  36
ATOM     36  C   UNL A   1      33.750  34.319  29.755  1.00  0.00     0.261 C 
BRANCH  36  37
ATOM     37  O   UNL A   1      34.950  33.588  29.969  1.00  0.00    -0.460 OA
BRANCH  37  38
ATOM     38  C   UNL A   1      34.801  32.506  30.749  1.00  0.00     0.338 C 
ATOM     39  O   UNL A   1      34.237  32.472  31.845  1.00  0.00    -0.246 OA
BRANCH  38  40
ATOM     40  C   UNL A   1      35.601  31.385  30.226  1.00  0.00     0.060 A 
ATOM     41  C   UNL A   1      36.259  30.666  31.227  1.00  0.00     0.016 A 
ATOM     42  C   UNL A   1      36.123  31.501  28.929  1.00  0.00     0.016 A 
ATOM     43  C   UNL A   1      37.605  30.447  31.063  1.00  0.00     0.010 A 
ATOM     44  C   UNL A   1      37.470  31.271  28.762  1.00  0.00     0.010 A 
ATOM     45  C   UNL A   1      38.207  30.889  29.882  1.00  0.00    -0.014 A 
BRANCH  45  46
ATOM     46  C   UNL A   1      39.648  31.055  29.914  1.00  0.00     0.031 A 
ATOM     47  C   UNL A   1      40.413  29.898  29.416  1.00  0.00     0.074 A 
ATOM     48  C   UNL A   1      40.218  32.216  30.293  1.00  0.00     0.049 A 
ATOM     49  N   UNL A   1      41.265  29.158  30.043  1.00  0.00    -0.248 NA
ATOM     50  C   UNL A   1      40.086  29.444  28.056  1.00  0.00     0.031 C 
ATOM     51  C   UNL A   1      39.564  33.511  30.513  1.00  0.00     0.029 A 
ATOM     52  N   UNL A   1      41.539  32.510  30.429  1.00  0.00    -0.354 N 
ATOM     53  C   UNL A   1      41.737  28.266  29.090  1.00  0.00     0.074 A 
ATOM     54  C   UNL A   1      40.868  28.374  27.944  1.00  0.00     0.031 C 
ATOM     55  C   UNL A   1      40.504  34.483  30.510  1.00  0.00     0.029 A 
ATOM     56  C   UNL A   1      41.817  33.868  30.399  1.00  0.00     0.049 A 
ATOM     57  H   UNL A   1      42.234  31.822  30.539  1.00  0.00     0.167 HD
ATOM     58  C   UNL A   1      42.953  27.669  29.190  1.00  0.00     0.037 A 
ATOM     59  C   UNL A   1      43.029  34.428  30.162  1.00  0.00     0.037 A 
ATOM     60  C   UNL A   1      43.488  27.705  30.520  1.00  0.00     0.049 A 
ATOM     61  C   UNL A   1      44.063  33.389  30.420  1.00  0.00     0.074 A 
ATOM     62  C   UNL A   1      43.063  27.232  31.747  1.00  0.00     0.029 A 
ATOM     63  N   UNL A   1      44.494  28.600  30.795  1.00  0.00    -0.354 N 
ATOM     64  N   UNL A   1      44.329  32.884  31.594  1.00  0.00    -0.248 NA
ATOM     65  C   UNL A   1      44.535  32.602  29.289  1.00  0.00     0.031 C 
ATOM     66  C   UNL A   1      43.508  28.196  32.697  1.00  0.00     0.029 A 
ATOM     67  C   UNL A   1      44.188  29.193  31.995  1.00  0.00     0.049 A 
ATOM     68  H   UNL A   1      45.284  28.780  30.237  1.00  0.00     0.167 HD
ATOM     69  C   UNL A   1      44.639  31.551  31.355  1.00  0.00     0.074 A 
ATOM     70  C   UNL A   1      44.850  31.465  29.914  1.00  0.00     0.031 C 
ATOM     71  C   UNL A   1      44.426  30.587  32.300  1.00  0.00     0.037 A 
BRANCH  58  72
ATOM     72  C   UNL A   1      43.777  27.363  27.974  1.00  0.00     0.058 A 
ATOM     73  C   UNL A   1      44.281  26.071  27.762  1.00  0.00     0.135 A 
ATOM     74  C   UNL A   1      44.281  28.378  27.128  1.00  0.00     0.135 A 
ATOM     75  F   UNL A   1      43.892  25.051  28.543  1.00  0.00    -0.206 F 
ATOM     76  C   UNL A   1      45.240  25.808  26.783  1.00  0.00     0.059 A 
ATOM     77  C   UNL A   1      45.187  28.128  26.109  1.00  0.00     0.059 A 
ATOM     78  F   UNL A   1      43.980  29.671  27.319  1.00  0.00    -0.206 F 
ATOM     79  C   UNL A   1      45.692  26.846  25.970  1.00  0.00     0.060 A 
BRANCH  79  80
ATOM     80  S   UNL A   1      47.003  26.538  24.776  1.00  0.00     0.124 S 
ATOM     81  O   UNL A   1      46.789  27.626  23.829  1.00  0.00    -0.237 OA
ATOM     82  O   UNL A   1      48.202  26.637  25.603  1.00  0.00    -0.237 OA
ATOM     83  O   UNL A   1      46.699  25.198  24.284  1.00  0.00    -0.744 OA
ENDBRANCH  79  80
ENDBRANCH  58  72
BRANCH  59  84
ATOM     84  C   UNL A   1      43.291  35.653  29.359  1.00  0.00     0.058 A 
ATOM     85  C   UNL A   1      43.025  35.695  27.981  1.00  0.00     0.135 A 
ATOM     86  C   UNL A   1      43.577  36.892  29.972  1.00  0.00     0.135 A 
ATOM     87  F   UNL A   1      42.704  34.571  27.321  1.00  0.00    -0.206 F 
ATOM     88  C   UNL A   1      43.019  36.895  27.259  1.00  0.00     0.059 A 
ATOM     89  C   UNL A   1      43.598  38.094  29.271  1.00  0.00     0.059 A 
ATOM     90  F   UNL A   1      43.756  36.989  31.297  1.00  0.00    -0.206 F 
ATOM     91  C   UNL A   1      43.297  38.093  27.917  1.00  0.00     0.060 A 
BRANCH  91  92
ATOM     92  S   UNL A   1      43.148  39.659  27.028  1.00  0.00     0.124 S 
ATOM     93  O   UNL A   1      43.146  40.627  28.120  1.00  0.00    -0.237 OA
ATOM     94  O   UNL A   1      44.340  39.649  26.185  1.00  0.00    -0.237 OA
ATOM     95  O   UNL A   1      41.882  39.526  26.312  1.00  0.00    -0.744 OA
ENDBRANCH  91  92
ENDBRANCH  59  84
BRANCH  71  96
ATOM     96  C   UNL A   1      44.129  31.032  33.709  1.00  0.00     0.058 A 
ATOM     97  C   UNL A   1      42.837  31.354  34.165  1.00  0.00     0.135 A 
ATOM     98  C   UNL A   1      45.149  30.975  34.670  1.00  0.00     0.135 A 
ATOM     99  F   UNL A   1      41.789  31.321  33.332  1.00  0.00    -0.206 F 
ATOM    100  C   UNL A   1      42.579  31.646  35.505  1.00  0.00     0.059 A 
ATOM    101  C   UNL A   1      44.909  31.233  36.019  1.00  0.00     0.059 A 
ATOM    102  F   UNL A   1      46.390  30.607  34.311  1.00  0.00    -0.206 F 
ATOM    103  C   UNL A   1      43.622  31.579  36.428  1.00  0.00     0.060 A 
BRANCH 103 104
ATOM    104  S   UNL A   1      43.263  31.856  38.176  1.00  0.00     0.124 S 
ATOM    105  O   UNL A   1      44.134  30.882  38.827  1.00  0.00    -0.237 OA
ATOM    106  O   UNL A   1      43.632  33.258  38.360  1.00  0.00    -0.237 OA
ATOM    107  O   UNL A   1      41.832  31.581  38.278  1.00  0.00    -0.744 OA
ENDBRANCH 103 104
ENDBRANCH  71  96
ENDBRANCH  45  46
ENDBRANCH  38  40
ENDBRANCH  37  38
ENDBRANCH  36  37
ENDBRANCH  35  36
ENDBRANCH  34  35
ENDBRANCH  33  34
ENDBRANCH   1  33
TORSDOF 24
ENDMDL
MODEL 2
REMARK VINA RESULT:     -10.8      3.184      7.666
REMARK SMILES O=C(COc1ccccc1/C=N/N1[C@@H](S)N=N[C@H]1[C@@H]1C=C(c2ccccc2)N=N1)OCCOCCOC(=O)c1ccc(-c2c3nc(c(-c4c(F)cc(S(=O)(=O)[O-])cc4F)c4ccc([nH]4)c(-c4c(F)cc(S(=O)(=O)[O-])cc4F)c4nc(c(-c5c(F)cc(S(=O)(=O)[O-])cc5F)c5ccc2[nH]5)C=C4)C=C3)cc1
REMARK SMILES IDX 31 1 30 2 2 3 1 4 3 5 4 6 5 7 6 8 10 9 7 10 9 11 8 12 11 13
REMARK SMILES IDX 12 14 13 15 14 16 18 17 16 18 17 19 15 20 19 22 20 23 29 24
REMARK SMILES IDX 21 25 28 26 22 27 23 28 27 29 24 30 26 31 25 32 32 33 33 34
REMARK SMILES IDX 34 35 35 36 36 37 37 38 38 39 39 40 40 41 104 42 41 43
REMARK SMILES IDX 103 44 42 45 43 46 44 47 97 48 45 49 102 50 96 51 98 52
REMARK SMILES IDX 46 53 101 54 95 55 94 56 47 58 81 59 60 60 80 61 61 62 64 63
REMARK SMILES IDX 79 64 99 65 62 66 63 67 78 69 100 70 65 71 48 72 49 73 58 74
REMARK SMILES IDX 50 75 51 76 57 77 59 78 52 79 53 80 54 81 55 82 56 83 82 84
REMARK SMILES IDX 83 85 92 86 84 87 85 88 91 89 93 90 86 91 87 92 88 93 89 94
REMARK SMILES IDX 90 95 66 96 67 97 76 98 68 99 69 100 75 101 77 102 70 103
REMARK SMILES IDX 71 104 72 105 73 106 74 107
REMARK H PARENT 15 21 98 57 64 68
REMARK Flexibility Score: inf
ROOT
ATOM      1  C   UNL A   1      32.921  31.325  27.446  1.00  0.00     0.261 C 
ENDROOT
BRANCH   1   2
ATOM      2  O   UNL A   1      33.510  30.340  26.584  1.00  0.00    -0.461 OA
BRANCH   2   3
ATOM      3  C   UNL A   1      32.886  29.677  25.589  1.00  0.00     0.344 C 
ATOM      4  O   UNL A   1      33.489  28.834  24.927  1.00  0.00    -0.248 OA
BRANCH   3   5
ATOM      5  C   UNL A   1      31.435  29.985  25.319  1.00  0.00     0.352 C 
BRANCH   5   6
ATOM      6  O   UNL A   1      31.270  29.995  23.910  1.00  0.00    -0.481 OA
BRANCH   6   7
ATOM      7  C   UNL A   1      29.993  29.768  23.482  1.00  0.00     0.129 A 
ATOM      8  C   UNL A   1      29.003  30.719  23.738  1.00  0.00     0.047 A 
ATOM      9  C   UNL A   1      29.643  28.493  23.014  1.00  0.00     0.037 A 
ATOM     10  C   UNL A   1      27.662  30.388  23.542  1.00  0.00     0.004 A 
ATOM     11  C   UNL A   1      28.300  28.155  22.840  1.00  0.00     0.013 A 
ATOM     12  C   UNL A   1      27.311  29.106  23.111  1.00  0.00     0.001 A 
BRANCH   9  13
ATOM     13  C   UNL A   1      30.710  27.523  22.706  1.00  0.00     0.145 C 
ATOM     14  N   UNL A   1      31.240  26.715  23.582  1.00  0.00    -0.180 NA
BRANCH  14  15
ATOM     15  N   UNL A   1      32.217  25.974  22.978  1.00  0.00    -0.233 NA
ATOM     16  C   UNL A   1      32.728  26.355  21.652  1.00  0.00     0.298 C 
ATOM     17  C   UNL A   1      31.995  24.537  22.721  1.00  0.00     0.274 C 
ATOM     18  N   UNL A   1      33.424  25.158  21.113  1.00  0.00    -0.153 NA
ATOM     19  N   UNL A   1      33.027  24.133  21.730  1.00  0.00    -0.161 NA
BRANCH  16  20
ATOM     20  S   UNL A   1      33.718  27.879  21.713  1.00  0.00    -0.128 SA
ATOM     21  H   UNL A   1      35.035  27.560  21.827  1.00  0.00     0.106 HD
ENDBRANCH  16  20
BRANCH  17  22
ATOM     22  C   UNL A   1      32.052  23.583  23.938  1.00  0.00     0.202 C 
ATOM     23  C   UNL A   1      33.343  23.646  24.698  1.00  0.00     0.037 C 
ATOM     24  N   UNL A   1      32.014  22.162  23.502  1.00  0.00    -0.177 NA
ATOM     25  C   UNL A   1      33.882  22.434  24.575  1.00  0.00     0.091 C 
ATOM     26  N   UNL A   1      33.068  21.585  23.873  1.00  0.00    -0.155 NA
BRANCH  25  27
ATOM     27  C   UNL A   1      35.206  21.976  25.008  1.00  0.00     0.002 A 
ATOM     28  C   UNL A   1      36.208  22.895  25.341  1.00  0.00     0.010 A 
ATOM     29  C   UNL A   1      35.547  20.621  24.888  1.00  0.00     0.010 A 
ATOM     30  C   UNL A   1      37.539  22.481  25.463  1.00  0.00     0.001 A 
ATOM     31  C   UNL A   1      36.874  20.204  25.025  1.00  0.00     0.001 A 
ATOM     32  C   UNL A   1      37.872  21.139  25.286  1.00  0.00     0.000 A 
ENDBRANCH  25  27
ENDBRANCH  17  22
ENDBRANCH  14  15
ENDBRANCH   9  13
ENDBRANCH   6   7
ENDBRANCH   5   6
ENDBRANCH   3   5
ENDBRANCH   2   3
ENDBRANCH   1   2
BRANCH   1  33
ATOM     33  C   UNL A   1      33.867  32.419  27.957  1.00  0.00     0.202 C 
BRANCH  33  34
ATOM     34  O   UNL A   1      33.421  33.488  28.772  1.00  0.00    -0.374 OA
BRANCH  34  35
ATOM     35  C   UNL A   1      34.287  34.160  29.676  1.00  0.00     0.202 C 
BRANCH  35  36
ATOM     36  C   UNL A   1      35.299  33.405  30.544  1.00  0.00     0.261 C 
BRANCH  36  37
ATOM     37  O   UNL A   1      34.831  32.196  31.127  1.00  0.00    -0.460 OA
BRANCH  37  38
ATOM     38  C   UNL A   1      35.803  31.319  31.425  1.00  0.00     0.338 C 
ATOM     39  O   UNL A   1      36.255  31.090  32.549  1.00  0.00    -0.246 OA
BRANCH  38  40
ATOM     40  C   UNL A   1      36.427  30.809  30.192  1.00  0.00     0.060 A 
ATOM     41  C   UNL A   1      36.615  29.425  30.204  1.00  0.00     0.016 A 
ATOM     42  C   UNL A   1      37.281  31.669  29.484  1.00  0.00     0.016 A 
ATOM     43  C   UNL A   1      37.867  28.957  29.890  1.00  0.00     0.010 A 
ATOM     44  C   UNL A   1      38.533  31.197  29.160  1.00  0.00     0.010 A 
ATOM     45  C   UNL A   1      38.842  29.883  29.510  1.00  0.00    -0.014 A 
BRANCH  45  46
ATOM     46  C   UNL A   1      40.222  29.450  29.618  1.00  0.00     0.031 A 
ATOM     47  C   UNL A   1      40.741  29.381  30.995  1.00  0.00     0.074 A 
ATOM     48  C   UNL A   1      40.929  29.065  28.537  1.00  0.00     0.049 A 
ATOM     49  N   UNL A   1      41.720  30.035  31.527  1.00  0.00    -0.248 NA
ATOM     50  C   UNL A   1      39.979  28.543  31.933  1.00  0.00     0.031 C 
ATOM     51  C   UNL A   1      40.431  28.805  27.181  1.00  0.00     0.029 A 
ATOM     52  N   UNL A   1      42.234  28.690  28.463  1.00  0.00    -0.354 N 
ATOM     53  C   UNL A   1      41.827  29.536  32.818  1.00  0.00     0.074 A 
ATOM     54  C   UNL A   1      40.642  28.753  33.067  1.00  0.00     0.031 C 
ATOM     55  C   UNL A   1      41.358  28.092  26.503  1.00  0.00     0.029 A 
ATOM     56  C   UNL A   1      42.541  27.946  27.336  1.00  0.00     0.049 A 
ATOM     57  H   UNL A   1      42.900  28.927  29.148  1.00  0.00     0.167 HD
ATOM     58  C   UNL A   1      42.986  29.582  33.524  1.00  0.00     0.037 A 
ATOM     59  C   UNL A   1      43.634  27.160  27.172  1.00  0.00     0.037 A 
ATOM     60  C   UNL A   1      43.920  30.540  33.006  1.00  0.00     0.049 A 
ATOM     61  C   UNL A   1      44.655  27.598  28.163  1.00  0.00     0.074 A 
ATOM     62  C   UNL A   1      43.893  31.907  32.802  1.00  0.00     0.029 A 
ATOM     63  N   UNL A   1      44.995  30.079  32.285  1.00  0.00    -0.354 N 
ATOM     64  N   UNL A   1      45.263  28.753  28.139  1.00  0.00    -0.248 NA
ATOM     65  C   UNL A   1      44.708  26.899  29.440  1.00  0.00     0.031 C 
ATOM     66  C   UNL A   1      44.656  32.127  31.620  1.00  0.00     0.029 A 
ATOM     67  C   UNL A   1      45.113  30.884  31.179  1.00  0.00     0.049 A 
ATOM     68  H   UNL A   1      45.571  29.316  32.519  1.00  0.00     0.167 HD
ATOM     69  C   UNL A   1      45.427  29.105  29.473  1.00  0.00     0.074 A 
ATOM     70  C   UNL A   1      45.163  27.881  30.222  1.00  0.00     0.031 C 
ATOM     71  C   UNL A   1      45.491  30.413  29.864  1.00  0.00     0.037 A 
BRANCH  58  72
ATOM     72  C   UNL A   1      43.365  28.491  34.481  1.00  0.00     0.058 A 
ATOM     73  C   UNL A   1      43.702  28.793  35.809  1.00  0.00     0.135 A 
ATOM     74  C   UNL A   1      43.632  27.170  34.053  1.00  0.00     0.135 A 
ATOM     75  F   UNL A   1      43.524  30.033  36.292  1.00  0.00    -0.206 F 
ATOM     76  C   UNL A   1      44.286  27.847  36.652  1.00  0.00     0.059 A 
ATOM     77  C   UNL A   1      44.153  26.197  34.891  1.00  0.00     0.059 A 
ATOM     78  F   UNL A   1      43.480  26.798  32.773  1.00  0.00    -0.206 F 
ATOM     79  C   UNL A   1      44.515  26.556  36.179  1.00  0.00     0.060 A 
BRANCH  79  80
ATOM     80  S   UNL A   1      45.363  25.360  37.224  1.00  0.00     0.124 S 
ATOM     81  O   UNL A   1      45.909  24.446  36.227  1.00  0.00    -0.237 OA
ATOM     82  O   UNL A   1      46.331  26.196  37.925  1.00  0.00    -0.237 OA
ATOM     83  O   UNL A   1      44.290  24.824  38.056  1.00  0.00    -0.744 OA
ENDBRANCH  79  80
ENDBRANCH  58  72
BRANCH  59  84
ATOM     84  C   UNL A   1      43.674  25.834  26.499  1.00  0.00     0.058 A 
ATOM     85  C   UNL A   1      44.545  25.584  25.425  1.00  0.00     0.135 A 
ATOM     86  C   UNL A   1      43.034  24.703  27.052  1.00  0.00     0.135 A 
ATOM     87  F   UNL A   1      45.228  26.593  24.862  1.00  0.00    -0.206 F 
ATOM     88  C   UNL A   1      44.786  24.291  24.946  1.00  0.00     0.059 A 
ATOM     89  C   UNL A   1      43.241  23.411  26.578  1.00  0.00     0.059 A 
ATOM     90  F   UNL A   1      42.253  24.806  28.137  1.00  0.00    -0.206 F 
ATOM     91  C   UNL A   1      44.136  23.208  25.537  1.00  0.00     0.060 A 
BRANCH  91  92
ATOM     92  S   UNL A   1      44.550  21.525  25.024  1.00  0.00     0.124 S 
ATOM     93  O   UNL A   1      43.566  20.736  25.758  1.00  0.00    -0.237 OA
ATOM     94  O   UNL A   1      44.366  21.591  23.578  1.00  0.00    -0.237 OA
ATOM     95  O   UNL A   1      45.932  21.364  25.467  1.00  0.00    -0.744 OA
ENDBRANCH  91  92
ENDBRANCH  59  84
BRANCH  71  96
ATOM     96  C   UNL A   1      45.678  31.462  28.797  1.00  0.00     0.058 A 
ATOM     97  C   UNL A   1      44.610  32.090  28.132  1.00  0.00     0.135 A 
ATOM     98  C   UNL A   1      46.965  31.965  28.557  1.00  0.00     0.135 A 
ATOM     99  F   UNL A   1      43.343  31.744  28.391  1.00  0.00    -0.206 F 
ATOM    100  C   UNL A   1      44.815  33.140  27.236  1.00  0.00     0.059 A 
ATOM    101  C   UNL A   1      47.191  33.033  27.690  1.00  0.00     0.059 A 
ATOM    102  F   UNL A   1      48.020  31.453  29.213  1.00  0.00    -0.206 F 
ATOM    103  C   UNL A   1      46.111  33.610  27.025  1.00  0.00     0.060 A 
BRANCH 103 104
ATOM    104  S   UNL A   1      46.360  35.037  25.945  1.00  0.00     0.124 S 
ATOM    105  O   UNL A   1      47.785  35.302  26.111  1.00  0.00    -0.237 OA
ATOM    106  O   UNL A   1      45.958  34.523  24.638  1.00  0.00    -0.237 OA
ATOM    107  O   UNL A   1      45.466  36.048  26.505  1.00  0.00    -0.744 OA
ENDBRANCH 103 104
ENDBRANCH  71  96
ENDBRANCH  45  46
ENDBRANCH  38  40
ENDBRANCH  37  38
ENDBRANCH  36  37
ENDBRANCH  35  36
ENDBRANCH  34  35
ENDBRANCH  33  34
ENDBRANCH   1  33
TORSDOF 24
ENDMDL
MODEL 3
REMARK VINA RESULT:     -10.5      3.440      6.174
REMARK SMILES O=C(COc1ccccc1/C=N/N1[C@@H](S)N=N[C@H]1[C@@H]1C=C(c2ccccc2)N=N1)OCCOCCOC(=O)c1ccc(-c2c3nc(c(-c4c(F)cc(S(=O)(=O)[O-])cc4F)c4ccc([nH]4)c(-c4c(F)cc(S(=O)(=O)[O-])cc4F)c4nc(c(-c5c(F)cc(S(=O)(=O)[O-])cc5F)c5ccc2[nH]5)C=C4)C=C3)cc1
REMARK SMILES IDX 31 1 30 2 2 3 1 4 3 5 4 6 5 7 6 8 10 9 7 10 9 11 8 12 11 13
REMARK SMILES IDX 12 14 13 15 14 16 18 17 16 18 17 19 15 20 19 22 20 23 29 24
REMARK SMILES IDX 21 25 28 26 22 27 23 28 27 29 24 30 26 31 25 32 32 33 33 34
REMARK SMILES IDX 34 35 35 36 36 37 37 38 38 39 39 40 40 41 104 42 41 43
REMARK SMILES IDX 103 44 42 45 43 46 44 47 97 48 45 49 102 50 96 51 98 52
REMARK SMILES IDX 46 53 101 54 95 55 94 56 47 58 81 59 60 60 80 61 61 62 64 63
REMARK SMILES IDX 79 64 99 65 62 66 63 67 78 69 100 70 65 71 48 72 49 73 58 74
REMARK SMILES IDX 50 75 51 76 57 77 59 78 52 79 53 80 54 81 55 82 56 83 82 84
REMARK SMILES IDX 83 85 92 86 84 87 85 88 91 89 93 90 86 91 87 92 88 93 89 94
REMARK SMILES IDX 90 95 66 96 67 97 76 98 68 99 69 100 75 101 77 102 70 103
REMARK SMILES IDX 71 104 72 105 73 106 74 107
REMARK H PARENT 15 21 98 57 64 68
REMARK Flexibility Score: inf
ROOT
ATOM      1  C   UNL A   1      33.462  29.857  26.464  1.00  0.00     0.261 C 
ENDROOT
BRANCH   1   2
ATOM      2  O   UNL A   1      33.688  28.444  26.582  1.00  0.00    -0.461 OA
BRANCH   2   3
ATOM      3  C   UNL A   1      33.677  27.549  25.573  1.00  0.00     0.344 C 
ATOM      4  O   UNL A   1      33.985  26.375  25.778  1.00  0.00    -0.248 OA
BRANCH   3   5
ATOM      5  C   UNL A   1      33.269  28.018  24.200  1.00  0.00     0.352 C 
BRANCH   5   6
ATOM      6  O   UNL A   1      32.648  26.916  23.556  1.00  0.00    -0.481 OA
BRANCH   6   7
ATOM      7  C   UNL A   1      31.305  27.058  23.348  1.00  0.00     0.129 A 
ATOM      8  C   UNL A   1      30.838  28.110  22.560  1.00  0.00     0.047 A 
ATOM      9  C   UNL A   1      30.409  26.301  24.119  1.00  0.00     0.037 A 
ATOM     10  C   UNL A   1      29.478  28.417  22.555  1.00  0.00     0.004 A 
ATOM     11  C   UNL A   1      29.051  26.623  24.131  1.00  0.00     0.013 A 
ATOM     12  C   UNL A   1      28.590  27.687  23.350  1.00  0.00     0.001 A 
BRANCH   9  13
ATOM     13  C   UNL A   1      30.921  25.164  24.906  1.00  0.00     0.145 C 
ATOM     14  N   UNL A   1      30.894  23.924  24.505  1.00  0.00    -0.180 NA
BRANCH  14  15
ATOM     15  N   UNL A   1      31.417  23.123  25.481  1.00  0.00    -0.233 NA
ATOM     16  C   UNL A   1      31.085  23.359  26.895  1.00  0.00     0.298 C 
ATOM     17  C   UNL A   1      32.881  22.995  25.620  1.00  0.00     0.274 C 
ATOM     18  N   UNL A   1      32.110  22.636  27.691  1.00  0.00    -0.153 NA
ATOM     19  N   UNL A   1      33.117  22.410  26.968  1.00  0.00    -0.161 NA
BRANCH  16  20
ATOM     20  S   UNL A   1      29.357  22.938  27.271  1.00  0.00    -0.128 SA
ATOM     21  H   UNL A   1      29.290  21.659  27.729  1.00  0.00     0.106 HD
ENDBRANCH  16  20
BRANCH  17  22
ATOM     22  C   UNL A   1      33.622  22.148  24.558  1.00  0.00     0.202 C 
ATOM     23  C   UNL A   1      32.907  20.885  24.182  1.00  0.00     0.037 C 
ATOM     24  N   UNL A   1      34.910  21.633  25.093  1.00  0.00    -0.177 NA
ATOM     25  C   UNL A   1      33.719  19.898  24.559  1.00  0.00     0.091 C 
ATOM     26  N   UNL A   1      34.891  20.376  25.081  1.00  0.00    -0.155 NA
BRANCH  25  27
ATOM     27  C   UNL A   1      33.463  18.454  24.552  1.00  0.00     0.002 A 
ATOM     28  C   UNL A   1      32.654  17.866  25.532  1.00  0.00     0.010 A 
ATOM     29  C   UNL A   1      34.196  17.622  23.694  1.00  0.00     0.010 A 
ATOM     30  C   UNL A   1      32.648  16.478  25.707  1.00  0.00     0.001 A 
ATOM     31  C   UNL A   1      34.179  16.234  23.859  1.00  0.00     0.001 A 
ATOM     32  C   UNL A   1      33.425  15.666  24.883  1.00  0.00     0.000 A 
ENDBRANCH  25  27
ENDBRANCH  17  22
ENDBRANCH  14  15
ENDBRANCH   9  13
ENDBRANCH   6   7
ENDBRANCH   5   6
ENDBRANCH   3   5
ENDBRANCH   2   3
ENDBRANCH   1   2
BRANCH   1  33
ATOM     33  C   UNL A   1      34.232  30.742  27.452  1.00  0.00     0.202 C 
BRANCH  33  34
ATOM     34  O   UNL A   1      33.602  31.763  28.206  1.00  0.00    -0.374 OA
BRANCH  34  35
ATOM     35  C   UNL A   1      33.858  33.140  27.973  1.00  0.00     0.202 C 
BRANCH  35  36
ATOM     36  C   UNL A   1      35.189  33.795  28.357  1.00  0.00     0.261 C 
BRANCH  36  37
ATOM     37  O   UNL A   1      35.187  34.526  29.576  1.00  0.00    -0.460 OA
BRANCH  37  38
ATOM     38  C   UNL A   1      34.142  34.256  30.376  1.00  0.00     0.338 C 
ATOM     39  O   UNL A   1      33.006  34.724  30.269  1.00  0.00    -0.246 OA
BRANCH  38  40
ATOM     40  C   UNL A   1      34.583  33.485  31.550  1.00  0.00     0.060 A 
ATOM     41  C   UNL A   1      34.865  34.287  32.659  1.00  0.00     0.016 A 
ATOM     42  C   UNL A   1      35.246  32.269  31.325  1.00  0.00     0.016 A 
ATOM     43  C   UNL A   1      36.075  34.100  33.280  1.00  0.00     0.010 A 
ATOM     44  C   UNL A   1      36.455  32.077  31.955  1.00  0.00     0.010 A 
ATOM     45  C   UNL A   1      36.908  33.080  32.812  1.00  0.00    -0.014 A 
BRANCH  45  46
ATOM     46  C   UNL A   1      38.312  33.181  33.158  1.00  0.00     0.031 A 
ATOM     47  C   UNL A   1      39.210  33.457  32.022  1.00  0.00     0.074 A 
ATOM     48  C   UNL A   1      38.732  33.109  34.437  1.00  0.00     0.049 A 
ATOM     49  N   UNL A   1      40.176  32.737  31.558  1.00  0.00    -0.248 NA
ATOM     50  C   UNL A   1      38.900  34.656  31.230  1.00  0.00     0.031 C 
ATOM     51  C   UNL A   1      37.916  33.141  35.656  1.00  0.00     0.029 A 
ATOM     52  N   UNL A   1      40.005  33.128  34.917  1.00  0.00    -0.354 N 
ATOM     53  C   UNL A   1      40.732  33.495  30.537  1.00  0.00     0.074 A 
ATOM     54  C   UNL A   1      39.816  34.577  30.269  1.00  0.00     0.031 C 
ATOM     55  C   UNL A   1      38.714  33.423  36.711  1.00  0.00     0.029 A 
ATOM     56  C   UNL A   1      40.094  33.479  36.254  1.00  0.00     0.049 A 
ATOM     57  H   UNL A   1      40.790  32.913  34.364  1.00  0.00     0.167 HD
ATOM     58  C   UNL A   1      42.020  33.345  30.135  1.00  0.00     0.037 A 
ATOM     59  C   UNL A   1      41.209  33.914  36.892  1.00  0.00     0.037 A 
ATOM     60  C   UNL A   1      42.592  32.093  30.542  1.00  0.00     0.049 A 
ATOM     61  C   UNL A   1      42.384  33.499  36.077  1.00  0.00     0.074 A 
ATOM     62  C   UNL A   1      42.279  30.767  30.315  1.00  0.00     0.029 A 
ATOM     63  N   UNL A   1      43.476  32.092  31.595  1.00  0.00    -0.354 N 
ATOM     64  N   UNL A   1      42.758  32.261  35.893  1.00  0.00    -0.248 NA
ATOM     65  C   UNL A   1      42.918  34.454  35.116  1.00  0.00     0.031 C 
ATOM     66  C   UNL A   1      42.622  30.087  31.520  1.00  0.00     0.029 A 
ATOM     67  C   UNL A   1      43.135  31.037  32.405  1.00  0.00     0.049 A 
ATOM     68  H   UNL A   1      44.214  32.727  31.739  1.00  0.00     0.167 HD
ATOM     69  C   UNL A   1      43.237  32.217  34.590  1.00  0.00     0.074 A 
ATOM     70  C   UNL A   1      43.407  33.612  34.202  1.00  0.00     0.031 C 
ATOM     71  C   UNL A   1      43.191  31.068  33.851  1.00  0.00     0.037 A 
BRANCH  58  72
ATOM     72  C   UNL A   1      42.835  34.512  29.663  1.00  0.00     0.058 A 
ATOM     73  C   UNL A   1      43.508  34.460  28.433  1.00  0.00     0.135 A 
ATOM     74  C   UNL A   1      43.159  35.599  30.508  1.00  0.00     0.135 A 
ATOM     75  F   UNL A   1      43.297  33.443  27.583  1.00  0.00    -0.206 F 
ATOM     76  C   UNL A   1      44.459  35.416  28.075  1.00  0.00     0.059 A 
ATOM     77  C   UNL A   1      44.053  36.594  30.147  1.00  0.00     0.059 A 
ATOM     78  F   UNL A   1      42.685  35.686  31.759  1.00  0.00    -0.206 F 
ATOM     79  C   UNL A   1      44.730  36.473  28.944  1.00  0.00     0.060 A 
BRANCH  79  80
ATOM     80  S   UNL A   1      46.028  37.652  28.538  1.00  0.00     0.124 S 
ATOM     81  O   UNL A   1      47.010  37.364  29.577  1.00  0.00    -0.237 OA
ATOM     82  O   UNL A   1      46.394  37.252  27.183  1.00  0.00    -0.237 OA
ATOM     83  O   UNL A   1      45.352  38.941  28.642  1.00  0.00    -0.744 OA
ENDBRANCH  79  80
ENDBRANCH  58  72
BRANCH  59  84
ATOM     84  C   UNL A   1      41.274  34.986  37.922  1.00  0.00     0.058 A 
ATOM     85  C   UNL A   1      41.266  36.345  37.565  1.00  0.00     0.135 A 
ATOM     86  C   UNL A   1      41.094  34.705  39.294  1.00  0.00     0.135 A 
ATOM     87  F   UNL A   1      41.390  36.705  36.279  1.00  0.00    -0.206 F 
ATOM     88  C   UNL A   1      41.069  37.361  38.508  1.00  0.00     0.059 A 
ATOM     89  C   UNL A   1      40.918  35.699  40.251  1.00  0.00     0.059 A 
ATOM     90  F   UNL A   1      40.991  33.445  39.739  1.00  0.00    -0.206 F 
ATOM     91  C   UNL A   1      40.885  37.027  39.849  1.00  0.00     0.060 A 
BRANCH  91  92
ATOM     92  S   UNL A   1      40.485  38.319  41.048  1.00  0.00     0.124 S 
ATOM     93  O   UNL A   1      40.962  39.519  40.368  1.00  0.00    -0.237 OA
ATOM     94  O   UNL A   1      39.037  38.188  41.170  1.00  0.00    -0.237 OA
ATOM     95  O   UNL A   1      41.245  37.931  42.234  1.00  0.00    -0.744 OA
ENDBRANCH  91  92
ENDBRANCH  59  84
BRANCH  71  96
ATOM     96  C   UNL A   1      42.886  29.777  34.568  1.00  0.00     0.058 A 
ATOM     97  C   UNL A   1      41.581  29.353  34.879  1.00  0.00     0.135 A 
ATOM     98  C   UNL A   1      43.926  28.866  34.800  1.00  0.00     0.135 A 
ATOM     99  F   UNL A   1      40.523  30.119  34.584  1.00  0.00    -0.206 F 
ATOM    100  C   UNL A   1      41.327  28.099  35.435  1.00  0.00     0.059 A 
ATOM    101  C   UNL A   1      43.693  27.597  35.326  1.00  0.00     0.059 A 
ATOM    102  F   UNL A   1      45.187  29.184  34.461  1.00  0.00    -0.206 F 
ATOM    103  C   UNL A   1      42.390  27.223  35.652  1.00  0.00     0.060 A 
BRANCH 103 104
ATOM    104  S   UNL A   1      42.044  25.563  36.274  1.00  0.00     0.124 S 
ATOM    105  O   UNL A   1      43.198  24.809  35.796  1.00  0.00    -0.237 OA
ATOM    106  O   UNL A   1      41.977  25.771  37.719  1.00  0.00    -0.237 OA
ATOM    107  O   UNL A   1      40.771  25.222  35.646  1.00  0.00    -0.744 OA
ENDBRANCH 103 104
ENDBRANCH  71  96
ENDBRANCH  45  46
ENDBRANCH  38  40
ENDBRANCH  37  38
ENDBRANCH  36  37
ENDBRANCH  35  36
ENDBRANCH  34  35
ENDBRANCH  33  34
ENDBRANCH   1  33
TORSDOF 24
ENDMDL
