MODEL 1
REMARK VINA RESULT:     -11.2      0.000      0.000
REMARK SMILES Cc1cc(C)c2c(c1)C=C(C(=O)OCCOCCOC(=O)c1ccc(-c3c4nc(c(-c5c(F)cc(S(=O)(=O)[O-])cc5F)c5ccc([nH]5)c(-c5c(F)cc(S(=O)(=O)[O-])cc5F)c5nc(c(-c6c(F)cc(S(=O)(=O)[O-])cc6F)c6ccc3[nH]6)C=C5)C=C4)cc1)[C@@H](C(F)(F)F)O2
REMARK SMILES IDX 17 1 16 2 15 3 14 4 13 5 11 6 12 7 10 8 1 9 2 10 3 11 8 12
REMARK SMILES IDX 4 13 7 14 5 15 6 16 9 17 93 18 88 19 89 20 90 21 91 22 92 23
REMARK SMILES IDX 18 24 19 25 20 26 21 27 22 28 23 29 87 30 24 31 86 32 25 33
REMARK SMILES IDX 26 34 27 35 80 36 28 37 85 38 79 39 81 40 29 41 84 42 78 43
REMARK SMILES IDX 77 44 30 46 64 47 43 48 63 49 44 50 47 51 62 52 82 53 45 54
REMARK SMILES IDX 46 55 61 57 83 58 48 59 31 60 32 61 41 62 33 63 34 64 40 65
REMARK SMILES IDX 42 66 35 67 36 68 37 69 38 70 39 71 65 72 66 73 75 74 67 75
REMARK SMILES IDX 68 76 74 77 76 78 69 79 70 80 71 81 72 82 73 83 49 84 50 85
REMARK SMILES IDX 59 86 51 87 52 88 58 89 60 90 53 91 54 92 55 93 56 94 57 95
REMARK H PARENT 81 45 47 56
REMARK Flexibility Score: inf
ROOT
ATOM      1  C   UNL A   1      39.045  21.370  25.976  1.00  0.00     0.202 C 
ENDROOT
BRANCH   1   2
ATOM      2  O   UNL A   1      38.055  22.148  25.304  1.00  0.00    -0.374 OA
BRANCH   2   3
ATOM      3  C   UNL A   1      36.830  22.393  25.998  1.00  0.00     0.202 C 
BRANCH   3   4
ATOM      4  C   UNL A   1      35.655  21.484  25.625  1.00  0.00     0.261 C 
BRANCH   4   5
ATOM      5  O   UNL A   1      34.909  22.034  24.527  1.00  0.00    -0.460 OA
BRANCH   5   6
ATOM      6  C   UNL A   1      33.749  22.633  24.872  1.00  0.00     0.338 C 
ATOM      7  O   UNL A   1      32.803  22.119  25.453  1.00  0.00    -0.246 OA
BRANCH   6   8
ATOM      8  C   UNL A   1      33.816  24.075  24.568  1.00  0.00     0.087 C 
ATOM      9  C   UNL A   1      32.664  29.449  27.300  1.00  0.00     0.044 C 
ATOM     10  C   UNL A   1      33.044  28.543  26.167  1.00  0.00    -0.050 A 
ATOM     11  C   UNL A   1      33.175  29.027  24.860  1.00  0.00     0.010 A 
ATOM     12  C   UNL A   1      33.248  27.183  26.411  1.00  0.00     0.015 A 
ATOM     13  C   UNL A   1      33.513  28.166  23.802  1.00  0.00    -0.008 A 
ATOM     14  C   UNL A   1      33.562  26.312  25.362  1.00  0.00     0.018 A 
ATOM     15  C   UNL A   1      33.615  28.705  22.401  1.00  0.00     0.048 C 
ATOM     16  C   UNL A   1      33.716  26.803  24.064  1.00  0.00     0.130 A 
ATOM     17  C   UNL A   1      33.650  24.888  25.618  1.00  0.00     0.027 C 
ATOM     18  O   UNL A   1      34.073  26.007  23.010  1.00  0.00    -0.475 OA
ATOM     19  C   UNL A   1      34.021  24.559  23.159  1.00  0.00     0.316 C 
BRANCH  19  20
ATOM     20  C   UNL A   1      32.967  24.010  22.187  1.00  0.00     0.430 C 
ATOM     21  F   UNL A   1      32.865  24.791  21.084  1.00  0.00    -0.167 F 
ATOM     22  F   UNL A   1      33.281  22.766  21.758  1.00  0.00    -0.167 F 
ATOM     23  F   UNL A   1      31.742  23.947  22.755  1.00  0.00    -0.167 F 
ENDBRANCH  19  20
ENDBRANCH   6   8
ENDBRANCH   5   6
ENDBRANCH   4   5
ENDBRANCH   3   4
ENDBRANCH   2   3
ENDBRANCH   1   2
BRANCH   1  24
ATOM     24  C   UNL A   1      40.182  22.137  26.663  1.00  0.00     0.261 C 
BRANCH  24  25
ATOM     25  O   UNL A   1      39.985  23.560  26.629  1.00  0.00    -0.460 OA
BRANCH  25  26
ATOM     26  C   UNL A   1      41.102  24.289  26.865  1.00  0.00     0.338 C 
ATOM     27  O   UNL A   1      42.214  24.110  26.382  1.00  0.00    -0.246 OA
BRANCH  26  28
ATOM     28  C   UNL A   1      40.777  25.475  27.676  1.00  0.00     0.060 A 
ATOM     29  C   UNL A   1      41.682  26.545  27.651  1.00  0.00     0.016 A 
ATOM     30  C   UNL A   1      39.656  25.512  28.509  1.00  0.00     0.016 A 
ATOM     31  C   UNL A   1      41.499  27.635  28.499  1.00  0.00     0.010 A 
ATOM     32  C   UNL A   1      39.482  26.601  29.370  1.00  0.00     0.010 A 
ATOM     33  C   UNL A   1      40.421  27.648  29.394  1.00  0.00    -0.014 A 
BRANCH  33  34
ATOM     34  C   UNL A   1      40.355  28.679  30.456  1.00  0.00     0.031 A 
ATOM     35  C   UNL A   1      41.288  28.571  31.630  1.00  0.00     0.074 A 
ATOM     36  C   UNL A   1      39.489  29.704  30.364  1.00  0.00     0.049 A 
ATOM     37  N   UNL A   1      41.342  29.301  32.715  1.00  0.00    -0.248 NA
ATOM     38  C   UNL A   1      42.296  27.500  31.573  1.00  0.00     0.031 C 
ATOM     39  C   UNL A   1      38.581  29.946  29.244  1.00  0.00     0.029 A 
ATOM     40  N   UNL A   1      39.228  30.729  31.237  1.00  0.00    -0.354 N 
ATOM     41  C   UNL A   1      42.384  28.776  33.471  1.00  0.00     0.074 A 
ATOM     42  C   UNL A   1      42.922  27.655  32.732  1.00  0.00     0.031 C 
ATOM     43  C   UNL A   1      37.849  31.042  29.506  1.00  0.00     0.029 A 
ATOM     44  C   UNL A   1      38.210  31.556  30.825  1.00  0.00     0.049 A 
ATOM     45  H   UNL A   1      39.722  30.860  32.078  1.00  0.00     0.167 HD
ATOM     46  C   UNL A   1      42.849  29.197  34.670  1.00  0.00     0.037 A 
ATOM     47  C   UNL A   1      37.622  32.592  31.455  1.00  0.00     0.037 A 
ATOM     48  C   UNL A   1      42.303  30.310  35.402  1.00  0.00     0.049 A 
ATOM     49  C   UNL A   1      38.108  32.995  32.822  1.00  0.00     0.074 A 
ATOM     50  C   UNL A   1      42.690  30.802  36.636  1.00  0.00     0.029 A 
ATOM     51  N   UNL A   1      41.256  31.107  34.964  1.00  0.00    -0.354 N 
ATOM     52  N   UNL A   1      39.072  32.470  33.543  1.00  0.00    -0.248 NA
ATOM     53  C   UNL A   1      37.429  34.129  33.463  1.00  0.00     0.031 C 
ATOM     54  C   UNL A   1      41.852  31.875  36.962  1.00  0.00     0.029 A 
ATOM     55  C   UNL A   1      40.976  32.081  35.908  1.00  0.00     0.049 A 
ATOM     56  H   UNL A   1      40.781  30.996  34.109  1.00  0.00     0.167 HD
ATOM     57  C   UNL A   1      39.134  33.230  34.707  1.00  0.00     0.074 A 
ATOM     58  C   UNL A   1      38.114  34.252  34.592  1.00  0.00     0.031 C 
ATOM     59  C   UNL A   1      39.962  33.096  35.773  1.00  0.00     0.037 A 
BRANCH  46  60
ATOM     60  C   UNL A   1      43.996  28.440  35.280  1.00  0.00     0.058 A 
ATOM     61  C   UNL A   1      45.328  28.822  35.062  1.00  0.00     0.135 A 
ATOM     62  C   UNL A   1      43.757  27.359  36.144  1.00  0.00     0.135 A 
ATOM     63  F   UNL A   1      45.613  29.834  34.227  1.00  0.00    -0.206 F 
ATOM     64  C   UNL A   1      46.385  28.153  35.672  1.00  0.00     0.059 A 
ATOM     65  C   UNL A   1      44.796  26.690  36.783  1.00  0.00     0.059 A 
ATOM     66  F   UNL A   1      42.500  26.948  36.381  1.00  0.00    -0.206 F 
ATOM     67  C   UNL A   1      46.108  27.092  36.536  1.00  0.00     0.060 A 
BRANCH  67  68
ATOM     68  S   UNL A   1      47.489  26.258  37.347  1.00  0.00     0.124 S 
ATOM     69  O   UNL A   1      46.909  25.928  38.646  1.00  0.00    -0.237 OA
ATOM     70  O   UNL A   1      47.735  25.127  36.458  1.00  0.00    -0.237 OA
ATOM     71  O   UNL A   1      48.536  27.274  37.370  1.00  0.00    -0.744 OA
ENDBRANCH  67  68
ENDBRANCH  46  60
BRANCH  47  72
ATOM     72  C   UNL A   1      36.498  33.315  30.803  1.00  0.00     0.058 A 
ATOM     73  C   UNL A   1      35.180  33.161  31.255  1.00  0.00     0.135 A 
ATOM     74  C   UNL A   1      36.722  34.180  29.720  1.00  0.00     0.135 A 
ATOM     75  F   UNL A   1      34.915  32.334  32.279  1.00  0.00    -0.206 F 
ATOM     76  C   UNL A   1      34.120  33.832  30.654  1.00  0.00     0.059 A 
ATOM     77  C   UNL A   1      35.683  34.881  29.118  1.00  0.00     0.059 A 
ATOM     78  F   UNL A   1      37.967  34.368  29.256  1.00  0.00    -0.206 F 
ATOM     79  C   UNL A   1      34.384  34.695  29.587  1.00  0.00     0.060 A 
BRANCH  79  80
ATOM     80  S   UNL A   1      33.008  35.605  28.852  1.00  0.00     0.124 S 
ATOM     81  O   UNL A   1      33.709  36.627  28.082  1.00  0.00    -0.237 OA
ATOM     82  O   UNL A   1      32.337  34.568  28.076  1.00  0.00    -0.237 OA
ATOM     83  O   UNL A   1      32.267  36.089  30.014  1.00  0.00    -0.744 OA
ENDBRANCH  79  80
ENDBRANCH  47  72
BRANCH  59  84
ATOM     84  C   UNL A   1      39.833  34.106  36.879  1.00  0.00     0.058 A 
ATOM     85  C   UNL A   1      40.508  35.336  36.841  1.00  0.00     0.135 A 
ATOM     86  C   UNL A   1      38.990  33.853  37.974  1.00  0.00     0.135 A 
ATOM     87  F   UNL A   1      41.327  35.625  35.818  1.00  0.00    -0.206 F 
ATOM     88  C   UNL A   1      40.376  36.267  37.866  1.00  0.00     0.059 A 
ATOM     89  C   UNL A   1      38.824  34.780  38.997  1.00  0.00     0.059 A 
ATOM     90  F   UNL A   1      38.312  32.698  38.051  1.00  0.00    -0.206 F 
ATOM     91  C   UNL A   1      39.534  35.979  38.942  1.00  0.00     0.060 A 
BRANCH  91  92
ATOM     92  S   UNL A   1      39.364  37.200  40.261  1.00  0.00     0.124 S 
ATOM     93  O   UNL A   1      38.641  38.268  39.579  1.00  0.00    -0.237 OA
ATOM     94  O   UNL A   1      38.608  36.467  41.271  1.00  0.00    -0.237 OA
ATOM     95  O   UNL A   1      40.746  37.507  40.620  1.00  0.00    -0.744 OA
ENDBRANCH  91  92
ENDBRANCH  59  84
ENDBRANCH  33  34
ENDBRANCH  26  28
ENDBRANCH  25  26
ENDBRANCH  24  25
ENDBRANCH   1  24
TORSDOF 18
ENDMDL
MODEL 2
REMARK VINA RESULT:     -11.1      1.657      3.391
REMARK SMILES Cc1cc(C)c2c(c1)C=C(C(=O)OCCOCCOC(=O)c1ccc(-c3c4nc(c(-c5c(F)cc(S(=O)(=O)[O-])cc5F)c5ccc([nH]5)c(-c5c(F)cc(S(=O)(=O)[O-])cc5F)c5nc(c(-c6c(F)cc(S(=O)(=O)[O-])cc6F)c6ccc3[nH]6)C=C5)C=C4)cc1)[C@@H](C(F)(F)F)O2
REMARK SMILES IDX 17 1 16 2 15 3 14 4 13 5 11 6 12 7 10 8 1 9 2 10 3 11 8 12
REMARK SMILES IDX 4 13 7 14 5 15 6 16 9 17 93 18 88 19 89 20 90 21 91 22 92 23
REMARK SMILES IDX 18 24 19 25 20 26 21 27 22 28 23 29 87 30 24 31 86 32 25 33
REMARK SMILES IDX 26 34 27 35 80 36 28 37 85 38 79 39 81 40 29 41 84 42 78 43
REMARK SMILES IDX 77 44 30 46 64 47 43 48 63 49 44 50 47 51 62 52 82 53 45 54
REMARK SMILES IDX 46 55 61 57 83 58 48 59 31 60 32 61 41 62 33 63 34 64 40 65
REMARK SMILES IDX 42 66 35 67 36 68 37 69 38 70 39 71 65 72 66 73 75 74 67 75
REMARK SMILES IDX 68 76 74 77 76 78 69 79 70 80 71 81 72 82 73 83 49 84 50 85
REMARK SMILES IDX 59 86 51 87 52 88 58 89 60 90 53 91 54 92 55 93 56 94 57 95
REMARK H PARENT 81 45 47 56
REMARK Flexibility Score: inf
ROOT
ATOM      1  C   UNL A   1      38.174  22.473  25.559  1.00  0.00     0.202 C 
ENDROOT
BRANCH   1   2
ATOM      2  O   UNL A   1      36.787  22.758  25.737  1.00  0.00    -0.374 OA
BRANCH   2   3
ATOM      3  C   UNL A   1      36.281  23.953  25.139  1.00  0.00     0.202 C 
BRANCH   3   4
ATOM      4  C   UNL A   1      34.915  24.428  25.644  1.00  0.00     0.261 C 
BRANCH   4   5
ATOM      5  O   UNL A   1      34.137  23.324  26.136  1.00  0.00    -0.460 OA
BRANCH   5   6
ATOM      6  C   UNL A   1      32.856  23.297  25.707  1.00  0.00     0.338 C 
ATOM      7  O   UNL A   1      32.022  24.183  25.833  1.00  0.00    -0.246 OA
BRANCH   6   8
ATOM      8  C   UNL A   1      32.613  22.072  24.922  1.00  0.00     0.087 C 
ATOM      9  C   UNL A   1      33.436  16.010  25.415  1.00  0.00     0.044 C 
ATOM     10  C   UNL A   1      33.054  17.288  24.730  1.00  0.00    -0.050 A 
ATOM     11  C   UNL A   1      32.759  17.322  23.362  1.00  0.00     0.010 A 
ATOM     12  C   UNL A   1      33.014  18.477  25.462  1.00  0.00     0.015 A 
ATOM     13  C   UNL A   1      32.420  18.529  22.726  1.00  0.00    -0.008 A 
ATOM     14  C   UNL A   1      32.702  19.688  24.836  1.00  0.00     0.018 A 
ATOM     15  C   UNL A   1      32.139  18.544  21.249  1.00  0.00     0.048 C 
ATOM     16  C   UNL A   1      32.383  19.714  23.477  1.00  0.00     0.130 A 
ATOM     17  C   UNL A   1      32.785  20.924  25.588  1.00  0.00     0.027 C 
ATOM     18  O   UNL A   1      32.020  20.860  22.823  1.00  0.00    -0.475 OA
ATOM     19  C   UNL A   1      32.235  22.148  23.469  1.00  0.00     0.316 C 
BRANCH  19  20
ATOM     20  C   UNL A   1      33.250  22.942  22.636  1.00  0.00     0.430 C 
ATOM     21  F   UNL A   1      34.521  22.590  22.947  1.00  0.00    -0.167 F 
ATOM     22  F   UNL A   1      33.096  22.718  21.311  1.00  0.00    -0.167 F 
ATOM     23  F   UNL A   1      33.138  24.274  22.839  1.00  0.00    -0.167 F 
ENDBRANCH  19  20
ENDBRANCH   6   8
ENDBRANCH   5   6
ENDBRANCH   4   5
ENDBRANCH   3   4
ENDBRANCH   2   3
ENDBRANCH   1   2
BRANCH   1  24
ATOM     24  C   UNL A   1      39.144  23.076  26.583  1.00  0.00     0.261 C 
BRANCH  24  25
ATOM     25  O   UNL A   1      39.222  24.508  26.489  1.00  0.00    -0.460 OA
BRANCH  25  26
ATOM     26  C   UNL A   1      40.477  25.011  26.585  1.00  0.00     0.338 C 
ATOM     27  O   UNL A   1      41.367  24.933  25.747  1.00  0.00    -0.246 OA
BRANCH  26  28
ATOM     28  C   UNL A   1      40.603  25.843  27.795  1.00  0.00     0.060 A 
ATOM     29  C   UNL A   1      39.530  25.840  28.697  1.00  0.00     0.016 A 
ATOM     30  C   UNL A   1      41.708  26.671  28.006  1.00  0.00     0.016 A 
ATOM     31  C   UNL A   1      39.532  26.708  29.787  1.00  0.00     0.010 A 
ATOM     32  C   UNL A   1      41.702  27.551  29.094  1.00  0.00     0.010 A 
ATOM     33  C   UNL A   1      40.599  27.598  29.967  1.00  0.00    -0.014 A 
BRANCH  33  34
ATOM     34  C   UNL A   1      40.498  28.678  30.976  1.00  0.00     0.031 A 
ATOM     35  C   UNL A   1      41.403  28.636  32.176  1.00  0.00     0.074 A 
ATOM     36  C   UNL A   1      39.627  29.688  30.814  1.00  0.00     0.049 A 
ATOM     37  N   UNL A   1      41.425  29.418  33.225  1.00  0.00    -0.248 NA
ATOM     38  C   UNL A   1      42.422  27.573  32.195  1.00  0.00     0.031 C 
ATOM     39  C   UNL A   1      38.744  29.867  29.661  1.00  0.00     0.029 A 
ATOM     40  N   UNL A   1      39.335  30.752  31.629  1.00  0.00    -0.354 N 
ATOM     41  C   UNL A   1      42.453  28.941  34.030  1.00  0.00     0.074 A 
ATOM     42  C   UNL A   1      43.019  27.790  33.360  1.00  0.00     0.031 C 
ATOM     43  C   UNL A   1      37.997  30.967  29.853  1.00  0.00     0.029 A 
ATOM     44  C   UNL A   1      38.321  31.548  31.153  1.00  0.00     0.049 A 
ATOM     45  H   UNL A   1      39.808  30.929  32.475  1.00  0.00     0.167 HD
ATOM     46  C   UNL A   1      42.885  29.423  35.218  1.00  0.00     0.037 A 
ATOM     47  C   UNL A   1      37.709  32.608  31.718  1.00  0.00     0.037 A 
ATOM     48  C   UNL A   1      42.312  30.565  35.882  1.00  0.00     0.049 A 
ATOM     49  C   UNL A   1      38.158  33.081  33.075  1.00  0.00     0.074 A 
ATOM     50  C   UNL A   1      42.664  31.120  37.100  1.00  0.00     0.029 A 
ATOM     51  N   UNL A   1      41.269  31.329  35.382  1.00  0.00    -0.354 N 
ATOM     52  N   UNL A   1      39.108  32.601  33.843  1.00  0.00    -0.248 NA
ATOM     53  C   UNL A   1      37.454  34.238  33.644  1.00  0.00     0.031 C 
ATOM     54  C   UNL A   1      41.809  32.198  37.353  1.00  0.00     0.029 A 
ATOM     55  C   UNL A   1      40.958  32.345  36.270  1.00  0.00     0.049 A 
ATOM     56  H   UNL A   1      40.816  31.172  34.521  1.00  0.00     0.167 HD
ATOM     57  C   UNL A   1      39.136  33.417  34.971  1.00  0.00     0.074 A 
ATOM     58  C   UNL A   1      38.110  34.422  34.781  1.00  0.00     0.031 C 
ATOM     59  C   UNL A   1      39.938  33.343  36.061  1.00  0.00     0.037 A 
BRANCH  46  60
ATOM     60  C   UNL A   1      44.023  28.708  35.892  1.00  0.00     0.058 A 
ATOM     61  C   UNL A   1      45.356  29.099  35.697  1.00  0.00     0.135 A 
ATOM     62  C   UNL A   1      43.772  27.659  36.791  1.00  0.00     0.135 A 
ATOM     63  F   UNL A   1      45.652  30.081  34.830  1.00  0.00    -0.206 F 
ATOM     64  C   UNL A   1      46.403  28.471  36.364  1.00  0.00     0.059 A 
ATOM     65  C   UNL A   1      44.801  27.032  37.487  1.00  0.00     0.059 A 
ATOM     66  F   UNL A   1      42.515  27.240  37.008  1.00  0.00    -0.206 F 
ATOM     67  C   UNL A   1      46.114  27.441  37.262  1.00  0.00     0.060 A 
BRANCH  67  68
ATOM     68  S   UNL A   1      47.481  26.660  38.147  1.00  0.00     0.124 S 
ATOM     69  O   UNL A   1      47.062  26.824  39.535  1.00  0.00    -0.237 OA
ATOM     70  O   UNL A   1      47.446  25.295  37.631  1.00  0.00    -0.237 OA
ATOM     71  O   UNL A   1      48.642  27.449  37.746  1.00  0.00    -0.744 OA
ENDBRANCH  67  68
ENDBRANCH  46  60
BRANCH  47  72
ATOM     72  C   UNL A   1      36.595  33.287  31.005  1.00  0.00     0.058 A 
ATOM     73  C   UNL A   1      35.260  33.066  31.371  1.00  0.00     0.135 A 
ATOM     74  C   UNL A   1      36.845  34.177  29.949  1.00  0.00     0.135 A 
ATOM     75  F   UNL A   1      34.971  32.213  32.366  1.00  0.00    -0.206 F 
ATOM     76  C   UNL A   1      34.210  33.696  30.712  1.00  0.00     0.059 A 
ATOM     77  C   UNL A   1      35.814  34.839  29.290  1.00  0.00     0.059 A 
ATOM     78  F   UNL A   1      38.107  34.430  29.566  1.00  0.00    -0.206 F 
ATOM     79  C   UNL A   1      34.498  34.586  29.675  1.00  0.00     0.060 A 
BRANCH  79  80
ATOM     80  S   UNL A   1      33.130  35.442  28.865  1.00  0.00     0.124 S 
ATOM     81  O   UNL A   1      32.418  36.005  30.007  1.00  0.00    -0.237 OA
ATOM     82  O   UNL A   1      33.830  36.399  28.013  1.00  0.00    -0.237 OA
ATOM     83  O   UNL A   1      32.437  34.371  28.155  1.00  0.00    -0.744 OA
ENDBRANCH  79  80
ENDBRANCH  47  72
BRANCH  59  84
ATOM     84  C   UNL A   1      39.774  34.404  37.114  1.00  0.00     0.058 A 
ATOM     85  C   UNL A   1      38.951  34.214  38.234  1.00  0.00     0.135 A 
ATOM     86  C   UNL A   1      40.483  35.613  37.017  1.00  0.00     0.135 A 
ATOM     87  F   UNL A   1      38.251  33.077  38.373  1.00  0.00    -0.206 F 
ATOM     88  C   UNL A   1      38.812  35.199  39.207  1.00  0.00     0.059 A 
ATOM     89  C   UNL A   1      40.378  36.600  37.990  1.00  0.00     0.059 A 
ATOM     90  F   UNL A   1      41.294  35.838  35.971  1.00  0.00    -0.206 F 
ATOM     91  C   UNL A   1      39.527  36.391  39.074  1.00  0.00     0.060 A 
BRANCH  91  92
ATOM     92  S   UNL A   1      39.345  37.657  40.348  1.00  0.00     0.124 S 
ATOM     93  O   UNL A   1      38.162  38.373  39.881  1.00  0.00    -0.237 OA
ATOM     94  O   UNL A   1      39.167  36.861  41.558  1.00  0.00    -0.237 OA
ATOM     95  O   UNL A   1      40.600  38.399  40.271  1.00  0.00    -0.744 OA
ENDBRANCH  91  92
ENDBRANCH  59  84
ENDBRANCH  33  34
ENDBRANCH  26  28
ENDBRANCH  25  26
ENDBRANCH  24  25
ENDBRANCH   1  24
TORSDOF 18
ENDMDL
MODEL 3
REMARK VINA RESULT:     -11.1      2.676      3.537
REMARK SMILES Cc1cc(C)c2c(c1)C=C(C(=O)OCCOCCOC(=O)c1ccc(-c3c4nc(c(-c5c(F)cc(S(=O)(=O)[O-])cc5F)c5ccc([nH]5)c(-c5c(F)cc(S(=O)(=O)[O-])cc5F)c5nc(c(-c6c(F)cc(S(=O)(=O)[O-])cc6F)c6ccc3[nH]6)C=C5)C=C4)cc1)[C@@H](C(F)(F)F)O2
REMARK SMILES IDX 17 1 16 2 15 3 14 4 13 5 11 6 12 7 10 8 1 9 2 10 3 11 8 12
REMARK SMILES IDX 4 13 7 14 5 15 6 16 9 17 93 18 88 19 89 20 90 21 91 22 92 23
REMARK SMILES IDX 18 24 19 25 20 26 21 27 22 28 23 29 87 30 24 31 86 32 25 33
REMARK SMILES IDX 26 34 27 35 80 36 28 37 85 38 79 39 81 40 29 41 84 42 78 43
REMARK SMILES IDX 77 44 30 46 64 47 43 48 63 49 44 50 47 51 62 52 82 53 45 54
REMARK SMILES IDX 46 55 61 57 83 58 48 59 31 60 32 61 41 62 33 63 34 64 40 65
REMARK SMILES IDX 42 66 35 67 36 68 37 69 38 70 39 71 65 72 66 73 75 74 67 75
REMARK SMILES IDX 68 76 74 77 76 78 69 79 70 80 71 81 72 82 73 83 49 84 50 85
REMARK SMILES IDX 59 86 51 87 52 88 58 89 60 90 53 91 54 92 55 93 56 94 57 95
REMARK H PARENT 81 45 47 56
REMARK Flexibility Score: inf
ROOT
ATOM      1  C   UNL A   1      36.701  20.702  25.324  1.00  0.00     0.202 C 
ENDROOT
BRANCH   1   2
ATOM      2  O   UNL A   1      35.615  21.540  25.720  1.00  0.00    -0.374 OA
BRANCH   2   3
ATOM      3  C   UNL A   1      34.295  21.011  25.585  1.00  0.00     0.202 C 
BRANCH   3   4
ATOM      4  C   UNL A   1      33.174  22.041  25.420  1.00  0.00     0.261 C 
BRANCH   4   5
ATOM      5  O   UNL A   1      33.707  23.374  25.347  1.00  0.00    -0.460 OA
BRANCH   5   6
ATOM      6  C   UNL A   1      33.694  23.924  24.113  1.00  0.00     0.338 C 
ATOM      7  O   UNL A   1      33.910  23.352  23.053  1.00  0.00    -0.246 OA
BRANCH   6   8
ATOM      8  C   UNL A   1      33.240  25.325  24.191  1.00  0.00     0.087 C 
ATOM      9  C   UNL A   1      34.297  30.362  27.535  1.00  0.00     0.044 C 
ATOM     10  C   UNL A   1      33.614  29.531  26.490  1.00  0.00    -0.050 A 
ATOM     11  C   UNL A   1      32.456  29.980  25.845  1.00  0.00     0.010 A 
ATOM     12  C   UNL A   1      34.126  28.272  26.167  1.00  0.00     0.015 A 
ATOM     13  C   UNL A   1      31.813  29.185  24.879  1.00  0.00    -0.008 A 
ATOM     14  C   UNL A   1      33.482  27.463  25.225  1.00  0.00     0.018 A 
ATOM     15  C   UNL A   1      30.551  29.676  24.225  1.00  0.00     0.048 C 
ATOM     16  C   UNL A   1      32.341  27.924  24.566  1.00  0.00     0.130 A 
ATOM     17  C   UNL A   1      33.962  26.114  24.995  1.00  0.00     0.027 C 
ATOM     18  O   UNL A   1      31.701  27.198  23.599  1.00  0.00    -0.475 OA
ATOM     19  C   UNL A   1      32.027  25.788  23.433  1.00  0.00     0.316 C 
BRANCH  19  20
ATOM     20  C   UNL A   1      30.776  24.960  23.761  1.00  0.00     0.430 C 
ATOM     21  F   UNL A   1      29.645  25.671  23.529  1.00  0.00    -0.167 F 
ATOM     22  F   UNL A   1      30.699  23.845  23.000  1.00  0.00    -0.167 F 
ATOM     23  F   UNL A   1      30.753  24.572  25.055  1.00  0.00    -0.167 F 
ENDBRANCH  19  20
ENDBRANCH   6   8
ENDBRANCH   5   6
ENDBRANCH   4   5
ENDBRANCH   3   4
ENDBRANCH   2   3
ENDBRANCH   1   2
BRANCH   1  24
ATOM     24  C   UNL A   1      38.034  21.394  25.011  1.00  0.00     0.261 C 
BRANCH  24  25
ATOM     25  O   UNL A   1      38.197  22.626  25.734  1.00  0.00    -0.460 OA
BRANCH  25  26
ATOM     26  C   UNL A   1      39.456  22.854  26.181  1.00  0.00     0.338 C 
ATOM     27  O   UNL A   1      40.448  22.168  25.966  1.00  0.00    -0.246 OA
BRANCH  26  28
ATOM     28  C   UNL A   1      39.533  24.167  26.845  1.00  0.00     0.060 A 
ATOM     29  C   UNL A   1      40.345  25.145  26.254  1.00  0.00     0.016 A 
ATOM     30  C   UNL A   1      38.894  24.415  28.062  1.00  0.00     0.016 A 
ATOM     31  C   UNL A   1      40.566  26.356  26.905  1.00  0.00     0.010 A 
ATOM     32  C   UNL A   1      39.128  25.627  28.720  1.00  0.00     0.010 A 
ATOM     33  C   UNL A   1      39.992  26.586  28.162  1.00  0.00    -0.014 A 
BRANCH  33  34
ATOM     34  C   UNL A   1      40.410  27.761  28.961  1.00  0.00     0.031 A 
ATOM     35  C   UNL A   1      41.754  27.737  29.637  1.00  0.00     0.074 A 
ATOM     36  C   UNL A   1      39.613  28.838  29.068  1.00  0.00     0.049 A 
ATOM     37  N   UNL A   1      42.285  28.607  30.457  1.00  0.00    -0.248 NA
ATOM     38  C   UNL A   1      42.617  26.580  29.345  1.00  0.00     0.031 C 
ATOM     39  C   UNL A   1      38.318  28.999  28.408  1.00  0.00     0.029 A 
ATOM     40  N   UNL A   1      39.774  29.998  29.782  1.00  0.00    -0.354 N 
ATOM     41  C   UNL A   1      43.538  28.102  30.784  1.00  0.00     0.074 A 
ATOM     42  C   UNL A   1      43.682  26.841  30.090  1.00  0.00     0.031 C 
ATOM     43  C   UNL A   1      37.794  30.185  28.762  1.00  0.00     0.029 A 
ATOM     44  C   UNL A   1      38.697  30.848  29.700  1.00  0.00     0.049 A 
ATOM     45  H   UNL A   1      40.584  30.202  30.303  1.00  0.00     0.167 HD
ATOM     46  C   UNL A   1      44.482  28.646  31.587  1.00  0.00     0.037 A 
ATOM     47  C   UNL A   1      38.459  32.014  30.332  1.00  0.00     0.037 A 
ATOM     48  C   UNL A   1      44.327  29.899  32.279  1.00  0.00     0.049 A 
ATOM     49  C   UNL A   1      39.493  32.563  31.280  1.00  0.00     0.074 A 
ATOM     50  C   UNL A   1      45.216  30.526  33.135  1.00  0.00     0.029 A 
ATOM     51  N   UNL A   1      43.212  30.718  32.193  1.00  0.00    -0.354 N 
ATOM     52  N   UNL A   1      40.660  32.060  31.608  1.00  0.00    -0.248 NA
ATOM     53  C   UNL A   1      39.180  33.836  31.943  1.00  0.00     0.031 C 
ATOM     54  C   UNL A   1      44.624  31.707  33.594  1.00  0.00     0.029 A 
ATOM     55  C   UNL A   1      43.386  31.840  32.986  1.00  0.00     0.049 A 
ATOM     56  H   UNL A   1      42.414  30.530  31.648  1.00  0.00     0.167 HD
ATOM     57  C   UNL A   1      41.233  32.971  32.491  1.00  0.00     0.074 A 
ATOM     58  C   UNL A   1      40.285  34.056  32.642  1.00  0.00     0.031 C 
ATOM     59  C   UNL A   1      42.435  32.915  33.118  1.00  0.00     0.037 A 
BRANCH  46  60
ATOM     60  C   UNL A   1      45.761  27.882  31.780  1.00  0.00     0.058 A 
ATOM     61  C   UNL A   1      45.879  26.877  32.753  1.00  0.00     0.135 A 
ATOM     62  C   UNL A   1      46.864  28.114  30.942  1.00  0.00     0.135 A 
ATOM     63  F   UNL A   1      44.862  26.629  33.595  1.00  0.00    -0.206 F 
ATOM     64  C   UNL A   1      47.047  26.134  32.892  1.00  0.00     0.059 A 
ATOM     65  C   UNL A   1      48.033  27.369  31.048  1.00  0.00     0.059 A 
ATOM     66  F   UNL A   1      46.806  29.070  30.000  1.00  0.00    -0.206 F 
ATOM     67  C   UNL A   1      48.117  26.383  32.031  1.00  0.00     0.060 A 
BRANCH  67  68
ATOM     68  S   UNL A   1      49.613  25.386  32.203  1.00  0.00     0.124 S 
ATOM     69  O   UNL A   1      49.830  24.947  30.828  1.00  0.00    -0.237 OA
ATOM     70  O   UNL A   1      50.575  26.355  32.717  1.00  0.00    -0.237 OA
ATOM     71  O   UNL A   1      49.219  24.339  33.140  1.00  0.00    -0.744 OA
ENDBRANCH  67  68
ENDBRANCH  46  60
BRANCH  47  72
ATOM     72  C   UNL A   1      37.181  32.737  30.098  1.00  0.00     0.058 A 
ATOM     73  C   UNL A   1      36.054  32.488  30.894  1.00  0.00     0.135 A 
ATOM     74  C   UNL A   1      37.065  33.696  29.081  1.00  0.00     0.135 A 
ATOM     75  F   UNL A   1      36.112  31.569  31.871  1.00  0.00    -0.206 F 
ATOM     76  C   UNL A   1      34.853  33.158  30.686  1.00  0.00     0.059 A 
ATOM     77  C   UNL A   1      35.883  34.398  28.868  1.00  0.00     0.059 A 
ATOM     78  F   UNL A   1      38.119  33.977  28.298  1.00  0.00    -0.206 F 
ATOM     79  C   UNL A   1      34.779  34.116  29.672  1.00  0.00     0.060 A 
BRANCH  79  80
ATOM     80  S   UNL A   1      33.232  35.021  29.448  1.00  0.00     0.124 S 
ATOM     81  O   UNL A   1      32.667  34.974  30.791  1.00  0.00    -0.237 OA
ATOM     82  O   UNL A   1      33.705  36.327  28.999  1.00  0.00    -0.237 OA
ATOM     83  O   UNL A   1      32.528  34.236  28.439  1.00  0.00    -0.744 OA
ENDBRANCH  79  80
ENDBRANCH  47  72
BRANCH  59  84
ATOM     84  C   UNL A   1      42.815  34.082  33.987  1.00  0.00     0.058 A 
ATOM     85  C   UNL A   1      42.696  34.034  35.384  1.00  0.00     0.135 A 
ATOM     86  C   UNL A   1      43.344  35.249  33.412  1.00  0.00     0.135 A 
ATOM     87  F   UNL A   1      42.194  32.942  35.982  1.00  0.00    -0.206 F 
ATOM     88  C   UNL A   1      43.058  35.116  36.180  1.00  0.00     0.059 A 
ATOM     89  C   UNL A   1      43.736  36.332  34.190  1.00  0.00     0.059 A 
ATOM     90  F   UNL A   1      43.491  35.340  32.081  1.00  0.00    -0.206 F 
ATOM     91  C   UNL A   1      43.575  36.263  35.574  1.00  0.00     0.060 A 
BRANCH  91  92
ATOM     92  S   UNL A   1      44.050  37.656  36.618  1.00  0.00     0.124 S 
ATOM     93  O   UNL A   1      42.967  37.670  37.597  1.00  0.00    -0.237 OA
ATOM     94  O   UNL A   1      45.354  37.239  37.123  1.00  0.00    -0.237 OA
ATOM     95  O   UNL A   1      44.074  38.783  35.691  1.00  0.00    -0.744 OA
ENDBRANCH  91  92
ENDBRANCH  59  84
ENDBRANCH  33  34
ENDBRANCH  26  28
ENDBRANCH  25  26
ENDBRANCH  24  25
ENDBRANCH   1  24
TORSDOF 18
ENDMDL
