MODEL 1
REMARK VINA RESULT:     -12.2      0.000      0.000
REMARK SMILES COc1ccc(N2C(=O)/C(=C/c3c(C(=O)OCCOCCOC(=O)c4ccc(-c5c6nc(c(-c7c(F)cc(S(=O)(=O)[O-])cc7F)c7ccc([nH]7)c(-c7c(F)cc(S(=O)(=O)[O-])cc7F)c7nc(c(-c8c(F)cc(S(=O)(=O)[O-])cc8F)c8ccc5[nH]8)C=C7)C=C6)cc4)[nH]c4cc(OC)ccc34)SC2=S)cc1
REMARK SMILES IDX 19 1 18 2 17 3 16 4 14 5 15 6 13 7 12 8 99 9 91 10 92 11
REMARK SMILES IDX 98 12 93 14 97 15 94 16 11 17 7 18 8 19 101 20 9 21 10 22
REMARK SMILES IDX 100 23 102 24 6 25 3 26 4 27 104 28 5 29 103 30 2 31 1 32
REMARK SMILES IDX 95 33 96 34 20 35 21 36 22 37 23 38 24 39 25 40 26 41 90 42
REMARK SMILES IDX 27 43 89 44 28 45 29 46 30 47 83 48 31 49 88 50 82 51 84 52
REMARK SMILES IDX 32 53 87 54 81 55 80 56 33 58 67 59 46 60 66 61 47 62 50 63
REMARK SMILES IDX 65 64 85 65 48 66 49 67 64 69 86 70 51 71 34 72 35 73 44 74
REMARK SMILES IDX 36 75 37 76 43 77 45 78 38 79 39 80 40 81 41 82 42 83 68 84
REMARK SMILES IDX 69 85 78 86 70 87 71 88 77 89 79 90 72 91 73 92 74 93 75 94
REMARK SMILES IDX 76 95 52 96 53 97 62 98 54 99 55 100 61 101 63 102 56 103
REMARK SMILES IDX 57 104 58 105 59 106 60 107
REMARK H PARENT 91 13 84 57 50 68
REMARK Flexibility Score: inf
ROOT
ATOM      1  O   UNL A   1      40.830  21.696  25.789  1.00  0.00    -0.374 OA
ENDROOT
BRANCH   1   2
ATOM      2  C   UNL A   1      39.623  21.800  26.543  1.00  0.00     0.202 C 
BRANCH   2   3
ATOM      3  C   UNL A   1      38.497  22.618  25.902  1.00  0.00     0.261 C 
BRANCH   3   4
ATOM      4  O   UNL A   1      37.449  21.787  25.382  1.00  0.00    -0.459 OA
BRANCH   4   5
ATOM      5  C   UNL A   1      36.184  22.233  25.632  1.00  0.00     0.355 C 
ATOM      6  O   UNL A   1      35.880  23.382  25.907  1.00  0.00    -0.244 OA
BRANCH   5   7
ATOM      7  C   UNL A   1      35.205  21.205  25.354  1.00  0.00     0.133 A 
ATOM      8  C   UNL A   1      33.816  21.104  25.430  1.00  0.00     0.016 A 
ATOM      9  C   UNL A   1      33.460  19.749  25.086  1.00  0.00     0.008 A 
ATOM     10  N   UNL A   1      35.670  19.971  24.972  1.00  0.00    -0.348 N 
ATOM     11  C   UNL A   1      34.657  19.058  24.904  1.00  0.00     0.050 A 
ATOM     12  C   UNL A   1      32.266  19.003  24.942  1.00  0.00     0.015 A 
ATOM     13  H   UNL A   1      36.612  19.770  24.773  1.00  0.00     0.167 HD
ATOM     14  C   UNL A   1      34.737  17.679  24.698  1.00  0.00     0.073 A 
ATOM     15  C   UNL A   1      32.328  17.614  24.671  1.00  0.00     0.047 A 
ATOM     16  C   UNL A   1      33.552  16.956  24.579  1.00  0.00     0.120 A 
BRANCH   8  17
ATOM     17  C   UNL A   1      32.970  22.157  25.935  1.00  0.00     0.032 C 
ATOM     18  N   UNL A   1      32.549  25.615  25.107  1.00  0.00    -0.261 N 
ATOM     19  C   UNL A   1      32.270  24.536  25.965  1.00  0.00     0.270 C 
ATOM     20  C   UNL A   1      32.887  25.257  23.802  1.00  0.00     0.152 C 
ATOM     21  O   UNL A   1      31.913  24.564  27.135  1.00  0.00    -0.268 OA
ATOM     22  C   UNL A   1      32.562  23.248  25.260  1.00  0.00     0.081 C 
ATOM     23  S   UNL A   1      32.648  23.523  23.572  1.00  0.00    -0.054 SA
ATOM     24  S   UNL A   1      33.606  26.133  22.567  1.00  0.00    -0.051 S 
BRANCH  18  25
ATOM     25  C   UNL A   1      32.608  26.968  25.604  1.00  0.00     0.051 A 
ATOM     26  C   UNL A   1      32.849  29.679  26.391  1.00  0.00     0.119 A 
ATOM     27  C   UNL A   1      33.843  28.765  26.690  1.00  0.00     0.048 A 
ATOM     28  C   UNL A   1      31.718  29.258  25.713  1.00  0.00     0.048 A 
ATOM     29  C   UNL A   1      33.723  27.417  26.324  1.00  0.00     0.030 A 
ATOM     30  C   UNL A   1      31.596  27.909  25.338  1.00  0.00     0.030 A 
BRANCH  26  31
ATOM     31  O   UNL A   1      33.068  30.989  26.698  1.00  0.00    -0.497 OA
ATOM     32  C   UNL A   1      33.943  31.143  27.818  1.00  0.00     0.278 C 
ENDBRANCH  26  31
ENDBRANCH  18  25
ENDBRANCH   8  17
BRANCH  16  33
ATOM     33  O   UNL A   1      33.748  15.610  24.427  1.00  0.00    -0.497 OA
ATOM     34  C   UNL A   1      33.019  14.753  25.291  1.00  0.00     0.278 C 
ENDBRANCH  16  33
ENDBRANCH   5   7
ENDBRANCH   4   5
ENDBRANCH   3   4
ENDBRANCH   2   3
ENDBRANCH   1   2
BRANCH   1  35
ATOM     35  C   UNL A   1      42.032  22.165  26.399  1.00  0.00     0.202 C 
BRANCH  35  36
ATOM     36  C   UNL A   1      42.777  23.311  25.707  1.00  0.00     0.261 C 
BRANCH  36  37
ATOM     37  O   UNL A   1      42.924  24.480  26.536  1.00  0.00    -0.460 OA
BRANCH  37  38
ATOM     38  C   UNL A   1      42.258  25.574  26.091  1.00  0.00     0.338 C 
ATOM     39  O   UNL A   1      42.067  25.877  24.924  1.00  0.00    -0.246 OA
BRANCH  38  40
ATOM     40  C   UNL A   1      41.674  26.350  27.208  1.00  0.00     0.060 A 
ATOM     41  C   UNL A   1      42.175  27.638  27.416  1.00  0.00     0.016 A 
ATOM     42  C   UNL A   1      40.737  25.813  28.100  1.00  0.00     0.016 A 
ATOM     43  C   UNL A   1      41.768  28.372  28.528  1.00  0.00     0.010 A 
ATOM     44  C   UNL A   1      40.333  26.555  29.224  1.00  0.00     0.010 A 
ATOM     45  C   UNL A   1      40.850  27.838  29.452  1.00  0.00    -0.014 A 
BRANCH  45  46
ATOM     46  C   UNL A   1      40.543  28.638  30.672  1.00  0.00     0.031 A 
ATOM     47  C   UNL A   1      41.559  28.680  31.780  1.00  0.00     0.074 A 
ATOM     48  C   UNL A   1      39.443  29.414  30.747  1.00  0.00     0.049 A 
ATOM     49  N   UNL A   1      41.611  29.455  32.831  1.00  0.00    -0.248 NA
ATOM     50  C   UNL A   1      42.660  27.708  31.689  1.00  0.00     0.031 C 
ATOM     51  C   UNL A   1      38.373  29.458  29.756  1.00  0.00     0.029 A 
ATOM     52  N   UNL A   1      39.084  30.379  31.661  1.00  0.00    -0.354 N 
ATOM     53  C   UNL A   1      42.721  29.034  33.552  1.00  0.00     0.074 A 
ATOM     54  C   UNL A   1      43.350  27.978  32.786  1.00  0.00     0.031 C 
ATOM     55  C   UNL A   1      37.564  30.496  30.027  1.00  0.00     0.029 A 
ATOM     56  C   UNL A   1      38.017  31.153  31.249  1.00  0.00     0.049 A 
ATOM     57  H   UNL A   1      39.542  30.505  32.523  1.00  0.00     0.167 HD
ATOM     58  C   UNL A   1      43.143  29.444  34.772  1.00  0.00     0.037 A 
ATOM     59  C   UNL A   1      37.497  32.280  31.780  1.00  0.00     0.037 A 
ATOM     60  C   UNL A   1      42.484  30.450  35.560  1.00  0.00     0.049 A 
ATOM     61  C   UNL A   1      38.045  32.790  33.089  1.00  0.00     0.074 A 
ATOM     62  C   UNL A   1      42.758  30.850  36.856  1.00  0.00     0.029 A 
ATOM     63  N   UNL A   1      41.408  31.208  35.126  1.00  0.00    -0.354 N 
ATOM     64  N   UNL A   1      39.081  32.367  33.772  1.00  0.00    -0.248 NA
ATOM     65  C   UNL A   1      37.322  33.904  33.722  1.00  0.00     0.031 C 
ATOM     66  C   UNL A   1      41.823  31.828  37.219  1.00  0.00     0.029 A 
ATOM     67  C   UNL A   1      40.997  32.067  36.132  1.00  0.00     0.049 A 
ATOM     68  H   UNL A   1      40.996  31.145  34.234  1.00  0.00     0.167 HD
ATOM     69  C   UNL A   1      39.108  33.132  34.933  1.00  0.00     0.074 A 
ATOM     70  C   UNL A   1      38.033  34.096  34.826  1.00  0.00     0.031 C 
ATOM     71  C   UNL A   1      39.919  33.016  36.012  1.00  0.00     0.037 A 
BRANCH  58  72
ATOM     72  C   UNL A   1      44.297  28.692  35.369  1.00  0.00     0.058 A 
ATOM     73  C   UNL A   1      44.116  27.532  36.138  1.00  0.00     0.135 A 
ATOM     74  C   UNL A   1      45.602  29.186  35.216  1.00  0.00     0.135 A 
ATOM     75  F   UNL A   1      42.885  27.039  36.338  1.00  0.00    -0.206 F 
ATOM     76  C   UNL A   1      45.189  26.911  36.771  1.00  0.00     0.059 A 
ATOM     77  C   UNL A   1      46.691  28.569  35.822  1.00  0.00     0.059 A 
ATOM     78  F   UNL A   1      45.824  30.297  34.498  1.00  0.00    -0.206 F 
ATOM     79  C   UNL A   1      46.471  27.447  36.617  1.00  0.00     0.060 A 
BRANCH  79  80
ATOM     80  S   UNL A   1      47.848  26.675  37.491  1.00  0.00     0.124 S 
ATOM     81  O   UNL A   1      47.743  25.293  37.032  1.00  0.00    -0.237 OA
ATOM     82  O   UNL A   1      48.999  27.422  36.991  1.00  0.00    -0.237 OA
ATOM     83  O   UNL A   1      47.524  26.896  38.897  1.00  0.00    -0.744 OA
ENDBRANCH  79  80
ENDBRANCH  58  72
BRANCH  59  84
ATOM     84  C   UNL A   1      36.429  33.045  31.072  1.00  0.00     0.058 A 
ATOM     85  C   UNL A   1      36.759  33.878  29.988  1.00  0.00     0.135 A 
ATOM     86  C   UNL A   1      35.081  32.987  31.453  1.00  0.00     0.135 A 
ATOM     87  F   UNL A   1      38.035  33.980  29.586  1.00  0.00    -0.206 F 
ATOM     88  C   UNL A   1      35.798  34.626  29.314  1.00  0.00     0.059 A 
ATOM     89  C   UNL A   1      34.097  33.706  30.778  1.00  0.00     0.059 A 
ATOM     90  F   UNL A   1      34.705  32.213  32.482  1.00  0.00    -0.206 F 
ATOM     91  C   UNL A   1      34.467  34.532  29.717  1.00  0.00     0.060 A 
BRANCH  91  92
ATOM     92  S   UNL A   1      33.210  35.453  28.803  1.00  0.00     0.124 S 
ATOM     93  O   UNL A   1      32.458  36.074  29.887  1.00  0.00    -0.237 OA
ATOM     94  O   UNL A   1      34.014  36.354  27.985  1.00  0.00    -0.237 OA
ATOM     95  O   UNL A   1      32.511  34.407  28.062  1.00  0.00    -0.744 OA
ENDBRANCH  91  92
ENDBRANCH  59  84
BRANCH  71  96
ATOM     96  C   UNL A   1      39.648  33.915  37.186  1.00  0.00     0.058 A 
ATOM     97  C   UNL A   1      38.816  33.498  38.238  1.00  0.00     0.135 A 
ATOM     98  C   UNL A   1      40.282  35.161  37.303  1.00  0.00     0.135 A 
ATOM     99  F   UNL A   1      38.186  32.314  38.172  1.00  0.00    -0.206 F 
ATOM    100  C   UNL A   1      38.610  34.292  39.360  1.00  0.00     0.059 A 
ATOM    101  C   UNL A   1      40.105  35.963  38.427  1.00  0.00     0.059 A 
ATOM    102  F   UNL A   1      41.094  35.601  36.330  1.00  0.00    -0.206 F 
ATOM    103  C   UNL A   1      39.262  35.523  39.448  1.00  0.00     0.060 A 
BRANCH 103 104
ATOM    104  S   UNL A   1      39.029  36.520  40.935  1.00  0.00     0.124 S 
ATOM    105  O   UNL A   1      37.982  35.776  41.626  1.00  0.00    -0.237 OA
ATOM    106  O   UNL A   1      40.351  36.478  41.554  1.00  0.00    -0.237 OA
ATOM    107  O   UNL A   1      38.633  37.823  40.410  1.00  0.00    -0.744 OA
ENDBRANCH 103 104
ENDBRANCH  71  96
ENDBRANCH  45  46
ENDBRANCH  38  40
ENDBRANCH  37  38
ENDBRANCH  36  37
ENDBRANCH  35  36
ENDBRANCH   1  35
TORSDOF 21
ENDMDL
MODEL 2
REMARK VINA RESULT:     -11.9      1.877      9.380
REMARK SMILES COc1ccc(N2C(=O)/C(=C/c3c(C(=O)OCCOCCOC(=O)c4ccc(-c5c6nc(c(-c7c(F)cc(S(=O)(=O)[O-])cc7F)c7ccc([nH]7)c(-c7c(F)cc(S(=O)(=O)[O-])cc7F)c7nc(c(-c8c(F)cc(S(=O)(=O)[O-])cc8F)c8ccc5[nH]8)C=C7)C=C6)cc4)[nH]c4cc(OC)ccc34)SC2=S)cc1
REMARK SMILES IDX 19 1 18 2 17 3 16 4 14 5 15 6 13 7 12 8 99 9 91 10 92 11
REMARK SMILES IDX 98 12 93 14 97 15 94 16 11 17 7 18 8 19 101 20 9 21 10 22
REMARK SMILES IDX 100 23 102 24 6 25 3 26 4 27 104 28 5 29 103 30 2 31 1 32
REMARK SMILES IDX 95 33 96 34 20 35 21 36 22 37 23 38 24 39 25 40 26 41 90 42
REMARK SMILES IDX 27 43 89 44 28 45 29 46 30 47 83 48 31 49 88 50 82 51 84 52
REMARK SMILES IDX 32 53 87 54 81 55 80 56 33 58 67 59 46 60 66 61 47 62 50 63
REMARK SMILES IDX 65 64 85 65 48 66 49 67 64 69 86 70 51 71 34 72 35 73 44 74
REMARK SMILES IDX 36 75 37 76 43 77 45 78 38 79 39 80 40 81 41 82 42 83 68 84
REMARK SMILES IDX 69 85 78 86 70 87 71 88 77 89 79 90 72 91 73 92 74 93 75 94
REMARK SMILES IDX 76 95 52 96 53 97 62 98 54 99 55 100 61 101 63 102 56 103
REMARK SMILES IDX 57 104 58 105 59 106 60 107
REMARK H PARENT 91 13 84 57 50 68
REMARK Flexibility Score: inf
ROOT
ATOM      1  O   UNL A   1      36.574  23.510  25.074  1.00  0.00    -0.374 OA
ENDROOT
BRANCH   1   2
ATOM      2  C   UNL A   1      35.362  24.232  25.286  1.00  0.00     0.202 C 
BRANCH   2   3
ATOM      3  C   UNL A   1      34.611  24.672  24.025  1.00  0.00     0.261 C 
BRANCH   3   4
ATOM      4  O   UNL A   1      34.015  25.969  24.171  1.00  0.00    -0.459 OA
BRANCH   4   5
ATOM      5  C   UNL A   1      33.548  26.521  23.014  1.00  0.00     0.355 C 
ATOM      6  O   UNL A   1      34.153  26.564  21.956  1.00  0.00    -0.244 OA
BRANCH   5   7
ATOM      7  C   UNL A   1      32.158  26.901  23.142  1.00  0.00     0.133 A 
ATOM      8  C   UNL A   1      30.941  26.224  23.205  1.00  0.00     0.016 A 
ATOM      9  C   UNL A   1      29.893  27.216  23.245  1.00  0.00     0.008 A 
ATOM     10  N   UNL A   1      31.864  28.243  23.154  1.00  0.00    -0.348 N 
ATOM     11  C   UNL A   1      30.516  28.456  23.112  1.00  0.00     0.050 A 
ATOM     12  C   UNL A   1      28.482  27.220  23.338  1.00  0.00     0.015 A 
ATOM     13  H   UNL A   1      32.538  28.959  23.187  1.00  0.00     0.167 HD
ATOM     14  C   UNL A   1      29.828  29.662  22.963  1.00  0.00     0.073 A 
ATOM     15  C   UNL A   1      27.770  28.441  23.252  1.00  0.00     0.047 A 
ATOM     16  C   UNL A   1      28.437  29.645  23.037  1.00  0.00     0.120 A 
BRANCH   8  17
ATOM     17  C   UNL A   1      30.820  24.793  23.075  1.00  0.00     0.032 C 
ATOM     18  N   UNL A   1      32.048  22.017  24.974  1.00  0.00    -0.261 N 
ATOM     19  C   UNL A   1      31.409  22.501  23.819  1.00  0.00     0.270 C 
ATOM     20  C   UNL A   1      31.953  22.847  26.091  1.00  0.00     0.152 C 
ATOM     21  O   UNL A   1      31.303  21.965  22.724  1.00  0.00    -0.268 OA
ATOM     22  C   UNL A   1      30.908  23.890  24.069  1.00  0.00     0.081 C 
ATOM     23  S   UNL A   1      30.852  24.185  25.756  1.00  0.00    -0.054 SA
ATOM     24  S   UNL A   1      32.808  22.861  27.533  1.00  0.00    -0.051 S 
BRANCH  18  25
ATOM     25  C   UNL A   1      32.848  20.818  24.938  1.00  0.00     0.051 A 
ATOM     26  C   UNL A   1      34.385  18.456  24.638  1.00  0.00     0.119 A 
ATOM     27  C   UNL A   1      33.010  18.392  24.772  1.00  0.00     0.048 A 
ATOM     28  C   UNL A   1      35.016  19.688  24.665  1.00  0.00     0.048 A 
ATOM     29  C   UNL A   1      32.244  19.553  24.943  1.00  0.00     0.030 A 
ATOM     30  C   UNL A   1      34.251  20.855  24.830  1.00  0.00     0.030 A 
BRANCH  26  31
ATOM     31  O   UNL A   1      35.060  17.298  24.387  1.00  0.00    -0.497 OA
ATOM     32  C   UNL A   1      34.204  16.273  23.878  1.00  0.00     0.278 C 
ENDBRANCH  26  31
ENDBRANCH  18  25
ENDBRANCH   8  17
BRANCH  16  33
ATOM     33  O   UNL A   1      27.865  30.872  22.831  1.00  0.00    -0.497 OA
ATOM     34  C   UNL A   1      28.394  31.656  21.773  1.00  0.00     0.278 C 
ENDBRANCH  16  33
ENDBRANCH   5   7
ENDBRANCH   4   5
ENDBRANCH   3   4
ENDBRANCH   2   3
ENDBRANCH   1   2
BRANCH   1  35
ATOM     35  C   UNL A   1      37.743  23.966  25.754  1.00  0.00     0.202 C 
BRANCH  35  36
ATOM     36  C   UNL A   1      38.776  22.914  26.170  1.00  0.00     0.261 C 
BRANCH  36  37
ATOM     37  O   UNL A   1      39.582  23.318  27.294  1.00  0.00    -0.460 OA
BRANCH  37  38
ATOM     38  C   UNL A   1      40.497  24.280  27.015  1.00  0.00     0.338 C 
ATOM     39  O   UNL A   1      41.298  24.268  26.094  1.00  0.00    -0.246 OA
BRANCH  38  40
ATOM     40  C   UNL A   1      40.359  25.443  27.919  1.00  0.00     0.060 A 
ATOM     41  C   UNL A   1      41.431  26.338  27.969  1.00  0.00     0.016 A 
ATOM     42  C   UNL A   1      39.265  25.615  28.777  1.00  0.00     0.016 A 
ATOM     43  C   UNL A   1      41.425  27.380  28.894  1.00  0.00     0.010 A 
ATOM     44  C   UNL A   1      39.266  26.665  29.713  1.00  0.00     0.010 A 
ATOM     45  C   UNL A   1      40.349  27.552  29.785  1.00  0.00    -0.014 A 
BRANCH  45  46
ATOM     46  C   UNL A   1      40.461  28.623  30.816  1.00  0.00     0.031 A 
ATOM     47  C   UNL A   1      39.387  29.673  30.881  1.00  0.00     0.074 A 
ATOM     48  C   UNL A   1      41.426  28.597  31.758  1.00  0.00     0.049 A 
ATOM     49  N   UNL A   1      39.157  30.571  31.803  1.00  0.00    -0.248 NA
ATOM     50  C   UNL A   1      38.452  29.718  29.746  1.00  0.00     0.031 C 
ATOM     51  C   UNL A   1      42.533  27.647  31.804  1.00  0.00     0.029 A 
ATOM     52  N   UNL A   1      41.582  29.339  32.907  1.00  0.00    -0.354 N 
ATOM     53  C   UNL A   1      38.083  31.319  31.339  1.00  0.00     0.074 A 
ATOM     54  C   UNL A   1      37.666  30.729  30.084  1.00  0.00     0.031 C 
ATOM     55  C   UNL A   1      43.160  27.759  32.988  1.00  0.00     0.029 A 
ATOM     56  C   UNL A   1      42.542  28.834  33.760  1.00  0.00     0.049 A 
ATOM     57  H   UNL A   1      41.060  30.152  33.101  1.00  0.00     0.167 HD
ATOM     58  C   UNL A   1      37.533  32.434  31.875  1.00  0.00     0.037 A 
ATOM     59  C   UNL A   1      42.854  29.175  35.027  1.00  0.00     0.037 A 
ATOM     60  C   UNL A   1      37.986  33.056  33.090  1.00  0.00     0.049 A 
ATOM     61  C   UNL A   1      42.161  30.358  35.656  1.00  0.00     0.074 A 
ATOM     62  C   UNL A   1      37.580  34.252  33.653  1.00  0.00     0.029 A 
ATOM     63  N   UNL A   1      38.960  32.530  33.926  1.00  0.00    -0.354 N 
ATOM     64  N   UNL A   1      41.162  31.070  35.194  1.00  0.00    -0.248 NA
ATOM     65  C   UNL A   1      42.670  30.810  36.961  1.00  0.00     0.031 C 
ATOM     66  C   UNL A   1      38.334  34.469  34.813  1.00  0.00     0.029 A 
ATOM     67  C   UNL A   1      39.177  33.384  34.994  1.00  0.00     0.049 A 
ATOM     68  H   UNL A   1      39.428  31.676  33.780  1.00  0.00     0.167 HD
ATOM     69  C   UNL A   1      40.952  32.079  36.129  1.00  0.00     0.074 A 
ATOM     70  C   UNL A   1      41.874  31.840  37.219  1.00  0.00     0.031 C 
ATOM     71  C   UNL A   1      40.105  33.135  36.068  1.00  0.00     0.037 A 
BRANCH  58  72
ATOM     72  C   UNL A   1      36.473  33.116  31.061  1.00  0.00     0.058 A 
ATOM     73  C   UNL A   1      36.777  33.877  29.922  1.00  0.00     0.135 A 
ATOM     74  C   UNL A   1      35.132  33.053  31.473  1.00  0.00     0.135 A 
ATOM     75  F   UNL A   1      38.048  33.991  29.505  1.00  0.00    -0.206 F 
ATOM     76  C   UNL A   1      35.792  34.588  29.243  1.00  0.00     0.059 A 
ATOM     77  C   UNL A   1      34.128  33.739  30.798  1.00  0.00     0.059 A 
ATOM     78  F   UNL A   1      34.792  32.346  32.562  1.00  0.00    -0.206 F 
ATOM     79  C   UNL A   1      34.472  34.523  29.699  1.00  0.00     0.060 A 
BRANCH  79  80
ATOM     80  S   UNL A   1      33.209  35.497  28.854  1.00  0.00     0.124 S 
ATOM     81  O   UNL A   1      32.518  34.467  28.083  1.00  0.00    -0.237 OA
ATOM     82  O   UNL A   1      32.455  36.069  29.965  1.00  0.00    -0.237 OA
ATOM     83  O   UNL A   1      33.986  36.451  28.070  1.00  0.00    -0.744 OA
ENDBRANCH  79  80
ENDBRANCH  58  72
BRANCH  59  84
ATOM     84  C   UNL A   1      43.835  28.380  35.822  1.00  0.00     0.058 A 
ATOM     85  C   UNL A   1      43.388  27.341  36.658  1.00  0.00     0.135 A 
ATOM     86  C   UNL A   1      45.214  28.633  35.791  1.00  0.00     0.135 A 
ATOM     87  F   UNL A   1      42.077  27.061  36.735  1.00  0.00    -0.206 F 
ATOM     88  C   UNL A   1      44.265  26.589  37.433  1.00  0.00     0.059 A 
ATOM     89  C   UNL A   1      46.115  27.877  36.538  1.00  0.00     0.059 A 
ATOM     90  F   UNL A   1      45.701  29.614  35.016  1.00  0.00    -0.206 F 
ATOM     91  C   UNL A   1      45.630  26.864  37.364  1.00  0.00     0.060 A 
BRANCH  91  92
ATOM     92  S   UNL A   1      46.777  25.848  38.321  1.00  0.00     0.124 S 
ATOM     93  O   UNL A   1      47.893  26.767  38.511  1.00  0.00    -0.237 OA
ATOM     94  O   UNL A   1      45.997  25.535  39.515  1.00  0.00    -0.237 OA
ATOM     95  O   UNL A   1      47.029  24.716  37.436  1.00  0.00    -0.744 OA
ENDBRANCH  91  92
ENDBRANCH  59  84
BRANCH  71  96
ATOM     96  C   UNL A   1      40.169  34.143  37.182  1.00  0.00     0.058 A 
ATOM     97  C   UNL A   1      41.091  35.201  37.147  1.00  0.00     0.135 A 
ATOM     98  C   UNL A   1      39.255  34.101  38.247  1.00  0.00     0.135 A 
ATOM     99  F   UNL A   1      41.986  35.284  36.149  1.00  0.00    -0.206 F 
ATOM    100  C   UNL A   1      41.116  36.176  38.137  1.00  0.00     0.059 A 
ATOM    101  C   UNL A   1      39.250  35.079  39.238  1.00  0.00     0.059 A 
ATOM    102  F   UNL A   1      38.347  33.116  38.321  1.00  0.00    -0.206 F 
ATOM    103  C   UNL A   1      40.188  36.110  39.178  1.00  0.00     0.060 A 
BRANCH 103 104
ATOM    104  S   UNL A   1      40.196  37.413  40.427  1.00  0.00     0.124 S 
ATOM    105  O   UNL A   1      38.790  37.457  40.813  1.00  0.00    -0.237 OA
ATOM    106  O   UNL A   1      41.113  36.882  41.431  1.00  0.00    -0.237 OA
ATOM    107  O   UNL A   1      40.684  38.578  39.697  1.00  0.00    -0.744 OA
ENDBRANCH 103 104
ENDBRANCH  71  96
ENDBRANCH  45  46
ENDBRANCH  38  40
ENDBRANCH  37  38
ENDBRANCH  36  37
ENDBRANCH  35  36
ENDBRANCH   1  35
TORSDOF 21
ENDMDL
MODEL 3
REMARK VINA RESULT:     -11.8      0.763      7.850
REMARK SMILES COc1ccc(N2C(=O)/C(=C/c3c(C(=O)OCCOCCOC(=O)c4ccc(-c5c6nc(c(-c7c(F)cc(S(=O)(=O)[O-])cc7F)c7ccc([nH]7)c(-c7c(F)cc(S(=O)(=O)[O-])cc7F)c7nc(c(-c8c(F)cc(S(=O)(=O)[O-])cc8F)c8ccc5[nH]8)C=C7)C=C6)cc4)[nH]c4cc(OC)ccc34)SC2=S)cc1
REMARK SMILES IDX 19 1 18 2 17 3 16 4 14 5 15 6 13 7 12 8 99 9 91 10 92 11
REMARK SMILES IDX 98 12 93 14 97 15 94 16 11 17 7 18 8 19 101 20 9 21 10 22
REMARK SMILES IDX 100 23 102 24 6 25 3 26 4 27 104 28 5 29 103 30 2 31 1 32
REMARK SMILES IDX 95 33 96 34 20 35 21 36 22 37 23 38 24 39 25 40 26 41 90 42
REMARK SMILES IDX 27 43 89 44 28 45 29 46 30 47 83 48 31 49 88 50 82 51 84 52
REMARK SMILES IDX 32 53 87 54 81 55 80 56 33 58 67 59 46 60 66 61 47 62 50 63
REMARK SMILES IDX 65 64 85 65 48 66 49 67 64 69 86 70 51 71 34 72 35 73 44 74
REMARK SMILES IDX 36 75 37 76 43 77 45 78 38 79 39 80 40 81 41 82 42 83 68 84
REMARK SMILES IDX 69 85 78 86 70 87 71 88 77 89 79 90 72 91 73 92 74 93 75 94
REMARK SMILES IDX 76 95 52 96 53 97 62 98 54 99 55 100 61 101 63 102 56 103
REMARK SMILES IDX 57 104 58 105 59 106 60 107
REMARK H PARENT 91 13 84 57 50 68
REMARK Flexibility Score: inf
ROOT
ATOM      1  O   UNL A   1      41.136  21.399  25.688  1.00  0.00    -0.374 OA
ENDROOT
BRANCH   1   2
ATOM      2  C   UNL A   1      39.878  21.084  26.284  1.00  0.00     0.202 C 
BRANCH   2   3
ATOM      3  C   UNL A   1      38.700  21.978  25.883  1.00  0.00     0.261 C 
BRANCH   3   4
ATOM      4  O   UNL A   1      37.679  21.252  25.184  1.00  0.00    -0.459 OA
BRANCH   4   5
ATOM      5  C   UNL A   1      36.433  21.806  25.248  1.00  0.00     0.355 C 
ATOM      6  O   UNL A   1      36.190  23.001  25.269  1.00  0.00    -0.244 OA
BRANCH   5   7
ATOM      7  C   UNL A   1      35.406  20.796  25.109  1.00  0.00     0.133 A 
ATOM      8  C   UNL A   1      34.025  20.748  25.287  1.00  0.00     0.016 A 
ATOM      9  C   UNL A   1      33.604  19.386  25.060  1.00  0.00     0.008 A 
ATOM     10  N   UNL A   1      35.807  19.524  24.778  1.00  0.00    -0.348 N 
ATOM     11  C   UNL A   1      34.764  18.645  24.842  1.00  0.00     0.050 A 
ATOM     12  C   UNL A   1      32.382  18.674  25.050  1.00  0.00     0.015 A 
ATOM     13  H   UNL A   1      36.726  19.278  24.528  1.00  0.00     0.167 HD
ATOM     14  C   UNL A   1      34.788  17.253  24.723  1.00  0.00     0.073 A 
ATOM     15  C   UNL A   1      32.382  17.270  24.868  1.00  0.00     0.047 A 
ATOM     16  C   UNL A   1      33.577  16.565  24.736  1.00  0.00     0.120 A 
BRANCH   8  17
ATOM     17  C   UNL A   1      33.248  21.860  25.778  1.00  0.00     0.032 C 
ATOM     18  N   UNL A   1      32.378  25.064  24.438  1.00  0.00    -0.261 N 
ATOM     19  C   UNL A   1      32.398  24.176  25.527  1.00  0.00     0.270 C 
ATOM     20  C   UNL A   1      32.417  24.455  23.182  1.00  0.00     0.152 C 
ATOM     21  O   UNL A   1      32.334  24.433  26.723  1.00  0.00    -0.268 OA
ATOM     22  C   UNL A   1      32.608  22.779  25.032  1.00  0.00     0.081 C 
ATOM     23  S   UNL A   1      32.262  22.706  23.356  1.00  0.00    -0.054 SA
ATOM     24  S   UNL A   1      32.748  25.079  21.662  1.00  0.00    -0.051 S 
BRANCH  18  25
ATOM     25  C   UNL A   1      32.453  26.490  24.634  1.00  0.00     0.051 A 
ATOM     26  C   UNL A   1      32.576  29.254  25.248  1.00  0.00     0.119 A 
ATOM     27  C   UNL A   1      31.358  28.619  25.090  1.00  0.00     0.048 A 
ATOM     28  C   UNL A   1      33.746  28.532  25.089  1.00  0.00     0.048 A 
ATOM     29  C   UNL A   1      31.287  27.257  24.765  1.00  0.00     0.030 A 
ATOM     30  C   UNL A   1      33.681  27.166  24.769  1.00  0.00     0.030 A 
BRANCH  26  31
ATOM     31  O   UNL A   1      32.572  30.557  25.649  1.00  0.00    -0.497 OA
ATOM     32  C   UNL A   1      32.243  30.696  27.033  1.00  0.00     0.278 C 
ENDBRANCH  26  31
ENDBRANCH  18  25
ENDBRANCH   8  17
BRANCH  16  33
ATOM     33  O   UNL A   1      33.722  15.206  24.661  1.00  0.00    -0.497 OA
ATOM     34  C   UNL A   1      32.844  14.422  25.454  1.00  0.00     0.278 C 
ENDBRANCH  16  33
ENDBRANCH   5   7
ENDBRANCH   4   5
ENDBRANCH   3   4
ENDBRANCH   2   3
ENDBRANCH   1   2
BRANCH   1  35
ATOM     35  C   UNL A   1      42.167  21.889  26.544  1.00  0.00     0.202 C 
BRANCH  35  36
ATOM     36  C   UNL A   1      42.561  23.363  26.406  1.00  0.00     0.261 C 
BRANCH  36  37
ATOM     37  O   UNL A   1      41.438  24.264  26.481  1.00  0.00    -0.460 OA
BRANCH  37  38
ATOM     38  C   UNL A   1      41.710  25.536  26.096  1.00  0.00     0.338 C 
ATOM     39  O   UNL A   1      41.764  25.947  24.948  1.00  0.00    -0.246 OA
BRANCH  38  40
ATOM     40  C   UNL A   1      41.844  26.442  27.260  1.00  0.00     0.060 A 
ATOM     41  C   UNL A   1      41.095  26.127  28.397  1.00  0.00     0.016 A 
ATOM     42  C   UNL A   1      42.594  27.624  27.222  1.00  0.00     0.016 A 
ATOM     43  C   UNL A   1      41.070  27.006  29.478  1.00  0.00     0.010 A 
ATOM     44  C   UNL A   1      42.561  28.511  28.313  1.00  0.00     0.010 A 
ATOM     45  C   UNL A   1      41.793  28.213  29.448  1.00  0.00    -0.014 A 
BRANCH  45  46
ATOM     46  C   UNL A   1      41.634  29.151  30.595  1.00  0.00     0.031 A 
ATOM     47  C   UNL A   1      40.386  29.989  30.671  1.00  0.00     0.074 A 
ATOM     48  C   UNL A   1      42.514  29.172  31.617  1.00  0.00     0.049 A 
ATOM     49  N   UNL A   1      39.931  30.714  31.660  1.00  0.00    -0.248 NA
ATOM     50  C   UNL A   1      39.546  30.016  29.464  1.00  0.00     0.031 C 
ATOM     51  C   UNL A   1      43.766  28.425  31.664  1.00  0.00     0.029 A 
ATOM     52  N   UNL A   1      42.447  29.782  32.849  1.00  0.00    -0.354 N 
ATOM     53  C   UNL A   1      38.779  31.321  31.179  1.00  0.00     0.074 A 
ATOM     54  C   UNL A   1      38.569  30.830  29.833  1.00  0.00     0.031 C 
ATOM     55  C   UNL A   1      44.272  28.493  32.908  1.00  0.00     0.029 A 
ATOM     56  C   UNL A   1      43.416  29.344  33.729  1.00  0.00     0.049 A 
ATOM     57  H   UNL A   1      41.776  30.464  33.079  1.00  0.00     0.167 HD
ATOM     58  C   UNL A   1      37.999  32.253  31.778  1.00  0.00     0.037 A 
ATOM     59  C   UNL A   1      43.566  29.574  35.051  1.00  0.00     0.037 A 
ATOM     60  C   UNL A   1      38.241  32.786  33.091  1.00  0.00     0.049 A 
ATOM     61  C   UNL A   1      42.627  30.535  35.736  1.00  0.00     0.074 A 
ATOM     62  C   UNL A   1      37.587  33.818  33.740  1.00  0.00     0.029 A 
ATOM     63  N   UNL A   1      39.228  32.333  33.954  1.00  0.00    -0.354 N 
ATOM     64  N   UNL A   1      41.554  31.120  35.261  1.00  0.00    -0.248 NA
ATOM     65  C   UNL A   1      42.947  30.902  37.124  1.00  0.00     0.031 C 
ATOM     66  C   UNL A   1      38.201  34.013  34.983  1.00  0.00     0.029 A 
ATOM     67  C   UNL A   1      39.208  33.072  35.125  1.00  0.00     0.049 A 
ATOM     68  H   UNL A   1      39.851  31.595  33.762  1.00  0.00     0.167 HD
ATOM     69  C   UNL A   1      41.098  31.955  36.276  1.00  0.00     0.074 A 
ATOM     70  C   UNL A   1      41.963  31.742  37.416  1.00  0.00     0.031 C 
ATOM     71  C   UNL A   1      40.082  32.852  36.249  1.00  0.00     0.037 A 
BRANCH  58  72
ATOM     72  C   UNL A   1      36.898  32.841  30.945  1.00  0.00     0.058 A 
ATOM     73  C   UNL A   1      37.143  33.803  29.953  1.00  0.00     0.135 A 
ATOM     74  C   UNL A   1      35.566  32.475  31.195  1.00  0.00     0.135 A 
ATOM     75  F   UNL A   1      38.397  34.207  29.698  1.00  0.00    -0.206 F 
ATOM     76  C   UNL A   1      36.098  34.414  29.267  1.00  0.00     0.059 A 
ATOM     77  C   UNL A   1      34.508  33.058  30.507  1.00  0.00     0.059 A 
ATOM     78  F   UNL A   1      35.281  31.567  32.141  1.00  0.00    -0.206 F 
ATOM     79  C   UNL A   1      34.783  34.043  29.562  1.00  0.00     0.060 A 
BRANCH  79  80
ATOM     80  S   UNL A   1      33.429  34.883  28.713  1.00  0.00     0.124 S 
ATOM     81  O   UNL A   1      34.093  36.094  28.239  1.00  0.00    -0.237 OA
ATOM     82  O   UNL A   1      33.057  33.920  27.682  1.00  0.00    -0.237 OA
ATOM     83  O   UNL A   1      32.440  35.082  29.768  1.00  0.00    -0.744 OA
ENDBRANCH  79  80
ENDBRANCH  58  72
BRANCH  59  84
ATOM     84  C   UNL A   1      44.611  28.863  35.844  1.00  0.00     0.058 A 
ATOM     85  C   UNL A   1      44.294  27.671  36.520  1.00  0.00     0.135 A 
ATOM     86  C   UNL A   1      45.922  29.344  35.968  1.00  0.00     0.135 A 
ATOM     87  F   UNL A   1      43.051  27.169  36.445  1.00  0.00    -0.206 F 
ATOM     88  C   UNL A   1      45.231  26.988  37.289  1.00  0.00     0.059 A 
ATOM     89  C   UNL A   1      46.885  28.665  36.711  1.00  0.00     0.059 A 
ATOM     90  F   UNL A   1      46.284  30.479  35.350  1.00  0.00    -0.206 F 
ATOM     91  C   UNL A   1      46.527  27.493  37.377  1.00  0.00     0.060 A 
BRANCH  91  92
ATOM     92  S   UNL A   1      47.762  26.574  38.323  1.00  0.00     0.124 S 
ATOM     93  O   UNL A   1      47.060  26.353  39.582  1.00  0.00    -0.237 OA
ATOM     94  O   UNL A   1      47.976  25.392  37.494  1.00  0.00    -0.237 OA
ATOM     95  O   UNL A   1      48.888  27.500  38.378  1.00  0.00    -0.744 OA
ENDBRANCH  91  92
ENDBRANCH  59  84
BRANCH  71  96
ATOM     96  C   UNL A   1      39.881  33.711  37.468  1.00  0.00     0.058 A 
ATOM     97  C   UNL A   1      40.544  34.941  37.602  1.00  0.00     0.135 A 
ATOM     98  C   UNL A   1      38.965  33.344  38.465  1.00  0.00     0.135 A 
ATOM     99  F   UNL A   1      41.430  35.336  36.673  1.00  0.00    -0.206 F 
ATOM    100  C   UNL A   1      40.316  35.775  38.690  1.00  0.00     0.059 A 
ATOM    101  C   UNL A   1      38.707  34.173  39.554  1.00  0.00     0.059 A 
ATOM    102  F   UNL A   1      38.299  32.183  38.379  1.00  0.00    -0.206 F 
ATOM    103  C   UNL A   1      39.392  35.384  39.661  1.00  0.00     0.060 A 
BRANCH 103 104
ATOM    104  S   UNL A   1      39.065  36.499  41.042  1.00  0.00     0.124 S 
ATOM    105  O   UNL A   1      40.373  36.563  41.684  1.00  0.00    -0.237 OA
ATOM    106  O   UNL A   1      38.630  37.719  40.366  1.00  0.00    -0.237 OA
ATOM    107  O   UNL A   1      38.026  35.808  41.798  1.00  0.00    -0.744 OA
ENDBRANCH 103 104
ENDBRANCH  71  96
ENDBRANCH  45  46
ENDBRANCH  38  40
ENDBRANCH  37  38
ENDBRANCH  36  37
ENDBRANCH  35  36
ENDBRANCH   1  35
TORSDOF 21
ENDMDL
