MODEL 1
REMARK VINA RESULT:      -9.0      0.000      0.000
REMARK SMILES CC(C)N(CC(F)(F)F)C(=O)N(CC(=O)OCCOCCOC(=O)c1ccc(-c2c3nc(c(-c4c(F)cc(S(=O)(=O)[O-])cc4F)c4ccc([nH]4)c(-c4c(F)cc(S(=O)(=O)[O-])cc4F)c4nc(c(-c5c(F)cc(S(=O)(=O)[O-])cc5F)c5ccc2[nH]5)C=C4)C=C3)cc1)C(C)(C)C
REMARK SMILES IDX 18 1 17 2 16 3 14 4 15 5 13 6 12 7 10 8 11 9 4 10 2 11 1 12
REMARK SMILES IDX 3 13 5 14 6 15 7 16 8 17 9 18 91 19 92 20 93 21 94 22 19 23
REMARK SMILES IDX 20 24 21 25 22 26 23 27 24 28 25 29 26 30 90 31 27 32 89 33
REMARK SMILES IDX 28 34 29 35 30 36 83 37 31 38 88 39 82 40 84 41 32 42 87 43
REMARK SMILES IDX 81 44 80 45 33 47 67 48 46 49 66 50 47 51 50 52 65 53 85 54
REMARK SMILES IDX 48 55 49 56 64 58 86 59 51 60 34 61 35 62 44 63 36 64 37 65
REMARK SMILES IDX 43 66 45 67 38 68 39 69 40 70 41 71 42 72 68 73 69 74 78 75
REMARK SMILES IDX 70 76 71 77 77 78 79 79 72 80 73 81 74 82 75 83 76 84 52 85
REMARK SMILES IDX 53 86 62 87 54 88 55 89 61 90 63 91 56 92 57 93 58 94 59 95
REMARK SMILES IDX 60 96
REMARK H PARENT 84 46 50 57
REMARK Flexibility Score: inf
ROOT
ATOM      1  C   UNL A   1      37.120  22.186  24.810  1.00  0.00     0.202 C 
ENDROOT
BRANCH   1   2
ATOM      2  C   UNL A   1      35.801  22.819  24.335  1.00  0.00     0.261 C 
BRANCH   2   3
ATOM      3  O   UNL A   1      34.677  21.899  24.374  1.00  0.00    -0.462 OA
BRANCH   3   4
ATOM      4  C   UNL A   1      33.656  22.181  23.522  1.00  0.00     0.325 C 
ATOM      5  O   UNL A   1      32.736  21.408  23.265  1.00  0.00    -0.250 OA
BRANCH   4   6
ATOM      6  C   UNL A   1      33.682  23.597  22.916  1.00  0.00     0.244 C 
BRANCH   6   7
ATOM      7  N   UNL A   1      32.491  24.456  22.955  1.00  0.00    -0.309 N 
BRANCH   7   8
ATOM      8  C   UNL A   1      31.385  24.287  23.789  1.00  0.00     0.321 C 
ATOM      9  O   UNL A   1      30.329  23.885  23.288  1.00  0.00    -0.248 OA
BRANCH   8  10
ATOM     10  N   UNL A   1      31.367  24.607  25.140  1.00  0.00    -0.313 N 
BRANCH  10  11
ATOM     11  C   UNL A   1      30.862  23.547  26.070  1.00  0.00     0.081 C 
ATOM     12  C   UNL A   1      31.962  22.949  26.962  1.00  0.00     0.031 C 
ATOM     13  C   UNL A   1      29.638  23.975  26.891  1.00  0.00     0.031 C 
ENDBRANCH  10  11
BRANCH  10  14
ATOM     14  C   UNL A   1      32.073  25.703  25.846  1.00  0.00     0.237 C 
BRANCH  14  15
ATOM     15  C   UNL A   1      31.332  27.040  25.921  1.00  0.00     0.406 C 
ATOM     16  F   UNL A   1      30.151  27.010  25.273  1.00  0.00    -0.169 F 
ATOM     17  F   UNL A   1      31.076  27.348  27.215  1.00  0.00    -0.169 F 
ATOM     18  F   UNL A   1      32.076  28.039  25.403  1.00  0.00    -0.169 F 
ENDBRANCH  14  15
ENDBRANCH  10  14
ENDBRANCH   8  10
ENDBRANCH   7   8
BRANCH   7  19
ATOM     19  C   UNL A   1      32.534  25.754  22.141  1.00  0.00     0.037 C 
ATOM     20  C   UNL A   1      32.827  25.452  20.653  1.00  0.00     0.034 C 
ATOM     21  C   UNL A   1      31.202  26.538  22.283  1.00  0.00     0.034 C 
ATOM     22  C   UNL A   1      33.609  26.775  22.602  1.00  0.00     0.034 C 
ENDBRANCH   7  19
ENDBRANCH   6   7
ENDBRANCH   4   6
ENDBRANCH   3   4
ENDBRANCH   2   3
ENDBRANCH   1   2
BRANCH   1  23
ATOM     23  O   UNL A   1      37.889  22.967  25.734  1.00  0.00    -0.374 OA
BRANCH  23  24
ATOM     24  C   UNL A   1      39.012  22.316  26.314  1.00  0.00     0.202 C 
BRANCH  24  25
ATOM     25  C   UNL A   1      39.315  20.906  25.792  1.00  0.00     0.261 C 
BRANCH  25  26
ATOM     26  O   UNL A   1      40.072  20.127  26.730  1.00  0.00    -0.460 OA
BRANCH  26  27
ATOM     27  C   UNL A   1      41.313  19.799  26.306  1.00  0.00     0.338 C 
ATOM     28  O   UNL A   1      41.663  18.733  25.813  1.00  0.00    -0.246 OA
BRANCH  27  29
ATOM     29  C   UNL A   1      42.208  20.968  26.348  1.00  0.00     0.060 A 
ATOM     30  C   UNL A   1      42.387  21.575  27.594  1.00  0.00     0.016 A 
ATOM     31  C   UNL A   1      42.771  21.526  25.197  1.00  0.00     0.016 A 
ATOM     32  C   UNL A   1      43.064  22.787  27.684  1.00  0.00     0.010 A 
ATOM     33  C   UNL A   1      43.455  22.748  25.291  1.00  0.00     0.010 A 
ATOM     34  C   UNL A   1      43.563  23.406  26.529  1.00  0.00    -0.014 A 
BRANCH  34  35
ATOM     35  C   UNL A   1      44.073  24.795  26.651  1.00  0.00     0.031 A 
ATOM     36  C   UNL A   1      43.150  25.883  27.128  1.00  0.00     0.074 A 
ATOM     37  C   UNL A   1      45.379  25.054  26.461  1.00  0.00     0.049 A 
ATOM     38  N   UNL A   1      43.433  27.102  27.510  1.00  0.00    -0.248 NA
ATOM     39  C   UNL A   1      41.718  25.551  27.191  1.00  0.00     0.031 C 
ATOM     40  C   UNL A   1      46.372  24.080  26.011  1.00  0.00     0.029 A 
ATOM     41  N   UNL A   1      46.100  26.205  26.658  1.00  0.00    -0.354 N 
ATOM     42  C   UNL A   1      42.221  27.679  27.873  1.00  0.00     0.074 A 
ATOM     43  C   UNL A   1      41.195  26.689  27.624  1.00  0.00     0.031 C 
ATOM     44  C   UNL A   1      47.581  24.665  25.997  1.00  0.00     0.029 A 
ATOM     45  C   UNL A   1      47.446  26.055  26.431  1.00  0.00     0.049 A 
ATOM     46  H   UNL A   1      45.691  27.056  26.935  1.00  0.00     0.167 HD
ATOM     47  C   UNL A   1      41.986  28.913  28.382  1.00  0.00     0.037 A 
ATOM     48  C   UNL A   1      48.459  26.931  26.577  1.00  0.00     0.037 A 
ATOM     49  C   UNL A   1      43.010  29.899  28.617  1.00  0.00     0.049 A 
ATOM     50  C   UNL A   1      48.173  28.308  27.112  1.00  0.00     0.074 A 
ATOM     51  C   UNL A   1      42.882  31.167  29.156  1.00  0.00     0.029 A 
ATOM     52  N   UNL A   1      44.353  29.733  28.308  1.00  0.00    -0.354 N 
ATOM     53  N   UNL A   1      47.030  28.820  27.506  1.00  0.00    -0.248 NA
ATOM     54  C   UNL A   1      49.315  29.223  27.232  1.00  0.00     0.031 C 
ATOM     55  C   UNL A   1      44.140  31.785  29.131  1.00  0.00     0.029 A 
ATOM     56  C   UNL A   1      45.059  30.885  28.616  1.00  0.00     0.049 A 
ATOM     57  H   UNL A   1      44.747  28.915  27.927  1.00  0.00     0.167 HD
ATOM     58  C   UNL A   1      47.318  30.111  27.932  1.00  0.00     0.074 A 
ATOM     59  C   UNL A   1      48.746  30.294  27.766  1.00  0.00     0.031 C 
ATOM     60  C   UNL A   1      46.478  31.061  28.419  1.00  0.00     0.037 A 
BRANCH  47  61
ATOM     61  C   UNL A   1      40.557  29.266  28.692  1.00  0.00     0.058 A 
ATOM     62  C   UNL A   1      40.090  29.370  30.013  1.00  0.00     0.135 A 
ATOM     63  C   UNL A   1      39.638  29.493  27.655  1.00  0.00     0.135 A 
ATOM     64  F   UNL A   1      40.922  29.152  31.043  1.00  0.00    -0.206 F 
ATOM     65  C   UNL A   1      38.754  29.642  30.294  1.00  0.00     0.059 A 
ATOM     66  C   UNL A   1      38.302  29.791  27.914  1.00  0.00     0.059 A 
ATOM     67  F   UNL A   1      40.029  29.409  26.374  1.00  0.00    -0.206 F 
ATOM     68  C   UNL A   1      37.864  29.840  29.237  1.00  0.00     0.060 A 
BRANCH  68  69
ATOM     69  S   UNL A   1      36.127  30.154  29.612  1.00  0.00     0.124 S 
ATOM     70  O   UNL A   1      36.004  29.562  30.941  1.00  0.00    -0.237 OA
ATOM     71  O   UNL A   1      36.050  31.610  29.558  1.00  0.00    -0.237 OA
ATOM     72  O   UNL A   1      35.418  29.453  28.546  1.00  0.00    -0.744 OA
ENDBRANCH  68  69
ENDBRANCH  47  61
BRANCH  48  73
ATOM     73  C   UNL A   1      49.846  26.509  26.248  1.00  0.00     0.058 A 
ATOM     74  C   UNL A   1      50.385  26.722  24.971  1.00  0.00     0.135 A 
ATOM     75  C   UNL A   1      50.673  25.922  27.218  1.00  0.00     0.135 A 
ATOM     76  F   UNL A   1      49.629  27.271  24.007  1.00  0.00    -0.206 F 
ATOM     77  C   UNL A   1      51.697  26.374  24.667  1.00  0.00     0.059 A 
ATOM     78  C   UNL A   1      51.994  25.584  26.944  1.00  0.00     0.059 A 
ATOM     79  F   UNL A   1      50.206  25.705  28.456  1.00  0.00    -0.206 F 
ATOM     80  C   UNL A   1      52.496  25.813  25.663  1.00  0.00     0.060 A 
BRANCH  80  81
ATOM     81  S   UNL A   1      54.225  25.447  25.287  1.00  0.00     0.124 S 
ATOM     82  O   UNL A   1      54.922  26.374  26.170  1.00  0.00    -0.237 OA
ATOM     83  O   UNL A   1      54.324  24.033  25.637  1.00  0.00    -0.237 OA
ATOM     84  O   UNL A   1      54.325  25.737  23.860  1.00  0.00    -0.744 OA
ENDBRANCH  80  81
ENDBRANCH  48  73
BRANCH  60  85
ATOM     85  C   UNL A   1      47.090  32.382  28.798  1.00  0.00     0.058 A 
ATOM     86  C   UNL A   1      47.175  33.440  27.880  1.00  0.00     0.135 A 
ATOM     87  C   UNL A   1      47.595  32.593  30.091  1.00  0.00     0.135 A 
ATOM     88  F   UNL A   1      46.711  33.290  26.630  1.00  0.00    -0.206 F 
ATOM     89  C   UNL A   1      47.775  34.649  28.219  1.00  0.00     0.059 A 
ATOM     90  C   UNL A   1      48.177  33.802  30.458  1.00  0.00     0.059 A 
ATOM     91  F   UNL A   1      47.527  31.618  31.012  1.00  0.00    -0.206 F 
ATOM     92  C   UNL A   1      48.283  34.818  29.508  1.00  0.00     0.060 A 
BRANCH  92  93
ATOM     93  S   UNL A   1      49.071  36.385  29.935  1.00  0.00     0.124 S 
ATOM     94  O   UNL A   1      48.644  36.557  31.320  1.00  0.00    -0.237 OA
ATOM     95  O   UNL A   1      50.488  36.090  29.741  1.00  0.00    -0.237 OA
ATOM     96  O   UNL A   1      48.497  37.325  28.978  1.00  0.00    -0.744 OA
ENDBRANCH  92  93
ENDBRANCH  60  85
ENDBRANCH  34  35
ENDBRANCH  27  29
ENDBRANCH  26  27
ENDBRANCH  25  26
ENDBRANCH  24  25
ENDBRANCH  23  24
ENDBRANCH   1  23
TORSDOF 24
ENDMDL
MODEL 2
REMARK VINA RESULT:      -8.9      0.850      8.158
REMARK SMILES CC(C)N(CC(F)(F)F)C(=O)N(CC(=O)OCCOCCOC(=O)c1ccc(-c2c3nc(c(-c4c(F)cc(S(=O)(=O)[O-])cc4F)c4ccc([nH]4)c(-c4c(F)cc(S(=O)(=O)[O-])cc4F)c4nc(c(-c5c(F)cc(S(=O)(=O)[O-])cc5F)c5ccc2[nH]5)C=C4)C=C3)cc1)C(C)(C)C
REMARK SMILES IDX 18 1 17 2 16 3 14 4 15 5 13 6 12 7 10 8 11 9 4 10 2 11 1 12
REMARK SMILES IDX 3 13 5 14 6 15 7 16 8 17 9 18 91 19 92 20 93 21 94 22 19 23
REMARK SMILES IDX 20 24 21 25 22 26 23 27 24 28 25 29 26 30 90 31 27 32 89 33
REMARK SMILES IDX 28 34 29 35 30 36 83 37 31 38 88 39 82 40 84 41 32 42 87 43
REMARK SMILES IDX 81 44 80 45 33 47 67 48 46 49 66 50 47 51 50 52 65 53 85 54
REMARK SMILES IDX 48 55 49 56 64 58 86 59 51 60 34 61 35 62 44 63 36 64 37 65
REMARK SMILES IDX 43 66 45 67 38 68 39 69 40 70 41 71 42 72 68 73 69 74 78 75
REMARK SMILES IDX 70 76 71 77 77 78 79 79 72 80 73 81 74 82 75 83 76 84 52 85
REMARK SMILES IDX 53 86 62 87 54 88 55 89 61 90 63 91 56 92 57 93 58 94 59 95
REMARK SMILES IDX 60 96
REMARK H PARENT 84 46 50 57
REMARK Flexibility Score: inf
ROOT
ATOM      1  C   UNL A   1      37.270  22.506  25.135  1.00  0.00     0.202 C 
ENDROOT
BRANCH   1   2
ATOM      2  C   UNL A   1      36.025  23.305  24.717  1.00  0.00     0.261 C 
BRANCH   2   3
ATOM      3  O   UNL A   1      35.554  22.976  23.382  1.00  0.00    -0.462 OA
BRANCH   3   4
ATOM      4  C   UNL A   1      34.208  22.827  23.253  1.00  0.00     0.325 C 
ATOM      5  O   UNL A   1      33.545  21.986  23.855  1.00  0.00    -0.250 OA
BRANCH   4   6
ATOM      6  C   UNL A   1      33.524  23.844  22.320  1.00  0.00     0.244 C 
BRANCH   6   7
ATOM      7  N   UNL A   1      32.525  24.788  22.837  1.00  0.00    -0.309 N 
BRANCH   7   8
ATOM      8  C   UNL A   1      31.859  24.689  24.060  1.00  0.00     0.321 C 
ATOM      9  O   UNL A   1      30.736  24.175  24.075  1.00  0.00    -0.248 OA
BRANCH   8  10
ATOM     10  N   UNL A   1      32.343  25.197  25.258  1.00  0.00    -0.313 N 
BRANCH  10  11
ATOM     11  C   UNL A   1      31.962  24.451  26.500  1.00  0.00     0.081 C 
ATOM     12  C   UNL A   1      30.501  23.977  26.497  1.00  0.00     0.031 C 
ATOM     13  C   UNL A   1      32.926  23.312  26.859  1.00  0.00     0.031 C 
ENDBRANCH  10  11
BRANCH  10  14
ATOM     14  C   UNL A   1      33.446  26.163  25.482  1.00  0.00     0.237 C 
BRANCH  14  15
ATOM     15  C   UNL A   1      33.027  27.566  25.925  1.00  0.00     0.406 C 
ATOM     16  F   UNL A   1      33.367  27.825  27.203  1.00  0.00    -0.169 F 
ATOM     17  F   UNL A   1      33.639  28.492  25.148  1.00  0.00    -0.169 F 
ATOM     18  F   UNL A   1      31.696  27.741  25.796  1.00  0.00    -0.169 F 
ENDBRANCH  14  15
ENDBRANCH  10  14
ENDBRANCH   8  10
ENDBRANCH   7   8
BRANCH   7  19
ATOM     19  C   UNL A   1      32.319  26.091  22.056  1.00  0.00     0.037 C 
ATOM     20  C   UNL A   1      32.152  25.798  20.547  1.00  0.00     0.034 C 
ATOM     21  C   UNL A   1      31.090  26.870  22.596  1.00  0.00     0.034 C 
ATOM     22  C   UNL A   1      33.482  27.113  22.178  1.00  0.00     0.034 C 
ENDBRANCH   7  19
ENDBRANCH   6   7
ENDBRANCH   4   6
ENDBRANCH   3   4
ENDBRANCH   2   3
ENDBRANCH   1   2
BRANCH   1  23
ATOM     23  O   UNL A   1      38.116  23.134  26.108  1.00  0.00    -0.374 OA
BRANCH  23  24
ATOM     24  C   UNL A   1      39.267  22.396  26.501  1.00  0.00     0.202 C 
BRANCH  24  25
ATOM     25  C   UNL A   1      39.387  20.982  25.920  1.00  0.00     0.261 C 
BRANCH  25  26
ATOM     26  O   UNL A   1      40.186  20.119  26.744  1.00  0.00    -0.460 OA
BRANCH  26  27
ATOM     27  C   UNL A   1      41.432  19.896  26.271  1.00  0.00     0.338 C 
ATOM     28  O   UNL A   1      41.805  18.933  25.610  1.00  0.00    -0.246 OA
BRANCH  27  29
ATOM     29  C   UNL A   1      42.299  21.064  26.501  1.00  0.00     0.060 A 
ATOM     30  C   UNL A   1      42.509  21.433  27.833  1.00  0.00     0.016 A 
ATOM     31  C   UNL A   1      42.804  21.843  25.458  1.00  0.00     0.016 A 
ATOM     32  C   UNL A   1      43.160  22.628  28.126  1.00  0.00     0.010 A 
ATOM     33  C   UNL A   1      43.460  23.047  25.757  1.00  0.00     0.010 A 
ATOM     34  C   UNL A   1      43.599  23.466  27.092  1.00  0.00    -0.014 A 
BRANCH  34  35
ATOM     35  C   UNL A   1      44.079  24.824  27.456  1.00  0.00     0.031 A 
ATOM     36  C   UNL A   1      45.520  25.187  27.226  1.00  0.00     0.074 A 
ATOM     37  C   UNL A   1      43.204  25.760  27.866  1.00  0.00     0.049 A 
ATOM     38  N   UNL A   1      46.096  26.361  27.266  1.00  0.00    -0.248 NA
ATOM     39  C   UNL A   1      46.434  24.081  26.899  1.00  0.00     0.031 C 
ATOM     40  C   UNL A   1      41.782  25.531  28.114  1.00  0.00     0.029 A 
ATOM     41  N   UNL A   1      43.379  27.099  28.112  1.00  0.00    -0.354 N 
ATOM     42  C   UNL A   1      47.433  26.141  26.956  1.00  0.00     0.074 A 
ATOM     43  C   UNL A   1      47.591  24.714  26.773  1.00  0.00     0.031 C 
ATOM     44  C   UNL A   1      41.204  26.697  28.445  1.00  0.00     0.029 A 
ATOM     45  C   UNL A   1      42.216  27.753  28.438  1.00  0.00     0.049 A 
ATOM     46  H   UNL A   1      44.253  27.547  28.059  1.00  0.00     0.167 HD
ATOM     47  C   UNL A   1      48.434  27.045  26.819  1.00  0.00     0.037 A 
ATOM     48  C   UNL A   1      41.987  29.058  28.683  1.00  0.00     0.037 A 
ATOM     49  C   UNL A   1      48.274  28.464  27.014  1.00  0.00     0.049 A 
ATOM     50  C   UNL A   1      43.119  30.041  28.560  1.00  0.00     0.074 A 
ATOM     51  C   UNL A   1      49.216  29.467  26.873  1.00  0.00     0.029 A 
ATOM     52  N   UNL A   1      47.095  29.079  27.414  1.00  0.00    -0.354 N 
ATOM     53  N   UNL A   1      44.366  29.826  28.209  1.00  0.00    -0.248 NA
ATOM     54  C   UNL A   1      42.811  31.447  28.857  1.00  0.00     0.031 C 
ATOM     55  C   UNL A   1      48.619  30.684  27.231  1.00  0.00     0.029 A 
ATOM     56  C   UNL A   1      47.293  30.443  27.553  1.00  0.00     0.049 A 
ATOM     57  H   UNL A   1      46.243  28.613  27.573  1.00  0.00     0.167 HD
ATOM     58  C   UNL A   1      44.987  31.070  28.230  1.00  0.00     0.074 A 
ATOM     59  C   UNL A   1      43.973  32.034  28.609  1.00  0.00     0.031 C 
ATOM     60  C   UNL A   1      46.279  31.387  27.958  1.00  0.00     0.037 A 
BRANCH  47  61
ATOM     61  C   UNL A   1      49.796  26.512  26.466  1.00  0.00     0.058 A 
ATOM     62  C   UNL A   1      50.696  26.071  27.450  1.00  0.00     0.135 A 
ATOM     63  C   UNL A   1      50.213  26.452  25.127  1.00  0.00     0.135 A 
ATOM     64  F   UNL A   1      50.354  26.116  28.748  1.00  0.00    -0.206 F 
ATOM     65  C   UNL A   1      51.975  25.631  27.123  1.00  0.00     0.059 A 
ATOM     66  C   UNL A   1      51.479  25.993  24.775  1.00  0.00     0.059 A 
ATOM     67  F   UNL A   1      49.393  26.859  24.145  1.00  0.00    -0.206 F 
ATOM     68  C   UNL A   1      52.362  25.606  25.782  1.00  0.00     0.060 A 
BRANCH  68  69
ATOM     69  S   UNL A   1      54.037  25.070  25.372  1.00  0.00     0.124 S 
ATOM     70  O   UNL A   1      53.817  23.670  25.021  1.00  0.00    -0.237 OA
ATOM     71  O   UNL A   1      54.389  25.953  24.265  1.00  0.00    -0.237 OA
ATOM     72  O   UNL A   1      54.778  25.297  26.609  1.00  0.00    -0.744 OA
ENDBRANCH  68  69
ENDBRANCH  47  61
BRANCH  48  73
ATOM     73  C   UNL A   1      40.614  29.509  29.029  1.00  0.00     0.058 A 
ATOM     74  C   UNL A   1      39.620  29.628  28.047  1.00  0.00     0.135 A 
ATOM     75  C   UNL A   1      40.258  29.790  30.357  1.00  0.00     0.135 A 
ATOM     76  F   UNL A   1      39.916  29.380  26.761  1.00  0.00    -0.206 F 
ATOM     77  C   UNL A   1      38.320  30.003  28.368  1.00  0.00     0.059 A 
ATOM     78  C   UNL A   1      38.960  30.148  30.706  1.00  0.00     0.059 A 
ATOM     79  F   UNL A   1      41.172  29.684  31.334  1.00  0.00    -0.206 F 
ATOM     80  C   UNL A   1      37.997  30.253  29.702  1.00  0.00     0.060 A 
BRANCH  80  81
ATOM     81  S   UNL A   1      36.286  30.651  30.123  1.00  0.00     0.124 S 
ATOM     82  O   UNL A   1      35.606  30.402  28.857  1.00  0.00    -0.237 OA
ATOM     83  O   UNL A   1      36.004  29.703  31.197  1.00  0.00    -0.237 OA
ATOM     84  O   UNL A   1      36.360  32.049  30.538  1.00  0.00    -0.744 OA
ENDBRANCH  80  81
ENDBRANCH  48  73
BRANCH  60  85
ATOM     85  C   UNL A   1      46.662  32.837  28.070  1.00  0.00     0.058 A 
ATOM     86  C   UNL A   1      46.458  33.734  27.009  1.00  0.00     0.135 A 
ATOM     87  C   UNL A   1      47.237  33.337  29.249  1.00  0.00     0.135 A 
ATOM     88  F   UNL A   1      45.916  33.306  25.858  1.00  0.00    -0.206 F 
ATOM     89  C   UNL A   1      46.847  35.067  27.099  1.00  0.00     0.059 A 
ATOM     90  C   UNL A   1      47.611  34.673  29.369  1.00  0.00     0.059 A 
ATOM     91  F   UNL A   1      47.442  32.526  30.299  1.00  0.00    -0.206 F 
ATOM     92  C   UNL A   1      47.432  35.525  28.280  1.00  0.00     0.060 A 
BRANCH  92  93
ATOM     93  S   UNL A   1      47.945  37.253  28.384  1.00  0.00     0.124 S 
ATOM     94  O   UNL A   1      47.973  37.634  26.976  1.00  0.00    -0.237 OA
ATOM     95  O   UNL A   1      46.879  37.853  29.182  1.00  0.00    -0.237 OA
ATOM     96  O   UNL A   1      49.246  37.181  29.043  1.00  0.00    -0.744 OA
ENDBRANCH  92  93
ENDBRANCH  60  85
ENDBRANCH  34  35
ENDBRANCH  27  29
ENDBRANCH  26  27
ENDBRANCH  25  26
ENDBRANCH  24  25
ENDBRANCH  23  24
ENDBRANCH   1  23
TORSDOF 24
ENDMDL
MODEL 3
REMARK VINA RESULT:      -8.5      1.330      2.094
REMARK SMILES CC(C)N(CC(F)(F)F)C(=O)N(CC(=O)OCCOCCOC(=O)c1ccc(-c2c3nc(c(-c4c(F)cc(S(=O)(=O)[O-])cc4F)c4ccc([nH]4)c(-c4c(F)cc(S(=O)(=O)[O-])cc4F)c4nc(c(-c5c(F)cc(S(=O)(=O)[O-])cc5F)c5ccc2[nH]5)C=C4)C=C3)cc1)C(C)(C)C
REMARK SMILES IDX 18 1 17 2 16 3 14 4 15 5 13 6 12 7 10 8 11 9 4 10 2 11 1 12
REMARK SMILES IDX 3 13 5 14 6 15 7 16 8 17 9 18 91 19 92 20 93 21 94 22 19 23
REMARK SMILES IDX 20 24 21 25 22 26 23 27 24 28 25 29 26 30 90 31 27 32 89 33
REMARK SMILES IDX 28 34 29 35 30 36 83 37 31 38 88 39 82 40 84 41 32 42 87 43
REMARK SMILES IDX 81 44 80 45 33 47 67 48 46 49 66 50 47 51 50 52 65 53 85 54
REMARK SMILES IDX 48 55 49 56 64 58 86 59 51 60 34 61 35 62 44 63 36 64 37 65
REMARK SMILES IDX 43 66 45 67 38 68 39 69 40 70 41 71 42 72 68 73 69 74 78 75
REMARK SMILES IDX 70 76 71 77 77 78 79 79 72 80 73 81 74 82 75 83 76 84 52 85
REMARK SMILES IDX 53 86 62 87 54 88 55 89 61 90 63 91 56 92 57 93 58 94 59 95
REMARK SMILES IDX 60 96
REMARK H PARENT 84 46 50 57
REMARK Flexibility Score: inf
ROOT
ATOM      1  C   UNL A   1      38.164  22.184  25.753  1.00  0.00     0.202 C 
ENDROOT
BRANCH   1   2
ATOM      2  C   UNL A   1      37.088  23.228  25.412  1.00  0.00     0.261 C 
BRANCH   2   3
ATOM      3  O   UNL A   1      35.994  22.687  24.624  1.00  0.00    -0.462 OA
BRANCH   3   4
ATOM      4  C   UNL A   1      35.248  23.601  23.946  1.00  0.00     0.325 C 
ATOM      5  O   UNL A   1      35.225  23.703  22.722  1.00  0.00    -0.250 OA
BRANCH   4   6
ATOM      6  C   UNL A   1      34.357  24.498  24.824  1.00  0.00     0.244 C 
BRANCH   6   7
ATOM      7  N   UNL A   1      33.067  24.996  24.329  1.00  0.00    -0.309 N 
BRANCH   7   8
ATOM      8  C   UNL A   1      32.057  24.224  23.754  1.00  0.00     0.321 C 
ATOM      9  O   UNL A   1      31.457  24.680  22.775  1.00  0.00    -0.248 OA
BRANCH   8  10
ATOM     10  N   UNL A   1      31.627  23.001  24.251  1.00  0.00    -0.313 N 
BRANCH  10  11
ATOM     11  C   UNL A   1      32.477  21.812  23.922  1.00  0.00     0.081 C 
ATOM     12  C   UNL A   1      32.522  20.768  25.049  1.00  0.00     0.031 C 
ATOM     13  C   UNL A   1      32.144  21.169  22.568  1.00  0.00     0.031 C 
ENDBRANCH  10  11
BRANCH  10  14
ATOM     14  C   UNL A   1      30.647  22.727  25.330  1.00  0.00     0.237 C 
BRANCH  14  15
ATOM     15  C   UNL A   1      30.830  23.528  26.621  1.00  0.00     0.406 C 
ATOM     16  F   UNL A   1      30.397  24.798  26.504  1.00  0.00    -0.169 F 
ATOM     17  F   UNL A   1      30.123  22.949  27.621  1.00  0.00    -0.169 F 
ATOM     18  F   UNL A   1      32.124  23.554  26.999  1.00  0.00    -0.169 F 
ENDBRANCH  14  15
ENDBRANCH  10  14
ENDBRANCH   8  10
ENDBRANCH   7   8
BRANCH   7  19
ATOM     19  C   UNL A   1      32.716  26.459  24.627  1.00  0.00     0.037 C 
ATOM     20  C   UNL A   1      33.089  26.819  26.084  1.00  0.00     0.034 C 
ATOM     21  C   UNL A   1      33.433  27.411  23.633  1.00  0.00     0.034 C 
ATOM     22  C   UNL A   1      31.215  26.815  24.457  1.00  0.00     0.034 C 
ENDBRANCH   7  19
ENDBRANCH   6   7
ENDBRANCH   4   6
ENDBRANCH   3   4
ENDBRANCH   2   3
ENDBRANCH   1   2
BRANCH   1  23
ATOM     23  O   UNL A   1      39.001  22.497  26.875  1.00  0.00    -0.374 OA
BRANCH  23  24
ATOM     24  C   UNL A   1      40.318  21.962  26.836  1.00  0.00     0.202 C 
BRANCH  24  25
ATOM     25  C   UNL A   1      40.428  20.471  26.493  1.00  0.00     0.261 C 
BRANCH  25  26
ATOM     26  O   UNL A   1      41.702  19.919  26.854  1.00  0.00    -0.460 OA
BRANCH  26  27
ATOM     27  C   UNL A   1      42.607  19.905  25.850  1.00  0.00     0.338 C 
ATOM     28  O   UNL A   1      42.746  19.033  24.999  1.00  0.00    -0.246 OA
BRANCH  27  29
ATOM     29  C   UNL A   1      43.335  21.183  25.780  1.00  0.00     0.060 A 
ATOM     30  C   UNL A   1      43.872  21.663  26.978  1.00  0.00     0.016 A 
ATOM     31  C   UNL A   1      43.402  21.947  24.612  1.00  0.00     0.016 A 
ATOM     32  C   UNL A   1      44.410  22.945  27.031  1.00  0.00     0.010 A 
ATOM     33  C   UNL A   1      43.945  23.240  24.670  1.00  0.00     0.010 A 
ATOM     34  C   UNL A   1      44.409  23.761  25.891  1.00  0.00    -0.014 A 
BRANCH  34  35
ATOM     35  C   UNL A   1      44.783  25.188  26.058  1.00  0.00     0.031 A 
ATOM     36  C   UNL A   1      43.779  26.156  26.623  1.00  0.00     0.074 A 
ATOM     37  C   UNL A   1      46.048  25.586  25.828  1.00  0.00     0.049 A 
ATOM     38  N   UNL A   1      43.957  27.379  27.050  1.00  0.00    -0.248 NA
ATOM     39  C   UNL A   1      42.391  25.678  26.727  1.00  0.00     0.031 C 
ATOM     40  C   UNL A   1      47.111  24.737  25.292  1.00  0.00     0.029 A 
ATOM     41  N   UNL A   1      46.659  26.794  26.050  1.00  0.00    -0.354 N 
ATOM     42  C   UNL A   1      42.711  27.814  27.488  1.00  0.00     0.074 A 
ATOM     43  C   UNL A   1      41.778  26.737  27.234  1.00  0.00     0.031 C 
ATOM     44  C   UNL A   1      48.254  25.442  25.258  1.00  0.00     0.029 A 
ATOM     45  C   UNL A   1      48.002  26.791  25.762  1.00  0.00     0.049 A 
ATOM     46  H   UNL A   1      46.180  27.587  26.384  1.00  0.00     0.167 HD
ATOM     47  C   UNL A   1      42.378  28.995  28.065  1.00  0.00     0.037 A 
ATOM     48  C   UNL A   1      48.928  27.758  25.909  1.00  0.00     0.037 A 
ATOM     49  C   UNL A   1      43.308  30.069  28.305  1.00  0.00     0.049 A 
ATOM     50  C   UNL A   1      48.530  29.074  26.519  1.00  0.00     0.074 A 
ATOM     51  C   UNL A   1      43.079  31.293  28.908  1.00  0.00     0.029 A 
ATOM     52  N   UNL A   1      44.646  30.053  27.934  1.00  0.00    -0.354 N 
ATOM     53  N   UNL A   1      47.361  29.451  26.983  1.00  0.00    -0.248 NA
ATOM     54  C   UNL A   1      49.581  30.095  26.637  1.00  0.00     0.031 C 
ATOM     55  C   UNL A   1      44.267  32.035  28.861  1.00  0.00     0.029 A 
ATOM     56  C   UNL A   1      45.247  31.256  28.268  1.00  0.00     0.049 A 
ATOM     57  H   UNL A   1      45.101  29.296  27.499  1.00  0.00     0.167 HD
ATOM     58  C   UNL A   1      47.538  30.745  27.458  1.00  0.00     0.074 A 
ATOM     59  C   UNL A   1      48.933  31.079  27.243  1.00  0.00     0.031 C 
ATOM     60  C   UNL A   1      46.631  31.583  28.023  1.00  0.00     0.037 A 
BRANCH  47  61
ATOM     61  C   UNL A   1      40.936  29.188  28.448  1.00  0.00     0.058 A 
ATOM     62  C   UNL A   1      39.928  29.345  27.482  1.00  0.00     0.135 A 
ATOM     63  C   UNL A   1      40.557  29.228  29.799  1.00  0.00     0.135 A 
ATOM     64  F   UNL A   1      40.235  29.327  26.176  1.00  0.00    -0.206 F 
ATOM     65  C   UNL A   1      38.604  29.579  27.842  1.00  0.00     0.059 A 
ATOM     66  C   UNL A   1      39.234  29.437  30.182  1.00  0.00     0.059 A 
ATOM     67  F   UNL A   1      41.477  29.081  30.765  1.00  0.00    -0.206 F 
ATOM     68  C   UNL A   1      38.268  29.634  29.197  1.00  0.00     0.060 A 
BRANCH  68  69
ATOM     69  S   UNL A   1      36.555  29.976  29.653  1.00  0.00     0.124 S 
ATOM     70  O   UNL A   1      35.841  29.527  28.461  1.00  0.00    -0.237 OA
ATOM     71  O   UNL A   1      36.375  29.156  30.845  1.00  0.00    -0.237 OA
ATOM     72  O   UNL A   1      36.547  31.418  29.881  1.00  0.00    -0.744 OA
ENDBRANCH  68  69
ENDBRANCH  47  61
BRANCH  48  73
ATOM     73  C   UNL A   1      50.334  27.494  25.505  1.00  0.00     0.058 A 
ATOM     74  C   UNL A   1      50.733  27.590  24.164  1.00  0.00     0.135 A 
ATOM     75  C   UNL A   1      51.314  27.179  26.458  1.00  0.00     0.135 A 
ATOM     76  F   UNL A   1      49.829  27.877  23.214  1.00  0.00    -0.206 F 
ATOM     77  C   UNL A   1      52.055  27.391  23.781  1.00  0.00     0.059 A 
ATOM     78  C   UNL A   1      52.646  26.995  26.104  1.00  0.00     0.059 A 
ATOM     79  F   UNL A   1      50.983  27.083  27.755  1.00  0.00    -0.206 F 
ATOM     80  C   UNL A   1      53.007  27.102  24.761  1.00  0.00     0.060 A 
BRANCH  80  81
ATOM     81  S   UNL A   1      54.737  26.934  24.269  1.00  0.00     0.124 S 
ATOM     82  O   UNL A   1      55.378  27.952  25.092  1.00  0.00    -0.237 OA
ATOM     83  O   UNL A   1      55.025  25.548  24.626  1.00  0.00    -0.237 OA
ATOM     84  O   UNL A   1      54.705  27.207  22.835  1.00  0.00    -0.744 OA
ENDBRANCH  80  81
ENDBRANCH  48  73
BRANCH  60  85
ATOM     85  C   UNL A   1      47.125  32.941  28.439  1.00  0.00     0.058 A 
ATOM     86  C   UNL A   1      47.088  34.035  27.561  1.00  0.00     0.135 A 
ATOM     87  C   UNL A   1      47.639  33.153  29.729  1.00  0.00     0.135 A 
ATOM     88  F   UNL A   1      46.611  33.887  26.315  1.00  0.00    -0.206 F 
ATOM     89  C   UNL A   1      47.581  35.283  27.932  1.00  0.00     0.059 A 
ATOM     90  C   UNL A   1      48.114  34.398  30.129  1.00  0.00     0.059 A 
ATOM     91  F   UNL A   1      47.685  32.144  30.613  1.00  0.00    -0.206 F 
ATOM     92  C   UNL A   1      48.100  35.452  29.216  1.00  0.00     0.060 A 
BRANCH  92  93
ATOM     93  S   UNL A   1      48.749  37.071  29.687  1.00  0.00     0.124 S 
ATOM     94  O   UNL A   1      48.846  37.733  28.390  1.00  0.00    -0.237 OA
ATOM     95  O   UNL A   1      47.713  37.579  30.582  1.00  0.00    -0.237 OA
ATOM     96  O   UNL A   1      50.021  36.752  30.328  1.00  0.00    -0.744 OA
ENDBRANCH  92  93
ENDBRANCH  60  85
ENDBRANCH  34  35
ENDBRANCH  27  29
ENDBRANCH  26  27
ENDBRANCH  25  26
ENDBRANCH  24  25
ENDBRANCH  23  24
ENDBRANCH   1  23
TORSDOF 24
ENDMDL
