MODEL 1
REMARK VINA RESULT:     -11.4      0.000      0.000
REMARK SMILES Cc1ccccc1OCC(=O)N1C[C@H](O)C[C@H]1C(=O)OCCOCCOC(=O)c1ccc(-c2c3nc(c(-c4c(F)cc(S(=O)(=O)[O-])cc4F)c4ccc([nH]4)c(-c4c(F)cc(S(=O)(=O)[O-])cc4F)c4nc(c(-c5c(F)cc(S(=O)(=O)[O-])cc5F)c5ccc2[nH]5)C=C4)C=C3)cc1
REMARK SMILES IDX 22 1 21 2 20 3 18 4 19 5 17 6 12 7 13 8 14 9 16 10 10 11
REMARK SMILES IDX 11 12 9 13 8 14 7 15 1 16 2 17 3 18 4 19 6 20 5 21 15 22
REMARK SMILES IDX 23 24 24 25 25 26 26 27 27 28 28 29 29 30 30 31 94 32 31 33
REMARK SMILES IDX 93 34 32 35 33 36 34 37 87 38 35 39 92 40 86 41 88 42 36 43
REMARK SMILES IDX 91 44 85 45 84 46 37 48 71 49 50 50 70 51 51 52 54 53 69 54
REMARK SMILES IDX 89 55 52 56 53 57 68 59 90 60 55 61 38 62 39 63 48 64 40 65
REMARK SMILES IDX 41 66 47 67 49 68 42 69 43 70 44 71 45 72 46 73 72 74 73 75
REMARK SMILES IDX 82 76 74 77 75 78 81 79 83 80 76 81 77 82 78 83 79 84 80 85
REMARK SMILES IDX 56 86 57 87 66 88 58 89 59 90 65 91 67 92 60 93 61 94 62 95
REMARK SMILES IDX 63 96 64 97
REMARK H PARENT 15 23 88 47 54 58
REMARK Flexibility Score: inf
ROOT
ATOM      1  C   UNL A   1      33.350  26.511  23.160  1.00  0.00     0.202 C 
ENDROOT
BRANCH   1   2
ATOM      2  C   UNL A   1      32.923  25.310  22.361  1.00  0.00     0.261 C 
BRANCH   2   3
ATOM      3  O   UNL A   1      31.976  24.511  23.091  1.00  0.00    -0.462 OA
BRANCH   3   4
ATOM      4  C   UNL A   1      32.243  23.188  23.283  1.00  0.00     0.329 C 
ATOM      5  O   UNL A   1      32.939  22.474  22.587  1.00  0.00    -0.250 OA
BRANCH   4   6
ATOM      6  C   UNL A   1      31.400  22.657  24.433  1.00  0.00     0.198 C 
ATOM      7  N   UNL A   1      32.186  21.955  25.468  1.00  0.00    -0.323 N 
ATOM      8  C   UNL A   1      32.117  22.646  26.739  1.00  0.00     0.152 C 
ATOM      9  C   UNL A   1      30.820  23.458  26.627  1.00  0.00     0.136 C 
ATOM     10  C   UNL A   1      30.733  23.833  25.151  1.00  0.00     0.070 C 
BRANCH   7  11
ATOM     11  C   UNL A   1      32.834  20.796  25.133  1.00  0.00     0.261 C 
ATOM     12  O   UNL A   1      32.179  19.768  24.947  1.00  0.00    -0.271 OA
BRANCH  11  13
ATOM     13  C   UNL A   1      34.359  20.642  25.202  1.00  0.00     0.329 C 
BRANCH  13  14
ATOM     14  O   UNL A   1      35.396  21.287  24.529  1.00  0.00    -0.484 OA
BRANCH  14  15
ATOM     15  C   UNL A   1      36.337  22.026  25.168  1.00  0.00     0.122 A 
ATOM     16  C   UNL A   1      35.192  24.343  25.409  1.00  0.00     0.048 C 
ATOM     17  C   UNL A   1      36.294  23.347  25.628  1.00  0.00    -0.009 A 
ATOM     18  C   UNL A   1      37.458  23.876  26.235  1.00  0.00     0.007 A 
ATOM     19  C   UNL A   1      38.648  23.152  26.303  1.00  0.00     0.001 A 
ATOM     20  C   UNL A   1      37.553  21.323  25.214  1.00  0.00     0.047 A 
ATOM     21  C   UNL A   1      38.703  21.877  25.766  1.00  0.00     0.004 A 
ENDBRANCH  14  15
ENDBRANCH  13  14
ENDBRANCH  11  13
ENDBRANCH   7  11
BRANCH   9  22
ATOM     22  O   UNL A   1      29.697  22.652  26.990  1.00  0.00    -0.391 OA
ATOM     23  H   UNL A   1      29.337  22.963  27.835  1.00  0.00     0.211 HD
ENDBRANCH   9  22
ENDBRANCH   4   6
ENDBRANCH   3   4
ENDBRANCH   2   3
ENDBRANCH   1   2
BRANCH   1  24
ATOM     24  O   UNL A   1      32.182  27.010  23.800  1.00  0.00    -0.374 OA
BRANCH  24  25
ATOM     25  C   UNL A   1      32.325  27.913  24.875  1.00  0.00     0.202 C 
BRANCH  25  26
ATOM     26  C   UNL A   1      33.762  28.319  25.188  1.00  0.00     0.261 C 
BRANCH  26  27
ATOM     27  O   UNL A   1      34.122  28.178  26.586  1.00  0.00    -0.460 OA
BRANCH  27  28
ATOM     28  C   UNL A   1      34.081  29.285  27.387  1.00  0.00     0.338 C 
ATOM     29  O   UNL A   1      33.037  29.806  27.752  1.00  0.00    -0.246 OA
BRANCH  28  30
ATOM     30  C   UNL A   1      35.436  29.684  27.861  1.00  0.00     0.060 A 
ATOM     31  C   UNL A   1      36.483  29.977  26.969  1.00  0.00     0.016 A 
ATOM     32  C   UNL A   1      35.708  29.557  29.214  1.00  0.00     0.016 A 
ATOM     33  C   UNL A   1      37.820  29.957  27.412  1.00  0.00     0.010 A 
ATOM     34  C   UNL A   1      37.015  29.352  29.597  1.00  0.00     0.010 A 
ATOM     35  C   UNL A   1      38.093  29.553  28.714  1.00  0.00    -0.014 A 
BRANCH  35  36
ATOM     36  C   UNL A   1      39.399  29.332  29.355  1.00  0.00     0.031 A 
ATOM     37  C   UNL A   1      40.014  27.997  29.088  1.00  0.00     0.074 A 
ATOM     38  C   UNL A   1      40.175  30.351  29.816  1.00  0.00     0.049 A 
ATOM     39  N   UNL A   1      41.206  27.670  29.430  1.00  0.00    -0.248 NA
ATOM     40  C   UNL A   1      39.332  26.903  28.381  1.00  0.00     0.031 C 
ATOM     41  C   UNL A   1      41.644  30.422  29.817  1.00  0.00     0.029 A 
ATOM     42  N   UNL A   1      39.828  31.578  30.403  1.00  0.00    -0.354 N 
ATOM     43  C   UNL A   1      41.565  26.561  28.704  1.00  0.00     0.074 A 
ATOM     44  C   UNL A   1      40.342  26.059  28.143  1.00  0.00     0.031 C 
ATOM     45  C   UNL A   1      42.055  31.424  30.614  1.00  0.00     0.029 A 
ATOM     46  C   UNL A   1      40.872  31.938  31.277  1.00  0.00     0.049 A 
ATOM     47  H   UNL A   1      39.007  32.093  30.234  1.00  0.00     0.167 HD
ATOM     48  C   UNL A   1      42.891  26.293  28.582  1.00  0.00     0.037 A 
ATOM     49  C   UNL A   1      40.653  32.022  32.618  1.00  0.00     0.037 A 
ATOM     50  C   UNL A   1      43.648  27.074  29.566  1.00  0.00     0.049 A 
ATOM     51  C   UNL A   1      41.480  30.973  33.314  1.00  0.00     0.074 A 
ATOM     52  C   UNL A   1      44.497  28.161  29.492  1.00  0.00     0.029 A 
ATOM     53  N   UNL A   1      43.290  26.947  30.911  1.00  0.00    -0.354 N 
ATOM     54  N   UNL A   1      41.938  29.918  32.694  1.00  0.00    -0.248 NA
ATOM     55  C   UNL A   1      41.961  31.058  34.688  1.00  0.00     0.031 C 
ATOM     56  C   UNL A   1      44.529  28.766  30.788  1.00  0.00     0.029 A 
ATOM     57  C   UNL A   1      43.743  28.019  31.654  1.00  0.00     0.049 A 
ATOM     58  H   UNL A   1      42.781  26.190  31.281  1.00  0.00     0.167 HD
ATOM     59  C   UNL A   1      42.781  29.227  33.506  1.00  0.00     0.074 A 
ATOM     60  C   UNL A   1      42.744  29.964  34.758  1.00  0.00     0.031 C 
ATOM     61  C   UNL A   1      43.443  28.110  33.085  1.00  0.00     0.037 A 
BRANCH  48  62
ATOM     62  C   UNL A   1      43.517  25.431  27.509  1.00  0.00     0.058 A 
ATOM     63  C   UNL A   1      44.315  24.326  27.870  1.00  0.00     0.135 A 
ATOM     64  C   UNL A   1      43.471  25.697  26.119  1.00  0.00     0.135 A 
ATOM     65  F   UNL A   1      44.481  23.988  29.157  1.00  0.00    -0.206 F 
ATOM     66  C   UNL A   1      44.995  23.539  26.934  1.00  0.00     0.059 A 
ATOM     67  C   UNL A   1      44.103  24.896  25.162  1.00  0.00     0.059 A 
ATOM     68  F   UNL A   1      42.863  26.782  25.622  1.00  0.00    -0.206 F 
ATOM     69  C   UNL A   1      44.876  23.824  25.579  1.00  0.00     0.060 A 
BRANCH  69  70
ATOM     70  S   UNL A   1      45.753  22.798  24.382  1.00  0.00     0.124 S 
ATOM     71  O   UNL A   1      46.296  21.742  25.230  1.00  0.00    -0.237 OA
ATOM     72  O   UNL A   1      44.684  22.398  23.474  1.00  0.00    -0.237 OA
ATOM     73  O   UNL A   1      46.741  23.709  23.810  1.00  0.00    -0.744 OA
ENDBRANCH  69  70
ENDBRANCH  48  62
BRANCH  49  74
ATOM     74  C   UNL A   1      39.268  32.521  32.909  1.00  0.00     0.058 A 
ATOM     75  C   UNL A   1      38.995  33.862  32.543  1.00  0.00     0.135 A 
ATOM     76  C   UNL A   1      38.171  31.645  32.943  1.00  0.00     0.135 A 
ATOM     77  F   UNL A   1      39.998  34.757  32.502  1.00  0.00    -0.206 F 
ATOM     78  C   UNL A   1      37.747  34.267  32.057  1.00  0.00     0.059 A 
ATOM     79  C   UNL A   1      36.912  32.033  32.461  1.00  0.00     0.059 A 
ATOM     80  F   UNL A   1      38.350  30.359  33.280  1.00  0.00    -0.206 F 
ATOM     81  C   UNL A   1      36.725  33.326  31.963  1.00  0.00     0.060 A 
BRANCH  81  82
ATOM     82  S   UNL A   1      35.227  33.740  31.013  1.00  0.00     0.124 S 
ATOM     83  O   UNL A   1      34.792  34.974  31.654  1.00  0.00    -0.237 OA
ATOM     84  O   UNL A   1      35.724  33.891  29.648  1.00  0.00    -0.237 OA
ATOM     85  O   UNL A   1      34.374  32.575  31.220  1.00  0.00    -0.744 OA
ENDBRANCH  81  82
ENDBRANCH  49  74
BRANCH  61  86
ATOM     86  C   UNL A   1      43.924  27.039  34.029  1.00  0.00     0.058 A 
ATOM     87  C   UNL A   1      43.053  26.198  34.743  1.00  0.00     0.135 A 
ATOM     88  C   UNL A   1      45.298  26.713  34.119  1.00  0.00     0.135 A 
ATOM     89  F   UNL A   1      41.722  26.289  34.621  1.00  0.00    -0.206 F 
ATOM     90  C   UNL A   1      43.513  25.194  35.588  1.00  0.00     0.059 A 
ATOM     91  C   UNL A   1      45.773  25.664  34.896  1.00  0.00     0.059 A 
ATOM     92  F   UNL A   1      46.231  27.395  33.439  1.00  0.00    -0.206 F 
ATOM     93  C   UNL A   1      44.877  24.942  35.666  1.00  0.00     0.060 A 
BRANCH  93  94
ATOM     94  S   UNL A   1      45.459  23.654  36.773  1.00  0.00     0.124 S 
ATOM     95  O   UNL A   1      44.889  22.464  36.150  1.00  0.00    -0.237 OA
ATOM     96  O   UNL A   1      46.910  23.783  36.676  1.00  0.00    -0.237 OA
ATOM     97  O   UNL A   1      44.887  24.029  38.062  1.00  0.00    -0.744 OA
ENDBRANCH  93  94
ENDBRANCH  61  86
ENDBRANCH  35  36
ENDBRANCH  28  30
ENDBRANCH  27  28
ENDBRANCH  26  27
ENDBRANCH  25  26
ENDBRANCH  24  25
ENDBRANCH   1  24
TORSDOF 22
ENDMDL
MODEL 2
REMARK VINA RESULT:     -11.1      1.504      2.736
REMARK SMILES Cc1ccccc1OCC(=O)N1C[C@H](O)C[C@H]1C(=O)OCCOCCOC(=O)c1ccc(-c2c3nc(c(-c4c(F)cc(S(=O)(=O)[O-])cc4F)c4ccc([nH]4)c(-c4c(F)cc(S(=O)(=O)[O-])cc4F)c4nc(c(-c5c(F)cc(S(=O)(=O)[O-])cc5F)c5ccc2[nH]5)C=C4)C=C3)cc1
REMARK SMILES IDX 22 1 21 2 20 3 18 4 19 5 17 6 12 7 13 8 14 9 16 10 10 11
REMARK SMILES IDX 11 12 9 13 8 14 7 15 1 16 2 17 3 18 4 19 6 20 5 21 15 22
REMARK SMILES IDX 23 24 24 25 25 26 26 27 27 28 28 29 29 30 30 31 94 32 31 33
REMARK SMILES IDX 93 34 32 35 33 36 34 37 87 38 35 39 92 40 86 41 88 42 36 43
REMARK SMILES IDX 91 44 85 45 84 46 37 48 71 49 50 50 70 51 51 52 54 53 69 54
REMARK SMILES IDX 89 55 52 56 53 57 68 59 90 60 55 61 38 62 39 63 48 64 40 65
REMARK SMILES IDX 41 66 47 67 49 68 42 69 43 70 44 71 45 72 46 73 72 74 73 75
REMARK SMILES IDX 82 76 74 77 75 78 81 79 83 80 76 81 77 82 78 83 79 84 80 85
REMARK SMILES IDX 56 86 57 87 66 88 58 89 59 90 65 91 67 92 60 93 61 94 62 95
REMARK SMILES IDX 63 96 64 97
REMARK H PARENT 15 23 88 47 54 58
REMARK Flexibility Score: inf
ROOT
ATOM      1  C   UNL A   1      32.610  27.167  25.303  1.00  0.00     0.202 C 
ENDROOT
BRANCH   1   2
ATOM      2  C   UNL A   1      32.990  25.947  26.097  1.00  0.00     0.261 C 
BRANCH   2   3
ATOM      3  O   UNL A   1      34.171  25.327  25.562  1.00  0.00    -0.462 OA
BRANCH   3   4
ATOM      4  C   UNL A   1      34.282  23.969  25.615  1.00  0.00     0.329 C 
ATOM      5  O   UNL A   1      34.756  23.310  26.520  1.00  0.00    -0.250 OA
BRANCH   4   6
ATOM      6  C   UNL A   1      33.867  23.367  24.282  1.00  0.00     0.198 C 
ATOM      7  N   UNL A   1      32.413  23.135  24.163  1.00  0.00    -0.323 N 
ATOM      8  C   UNL A   1      31.835  23.948  23.113  1.00  0.00     0.152 C 
ATOM      9  C   UNL A   1      33.033  24.251  22.204  1.00  0.00     0.136 C 
ATOM     10  C   UNL A   1      34.219  24.346  23.158  1.00  0.00     0.070 C 
BRANCH   7  11
ATOM     11  C   UNL A   1      31.819  22.224  24.996  1.00  0.00     0.261 C 
ATOM     12  O   UNL A   1      30.933  22.598  25.767  1.00  0.00    -0.271 OA
BRANCH  11  13
ATOM     13  C   UNL A   1      32.353  20.800  25.193  1.00  0.00     0.329 C 
BRANCH  13  14
ATOM     14  O   UNL A   1      31.805  19.548  24.917  1.00  0.00    -0.484 OA
BRANCH  14  15
ATOM     15  C   UNL A   1      32.559  18.482  24.551  1.00  0.00     0.122 A 
ATOM     16  C   UNL A   1      32.360  18.491  21.962  1.00  0.00     0.048 C 
ATOM     17  C   UNL A   1      32.886  17.997  23.279  1.00  0.00    -0.009 A 
ATOM     18  C   UNL A   1      33.672  16.823  23.199  1.00  0.00     0.007 A 
ATOM     19  C   UNL A   1      34.046  16.107  24.336  1.00  0.00     0.001 A 
ATOM     20  C   UNL A   1      32.915  17.730  25.683  1.00  0.00     0.047 A 
ATOM     21  C   UNL A   1      33.643  16.549  25.584  1.00  0.00     0.004 A 
ENDBRANCH  14  15
ENDBRANCH  13  14
ENDBRANCH  11  13
ENDBRANCH   7  11
BRANCH   9  22
ATOM     22  O   UNL A   1      33.238  23.180  21.279  1.00  0.00    -0.391 OA
ATOM     23  H   UNL A   1      34.102  23.285  20.851  1.00  0.00     0.211 HD
ENDBRANCH   9  22
ENDBRANCH   4   6
ENDBRANCH   3   4
ENDBRANCH   2   3
ENDBRANCH   1   2
BRANCH   1  24
ATOM     24  O   UNL A   1      31.862  28.004  26.177  1.00  0.00    -0.374 OA
BRANCH  24  25
ATOM     25  C   UNL A   1      31.907  29.402  25.987  1.00  0.00     0.202 C 
BRANCH  25  26
ATOM     26  C   UNL A   1      33.299  30.021  26.078  1.00  0.00     0.261 C 
BRANCH  26  27
ATOM     27  O   UNL A   1      33.724  30.315  27.432  1.00  0.00    -0.460 OA
BRANCH  27  28
ATOM     28  C   UNL A   1      34.885  31.014  27.616  1.00  0.00     0.338 C 
ATOM     29  O   UNL A   1      34.976  32.219  27.431  1.00  0.00    -0.246 OA
BRANCH  28  30
ATOM     30  C   UNL A   1      35.966  30.164  28.190  1.00  0.00     0.060 A 
ATOM     31  C   UNL A   1      35.875  29.610  29.479  1.00  0.00     0.016 A 
ATOM     32  C   UNL A   1      37.168  30.102  27.505  1.00  0.00     0.016 A 
ATOM     33  C   UNL A   1      37.034  29.164  30.144  1.00  0.00     0.010 A 
ATOM     34  C   UNL A   1      38.314  29.844  28.223  1.00  0.00     0.010 A 
ATOM     35  C   UNL A   1      38.273  29.365  29.547  1.00  0.00    -0.014 A 
BRANCH  35  36
ATOM     36  C   UNL A   1      39.613  29.105  30.097  1.00  0.00     0.031 A 
ATOM     37  C   UNL A   1      40.214  27.796  29.700  1.00  0.00     0.074 A 
ATOM     38  C   UNL A   1      40.413  30.092  30.586  1.00  0.00     0.049 A 
ATOM     39  N   UNL A   1      41.423  27.451  29.950  1.00  0.00    -0.248 NA
ATOM     40  C   UNL A   1      39.494  26.752  28.955  1.00  0.00     0.031 C 
ATOM     41  C   UNL A   1      41.880  30.170  30.510  1.00  0.00     0.029 A 
ATOM     42  N   UNL A   1      40.099  31.272  31.278  1.00  0.00    -0.354 N 
ATOM     43  C   UNL A   1      41.742  26.399  29.127  1.00  0.00     0.074 A 
ATOM     44  C   UNL A   1      40.490  25.932  28.600  1.00  0.00     0.031 C 
ATOM     45  C   UNL A   1      42.334  31.114  31.353  1.00  0.00     0.029 A 
ATOM     46  C   UNL A   1      41.189  31.573  32.116  1.00  0.00     0.049 A 
ATOM     47  H   UNL A   1      39.269  31.793  31.193  1.00  0.00     0.167 HD
ATOM     48  C   UNL A   1      43.060  26.146  28.912  1.00  0.00     0.037 A 
ATOM     49  C   UNL A   1      41.046  31.559  33.470  1.00  0.00     0.037 A 
ATOM     50  C   UNL A   1      43.869  26.859  29.907  1.00  0.00     0.049 A 
ATOM     51  C   UNL A   1      41.912  30.467  34.041  1.00  0.00     0.074 A 
ATOM     52  C   UNL A   1      44.713  27.952  29.864  1.00  0.00     0.029 A 
ATOM     53  N   UNL A   1      43.588  26.633  31.256  1.00  0.00    -0.354 N 
ATOM     54  N   UNL A   1      42.335  29.461  33.322  1.00  0.00    -0.248 NA
ATOM     55  C   UNL A   1      42.468  30.455  35.389  1.00  0.00     0.031 C 
ATOM     56  C   UNL A   1      44.816  28.462  31.196  1.00  0.00     0.029 A 
ATOM     57  C   UNL A   1      44.080  27.651  32.049  1.00  0.00     0.049 A 
ATOM     58  H   UNL A   1      43.101  25.849  31.599  1.00  0.00     0.167 HD
ATOM     59  C   UNL A   1      43.223  28.718  34.033  1.00  0.00     0.074 A 
ATOM     60  C   UNL A   1      43.255  29.363  35.336  1.00  0.00     0.031 C 
ATOM     61  C   UNL A   1      43.861  27.637  33.497  1.00  0.00     0.037 A 
BRANCH  48  62
ATOM     62  C   UNL A   1      43.625  25.367  27.747  1.00  0.00     0.058 A 
ATOM     63  C   UNL A   1      44.211  24.103  27.963  1.00  0.00     0.135 A 
ATOM     64  C   UNL A   1      43.728  25.846  26.419  1.00  0.00     0.135 A 
ATOM     65  F   UNL A   1      44.223  23.549  29.185  1.00  0.00    -0.206 F 
ATOM     66  C   UNL A   1      44.831  23.366  26.948  1.00  0.00     0.059 A 
ATOM     67  C   UNL A   1      44.301  25.107  25.377  1.00  0.00     0.059 A 
ATOM     68  F   UNL A   1      43.337  27.079  26.075  1.00  0.00    -0.206 F 
ATOM     69  C   UNL A   1      44.863  23.871  25.653  1.00  0.00     0.060 A 
BRANCH  69  70
ATOM     70  S   UNL A   1      45.660  22.909  24.352  1.00  0.00     0.124 S 
ATOM     71  O   UNL A   1      46.555  23.894  23.754  1.00  0.00    -0.237 OA
ATOM     72  O   UNL A   1      46.304  21.839  25.106  1.00  0.00    -0.237 OA
ATOM     73  O   UNL A   1      44.545  22.486  23.508  1.00  0.00    -0.744 OA
ENDBRANCH  69  70
ENDBRANCH  48  62
BRANCH  49  74
ATOM     74  C   UNL A   1      39.679  32.030  33.872  1.00  0.00     0.058 A 
ATOM     75  C   UNL A   1      39.378  33.387  33.602  1.00  0.00     0.135 A 
ATOM     76  C   UNL A   1      38.591  31.144  33.923  1.00  0.00     0.135 A 
ATOM     77  F   UNL A   1      40.372  34.291  33.551  1.00  0.00    -0.206 F 
ATOM     78  C   UNL A   1      38.101  33.809  33.217  1.00  0.00     0.059 A 
ATOM     79  C   UNL A   1      37.303  31.548  33.542  1.00  0.00     0.059 A 
ATOM     80  F   UNL A   1      38.796  29.843  34.174  1.00  0.00    -0.206 F 
ATOM     81  C   UNL A   1      37.080  32.866  33.131  1.00  0.00     0.060 A 
BRANCH  81  82
ATOM     82  S   UNL A   1      35.524  33.321  32.300  1.00  0.00     0.124 S 
ATOM     83  O   UNL A   1      35.984  34.268  31.293  1.00  0.00    -0.237 OA
ATOM     84  O   UNL A   1      35.036  32.048  31.777  1.00  0.00    -0.237 OA
ATOM     85  O   UNL A   1      34.721  33.878  33.384  1.00  0.00    -0.744 OA
ENDBRANCH  81  82
ENDBRANCH  49  74
BRANCH  61  86
ATOM     86  C   UNL A   1      44.395  26.504  34.333  1.00  0.00     0.058 A 
ATOM     87  C   UNL A   1      43.579  25.487  34.859  1.00  0.00     0.135 A 
ATOM     88  C   UNL A   1      45.788  26.314  34.495  1.00  0.00     0.135 A 
ATOM     89  F   UNL A   1      42.258  25.455  34.638  1.00  0.00    -0.206 F 
ATOM     90  C   UNL A   1      44.091  24.430  35.603  1.00  0.00     0.059 A 
ATOM     91  C   UNL A   1      46.325  25.223  35.168  1.00  0.00     0.059 A 
ATOM     92  F   UNL A   1      46.682  27.174  33.988  1.00  0.00    -0.206 F 
ATOM     93  C   UNL A   1      45.466  24.313  35.762  1.00  0.00     0.060 A 
BRANCH  93  94
ATOM     94  S   UNL A   1      46.114  22.954  36.740  1.00  0.00     0.124 S 
ATOM     95  O   UNL A   1      45.515  21.807  36.064  1.00  0.00    -0.237 OA
ATOM     96  O   UNL A   1      47.557  23.101  36.573  1.00  0.00    -0.237 OA
ATOM     97  O   UNL A   1      45.612  23.231  38.081  1.00  0.00    -0.744 OA
ENDBRANCH  93  94
ENDBRANCH  61  86
ENDBRANCH  35  36
ENDBRANCH  28  30
ENDBRANCH  27  28
ENDBRANCH  26  27
ENDBRANCH  25  26
ENDBRANCH  24  25
ENDBRANCH   1  24
TORSDOF 22
ENDMDL
MODEL 3
REMARK VINA RESULT:     -10.9      2.168      3.382
REMARK SMILES Cc1ccccc1OCC(=O)N1C[C@H](O)C[C@H]1C(=O)OCCOCCOC(=O)c1ccc(-c2c3nc(c(-c4c(F)cc(S(=O)(=O)[O-])cc4F)c4ccc([nH]4)c(-c4c(F)cc(S(=O)(=O)[O-])cc4F)c4nc(c(-c5c(F)cc(S(=O)(=O)[O-])cc5F)c5ccc2[nH]5)C=C4)C=C3)cc1
REMARK SMILES IDX 22 1 21 2 20 3 18 4 19 5 17 6 12 7 13 8 14 9 16 10 10 11
REMARK SMILES IDX 11 12 9 13 8 14 7 15 1 16 2 17 3 18 4 19 6 20 5 21 15 22
REMARK SMILES IDX 23 24 24 25 25 26 26 27 27 28 28 29 29 30 30 31 94 32 31 33
REMARK SMILES IDX 93 34 32 35 33 36 34 37 87 38 35 39 92 40 86 41 88 42 36 43
REMARK SMILES IDX 91 44 85 45 84 46 37 48 71 49 50 50 70 51 51 52 54 53 69 54
REMARK SMILES IDX 89 55 52 56 53 57 68 59 90 60 55 61 38 62 39 63 48 64 40 65
REMARK SMILES IDX 41 66 47 67 49 68 42 69 43 70 44 71 45 72 46 73 72 74 73 75
REMARK SMILES IDX 82 76 74 77 75 78 81 79 83 80 76 81 77 82 78 83 79 84 80 85
REMARK SMILES IDX 56 86 57 87 66 88 58 89 59 90 65 91 67 92 60 93 61 94 62 95
REMARK SMILES IDX 63 96 64 97
REMARK H PARENT 15 23 88 47 54 58
REMARK Flexibility Score: inf
ROOT
ATOM      1  C   UNL A   1      31.154  27.397  25.738  1.00  0.00     0.202 C 
ENDROOT
BRANCH   1   2
ATOM      2  C   UNL A   1      31.001  25.948  26.111  1.00  0.00     0.261 C 
BRANCH   2   3
ATOM      3  O   UNL A   1      32.186  25.201  25.792  1.00  0.00    -0.462 OA
BRANCH   3   4
ATOM      4  C   UNL A   1      32.364  23.975  26.362  1.00  0.00     0.329 C 
ATOM      5  O   UNL A   1      31.712  23.489  27.265  1.00  0.00    -0.250 OA
BRANCH   4   6
ATOM      6  C   UNL A   1      33.629  23.333  25.813  1.00  0.00     0.198 C 
ATOM      7  N   UNL A   1      33.492  22.847  24.425  1.00  0.00    -0.323 N 
ATOM      8  C   UNL A   1      34.376  23.561  23.528  1.00  0.00     0.152 C 
ATOM      9  C   UNL A   1      35.472  24.090  24.462  1.00  0.00     0.136 C 
ATOM     10  C   UNL A   1      34.747  24.379  25.773  1.00  0.00     0.070 C 
BRANCH   7  11
ATOM     11  C   UNL A   1      32.612  21.830  24.165  1.00  0.00     0.261 C 
ATOM     12  O   UNL A   1      31.828  21.936  23.219  1.00  0.00    -0.271 OA
BRANCH  11  13
ATOM     13  C   UNL A   1      32.383  20.656  25.125  1.00  0.00     0.329 C 
BRANCH  13  14
ATOM     14  O   UNL A   1      31.846  19.384  24.938  1.00  0.00    -0.484 OA
BRANCH  14  15
ATOM     15  C   UNL A   1      32.599  18.316  24.575  1.00  0.00     0.122 A 
ATOM     16  C   UNL A   1      32.498  18.387  21.981  1.00  0.00     0.048 C 
ATOM     17  C   UNL A   1      32.967  17.856  23.305  1.00  0.00    -0.009 A 
ATOM     18  C   UNL A   1      33.740  16.673  23.227  1.00  0.00     0.007 A 
ATOM     19  C   UNL A   1      34.061  15.926  24.360  1.00  0.00     0.001 A 
ATOM     20  C   UNL A   1      32.902  17.533  25.702  1.00  0.00     0.047 A 
ATOM     21  C   UNL A   1      33.618  16.345  25.602  1.00  0.00     0.004 A 
ENDBRANCH  14  15
ENDBRANCH  13  14
ENDBRANCH  11  13
ENDBRANCH   7  11
BRANCH   9  22
ATOM     22  O   UNL A   1      36.472  23.089  24.671  1.00  0.00    -0.391 OA
ATOM     23  H   UNL A   1      36.224  22.282  24.195  1.00  0.00     0.211 HD
ENDBRANCH   9  22
ENDBRANCH   4   6
ENDBRANCH   3   4
ENDBRANCH   2   3
ENDBRANCH   1   2
BRANCH   1  24
ATOM     24  O   UNL A   1      31.381  28.107  26.950  1.00  0.00    -0.374 OA
BRANCH  24  25
ATOM     25  C   UNL A   1      32.688  28.548  27.249  1.00  0.00     0.202 C 
BRANCH  25  26
ATOM     26  C   UNL A   1      32.891  30.058  27.179  1.00  0.00     0.261 C 
BRANCH  26  27
ATOM     27  O   UNL A   1      34.220  30.455  26.758  1.00  0.00    -0.460 OA
BRANCH  27  28
ATOM     28  C   UNL A   1      35.030  31.090  27.658  1.00  0.00     0.338 C 
ATOM     29  O   UNL A   1      34.825  32.228  28.055  1.00  0.00    -0.246 OA
BRANCH  28  30
ATOM     30  C   UNL A   1      36.092  30.189  28.189  1.00  0.00     0.060 A 
ATOM     31  C   UNL A   1      36.066  29.698  29.506  1.00  0.00     0.016 A 
ATOM     32  C   UNL A   1      37.229  30.010  27.417  1.00  0.00     0.016 A 
ATOM     33  C   UNL A   1      37.241  29.198  30.101  1.00  0.00     0.010 A 
ATOM     34  C   UNL A   1      38.408  29.701  28.058  1.00  0.00     0.010 A 
ATOM     35  C   UNL A   1      38.440  29.284  29.402  1.00  0.00    -0.014 A 
BRANCH  35  36
ATOM     36  C   UNL A   1      39.798  28.951  29.860  1.00  0.00     0.031 A 
ATOM     37  C   UNL A   1      40.268  27.581  29.495  1.00  0.00     0.074 A 
ATOM     38  C   UNL A   1      40.705  29.898  30.226  1.00  0.00     0.049 A 
ATOM     39  N   UNL A   1      41.466  27.158  29.670  1.00  0.00    -0.248 NA
ATOM     40  C   UNL A   1      39.416  26.557  28.871  1.00  0.00     0.031 C 
ATOM     41  C   UNL A   1      42.162  29.859  30.031  1.00  0.00     0.029 A 
ATOM     42  N   UNL A   1      40.534  31.134  30.871  1.00  0.00    -0.354 N 
ATOM     43  C   UNL A   1      41.639  26.042  28.887  1.00  0.00     0.074 A 
ATOM     44  C   UNL A   1      40.318  25.646  28.488  1.00  0.00     0.031 C 
ATOM     45  C   UNL A   1      42.751  30.809  30.780  1.00  0.00     0.029 A 
ATOM     46  C   UNL A   1      41.709  31.394  31.602  1.00  0.00     0.049 A 
ATOM     47  H   UNL A   1      39.740  31.712  30.820  1.00  0.00     0.167 HD
ATOM     48  C   UNL A   1      42.913  25.679  28.585  1.00  0.00     0.037 A 
ATOM     49  C   UNL A   1      41.677  31.462  32.961  1.00  0.00     0.037 A 
ATOM     50  C   UNL A   1      43.851  26.379  29.470  1.00  0.00     0.049 A 
ATOM     51  C   UNL A   1      42.506  30.339  33.526  1.00  0.00     0.074 A 
ATOM     52  C   UNL A   1      44.765  27.400  29.297  1.00  0.00     0.029 A 
ATOM     53  N   UNL A   1      43.666  26.247  30.848  1.00  0.00    -0.354 N 
ATOM     54  N   UNL A   1      42.795  29.267  32.836  1.00  0.00    -0.248 NA
ATOM     55  C   UNL A   1      43.169  30.355  34.824  1.00  0.00     0.031 C 
ATOM     56  C   UNL A   1      45.014  27.970  30.585  1.00  0.00     0.029 A 
ATOM     57  C   UNL A   1      44.294  27.264  31.539  1.00  0.00     0.049 A 
ATOM     58  H   UNL A   1      43.154  25.522  31.273  1.00  0.00     0.167 HD
ATOM     59  C   UNL A   1      43.682  28.497  33.518  1.00  0.00     0.074 A 
ATOM     60  C   UNL A   1      43.868  29.204  34.774  1.00  0.00     0.031 C 
ATOM     61  C   UNL A   1      44.195  27.343  32.998  1.00  0.00     0.037 A 
BRANCH  48  62
ATOM     62  C   UNL A   1      43.322  24.799  27.427  1.00  0.00     0.058 A 
ATOM     63  C   UNL A   1      43.896  23.534  27.672  1.00  0.00     0.135 A 
ATOM     64  C   UNL A   1      43.288  25.176  26.063  1.00  0.00     0.135 A 
ATOM     65  F   UNL A   1      44.031  23.070  28.923  1.00  0.00    -0.206 F 
ATOM     66  C   UNL A   1      44.378  22.705  26.653  1.00  0.00     0.059 A 
ATOM     67  C   UNL A   1      43.720  24.344  25.023  1.00  0.00     0.059 A 
ATOM     68  F   UNL A   1      42.893  26.394  25.672  1.00  0.00    -0.206 F 
ATOM     69  C   UNL A   1      44.278  23.113  25.328  1.00  0.00     0.060 A 
BRANCH  69  70
ATOM     70  S   UNL A   1      44.897  22.033  24.023  1.00  0.00     0.124 S 
ATOM     71  O   UNL A   1      44.175  22.527  22.855  1.00  0.00    -0.237 OA
ATOM     72  O   UNL A   1      46.330  22.306  24.048  1.00  0.00    -0.237 OA
ATOM     73  O   UNL A   1      44.514  20.697  24.474  1.00  0.00    -0.744 OA
ENDBRANCH  69  70
ENDBRANCH  48  62
BRANCH  49  74
ATOM     74  C   UNL A   1      40.385  32.057  33.441  1.00  0.00     0.058 A 
ATOM     75  C   UNL A   1      39.435  31.149  33.969  1.00  0.00     0.135 A 
ATOM     76  C   UNL A   1      40.325  33.376  33.918  1.00  0.00     0.135 A 
ATOM     77  F   UNL A   1      39.429  29.872  33.546  1.00  0.00    -0.206 F 
ATOM     78  C   UNL A   1      38.600  31.478  35.042  1.00  0.00     0.059 A 
ATOM     79  C   UNL A   1      39.494  33.726  34.993  1.00  0.00     0.059 A 
ATOM     80  F   UNL A   1      41.192  34.294  33.466  1.00  0.00    -0.206 F 
ATOM     81  C   UNL A   1      38.681  32.756  35.589  1.00  0.00     0.060 A 
BRANCH  81  82
ATOM     82  S   UNL A   1      37.875  33.086  37.189  1.00  0.00     0.124 S 
ATOM     83  O   UNL A   1      38.689  34.172  37.720  1.00  0.00    -0.237 OA
ATOM     84  O   UNL A   1      36.514  33.458  36.811  1.00  0.00    -0.237 OA
ATOM     85  O   UNL A   1      37.983  31.807  37.882  1.00  0.00    -0.744 OA
ENDBRANCH  81  82
ENDBRANCH  49  74
BRANCH  61  86
ATOM     86  C   UNL A   1      44.713  26.218  33.854  1.00  0.00     0.058 A 
ATOM     87  C   UNL A   1      43.904  25.504  34.756  1.00  0.00     0.135 A 
ATOM     88  C   UNL A   1      46.020  25.708  33.671  1.00  0.00     0.135 A 
ATOM     89  F   UNL A   1      42.600  25.776  34.905  1.00  0.00    -0.206 F 
ATOM     90  C   UNL A   1      44.389  24.447  35.518  1.00  0.00     0.059 A 
ATOM     91  C   UNL A   1      46.500  24.604  34.365  1.00  0.00     0.059 A 
ATOM     92  F   UNL A   1      46.875  26.254  32.796  1.00  0.00    -0.206 F 
ATOM     93  C   UNL A   1      45.694  24.011  35.323  1.00  0.00     0.060 A 
BRANCH  93  94
ATOM     94  S   UNL A   1      46.315  22.657  36.325  1.00  0.00     0.124 S 
ATOM     95  O   UNL A   1      45.272  21.655  36.126  1.00  0.00    -0.237 OA
ATOM     96  O   UNL A   1      47.600  22.362  35.700  1.00  0.00    -0.237 OA
ATOM     97  O   UNL A   1      46.391  23.232  37.663  1.00  0.00    -0.744 OA
ENDBRANCH  93  94
ENDBRANCH  61  86
ENDBRANCH  35  36
ENDBRANCH  28  30
ENDBRANCH  27  28
ENDBRANCH  26  27
ENDBRANCH  25  26
ENDBRANCH  24  25
ENDBRANCH   1  24
TORSDOF 22
ENDMDL
