MODEL 1
REMARK VINA RESULT:     -11.7      0.000      0.000
REMARK SMILES O=C(OCCOCCOC(=O)c1cc(Cl)ccc1N1C(=O)CC2(CCCC2)C1=O)c1ccc(-c2c3nc(c(-c4c(F)cc(S(=O)(=O)[O-])cc4F)c4ccc([nH]4)c(-c4c(F)cc(S(=O)(=O)[O-])cc4F)c4nc(c(-c5c(F)cc(S(=O)(=O)[O-])cc5F)c5ccc2[nH]5)C=C4)C=C3)cc1
REMARK SMILES IDX 5 1 4 2 3 3 2 4 1 5 30 6 31 7 95 8 32 9 94 10 33 11 34 12
REMARK SMILES IDX 35 13 88 14 36 15 93 16 87 17 89 18 37 19 92 20 86 21 85 22
REMARK SMILES IDX 38 24 72 25 51 26 71 27 52 28 55 29 70 30 90 31 53 32 54 33
REMARK SMILES IDX 69 35 91 36 56 37 39 38 40 39 49 40 41 41 42 42 48 43 50 44
REMARK SMILES IDX 43 45 44 46 45 47 46 48 47 49 73 50 74 51 83 52 75 53 76 54
REMARK SMILES IDX 82 55 84 56 77 57 78 58 79 59 80 60 81 61 57 62 58 63 67 64
REMARK SMILES IDX 59 65 60 66 66 67 68 68 61 69 62 70 63 71 64 72 65 73 6 74
REMARK SMILES IDX 7 75 8 76 9 77 10 78 11 79 12 80 13 81 18 82 14 83 17 84
REMARK SMILES IDX 15 85 16 86 19 87 20 88 28 89 21 90 22 91 23 92 29 93 24 94
REMARK SMILES IDX 27 95 25 96 26 97
REMARK H PARENT 89 23 55 34
REMARK Flexibility Score: inf
ROOT
ATOM      1  C   UNL A   1      35.099  31.551  27.731  1.00  0.00     0.202 C 
ENDROOT
BRANCH   1   2
ATOM      2  C   UNL A   1      34.966  31.803  29.230  1.00  0.00     0.261 C 
BRANCH   2   3
ATOM      3  O   UNL A   1      36.244  31.755  29.879  1.00  0.00    -0.460 OA
BRANCH   3   4
ATOM      4  C   UNL A   1      36.770  30.617  30.401  1.00  0.00     0.338 C 
ATOM      5  O   UNL A   1      36.228  30.093  31.371  1.00  0.00    -0.246 OA
BRANCH   4   6
ATOM      6  C   UNL A   1      38.004  29.981  29.843  1.00  0.00     0.060 A 
ATOM      7  C   UNL A   1      38.284  29.900  28.479  1.00  0.00     0.016 A 
ATOM      8  C   UNL A   1      39.005  29.581  30.733  1.00  0.00     0.016 A 
ATOM      9  C   UNL A   1      39.485  29.411  27.991  1.00  0.00     0.010 A 
ATOM     10  C   UNL A   1      40.263  29.191  30.255  1.00  0.00     0.010 A 
ATOM     11  C   UNL A   1      40.517  29.135  28.875  1.00  0.00    -0.014 A 
BRANCH  11  12
ATOM     12  C   UNL A   1      41.860  28.844  28.331  1.00  0.00     0.031 A 
ATOM     13  C   UNL A   1      42.165  27.462  27.855  1.00  0.00     0.074 A 
ATOM     14  C   UNL A   1      42.778  29.830  28.257  1.00  0.00     0.049 A 
ATOM     15  N   UNL A   1      43.314  26.935  27.536  1.00  0.00    -0.248 NA
ATOM     16  C   UNL A   1      41.021  26.545  27.737  1.00  0.00     0.031 C 
ATOM     17  C   UNL A   1      42.547  31.235  28.621  1.00  0.00     0.029 A 
ATOM     18  N   UNL A   1      44.088  29.815  27.848  1.00  0.00    -0.354 N 
ATOM     19  C   UNL A   1      43.044  25.606  27.242  1.00  0.00     0.074 A 
ATOM     20  C   UNL A   1      41.621  25.411  27.410  1.00  0.00     0.031 C 
ATOM     21  C   UNL A   1      43.663  31.944  28.398  1.00  0.00     0.029 A 
ATOM     22  C   UNL A   1      44.718  31.033  27.979  1.00  0.00     0.049 A 
ATOM     23  H   UNL A   1      44.533  29.011  27.497  1.00  0.00     0.167 HD
ATOM     24  C   UNL A   1      43.922  24.641  26.886  1.00  0.00     0.037 A 
ATOM     25  C   UNL A   1      46.017  31.362  27.842  1.00  0.00     0.037 A 
ATOM     26  C   UNL A   1      45.332  24.882  26.726  1.00  0.00     0.049 A 
ATOM     27  C   UNL A   1      46.981  30.265  27.491  1.00  0.00     0.074 A 
ATOM     28  C   UNL A   1      46.333  23.986  26.405  1.00  0.00     0.029 A 
ATOM     29  N   UNL A   1      45.937  26.125  26.878  1.00  0.00    -0.354 N 
ATOM     30  N   UNL A   1      46.733  28.993  27.274  1.00  0.00    -0.248 NA
ATOM     31  C   UNL A   1      48.399  30.629  27.388  1.00  0.00     0.031 C 
ATOM     32  C   UNL A   1      47.549  24.679  26.405  1.00  0.00     0.029 A 
ATOM     33  C   UNL A   1      47.301  26.018  26.674  1.00  0.00     0.049 A 
ATOM     34  H   UNL A   1      45.464  26.961  27.099  1.00  0.00     0.167 HD
ATOM     35  C   UNL A   1      47.960  28.404  27.003  1.00  0.00     0.074 A 
ATOM     36  C   UNL A   1      48.948  29.465  27.064  1.00  0.00     0.031 C 
ATOM     37  C   UNL A   1      48.248  27.106  26.736  1.00  0.00     0.037 A 
BRANCH  24  38
ATOM     38  C   UNL A   1      43.378  23.248  26.744  1.00  0.00     0.058 A 
ATOM     39  C   UNL A   1      43.065  22.448  27.855  1.00  0.00     0.135 A 
ATOM     40  C   UNL A   1      43.233  22.678  25.468  1.00  0.00     0.135 A 
ATOM     41  F   UNL A   1      43.214  22.931  29.099  1.00  0.00    -0.206 F 
ATOM     42  C   UNL A   1      42.682  21.118  27.709  1.00  0.00     0.059 A 
ATOM     43  C   UNL A   1      42.824  21.358  25.297  1.00  0.00     0.059 A 
ATOM     44  F   UNL A   1      43.526  23.393  24.371  1.00  0.00    -0.206 F 
ATOM     45  C   UNL A   1      42.578  20.579  26.426  1.00  0.00     0.060 A 
BRANCH  45  46
ATOM     46  S   UNL A   1      42.142  18.835  26.252  1.00  0.00     0.124 S 
ATOM     47  O   UNL A   1      42.293  18.362  27.624  1.00  0.00    -0.237 OA
ATOM     48  O   UNL A   1      40.772  18.904  25.754  1.00  0.00    -0.237 OA
ATOM     49  O   UNL A   1      43.127  18.331  25.302  1.00  0.00    -0.744 OA
ENDBRANCH  45  46
ENDBRANCH  24  38
BRANCH  25  50
ATOM     50  C   UNL A   1      46.468  32.758  28.109  1.00  0.00     0.058 A 
ATOM     51  C   UNL A   1      46.450  33.738  27.106  1.00  0.00     0.135 A 
ATOM     52  C   UNL A   1      46.889  33.152  29.391  1.00  0.00     0.135 A 
ATOM     53  F   UNL A   1      46.068  33.415  25.861  1.00  0.00    -0.206 F 
ATOM     54  C   UNL A   1      46.828  35.054  27.362  1.00  0.00     0.059 A 
ATOM     55  C   UNL A   1      47.244  34.467  29.679  1.00  0.00     0.059 A 
ATOM     56  F   UNL A   1      46.919  32.261  30.393  1.00  0.00    -0.206 F 
ATOM     57  C   UNL A   1      47.217  35.411  28.655  1.00  0.00     0.060 A 
BRANCH  57  58
ATOM     58  S   UNL A   1      47.642  37.135  28.994  1.00  0.00     0.124 S 
ATOM     59  O   UNL A   1      46.592  37.844  28.272  1.00  0.00    -0.237 OA
ATOM     60  O   UNL A   1      47.564  37.190  30.450  1.00  0.00    -0.237 OA
ATOM     61  O   UNL A   1      48.987  37.265  28.440  1.00  0.00    -0.744 OA
ENDBRANCH  57  58
ENDBRANCH  25  50
BRANCH  37  62
ATOM     62  C   UNL A   1      49.684  26.772  26.460  1.00  0.00     0.058 A 
ATOM     63  C   UNL A   1      50.550  26.356  27.481  1.00  0.00     0.135 A 
ATOM     64  C   UNL A   1      50.169  26.790  25.144  1.00  0.00     0.135 A 
ATOM     65  F   UNL A   1      50.134  26.334  28.757  1.00  0.00    -0.206 F 
ATOM     66  C   UNL A   1      51.858  25.971  27.204  1.00  0.00     0.059 A 
ATOM     67  C   UNL A   1      51.463  26.384  24.841  1.00  0.00     0.059 A 
ATOM     68  F   UNL A   1      49.372  27.174  24.134  1.00  0.00    -0.206 F 
ATOM     69  C   UNL A   1      52.301  25.981  25.880  1.00  0.00     0.060 A 
BRANCH  69  70
ATOM     70  S   UNL A   1      53.977  25.414  25.526  1.00  0.00     0.124 S 
ATOM     71  O   UNL A   1      54.459  25.073  26.860  1.00  0.00    -0.237 OA
ATOM     72  O   UNL A   1      53.742  24.287  24.628  1.00  0.00    -0.237 OA
ATOM     73  O   UNL A   1      54.605  26.578  24.907  1.00  0.00    -0.744 OA
ENDBRANCH  69  70
ENDBRANCH  37  62
ENDBRANCH  11  12
ENDBRANCH   4   6
ENDBRANCH   3   4
ENDBRANCH   2   3
ENDBRANCH   1   2
BRANCH   1  74
ATOM     74  O   UNL A   1      34.367  30.421  27.291  1.00  0.00    -0.374 OA
BRANCH  74  75
ATOM     75  C   UNL A   1      32.961  30.549  27.261  1.00  0.00     0.202 C 
BRANCH  75  76
ATOM     76  C   UNL A   1      32.453  29.930  25.963  1.00  0.00     0.261 C 
BRANCH  76  77
ATOM     77  O   UNL A   1      32.959  28.586  25.839  1.00  0.00    -0.460 OA
BRANCH  77  78
ATOM     78  C   UNL A   1      32.096  27.544  26.004  1.00  0.00     0.340 C 
ATOM     79  O   UNL A   1      31.307  27.369  26.915  1.00  0.00    -0.246 OA
BRANCH  78  80
ATOM     80  C   UNL A   1      32.186  26.698  24.785  1.00  0.00     0.085 A 
ATOM     81  C   UNL A   1      33.230  25.749  24.736  1.00  0.00     0.038 A 
ATOM     82  C   UNL A   1      31.332  26.852  23.672  1.00  0.00     0.066 A 
ATOM     83  C   UNL A   1      33.447  24.994  23.591  1.00  0.00     0.042 A 
ATOM     84  C   UNL A   1      31.561  26.056  22.534  1.00  0.00     0.029 A 
ATOM     85  Cl  UNL A   1      34.773  23.901  23.529  1.00  0.00    -0.084 Cl
ATOM     86  C   UNL A   1      32.615  25.140  22.490  1.00  0.00     0.023 A 
BRANCH  82  87
ATOM     87  N   UNL A   1      30.306  27.832  23.566  1.00  0.00    -0.249 N 
ATOM     88  C   UNL A   1      28.977  27.487  23.588  1.00  0.00     0.234 C 
ATOM     89  C   UNL A   1      30.493  28.983  22.836  1.00  0.00     0.240 C 
ATOM     90  O   UNL A   1      28.503  26.399  23.886  1.00  0.00    -0.274 OA
ATOM     91  C   UNL A   1      28.161  28.603  22.968  1.00  0.00     0.118 C 
ATOM     92  C   UNL A   1      29.173  29.720  22.725  1.00  0.00     0.059 C 
ATOM     93  O   UNL A   1      31.543  29.361  22.332  1.00  0.00    -0.273 OA
ATOM     94  C   UNL A   1      29.036  30.453  21.386  1.00  0.00     0.017 C 
ATOM     95  C   UNL A   1      29.040  30.857  23.740  1.00  0.00     0.017 C 
ATOM     96  C   UNL A   1      28.093  31.626  21.630  1.00  0.00     0.001 C 
ATOM     97  C   UNL A   1      28.024  31.822  23.140  1.00  0.00     0.001 C 
ENDBRANCH  82  87
ENDBRANCH  78  80
ENDBRANCH  77  78
ENDBRANCH  76  77
ENDBRANCH  75  76
ENDBRANCH  74  75
ENDBRANCH   1  74
TORSDOF 18
ENDMDL
MODEL 2
REMARK VINA RESULT:     -11.7      7.157     12.672
REMARK SMILES O=C(OCCOCCOC(=O)c1cc(Cl)ccc1N1C(=O)CC2(CCCC2)C1=O)c1ccc(-c2c3nc(c(-c4c(F)cc(S(=O)(=O)[O-])cc4F)c4ccc([nH]4)c(-c4c(F)cc(S(=O)(=O)[O-])cc4F)c4nc(c(-c5c(F)cc(S(=O)(=O)[O-])cc5F)c5ccc2[nH]5)C=C4)C=C3)cc1
REMARK SMILES IDX 5 1 4 2 3 3 2 4 1 5 30 6 31 7 95 8 32 9 94 10 33 11 34 12
REMARK SMILES IDX 35 13 88 14 36 15 93 16 87 17 89 18 37 19 92 20 86 21 85 22
REMARK SMILES IDX 38 24 72 25 51 26 71 27 52 28 55 29 70 30 90 31 53 32 54 33
REMARK SMILES IDX 69 35 91 36 56 37 39 38 40 39 49 40 41 41 42 42 48 43 50 44
REMARK SMILES IDX 43 45 44 46 45 47 46 48 47 49 73 50 74 51 83 52 75 53 76 54
REMARK SMILES IDX 82 55 84 56 77 57 78 58 79 59 80 60 81 61 57 62 58 63 67 64
REMARK SMILES IDX 59 65 60 66 66 67 68 68 61 69 62 70 63 71 64 72 65 73 6 74
REMARK SMILES IDX 7 75 8 76 9 77 10 78 11 79 12 80 13 81 18 82 14 83 17 84
REMARK SMILES IDX 15 85 16 86 19 87 20 88 28 89 21 90 22 91 23 92 29 93 24 94
REMARK SMILES IDX 27 95 25 96 26 97
REMARK H PARENT 89 23 55 34
REMARK Flexibility Score: inf
ROOT
ATOM      1  C   UNL A   1      40.312  22.165  26.961  1.00  0.00     0.202 C 
ENDROOT
BRANCH   1   2
ATOM      2  C   UNL A   1      41.226  23.359  26.701  1.00  0.00     0.261 C 
BRANCH   2   3
ATOM      3  O   UNL A   1      40.495  24.458  26.139  1.00  0.00    -0.460 OA
BRANCH   3   4
ATOM      4  C   UNL A   1      40.846  25.756  26.325  1.00  0.00     0.338 C 
ATOM      5  O   UNL A   1      41.175  26.435  25.355  1.00  0.00    -0.246 OA
BRANCH   4   6
ATOM      6  C   UNL A   1      40.861  26.392  27.679  1.00  0.00     0.060 A 
ATOM      7  C   UNL A   1      41.734  27.417  28.043  1.00  0.00     0.016 A 
ATOM      8  C   UNL A   1      39.850  26.053  28.583  1.00  0.00     0.016 A 
ATOM      9  C   UNL A   1      41.653  28.069  29.262  1.00  0.00     0.010 A 
ATOM     10  C   UNL A   1      39.689  26.781  29.770  1.00  0.00     0.010 A 
ATOM     11  C   UNL A   1      40.576  27.817  30.099  1.00  0.00    -0.014 A 
BRANCH  11  12
ATOM     12  C   UNL A   1      40.375  28.684  31.279  1.00  0.00     0.031 A 
ATOM     13  C   UNL A   1      39.310  29.730  31.237  1.00  0.00     0.074 A 
ATOM     14  C   UNL A   1      41.140  28.506  32.376  1.00  0.00     0.049 A 
ATOM     15  N   UNL A   1      39.094  30.719  32.058  1.00  0.00    -0.248 NA
ATOM     16  C   UNL A   1      38.371  29.660  30.107  1.00  0.00     0.031 C 
ATOM     17  C   UNL A   1      42.153  27.455  32.544  1.00  0.00     0.029 A 
ATOM     18  N   UNL A   1      41.191  29.194  33.562  1.00  0.00    -0.354 N 
ATOM     19  C   UNL A   1      38.035  31.430  31.511  1.00  0.00     0.074 A 
ATOM     20  C   UNL A   1      37.646  30.751  30.295  1.00  0.00     0.031 C 
ATOM     21  C   UNL A   1      42.703  27.554  33.763  1.00  0.00     0.029 A 
ATOM     22  C   UNL A   1      42.164  28.735  34.422  1.00  0.00     0.049 A 
ATOM     23  H   UNL A   1      40.591  29.943  33.777  1.00  0.00     0.167 HD
ATOM     24  C   UNL A   1      37.463  32.561  31.984  1.00  0.00     0.037 A 
ATOM     25  C   UNL A   1      42.618  29.249  35.582  1.00  0.00     0.037 A 
ATOM     26  C   UNL A   1      37.880  33.200  33.204  1.00  0.00     0.049 A 
ATOM     27  C   UNL A   1      41.999  30.530  36.065  1.00  0.00     0.074 A 
ATOM     28  C   UNL A   1      37.409  34.367  33.775  1.00  0.00     0.029 A 
ATOM     29  N   UNL A   1      38.876  32.713  34.044  1.00  0.00    -0.354 N 
ATOM     30  N   UNL A   1      41.038  31.236  35.513  1.00  0.00    -0.248 NA
ATOM     31  C   UNL A   1      42.532  31.102  37.307  1.00  0.00     0.031 C 
ATOM     32  C   UNL A   1      38.152  34.608  34.938  1.00  0.00     0.029 A 
ATOM     33  C   UNL A   1      39.048  33.564  35.121  1.00  0.00     0.049 A 
ATOM     34  H   UNL A   1      39.386  31.883  33.894  1.00  0.00     0.167 HD
ATOM     35  C   UNL A   1      40.846  32.334  36.341  1.00  0.00     0.074 A 
ATOM     36  C   UNL A   1      41.778  32.186  37.443  1.00  0.00     0.031 C 
ATOM     37  C   UNL A   1      39.985  33.372  36.202  1.00  0.00     0.037 A 
BRANCH  24  38
ATOM     38  C   UNL A   1      36.406  33.197  31.126  1.00  0.00     0.058 A 
ATOM     39  C   UNL A   1      36.713  33.859  29.926  1.00  0.00     0.135 A 
ATOM     40  C   UNL A   1      35.068  33.205  31.553  1.00  0.00     0.135 A 
ATOM     41  F   UNL A   1      37.981  33.908  29.487  1.00  0.00    -0.206 F 
ATOM     42  C   UNL A   1      35.742  34.550  29.208  1.00  0.00     0.059 A 
ATOM     43  C   UNL A   1      34.075  33.866  30.835  1.00  0.00     0.059 A 
ATOM     44  F   UNL A   1      34.718  32.596  32.696  1.00  0.00    -0.206 F 
ATOM     45  C   UNL A   1      34.428  34.559  29.679  1.00  0.00     0.060 A 
BRANCH  45  46
ATOM     46  S   UNL A   1      33.191  35.513  28.774  1.00  0.00     0.124 S 
ATOM     47  O   UNL A   1      32.530  34.467  28.000  1.00  0.00    -0.237 OA
ATOM     48  O   UNL A   1      32.398  36.098  29.850  1.00  0.00    -0.237 OA
ATOM     49  O   UNL A   1      33.988  36.458  28.000  1.00  0.00    -0.744 OA
ENDBRANCH  45  46
ENDBRANCH  24  38
BRANCH  25  50
ATOM     50  C   UNL A   1      43.745  28.592  36.303  1.00  0.00     0.058 A 
ATOM     51  C   UNL A   1      43.543  27.454  37.096  1.00  0.00     0.135 A 
ATOM     52  C   UNL A   1      45.062  29.068  36.178  1.00  0.00     0.135 A 
ATOM     53  F   UNL A   1      42.305  26.962  37.261  1.00  0.00    -0.206 F 
ATOM     54  C   UNL A   1      44.600  26.811  37.736  1.00  0.00     0.059 A 
ATOM     55  C   UNL A   1      46.139  28.426  36.783  1.00  0.00     0.059 A 
ATOM     56  F   UNL A   1      45.318  30.148  35.424  1.00  0.00    -0.206 F 
ATOM     57  C   UNL A   1      45.897  27.300  37.567  1.00  0.00     0.060 A 
BRANCH  57  58
ATOM     58  S   UNL A   1      47.271  26.421  38.345  1.00  0.00     0.124 S 
ATOM     59  O   UNL A   1      46.843  26.380  39.739  1.00  0.00    -0.237 OA
ATOM     60  O   UNL A   1      47.259  25.144  37.638  1.00  0.00    -0.237 OA
ATOM     61  O   UNL A   1      48.421  27.274  38.062  1.00  0.00    -0.744 OA
ENDBRANCH  57  58
ENDBRANCH  25  50
BRANCH  37  62
ATOM     62  C   UNL A   1      39.994  34.410  37.285  1.00  0.00     0.058 A 
ATOM     63  C   UNL A   1      40.854  35.517  37.235  1.00  0.00     0.135 A 
ATOM     64  C   UNL A   1      39.069  34.336  38.338  1.00  0.00     0.135 A 
ATOM     65  F   UNL A   1      41.763  35.625  36.253  1.00  0.00    -0.206 F 
ATOM     66  C   UNL A   1      40.800  36.516  38.200  1.00  0.00     0.059 A 
ATOM     67  C   UNL A   1      38.980  35.335  39.298  1.00  0.00     0.059 A 
ATOM     68  F   UNL A   1      38.221  33.298  38.421  1.00  0.00    -0.206 F 
ATOM     69  C   UNL A   1      39.853  36.420  39.223  1.00  0.00     0.060 A 
BRANCH  69  70
ATOM     70  S   UNL A   1      39.746  37.757  40.430  1.00  0.00     0.124 S 
ATOM     71  O   UNL A   1      38.780  38.646  39.796  1.00  0.00    -0.237 OA
ATOM     72  O   UNL A   1      39.280  37.061  41.626  1.00  0.00    -0.237 OA
ATOM     73  O   UNL A   1      41.115  38.260  40.500  1.00  0.00    -0.744 OA
ENDBRANCH  69  70
ENDBRANCH  37  62
ENDBRANCH  11  12
ENDBRANCH   4   6
ENDBRANCH   3   4
ENDBRANCH   2   3
ENDBRANCH   1   2
BRANCH   1  74
ATOM     74  O   UNL A   1      39.806  21.584  25.773  1.00  0.00    -0.374 OA
BRANCH  74  75
ATOM     75  C   UNL A   1      38.426  21.286  25.751  1.00  0.00     0.202 C 
BRANCH  75  76
ATOM     76  C   UNL A   1      37.679  22.516  25.244  1.00  0.00     0.261 C 
BRANCH  76  77
ATOM     77  O   UNL A   1      36.329  22.151  24.896  1.00  0.00    -0.460 OA
BRANCH  77  78
ATOM     78  C   UNL A   1      35.703  22.834  23.896  1.00  0.00     0.340 C 
ATOM     79  O   UNL A   1      36.073  22.972  22.745  1.00  0.00    -0.246 OA
BRANCH  78  80
ATOM     80  C   UNL A   1      34.389  23.286  24.424  1.00  0.00     0.085 A 
ATOM     81  C   UNL A   1      34.298  24.625  24.863  1.00  0.00     0.038 A 
ATOM     82  C   UNL A   1      33.277  22.429  24.567  1.00  0.00     0.066 A 
ATOM     83  C   UNL A   1      33.138  25.094  25.467  1.00  0.00     0.042 A 
ATOM     84  C   UNL A   1      32.107  22.939  25.161  1.00  0.00     0.029 A 
ATOM     85  Cl  UNL A   1      33.080  26.706  26.062  1.00  0.00    -0.084 Cl
ATOM     86  C   UNL A   1      32.040  24.259  25.615  1.00  0.00     0.023 A 
BRANCH  82  87
ATOM     87  N   UNL A   1      33.275  21.042  24.249  1.00  0.00    -0.249 N 
ATOM     88  C   UNL A   1      32.532  20.544  23.207  1.00  0.00     0.234 C 
ATOM     89  C   UNL A   1      33.435  20.087  25.226  1.00  0.00     0.240 C 
ATOM     90  O   UNL A   1      31.967  21.187  22.333  1.00  0.00    -0.274 OA
ATOM     91  C   UNL A   1      32.319  19.058  23.410  1.00  0.00     0.118 C 
ATOM     92  C   UNL A   1      33.173  18.718  24.629  1.00  0.00     0.059 C 
ATOM     93  O   UNL A   1      33.724  20.288  26.400  1.00  0.00    -0.273 OA
ATOM     94  C   UNL A   1      32.527  17.765  25.641  1.00  0.00     0.017 C 
ATOM     95  C   UNL A   1      34.459  17.979  24.251  1.00  0.00     0.017 C 
ATOM     96  C   UNL A   1      32.919  16.354  25.216  1.00  0.00     0.001 C 
ATOM     97  C   UNL A   1      34.093  16.499  24.255  1.00  0.00     0.001 C 
ENDBRANCH  82  87
ENDBRANCH  78  80
ENDBRANCH  77  78
ENDBRANCH  76  77
ENDBRANCH  75  76
ENDBRANCH  74  75
ENDBRANCH   1  74
TORSDOF 18
ENDMDL
MODEL 3
REMARK VINA RESULT:     -11.6      6.892     12.059
REMARK SMILES O=C(OCCOCCOC(=O)c1cc(Cl)ccc1N1C(=O)CC2(CCCC2)C1=O)c1ccc(-c2c3nc(c(-c4c(F)cc(S(=O)(=O)[O-])cc4F)c4ccc([nH]4)c(-c4c(F)cc(S(=O)(=O)[O-])cc4F)c4nc(c(-c5c(F)cc(S(=O)(=O)[O-])cc5F)c5ccc2[nH]5)C=C4)C=C3)cc1
REMARK SMILES IDX 5 1 4 2 3 3 2 4 1 5 30 6 31 7 95 8 32 9 94 10 33 11 34 12
REMARK SMILES IDX 35 13 88 14 36 15 93 16 87 17 89 18 37 19 92 20 86 21 85 22
REMARK SMILES IDX 38 24 72 25 51 26 71 27 52 28 55 29 70 30 90 31 53 32 54 33
REMARK SMILES IDX 69 35 91 36 56 37 39 38 40 39 49 40 41 41 42 42 48 43 50 44
REMARK SMILES IDX 43 45 44 46 45 47 46 48 47 49 73 50 74 51 83 52 75 53 76 54
REMARK SMILES IDX 82 55 84 56 77 57 78 58 79 59 80 60 81 61 57 62 58 63 67 64
REMARK SMILES IDX 59 65 60 66 66 67 68 68 61 69 62 70 63 71 64 72 65 73 6 74
REMARK SMILES IDX 7 75 8 76 9 77 10 78 11 79 12 80 13 81 18 82 14 83 17 84
REMARK SMILES IDX 15 85 16 86 19 87 20 88 28 89 21 90 22 91 23 92 29 93 24 94
REMARK SMILES IDX 27 95 25 96 26 97
REMARK H PARENT 89 23 55 34
REMARK Flexibility Score: inf
ROOT
ATOM      1  C   UNL A   1      40.306  21.790  26.454  1.00  0.00     0.202 C 
ENDROOT
BRANCH   1   2
ATOM      2  C   UNL A   1      41.279  22.715  27.179  1.00  0.00     0.261 C 
BRANCH   2   3
ATOM      3  O   UNL A   1      41.768  23.742  26.306  1.00  0.00    -0.460 OA
BRANCH   3   4
ATOM      4  C   UNL A   1      41.321  25.023  26.342  1.00  0.00     0.338 C 
ATOM      5  O   UNL A   1      40.878  25.536  25.318  1.00  0.00    -0.246 OA
BRANCH   4   6
ATOM      6  C   UNL A   1      41.364  25.847  27.591  1.00  0.00     0.060 A 
ATOM      7  C   UNL A   1      42.376  26.760  27.882  1.00  0.00     0.016 A 
ATOM      8  C   UNL A   1      40.256  25.817  28.443  1.00  0.00     0.016 A 
ATOM      9  C   UNL A   1      42.335  27.594  28.987  1.00  0.00     0.010 A 
ATOM     10  C   UNL A   1      40.151  26.732  29.499  1.00  0.00     0.010 A 
ATOM     11  C   UNL A   1      41.182  27.650  29.755  1.00  0.00    -0.014 A 
BRANCH  11  12
ATOM     12  C   UNL A   1      41.061  28.707  30.781  1.00  0.00     0.031 A 
ATOM     13  C   UNL A   1      42.000  28.702  31.941  1.00  0.00     0.074 A 
ATOM     14  C   UNL A   1      40.121  29.665  30.643  1.00  0.00     0.049 A 
ATOM     15  N   UNL A   1      41.951  29.395  33.044  1.00  0.00    -0.248 NA
ATOM     16  C   UNL A   1      43.142  27.779  31.853  1.00  0.00     0.031 C 
ATOM     17  C   UNL A   1      39.209  29.803  29.500  1.00  0.00     0.029 A 
ATOM     18  N   UNL A   1      39.772  30.711  31.460  1.00  0.00    -0.354 N 
ATOM     19  C   UNL A   1      43.017  28.947  33.812  1.00  0.00     0.074 A 
ATOM     20  C   UNL A   1      43.700  27.930  33.043  1.00  0.00     0.031 C 
ATOM     21  C   UNL A   1      38.427  30.878  29.678  1.00  0.00     0.029 A 
ATOM     22  C   UNL A   1      38.704  31.442  30.990  1.00  0.00     0.049 A 
ATOM     23  H   UNL A   1      40.239  30.916  32.302  1.00  0.00     0.167 HD
ATOM     24  C   UNL A   1      43.367  29.343  35.057  1.00  0.00     0.037 A 
ATOM     25  C   UNL A   1      37.985  32.416  31.582  1.00  0.00     0.037 A 
ATOM     26  C   UNL A   1      42.659  30.364  35.783  1.00  0.00     0.049 A 
ATOM     27  C   UNL A   1      38.363  32.809  32.982  1.00  0.00     0.074 A 
ATOM     28  C   UNL A   1      42.887  30.833  37.063  1.00  0.00     0.029 A 
ATOM     29  N   UNL A   1      41.575  31.076  35.281  1.00  0.00    -0.354 N 
ATOM     30  N   UNL A   1      39.334  32.339  33.732  1.00  0.00    -0.248 NA
ATOM     31  C   UNL A   1      37.545  33.840  33.630  1.00  0.00     0.031 C 
ATOM     32  C   UNL A   1      41.914  31.798  37.349  1.00  0.00     0.029 A 
ATOM     33  C   UNL A   1      41.112  31.970  36.229  1.00  0.00     0.049 A 
ATOM     34  H   UNL A   1      41.192  30.961  34.380  1.00  0.00     0.167 HD
ATOM     35  C   UNL A   1      39.249  33.019  34.939  1.00  0.00     0.074 A 
ATOM     36  C   UNL A   1      38.142  33.949  34.811  1.00  0.00     0.031 C 
ATOM     37  C   UNL A   1      40.009  32.885  36.054  1.00  0.00     0.037 A 
BRANCH  24  38
ATOM     38  C   UNL A   1      44.498  28.602  35.712  1.00  0.00     0.058 A 
ATOM     39  C   UNL A   1      44.285  27.483  36.533  1.00  0.00     0.135 A 
ATOM     40  C   UNL A   1      45.816  29.068  35.571  1.00  0.00     0.135 A 
ATOM     41  F   UNL A   1      43.041  27.014  36.727  1.00  0.00    -0.206 F 
ATOM     42  C   UNL A   1      45.328  26.885  37.232  1.00  0.00     0.059 A 
ATOM     43  C   UNL A   1      46.879  28.467  36.239  1.00  0.00     0.059 A 
ATOM     44  F   UNL A   1      46.077  30.139  34.806  1.00  0.00    -0.206 F 
ATOM     45  C   UNL A   1      46.621  27.394  37.089  1.00  0.00     0.060 A 
BRANCH  45  46
ATOM     46  S   UNL A   1      47.955  26.650  38.051  1.00  0.00     0.124 S 
ATOM     47  O   UNL A   1      48.001  27.533  39.213  1.00  0.00    -0.237 OA
ATOM     48  O   UNL A   1      47.449  25.305  38.300  1.00  0.00    -0.237 OA
ATOM     49  O   UNL A   1      49.105  26.730  37.157  1.00  0.00    -0.744 OA
ENDBRANCH  45  46
ENDBRANCH  24  38
BRANCH  25  50
ATOM     50  C   UNL A   1      36.814  33.015  30.881  1.00  0.00     0.058 A 
ATOM     51  C   UNL A   1      35.499  32.711  31.260  1.00  0.00     0.135 A 
ATOM     52  C   UNL A   1      36.987  33.942  29.838  1.00  0.00     0.135 A 
ATOM     53  F   UNL A   1      35.272  31.825  32.242  1.00  0.00    -0.206 F 
ATOM     54  C   UNL A   1      34.402  33.302  30.637  1.00  0.00     0.059 A 
ATOM     55  C   UNL A   1      35.909  34.568  29.219  1.00  0.00     0.059 A 
ATOM     56  F   UNL A   1      38.223  34.279  29.437  1.00  0.00    -0.206 F 
ATOM     57  C   UNL A   1      34.617  34.236  29.622  1.00  0.00     0.060 A 
BRANCH  57  58
ATOM     58  S   UNL A   1      33.191  35.048  28.865  1.00  0.00     0.124 S 
ATOM     59  O   UNL A   1      32.723  34.020  27.941  1.00  0.00    -0.237 OA
ATOM     60  O   UNL A   1      32.336  35.305  30.018  1.00  0.00    -0.237 OA
ATOM     61  O   UNL A   1      33.769  36.237  28.246  1.00  0.00    -0.744 OA
ENDBRANCH  57  58
ENDBRANCH  25  50
BRANCH  37  62
ATOM     62  C   UNL A   1      39.685  33.786  37.209  1.00  0.00     0.058 A 
ATOM     63  C   UNL A   1      38.822  33.380  38.237  1.00  0.00     0.135 A 
ATOM     64  C   UNL A   1      40.314  35.034  37.324  1.00  0.00     0.135 A 
ATOM     65  F   UNL A   1      38.188  32.199  38.164  1.00  0.00    -0.206 F 
ATOM     66  C   UNL A   1      38.590  34.189  39.344  1.00  0.00     0.059 A 
ATOM     67  C   UNL A   1      40.118  35.847  38.433  1.00  0.00     0.059 A 
ATOM     68  F   UNL A   1      41.154  35.460  36.367  1.00  0.00    -0.206 F 
ATOM     69  C   UNL A   1      39.249  35.417  39.436  1.00  0.00     0.060 A 
BRANCH  69  70
ATOM     70  S   UNL A   1      38.993  36.427  40.910  1.00  0.00     0.124 S 
ATOM     71  O   UNL A   1      40.323  36.411  41.509  1.00  0.00    -0.237 OA
ATOM     72  O   UNL A   1      38.567  37.703  40.344  1.00  0.00    -0.237 OA
ATOM     73  O   UNL A   1      37.962  35.699  41.644  1.00  0.00    -0.744 OA
ENDBRANCH  69  70
ENDBRANCH  37  62
ENDBRANCH  11  12
ENDBRANCH   4   6
ENDBRANCH   3   4
ENDBRANCH   2   3
ENDBRANCH   1   2
BRANCH   1  74
ATOM     74  O   UNL A   1      39.062  22.407  26.169  1.00  0.00    -0.374 OA
BRANCH  74  75
ATOM     75  C   UNL A   1      38.153  21.666  25.383  1.00  0.00     0.202 C 
BRANCH  75  76
ATOM     76  C   UNL A   1      36.750  22.209  25.635  1.00  0.00     0.261 C 
BRANCH  76  77
ATOM     77  O   UNL A   1      36.566  23.431  24.894  1.00  0.00    -0.460 OA
BRANCH  77  78
ATOM     78  C   UNL A   1      35.592  23.478  23.941  1.00  0.00     0.340 C 
ATOM     79  O   UNL A   1      35.686  23.171  22.767  1.00  0.00    -0.246 OA
BRANCH  78  80
ATOM     80  C   UNL A   1      34.324  23.850  24.621  1.00  0.00     0.085 A 
ATOM     81  C   UNL A   1      34.216  25.173  25.101  1.00  0.00     0.038 A 
ATOM     82  C   UNL A   1      33.279  22.933  24.864  1.00  0.00     0.066 A 
ATOM     83  C   UNL A   1      33.109  25.570  25.840  1.00  0.00     0.042 A 
ATOM     84  C   UNL A   1      32.158  23.371  25.596  1.00  0.00     0.029 A 
ATOM     85  Cl  UNL A   1      33.038  27.166  26.477  1.00  0.00    -0.084 Cl
ATOM     86  C   UNL A   1      32.077  24.677  26.087  1.00  0.00     0.023 A 
BRANCH  82  87
ATOM     87  N   UNL A   1      33.311  21.555  24.514  1.00  0.00    -0.249 N 
ATOM     88  C   UNL A   1      32.592  21.067  23.451  1.00  0.00     0.234 C 
ATOM     89  C   UNL A   1      33.477  20.580  25.470  1.00  0.00     0.240 C 
ATOM     90  O   UNL A   1      32.025  21.718  22.584  1.00  0.00    -0.274 OA
ATOM     91  C   UNL A   1      32.408  19.572  23.616  1.00  0.00     0.118 C 
ATOM     92  C   UNL A   1      33.252  19.221  24.838  1.00  0.00     0.059 C 
ATOM     93  O   UNL A   1      33.746  20.760  26.652  1.00  0.00    -0.273 OA
ATOM     94  C   UNL A   1      32.613  18.231  25.818  1.00  0.00     0.017 C 
ATOM     95  C   UNL A   1      34.558  18.518  24.461  1.00  0.00     0.017 C 
ATOM     96  C   UNL A   1      33.041  16.839  25.366  1.00  0.00     0.001 C 
ATOM     97  C   UNL A   1      34.223  17.031  24.425  1.00  0.00     0.001 C 
ENDBRANCH  82  87
ENDBRANCH  78  80
ENDBRANCH  77  78
ENDBRANCH  76  77
ENDBRANCH  75  76
ENDBRANCH  74  75
ENDBRANCH   1  74
TORSDOF 18
ENDMDL
