MODEL 1
REMARK VINA RESULT:     -10.3      0.000      0.000
REMARK SMILES CN(CC(N)=O)S(=O)(=O)c1ccc(C(=O)OCCOCCOC(=O)c2ccc(-c3c4nc(c(-c5c(F)cc(S(=O)(=O)[O-])cc5F)c5ccc([nH]5)c(-c5c(F)cc(S(=O)(=O)[O-])cc5F)c5nc(c(-c6c(F)cc(S(=O)(=O)[O-])cc6F)c6ccc3[nH]6)C=C5)C=C4)cc2)cc1Br
REMARK SMILES IDX 18 1 17 2 16 3 14 4 15 5 13 6 10 7 11 8 92 9 12 10 91 11
REMARK SMILES IDX 93 12 7 13 8 14 9 15 2 16 1 17 3 18 4 19 5 20 6 21 19 24
REMARK SMILES IDX 20 25 21 26 22 27 23 28 24 29 25 30 26 31 90 32 27 33 89 34
REMARK SMILES IDX 28 35 29 36 30 37 83 38 31 39 88 40 82 41 84 42 32 43 87 44
REMARK SMILES IDX 81 45 80 46 33 48 67 49 46 50 66 51 47 52 50 53 65 54 85 55
REMARK SMILES IDX 48 56 49 57 64 59 86 60 51 61 34 62 35 63 44 64 36 65 37 66
REMARK SMILES IDX 43 67 45 68 38 69 39 70 40 71 41 72 42 73 68 74 69 75 78 76
REMARK SMILES IDX 70 77 71 78 77 79 79 80 72 81 73 82 74 83 75 84 76 85 52 86
REMARK SMILES IDX 53 87 62 88 54 89 55 90 61 91 63 92 56 93 57 94 58 95 59 96
REMARK SMILES IDX 60 97
REMARK H PARENT 5 22 5 23 84 47 50 58
REMARK Flexibility Score: inf
ROOT
ATOM      1  C   UNL A   1      41.124  21.201  26.537  1.00  0.00     0.202 C 
ENDROOT
BRANCH   1   2
ATOM      2  C   UNL A   1      39.666  21.620  26.747  1.00  0.00     0.261 C 
BRANCH   2   3
ATOM      3  O   UNL A   1      39.016  21.815  25.481  1.00  0.00    -0.460 OA
BRANCH   3   4
ATOM      4  C   UNL A   1      38.203  20.809  25.089  1.00  0.00     0.338 C 
ATOM      5  O   UNL A   1      38.433  19.612  25.127  1.00  0.00    -0.246 OA
BRANCH   4   6
ATOM      6  C   UNL A   1      36.873  21.345  24.723  1.00  0.00     0.061 A 
ATOM      7  C   UNL A   1      34.420  22.529  24.087  1.00  0.00     0.096 A 
ATOM      8  C   UNL A   1      35.626  23.163  23.741  1.00  0.00     0.024 A 
ATOM      9  C   UNL A   1      34.443  21.251  24.658  1.00  0.00     0.038 A 
ATOM     10  C   UNL A   1      36.843  22.582  24.075  1.00  0.00     0.017 A 
ATOM     11  C   UNL A   1      35.677  20.662  24.979  1.00  0.00     0.032 A 
ATOM     12  Br  UNL A   1      32.909  20.187  24.989  1.00  0.00    -0.049 Br
BRANCH   7  13
ATOM     13  S   UNL A   1      32.939  23.487  23.872  1.00  0.00     0.244 S 
ATOM     14  O   UNL A   1      31.774  22.642  23.970  1.00  0.00    -0.207 OA
ATOM     15  O   UNL A   1      33.164  24.343  22.725  1.00  0.00    -0.207 OA
BRANCH  13  16
ATOM     16  N   UNL A   1      32.921  24.492  25.270  1.00  0.00    -0.192 NA
ATOM     17  C   UNL A   1      33.257  25.904  24.951  1.00  0.00     0.125 C 
BRANCH  16  18
ATOM     18  C   UNL A   1      31.719  24.402  26.149  1.00  0.00     0.201 C 
BRANCH  18  19
ATOM     19  C   UNL A   1      31.565  23.142  26.976  1.00  0.00     0.232 C 
ATOM     20  N   UNL A   1      30.434  22.412  26.750  1.00  0.00    -0.369 N 
ATOM     21  O   UNL A   1      32.408  22.773  27.790  1.00  0.00    -0.274 OA
ATOM     22  H   UNL A   1      29.770  22.724  26.093  1.00  0.00     0.159 HD
ATOM     23  H   UNL A   1      30.282  21.573  27.241  1.00  0.00     0.159 HD
ENDBRANCH  18  19
ENDBRANCH  16  18
ENDBRANCH  13  16
ENDBRANCH   7  13
ENDBRANCH   4   6
ENDBRANCH   3   4
ENDBRANCH   2   3
ENDBRANCH   1   2
BRANCH   1  24
ATOM     24  O   UNL A   1      41.754  21.783  25.393  1.00  0.00    -0.374 OA
BRANCH  24  25
ATOM     25  C   UNL A   1      42.948  22.530  25.639  1.00  0.00     0.202 C 
BRANCH  25  26
ATOM     26  C   UNL A   1      42.794  23.722  26.591  1.00  0.00     0.261 C 
BRANCH  26  27
ATOM     27  O   UNL A   1      41.677  24.548  26.218  1.00  0.00    -0.460 OA
BRANCH  27  28
ATOM     28  C   UNL A   1      41.975  25.849  25.979  1.00  0.00     0.338 C 
ATOM     29  O   UNL A   1      42.354  26.335  24.927  1.00  0.00    -0.246 OA
BRANCH  28  30
ATOM     30  C   UNL A   1      41.590  26.664  27.147  1.00  0.00     0.060 A 
ATOM     31  C   UNL A   1      42.288  27.860  27.361  1.00  0.00     0.016 A 
ATOM     32  C   UNL A   1      40.587  26.263  28.034  1.00  0.00     0.016 A 
ATOM     33  C   UNL A   1      42.003  28.647  28.476  1.00  0.00     0.010 A 
ATOM     34  C   UNL A   1      40.311  27.048  29.158  1.00  0.00     0.010 A 
ATOM     35  C   UNL A   1      41.029  28.235  29.394  1.00  0.00    -0.014 A 
BRANCH  35  36
ATOM     36  C   UNL A   1      40.813  29.006  30.642  1.00  0.00     0.031 A 
ATOM     37  C   UNL A   1      39.733  30.050  30.689  1.00  0.00     0.074 A 
ATOM     38  C   UNL A   1      41.576  28.771  31.725  1.00  0.00     0.049 A 
ATOM     39  N   UNL A   1      39.419  30.870  31.658  1.00  0.00    -0.248 NA
ATOM     40  C   UNL A   1      38.898  30.188  29.486  1.00  0.00     0.031 C 
ATOM     41  C   UNL A   1      42.631  27.763  31.809  1.00  0.00     0.029 A 
ATOM     42  N   UNL A   1      41.589  29.375  32.956  1.00  0.00    -0.354 N 
ATOM     43  C   UNL A   1      38.352  31.624  31.184  1.00  0.00     0.074 A 
ATOM     44  C   UNL A   1      38.088  31.179  29.832  1.00  0.00     0.031 C 
ATOM     45  C   UNL A   1      43.202  27.830  33.024  1.00  0.00     0.029 A 
ATOM     46  C   UNL A   1      42.575  28.906  33.789  1.00  0.00     0.049 A 
ATOM     47  H   UNL A   1      40.951  30.078  33.219  1.00  0.00     0.167 HD
ATOM     48  C   UNL A   1      37.652  32.594  31.822  1.00  0.00     0.037 A 
ATOM     49  C   UNL A   1      42.950  29.317  35.017  1.00  0.00     0.037 A 
ATOM     50  C   UNL A   1      37.923  33.036  33.166  1.00  0.00     0.049 A 
ATOM     51  C   UNL A   1      42.210  30.451  35.675  1.00  0.00     0.074 A 
ATOM     52  C   UNL A   1      37.251  33.991  33.909  1.00  0.00     0.029 A 
ATOM     53  N   UNL A   1      38.955  32.564  33.964  1.00  0.00    -0.354 N 
ATOM     54  N   UNL A   1      41.183  31.134  35.228  1.00  0.00    -0.248 NA
ATOM     55  C   UNL A   1      42.680  30.872  37.002  1.00  0.00     0.031 C 
ATOM     56  C   UNL A   1      37.906  34.131  35.138  1.00  0.00     0.029 A 
ATOM     57  C   UNL A   1      38.959  33.231  35.178  1.00  0.00     0.049 A 
ATOM     58  H   UNL A   1      39.592  31.859  33.704  1.00  0.00     0.167 HD
ATOM     59  C   UNL A   1      40.877  32.056  36.223  1.00  0.00     0.074 A 
ATOM     60  C   UNL A   1      41.816  31.831  37.304  1.00  0.00     0.031 C 
ATOM     61  C   UNL A   1      39.905  33.003  36.241  1.00  0.00     0.037 A 
BRANCH  48  62
ATOM     62  C   UNL A   1      36.540  33.260  31.065  1.00  0.00     0.058 A 
ATOM     63  C   UNL A   1      35.191  33.037  31.387  1.00  0.00     0.135 A 
ATOM     64  C   UNL A   1      36.826  34.163  30.028  1.00  0.00     0.135 A 
ATOM     65  F   UNL A   1      34.864  32.172  32.359  1.00  0.00    -0.206 F 
ATOM     66  C   UNL A   1      34.165  33.669  30.692  1.00  0.00     0.059 A 
ATOM     67  C   UNL A   1      35.815  34.822  29.334  1.00  0.00     0.059 A 
ATOM     68  F   UNL A   1      38.098  34.409  29.678  1.00  0.00    -0.206 F 
ATOM     69  C   UNL A   1      34.487  34.558  29.665  1.00  0.00     0.060 A 
BRANCH  69  70
ATOM     70  S   UNL A   1      33.144  35.374  28.775  1.00  0.00     0.124 S 
ATOM     71  O   UNL A   1      32.362  35.928  29.876  1.00  0.00    -0.237 OA
ATOM     72  O   UNL A   1      33.857  36.345  27.953  1.00  0.00    -0.237 OA
ATOM     73  O   UNL A   1      32.510  34.282  28.043  1.00  0.00    -0.744 OA
ENDBRANCH  69  70
ENDBRANCH  48  62
BRANCH  49  74
ATOM     74  C   UNL A   1      44.104  28.670  35.693  1.00  0.00     0.058 A 
ATOM     75  C   UNL A   1      43.920  27.587  36.564  1.00  0.00     0.135 A 
ATOM     76  C   UNL A   1      45.417  29.120  35.475  1.00  0.00     0.135 A 
ATOM     77  F   UNL A   1      42.684  27.130  36.814  1.00  0.00    -0.206 F 
ATOM     78  C   UNL A   1      44.995  26.974  37.200  1.00  0.00     0.059 A 
ATOM     79  C   UNL A   1      46.509  28.509  36.081  1.00  0.00     0.059 A 
ATOM     80  F   UNL A   1      45.646  30.148  34.643  1.00  0.00    -0.206 F 
ATOM     81  C   UNL A   1      46.288  27.440  36.948  1.00  0.00     0.060 A 
BRANCH  81  82
ATOM     82  S   UNL A   1      47.682  26.598  37.726  1.00  0.00     0.124 S 
ATOM     83  O   UNL A   1      48.342  25.995  36.573  1.00  0.00    -0.237 OA
ATOM     84  O   UNL A   1      48.392  27.702  38.363  1.00  0.00    -0.237 OA
ATOM     85  O   UNL A   1      47.038  25.665  38.647  1.00  0.00    -0.744 OA
ENDBRANCH  81  82
ENDBRANCH  49  74
BRANCH  61  86
ATOM     86  C   UNL A   1      39.801  33.863  37.470  1.00  0.00     0.058 A 
ATOM     87  C   UNL A   1      40.472  35.091  37.566  1.00  0.00     0.135 A 
ATOM     88  C   UNL A   1      38.983  33.477  38.546  1.00  0.00     0.135 A 
ATOM     89  F   UNL A   1      41.273  35.502  36.569  1.00  0.00    -0.206 F 
ATOM     90  C   UNL A   1      40.353  35.899  38.692  1.00  0.00     0.059 A 
ATOM     91  C   UNL A   1      38.830  34.281  39.671  1.00  0.00     0.059 A 
ATOM     92  F   UNL A   1      38.312  32.315  38.501  1.00  0.00    -0.206 F 
ATOM     93  C   UNL A   1      39.529  35.486  39.739  1.00  0.00     0.060 A 
BRANCH  93  94
ATOM     94  S   UNL A   1      39.355  36.558  41.183  1.00  0.00     0.124 S 
ATOM     95  O   UNL A   1      38.855  37.788  40.576  1.00  0.00    -0.237 OA
ATOM     96  O   UNL A   1      38.399  35.824  42.006  1.00  0.00    -0.237 OA
ATOM     97  O   UNL A   1      40.711  36.628  41.719  1.00  0.00    -0.744 OA
ENDBRANCH  93  94
ENDBRANCH  61  86
ENDBRANCH  35  36
ENDBRANCH  28  30
ENDBRANCH  27  28
ENDBRANCH  26  27
ENDBRANCH  25  26
ENDBRANCH  24  25
ENDBRANCH   1  24
TORSDOF 21
ENDMDL
MODEL 2
REMARK VINA RESULT:     -10.3      1.258      8.289
REMARK SMILES CN(CC(N)=O)S(=O)(=O)c1ccc(C(=O)OCCOCCOC(=O)c2ccc(-c3c4nc(c(-c5c(F)cc(S(=O)(=O)[O-])cc5F)c5ccc([nH]5)c(-c5c(F)cc(S(=O)(=O)[O-])cc5F)c5nc(c(-c6c(F)cc(S(=O)(=O)[O-])cc6F)c6ccc3[nH]6)C=C5)C=C4)cc2)cc1Br
REMARK SMILES IDX 18 1 17 2 16 3 14 4 15 5 13 6 10 7 11 8 92 9 12 10 91 11
REMARK SMILES IDX 93 12 7 13 8 14 9 15 2 16 1 17 3 18 4 19 5 20 6 21 19 24
REMARK SMILES IDX 20 25 21 26 22 27 23 28 24 29 25 30 26 31 90 32 27 33 89 34
REMARK SMILES IDX 28 35 29 36 30 37 83 38 31 39 88 40 82 41 84 42 32 43 87 44
REMARK SMILES IDX 81 45 80 46 33 48 67 49 46 50 66 51 47 52 50 53 65 54 85 55
REMARK SMILES IDX 48 56 49 57 64 59 86 60 51 61 34 62 35 63 44 64 36 65 37 66
REMARK SMILES IDX 43 67 45 68 38 69 39 70 40 71 41 72 42 73 68 74 69 75 78 76
REMARK SMILES IDX 70 77 71 78 77 79 79 80 72 81 73 82 74 83 75 84 76 85 52 86
REMARK SMILES IDX 53 87 62 88 54 89 55 90 61 91 63 92 56 93 57 94 58 95 59 96
REMARK SMILES IDX 60 97
REMARK H PARENT 5 22 5 23 84 47 50 58
REMARK Flexibility Score: inf
ROOT
ATOM      1  C   UNL A   1      40.425  20.887  27.074  1.00  0.00     0.202 C 
ENDROOT
BRANCH   1   2
ATOM      2  C   UNL A   1      39.985  21.640  25.815  1.00  0.00     0.261 C 
BRANCH   2   3
ATOM      3  O   UNL A   1      38.551  21.713  25.753  1.00  0.00    -0.460 OA
BRANCH   3   4
ATOM      4  C   UNL A   1      38.030  22.950  25.910  1.00  0.00     0.338 C 
ATOM      5  O   UNL A   1      38.561  23.919  26.428  1.00  0.00    -0.246 OA
BRANCH   4   6
ATOM      6  C   UNL A   1      36.726  23.043  25.216  1.00  0.00     0.061 A 
ATOM      7  C   UNL A   1      34.348  23.328  23.772  1.00  0.00     0.096 A 
ATOM      8  C   UNL A   1      35.557  23.067  23.105  1.00  0.00     0.024 A 
ATOM      9  C   UNL A   1      34.313  23.342  25.171  1.00  0.00     0.038 A 
ATOM     10  C   UNL A   1      36.741  22.945  23.822  1.00  0.00     0.017 A 
ATOM     11  C   UNL A   1      35.510  23.202  25.892  1.00  0.00     0.032 A 
ATOM     12  Br  UNL A   1      32.733  23.475  26.211  1.00  0.00    -0.049 Br
BRANCH   7  13
ATOM     13  S   UNL A   1      32.959  23.748  22.745  1.00  0.00     0.244 S 
ATOM     14  O   UNL A   1      31.793  23.001  23.148  1.00  0.00    -0.207 OA
ATOM     15  O   UNL A   1      33.437  23.733  21.378  1.00  0.00    -0.207 OA
BRANCH  13  16
ATOM     16  N   UNL A   1      32.648  25.388  23.166  1.00  0.00    -0.192 NA
ATOM     17  C   UNL A   1      33.454  26.338  22.356  1.00  0.00     0.125 C 
BRANCH  16  18
ATOM     18  C   UNL A   1      31.217  25.806  23.234  1.00  0.00     0.201 C 
BRANCH  18  19
ATOM     19  C   UNL A   1      30.691  26.237  24.587  1.00  0.00     0.232 C 
ATOM     20  N   UNL A   1      29.566  25.596  25.023  1.00  0.00    -0.369 N 
ATOM     21  O   UNL A   1      31.242  27.093  25.274  1.00  0.00    -0.274 OA
ATOM     22  H   UNL A   1      29.139  24.913  24.458  1.00  0.00     0.159 HD
ATOM     23  H   UNL A   1      29.184  25.816  25.903  1.00  0.00     0.159 HD
ENDBRANCH  18  19
ENDBRANCH  16  18
ENDBRANCH  13  16
ENDBRANCH   7  13
ENDBRANCH   4   6
ENDBRANCH   3   4
ENDBRANCH   2   3
ENDBRANCH   1   2
BRANCH   1  24
ATOM     24  O   UNL A   1      41.803  21.055  27.419  1.00  0.00    -0.374 OA
BRANCH  24  25
ATOM     25  C   UNL A   1      42.705  21.286  26.335  1.00  0.00     0.202 C 
BRANCH  25  26
ATOM     26  C   UNL A   1      43.478  22.609  26.391  1.00  0.00     0.261 C 
BRANCH  26  27
ATOM     27  O   UNL A   1      42.800  23.575  27.214  1.00  0.00    -0.460 OA
BRANCH  27  28
ATOM     28  C   UNL A   1      42.424  24.712  26.576  1.00  0.00     0.338 C 
ATOM     29  O   UNL A   1      42.254  24.861  25.379  1.00  0.00    -0.246 OA
BRANCH  28  30
ATOM     30  C   UNL A   1      42.049  25.734  27.574  1.00  0.00     0.060 A 
ATOM     31  C   UNL A   1      42.881  26.855  27.696  1.00  0.00     0.016 A 
ATOM     32  C   UNL A   1      40.926  25.594  28.394  1.00  0.00     0.016 A 
ATOM     33  C   UNL A   1      42.607  27.828  28.655  1.00  0.00     0.010 A 
ATOM     34  C   UNL A   1      40.660  26.566  29.364  1.00  0.00     0.010 A 
ATOM     35  C   UNL A   1      41.508  27.678  29.511  1.00  0.00    -0.014 A 
BRANCH  35  36
ATOM     36  C   UNL A   1      41.288  28.648  30.611  1.00  0.00     0.031 A 
ATOM     37  C   UNL A   1      42.142  28.574  31.845  1.00  0.00     0.074 A 
ATOM     38  C   UNL A   1      40.333  29.590  30.504  1.00  0.00     0.049 A 
ATOM     39  N   UNL A   1      42.076  29.286  32.940  1.00  0.00    -0.248 NA
ATOM     40  C   UNL A   1      43.211  27.562  31.846  1.00  0.00     0.031 C 
ATOM     41  C   UNL A   1      39.465  29.782  29.343  1.00  0.00     0.029 A 
ATOM     42  N   UNL A   1      39.926  30.553  31.391  1.00  0.00    -0.354 N 
ATOM     43  C   UNL A   1      43.091  28.811  33.762  1.00  0.00     0.074 A 
ATOM     44  C   UNL A   1      43.742  27.733  33.049  1.00  0.00     0.031 C 
ATOM     45  C   UNL A   1      38.614  30.790  29.597  1.00  0.00     0.029 A 
ATOM     46  C   UNL A   1      38.855  31.292  30.949  1.00  0.00     0.049 A 
ATOM     47  H   UNL A   1      40.360  30.702  32.263  1.00  0.00     0.167 HD
ATOM     48  C   UNL A   1      43.450  29.240  34.997  1.00  0.00     0.037 A 
ATOM     49  C   UNL A   1      38.133  32.243  31.574  1.00  0.00     0.037 A 
ATOM     50  C   UNL A   1      42.794  30.309  35.704  1.00  0.00     0.049 A 
ATOM     51  C   UNL A   1      38.500  32.648  32.976  1.00  0.00     0.074 A 
ATOM     52  C   UNL A   1      43.103  30.836  36.947  1.00  0.00     0.029 A 
ATOM     53  N   UNL A   1      41.689  31.007  35.240  1.00  0.00    -0.354 N 
ATOM     54  N   UNL A   1      39.480  32.212  33.730  1.00  0.00    -0.248 NA
ATOM     55  C   UNL A   1      37.660  33.672  33.615  1.00  0.00     0.031 C 
ATOM     56  C   UNL A   1      42.156  31.819  37.253  1.00  0.00     0.029 A 
ATOM     57  C   UNL A   1      41.284  31.936  36.183  1.00  0.00     0.049 A 
ATOM     58  H   UNL A   1      41.256  30.862  34.367  1.00  0.00     0.167 HD
ATOM     59  C   UNL A   1      39.384  32.916  34.926  1.00  0.00     0.074 A 
ATOM     60  C   UNL A   1      38.260  33.820  34.788  1.00  0.00     0.031 C 
ATOM     61  C   UNL A   1      40.157  32.824  36.036  1.00  0.00     0.037 A 
BRANCH  48  62
ATOM     62  C   UNL A   1      44.591  28.535  35.672  1.00  0.00     0.058 A 
ATOM     63  C   UNL A   1      44.383  27.425  36.507  1.00  0.00     0.135 A 
ATOM     64  C   UNL A   1      45.914  28.951  35.453  1.00  0.00     0.135 A 
ATOM     65  F   UNL A   1      43.137  26.996  36.761  1.00  0.00    -0.206 F 
ATOM     66  C   UNL A   1      45.445  26.766  37.118  1.00  0.00     0.059 A 
ATOM     67  C   UNL A   1      46.993  28.294  36.036  1.00  0.00     0.059 A 
ATOM     68  F   UNL A   1      46.168  30.009  34.666  1.00  0.00    -0.206 F 
ATOM     69  C   UNL A   1      46.747  27.210  36.877  1.00  0.00     0.060 A 
BRANCH  69  70
ATOM     70  S   UNL A   1      48.116  26.341  37.674  1.00  0.00     0.124 S 
ATOM     71  O   UNL A   1      48.433  25.323  36.677  1.00  0.00    -0.237 OA
ATOM     72  O   UNL A   1      49.107  27.400  37.835  1.00  0.00    -0.237 OA
ATOM     73  O   UNL A   1      47.527  25.844  38.913  1.00  0.00    -0.744 OA
ENDBRANCH  69  70
ENDBRANCH  48  62
BRANCH  49  74
ATOM     74  C   UNL A   1      36.969  32.859  30.885  1.00  0.00     0.058 A 
ATOM     75  C   UNL A   1      35.655  32.516  31.234  1.00  0.00     0.135 A 
ATOM     76  C   UNL A   1      37.150  33.808  29.867  1.00  0.00     0.135 A 
ATOM     77  F   UNL A   1      35.432  31.605  32.192  1.00  0.00    -0.206 F 
ATOM     78  C   UNL A   1      34.560  33.089  30.596  1.00  0.00     0.059 A 
ATOM     79  C   UNL A   1      36.071  34.412  29.229  1.00  0.00     0.059 A 
ATOM     80  F   UNL A   1      38.388  34.176  29.502  1.00  0.00    -0.206 F 
ATOM     81  C   UNL A   1      34.778  34.040  29.597  1.00  0.00     0.060 A 
BRANCH  81  82
ATOM     82  S   UNL A   1      33.352  34.827  28.819  1.00  0.00     0.124 S 
ATOM     83  O   UNL A   1      33.936  36.066  28.318  1.00  0.00    -0.237 OA
ATOM     84  O   UNL A   1      32.971  33.845  27.808  1.00  0.00    -0.237 OA
ATOM     85  O   UNL A   1      32.407  34.973  29.924  1.00  0.00    -0.744 OA
ENDBRANCH  81  82
ENDBRANCH  49  74
BRANCH  61  86
ATOM     86  C   UNL A   1      39.821  33.728  37.190  1.00  0.00     0.058 A 
ATOM     87  C   UNL A   1      38.979  33.308  38.231  1.00  0.00     0.135 A 
ATOM     88  C   UNL A   1      40.384  35.012  37.280  1.00  0.00     0.135 A 
ATOM     89  F   UNL A   1      38.409  32.093  38.189  1.00  0.00    -0.206 F 
ATOM     90  C   UNL A   1      38.691  34.135  39.312  1.00  0.00     0.059 A 
ATOM     91  C   UNL A   1      40.128  35.847  38.363  1.00  0.00     0.059 A 
ATOM     92  F   UNL A   1      41.202  35.460  36.314  1.00  0.00    -0.206 F 
ATOM     93  C   UNL A   1      39.271  35.403  39.369  1.00  0.00     0.060 A 
BRANCH  93  94
ATOM     94  S   UNL A   1      38.916  36.456  40.793  1.00  0.00     0.124 S 
ATOM     95  O   UNL A   1      40.200  36.452  41.488  1.00  0.00    -0.237 OA
ATOM     96  O   UNL A   1      38.541  37.719  40.164  1.00  0.00    -0.237 OA
ATOM     97  O   UNL A   1      37.832  35.755  41.473  1.00  0.00    -0.744 OA
ENDBRANCH  93  94
ENDBRANCH  61  86
ENDBRANCH  35  36
ENDBRANCH  28  30
ENDBRANCH  27  28
ENDBRANCH  26  27
ENDBRANCH  25  26
ENDBRANCH  24  25
ENDBRANCH   1  24
TORSDOF 21
ENDMDL
MODEL 3
REMARK VINA RESULT:     -10.2      3.751      9.551
REMARK SMILES CN(CC(N)=O)S(=O)(=O)c1ccc(C(=O)OCCOCCOC(=O)c2ccc(-c3c4nc(c(-c5c(F)cc(S(=O)(=O)[O-])cc5F)c5ccc([nH]5)c(-c5c(F)cc(S(=O)(=O)[O-])cc5F)c5nc(c(-c6c(F)cc(S(=O)(=O)[O-])cc6F)c6ccc3[nH]6)C=C5)C=C4)cc2)cc1Br
REMARK SMILES IDX 18 1 17 2 16 3 14 4 15 5 13 6 10 7 11 8 92 9 12 10 91 11
REMARK SMILES IDX 93 12 7 13 8 14 9 15 2 16 1 17 3 18 4 19 5 20 6 21 19 24
REMARK SMILES IDX 20 25 21 26 22 27 23 28 24 29 25 30 26 31 90 32 27 33 89 34
REMARK SMILES IDX 28 35 29 36 30 37 83 38 31 39 88 40 82 41 84 42 32 43 87 44
REMARK SMILES IDX 81 45 80 46 33 48 67 49 46 50 66 51 47 52 50 53 65 54 85 55
REMARK SMILES IDX 48 56 49 57 64 59 86 60 51 61 34 62 35 63 44 64 36 65 37 66
REMARK SMILES IDX 43 67 45 68 38 69 39 70 40 71 41 72 42 73 68 74 69 75 78 76
REMARK SMILES IDX 70 77 71 78 77 79 79 80 72 81 73 82 74 83 75 84 76 85 52 86
REMARK SMILES IDX 53 87 62 88 54 89 55 90 61 91 63 92 56 93 57 94 58 95 59 96
REMARK SMILES IDX 60 97
REMARK H PARENT 5 22 5 23 84 47 50 58
REMARK Flexibility Score: inf
ROOT
ATOM      1  C   UNL A   1      33.477  21.286  24.892  1.00  0.00     0.202 C 
ENDROOT
BRANCH   1   2
ATOM      2  C   UNL A   1      32.364  21.591  25.899  1.00  0.00     0.261 C 
BRANCH   2   3
ATOM      3  O   UNL A   1      32.517  22.919  26.425  1.00  0.00    -0.460 OA
BRANCH   3   4
ATOM      4  C   UNL A   1      31.377  23.638  26.516  1.00  0.00     0.338 C 
ATOM      5  O   UNL A   1      30.444  23.457  27.282  1.00  0.00    -0.246 OA
BRANCH   4   6
ATOM      6  C   UNL A   1      31.452  24.823  25.633  1.00  0.00     0.061 A 
ATOM      7  C   UNL A   1      31.407  27.085  23.988  1.00  0.00     0.096 A 
ATOM      8  C   UNL A   1      30.705  27.078  25.205  1.00  0.00     0.024 A 
ATOM      9  C   UNL A   1      32.218  25.997  23.644  1.00  0.00     0.038 A 
ATOM     10  C   UNL A   1      30.713  25.946  26.012  1.00  0.00     0.017 A 
ATOM     11  C   UNL A   1      32.234  24.862  24.471  1.00  0.00     0.032 A 
ATOM     12  Br  UNL A   1      33.379  25.945  22.147  1.00  0.00    -0.049 Br
BRANCH   7  13
ATOM     13  S   UNL A   1      31.096  28.464  22.910  1.00  0.00     0.244 S 
ATOM     14  O   UNL A   1      30.199  28.080  21.848  1.00  0.00    -0.207 OA
ATOM     15  O   UNL A   1      32.382  29.073  22.637  1.00  0.00    -0.207 OA
BRANCH  13  16
ATOM     16  N   UNL A   1      30.214  29.549  23.915  1.00  0.00    -0.192 NA
ATOM     17  C   UNL A   1      31.080  30.208  24.926  1.00  0.00     0.125 C 
BRANCH  16  18
ATOM     18  C   UNL A   1      29.330  30.535  23.228  1.00  0.00     0.201 C 
BRANCH  18  19
ATOM     19  C   UNL A   1      27.838  30.285  23.295  1.00  0.00     0.232 C 
ATOM     20  N   UNL A   1      27.409  29.090  22.791  1.00  0.00    -0.369 N 
ATOM     21  O   UNL A   1      27.050  31.086  23.790  1.00  0.00    -0.274 OA
ATOM     22  H   UNL A   1      28.055  28.461  22.398  1.00  0.00     0.159 HD
ATOM     23  H   UNL A   1      26.452  28.857  22.822  1.00  0.00     0.159 HD
ENDBRANCH  18  19
ENDBRANCH  16  18
ENDBRANCH  13  16
ENDBRANCH   7  13
ENDBRANCH   4   6
ENDBRANCH   3   4
ENDBRANCH   2   3
ENDBRANCH   1   2
BRANCH   1  24
ATOM     24  O   UNL A   1      34.787  21.673  25.315  1.00  0.00    -0.374 OA
BRANCH  24  25
ATOM     25  C   UNL A   1      35.448  22.654  24.512  1.00  0.00     0.202 C 
BRANCH  25  26
ATOM     26  C   UNL A   1      36.147  23.777  25.287  1.00  0.00     0.261 C 
BRANCH  26  27
ATOM     27  O   UNL A   1      37.558  23.809  25.002  1.00  0.00    -0.460 OA
BRANCH  27  28
ATOM     28  C   UNL A   1      38.353  23.292  25.971  1.00  0.00     0.338 C 
ATOM     29  O   UNL A   1      38.627  22.118  26.149  1.00  0.00    -0.246 OA
BRANCH  28  30
ATOM     30  C   UNL A   1      39.022  24.391  26.695  1.00  0.00     0.060 A 
ATOM     31  C   UNL A   1      38.713  24.554  28.052  1.00  0.00     0.016 A 
ATOM     32  C   UNL A   1      39.913  25.263  26.062  1.00  0.00     0.016 A 
ATOM     33  C   UNL A   1      39.275  25.606  28.775  1.00  0.00     0.010 A 
ATOM     34  C   UNL A   1      40.465  26.324  26.787  1.00  0.00     0.010 A 
ATOM     35  C   UNL A   1      40.136  26.510  28.142  1.00  0.00    -0.014 A 
BRANCH  35  36
ATOM     36  C   UNL A   1      40.634  27.698  28.878  1.00  0.00     0.031 A 
ATOM     37  C   UNL A   1      42.016  27.677  29.468  1.00  0.00     0.074 A 
ATOM     38  C   UNL A   1      39.856  28.787  29.013  1.00  0.00     0.049 A 
ATOM     39  N   UNL A   1      42.619  28.583  30.193  1.00  0.00    -0.248 NA
ATOM     40  C   UNL A   1      42.825  26.475  29.209  1.00  0.00     0.031 C 
ATOM     41  C   UNL A   1      38.513  28.938  28.457  1.00  0.00     0.029 A 
ATOM     42  N   UNL A   1      40.082  29.968  29.673  1.00  0.00    -0.354 N 
ATOM     43  C   UNL A   1      43.876  28.064  30.479  1.00  0.00     0.074 A 
ATOM     44  C   UNL A   1      43.940  26.753  29.869  1.00  0.00     0.031 C 
ATOM     45  C   UNL A   1      38.025  30.137  28.815  1.00  0.00     0.029 A 
ATOM     46  C   UNL A   1      39.007  30.824  29.651  1.00  0.00     0.049 A 
ATOM     47  H   UNL A   1      40.933  30.183  30.120  1.00  0.00     0.167 HD
ATOM     48  C   UNL A   1      44.886  28.633  31.181  1.00  0.00     0.037 A 
ATOM     49  C   UNL A   1      38.825  32.013  30.261  1.00  0.00     0.037 A 
ATOM     50  C   UNL A   1      44.814  29.936  31.791  1.00  0.00     0.049 A 
ATOM     51  C   UNL A   1      39.932  32.590  31.102  1.00  0.00     0.074 A 
ATOM     52  C   UNL A   1      45.795  30.611  32.497  1.00  0.00     0.029 A 
ATOM     53  N   UNL A   1      43.696  30.756  31.780  1.00  0.00    -0.354 N 
ATOM     54  N   UNL A   1      41.127  32.102  31.338  1.00  0.00    -0.248 NA
ATOM     55  C   UNL A   1      39.666  33.876  31.762  1.00  0.00     0.031 C 
ATOM     56  C   UNL A   1      45.255  31.818  32.953  1.00  0.00     0.029 A 
ATOM     57  C   UNL A   1      43.951  31.915  32.493  1.00  0.00     0.049 A 
ATOM     58  H   UNL A   1      42.846  30.545  31.331  1.00  0.00     0.167 HD
ATOM     59  C   UNL A   1      41.759  33.027  32.163  1.00  0.00     0.074 A 
ATOM     60  C   UNL A   1      40.821  34.112  32.370  1.00  0.00     0.031 C 
ATOM     61  C   UNL A   1      43.004  32.983  32.699  1.00  0.00     0.037 A 
BRANCH  48  62
ATOM     62  C   UNL A   1      46.150  27.839  31.347  1.00  0.00     0.058 A 
ATOM     63  C   UNL A   1      47.247  28.008  30.487  1.00  0.00     0.135 A 
ATOM     64  C   UNL A   1      46.281  26.923  32.404  1.00  0.00     0.135 A 
ATOM     65  F   UNL A   1      47.168  28.860  29.453  1.00  0.00    -0.206 F 
ATOM     66  C   UNL A   1      48.421  27.281  30.655  1.00  0.00     0.059 A 
ATOM     67  C   UNL A   1      47.454  26.201  32.603  1.00  0.00     0.059 A 
ATOM     68  F   UNL A   1      45.261  26.721  33.253  1.00  0.00    -0.206 F 
ATOM     69  C   UNL A   1      48.514  26.378  31.715  1.00  0.00     0.060 A 
BRANCH  69  70
ATOM     70  S   UNL A   1      50.046  25.444  31.923  1.00  0.00     0.124 S 
ATOM     71  O   UNL A   1      50.256  24.928  30.573  1.00  0.00    -0.237 OA
ATOM     72  O   UNL A   1      50.983  26.473  32.360  1.00  0.00    -0.237 OA
ATOM     73  O   UNL A   1      49.701  24.445  32.929  1.00  0.00    -0.744 OA
ENDBRANCH  69  70
ENDBRANCH  48  62
BRANCH  49  74
ATOM     74  C   UNL A   1      37.528  32.724  30.120  1.00  0.00     0.058 A 
ATOM     75  C   UNL A   1      37.367  33.762  29.193  1.00  0.00     0.135 A 
ATOM     76  C   UNL A   1      36.421  32.373  30.910  1.00  0.00     0.135 A 
ATOM     77  F   UNL A   1      38.399  34.142  28.425  1.00  0.00    -0.206 F 
ATOM     78  C   UNL A   1      36.155  34.432  29.053  1.00  0.00     0.059 A 
ATOM     79  C   UNL A   1      35.193  33.013  30.774  1.00  0.00     0.059 A 
ATOM     80  F   UNL A   1      36.522  31.380  31.806  1.00  0.00    -0.206 F 
ATOM     81  C   UNL A   1      35.072  34.047  29.846  1.00  0.00     0.060 A 
BRANCH  81  82
ATOM     82  S   UNL A   1      33.486  34.877  29.614  1.00  0.00     0.124 S 
ATOM     83  O   UNL A   1      32.762  33.906  28.803  1.00  0.00    -0.237 OA
ATOM     84  O   UNL A   1      33.020  35.038  30.988  1.00  0.00    -0.237 OA
ATOM     85  O   UNL A   1      33.855  36.119  28.939  1.00  0.00    -0.744 OA
ENDBRANCH  81  82
ENDBRANCH  49  74
BRANCH  61  86
ATOM     86  C   UNL A   1      43.430  34.144  33.555  1.00  0.00     0.058 A 
ATOM     87  C   UNL A   1      43.227  34.144  34.944  1.00  0.00     0.135 A 
ATOM     88  C   UNL A   1      44.089  35.247  32.989  1.00  0.00     0.135 A 
ATOM     89  F   UNL A   1      42.593  33.118  35.534  1.00  0.00    -0.206 F 
ATOM     90  C   UNL A   1      43.646  35.206  35.739  1.00  0.00     0.059 A 
ATOM     91  C   UNL A   1      44.538  36.308  33.768  1.00  0.00     0.059 A 
ATOM     92  F   UNL A   1      44.316  35.292  31.666  1.00  0.00    -0.206 F 
ATOM     93  C   UNL A   1      44.302  36.283  35.142  1.00  0.00     0.060 A 
BRANCH  93  94
ATOM     94  S   UNL A   1      44.870  37.641  36.188  1.00  0.00     0.124 S 
ATOM     95  O   UNL A   1      44.808  37.035  37.515  1.00  0.00    -0.237 OA
ATOM     96  O   UNL A   1      46.212  37.896  35.671  1.00  0.00    -0.237 OA
ATOM     97  O   UNL A   1      43.896  38.698  35.934  1.00  0.00    -0.744 OA
ENDBRANCH  93  94
ENDBRANCH  61  86
ENDBRANCH  35  36
ENDBRANCH  28  30
ENDBRANCH  27  28
ENDBRANCH  26  27
ENDBRANCH  25  26
ENDBRANCH  24  25
ENDBRANCH   1  24
TORSDOF 21
ENDMDL
