MODEL 1
REMARK VINA RESULT:     -10.2      0.000      0.000
REMARK SMILES O=C(CSCc1ccc(C(=O)OCCOCCOC(=O)c2ccc(-c3c4nc(c(-c5c(F)cc(S(=O)(=O)[O-])cc5F)c5ccc([nH]5)c(-c5c(F)cc(S(=O)(=O)[O-])cc5F)c5nc(c(-c6c(F)cc(S(=O)(=O)[O-])cc6F)c6ccc3[nH]6)C=C5)C=C4)cc2)cc1)Nc1ccc(Cl)cc1
REMARK SMILES IDX 14 1 13 2 12 3 10 4 11 5 9 6 6 7 7 8 88 9 8 10 87 11 5 12
REMARK SMILES IDX 4 13 3 14 2 15 1 16 89 17 90 19 91 20 96 21 92 22 95 23
REMARK SMILES IDX 93 24 94 25 15 26 16 27 17 28 18 29 19 30 20 31 21 32 22 33
REMARK SMILES IDX 86 34 23 35 85 36 24 37 25 38 26 39 79 40 27 41 84 42 78 43
REMARK SMILES IDX 80 44 28 45 83 46 77 47 76 48 29 50 63 51 42 52 62 53 43 54
REMARK SMILES IDX 46 55 61 56 81 57 44 58 45 59 60 61 82 62 47 63 30 64 31 65
REMARK SMILES IDX 40 66 32 67 33 68 39 69 41 70 34 71 35 72 36 73 37 74 38 75
REMARK SMILES IDX 64 76 65 77 74 78 66 79 67 80 73 81 75 82 68 83 69 84 70 85
REMARK SMILES IDX 71 86 72 87 48 88 49 89 58 90 50 91 51 92 57 93 59 94 52 95
REMARK SMILES IDX 53 96 54 97 55 98 56 99
REMARK H PARENT 89 18 80 49 46 60
REMARK Flexibility Score: inf
ROOT
ATOM      1  C   UNL A   1      42.370  20.523  26.595  1.00  0.00     0.202 C 
ENDROOT
BRANCH   1   2
ATOM      2  C   UNL A   1      40.886  20.154  26.512  1.00  0.00     0.261 C 
BRANCH   2   3
ATOM      3  O   UNL A   1      40.151  21.120  25.742  1.00  0.00    -0.460 OA
BRANCH   3   4
ATOM      4  C   UNL A   1      39.549  22.090  26.469  1.00  0.00     0.338 C 
ATOM      5  O   UNL A   1      40.031  22.712  27.405  1.00  0.00    -0.246 OA
BRANCH   4   6
ATOM      6  C   UNL A   1      38.234  22.442  25.882  1.00  0.00     0.060 A 
ATOM      7  C   UNL A   1      35.689  23.212  24.941  1.00  0.00    -0.038 A 
ATOM      8  C   UNL A   1      36.469  24.091  25.710  1.00  0.00     0.005 A 
ATOM      9  C   UNL A   1      36.220  21.948  24.629  1.00  0.00     0.005 A 
ATOM     10  C   UNL A   1      37.725  23.709  26.180  1.00  0.00     0.016 A 
ATOM     11  C   UNL A   1      37.494  21.569  25.079  1.00  0.00     0.016 A 
BRANCH   7  12
ATOM     12  C   UNL A   1      34.267  23.619  24.632  1.00  0.00     0.105 C 
BRANCH  12  13
ATOM     13  S   UNL A   1      33.715  23.529  22.905  1.00  0.00    -0.147 SA
BRANCH  13  14
ATOM     14  C   UNL A   1      32.127  22.660  23.105  1.00  0.00     0.170 C 
BRANCH  14  15
ATOM     15  C   UNL A   1      32.249  21.143  23.109  1.00  0.00     0.234 C 
ATOM     16  O   UNL A   1      31.957  20.496  22.107  1.00  0.00    -0.274 OA
ATOM     17  N   UNL A   1      32.755  20.615  24.286  1.00  0.00    -0.325 N 
ATOM     18  H   UNL A   1      32.857  21.238  25.041  1.00  0.00     0.169 HD
BRANCH  17  19
ATOM     19  C   UNL A   1      33.140  19.279  24.516  1.00  0.00     0.041 A 
ATOM     20  C   UNL A   1      32.199  18.418  25.092  1.00  0.00     0.027 A 
ATOM     21  C   UNL A   1      34.416  18.787  24.223  1.00  0.00     0.027 A 
ATOM     22  C   UNL A   1      32.519  17.077  25.340  1.00  0.00     0.022 A 
ATOM     23  C   UNL A   1      34.743  17.453  24.486  1.00  0.00     0.022 A 
ATOM     24  C   UNL A   1      33.791  16.601  25.035  1.00  0.00     0.041 A 
ATOM     25  Cl  UNL A   1      34.188  14.956  25.343  1.00  0.00    -0.084 Cl
ENDBRANCH  17  19
ENDBRANCH  14  15
ENDBRANCH  13  14
ENDBRANCH  12  13
ENDBRANCH   7  12
ENDBRANCH   4   6
ENDBRANCH   3   4
ENDBRANCH   2   3
ENDBRANCH   1   2
BRANCH   1  26
ATOM     26  O   UNL A   1      42.972  20.954  25.372  1.00  0.00    -0.374 OA
BRANCH  26  27
ATOM     27  C   UNL A   1      43.761  22.144  25.431  1.00  0.00     0.202 C 
BRANCH  27  28
ATOM     28  C   UNL A   1      43.031  23.452  25.102  1.00  0.00     0.261 C 
BRANCH  28  29
ATOM     29  O   UNL A   1      42.727  24.208  26.288  1.00  0.00    -0.460 OA
BRANCH  29  30
ATOM     30  C   UNL A   1      43.530  25.277  26.505  1.00  0.00     0.338 C 
ATOM     31  O   UNL A   1      44.537  25.580  25.881  1.00  0.00    -0.246 OA
BRANCH  30  32
ATOM     32  C   UNL A   1      42.922  26.167  27.512  1.00  0.00     0.060 A 
ATOM     33  C   UNL A   1      43.460  27.454  27.647  1.00  0.00     0.016 A 
ATOM     34  C   UNL A   1      41.886  25.742  28.348  1.00  0.00     0.016 A 
ATOM     35  C   UNL A   1      43.001  28.301  28.652  1.00  0.00     0.010 A 
ATOM     36  C   UNL A   1      41.432  26.592  29.362  1.00  0.00     0.010 A 
ATOM     37  C   UNL A   1      42.011  27.862  29.540  1.00  0.00    -0.014 A 
BRANCH  37  38
ATOM     38  C   UNL A   1      41.685  28.676  30.736  1.00  0.00     0.031 A 
ATOM     39  C   UNL A   1      40.509  29.612  30.681  1.00  0.00     0.074 A 
ATOM     40  C   UNL A   1      42.412  28.567  31.862  1.00  0.00     0.049 A 
ATOM     41  N   UNL A   1      40.061  30.436  31.593  1.00  0.00    -0.248 NA
ATOM     42  C   UNL A   1      39.737  29.623  29.429  1.00  0.00     0.031 C 
ATOM     43  C   UNL A   1      43.554  27.673  32.046  1.00  0.00     0.029 A 
ATOM     44  N   UNL A   1      42.299  29.223  33.062  1.00  0.00    -0.354 N 
ATOM     45  C   UNL A   1      38.962  31.070  31.025  1.00  0.00     0.074 A 
ATOM     46  C   UNL A   1      38.829  30.556  29.678  1.00  0.00     0.031 C 
ATOM     47  C   UNL A   1      44.046  27.845  33.284  1.00  0.00     0.029 A 
ATOM     48  C   UNL A   1      43.273  28.881  33.969  1.00  0.00     0.049 A 
ATOM     49  H   UNL A   1      41.589  29.875  33.255  1.00  0.00     0.167 HD
ATOM     50  C   UNL A   1      38.136  31.990  31.577  1.00  0.00     0.037 A 
ATOM     51  C   UNL A   1      43.524  29.362  35.203  1.00  0.00     0.037 A 
ATOM     52  C   UNL A   1      38.273  32.496  32.918  1.00  0.00     0.049 A 
ATOM     53  C   UNL A   1      42.623  30.422  35.780  1.00  0.00     0.074 A 
ATOM     54  C   UNL A   1      37.472  33.411  33.578  1.00  0.00     0.029 A 
ATOM     55  N   UNL A   1      39.283  32.139  33.800  1.00  0.00    -0.354 N 
ATOM     56  N   UNL A   1      41.571  30.992  35.242  1.00  0.00    -0.248 NA
ATOM     57  C   UNL A   1      42.941  30.902  37.132  1.00  0.00     0.031 C 
ATOM     58  C   UNL A   1      38.024  33.642  34.843  1.00  0.00     0.029 A 
ATOM     59  C   UNL A   1      39.141  32.833  34.989  1.00  0.00     0.049 A 
ATOM     60  H   UNL A   1      39.996  31.488  33.607  1.00  0.00     0.167 HD
ATOM     61  C   UNL A   1      41.086  31.878  36.199  1.00  0.00     0.074 A 
ATOM     62  C   UNL A   1      41.956  31.764  37.351  1.00  0.00     0.031 C 
ATOM     63  C   UNL A   1      40.014  32.707  36.131  1.00  0.00     0.037 A 
BRANCH  50  64
ATOM     64  C   UNL A   1      37.027  32.530  30.716  1.00  0.00     0.058 A 
ATOM     65  C   UNL A   1      37.216  33.638  29.873  1.00  0.00     0.135 A 
ATOM     66  C   UNL A   1      35.761  31.923  30.725  1.00  0.00     0.135 A 
ATOM     67  F   UNL A   1      38.401  34.266  29.838  1.00  0.00    -0.206 F 
ATOM     68  C   UNL A   1      36.179  34.145  29.096  1.00  0.00     0.059 A 
ATOM     69  C   UNL A   1      34.718  32.397  29.936  1.00  0.00     0.059 A 
ATOM     70  F   UNL A   1      35.527  30.862  31.513  1.00  0.00    -0.206 F 
ATOM     71  C   UNL A   1      34.931  33.520  29.139  1.00  0.00     0.060 A 
BRANCH  71  72
ATOM     72  S   UNL A   1      33.590  34.199  28.138  1.00  0.00     0.124 S 
ATOM     73  O   UNL A   1      32.815  34.920  29.142  1.00  0.00    -0.237 OA
ATOM     74  O   UNL A   1      34.307  35.027  27.174  1.00  0.00    -0.237 OA
ATOM     75  O   UNL A   1      32.946  33.012  27.584  1.00  0.00    -0.744 OA
ENDBRANCH  71  72
ENDBRANCH  50  64
BRANCH  51  76
ATOM     76  C   UNL A   1      44.686  28.844  35.971  1.00  0.00     0.058 A 
ATOM     77  C   UNL A   1      45.954  29.429  35.852  1.00  0.00     0.135 A 
ATOM     78  C   UNL A   1      44.542  27.767  36.861  1.00  0.00     0.135 A 
ATOM     79  F   UNL A   1      46.144  30.452  35.005  1.00  0.00    -0.206 F 
ATOM     80  C   UNL A   1      47.041  28.966  36.586  1.00  0.00     0.059 A 
ATOM     81  C   UNL A   1      45.609  27.301  37.624  1.00  0.00     0.059 A 
ATOM     82  F   UNL A   1      43.347  27.179  37.018  1.00  0.00    -0.206 F 
ATOM     83  C   UNL A   1      46.856  27.905  37.475  1.00  0.00     0.060 A 
BRANCH  83  84
ATOM     84  S   UNL A   1      48.256  27.359  38.479  1.00  0.00     0.124 S 
ATOM     85  O   UNL A   1      48.851  28.632  38.870  1.00  0.00    -0.237 OA
ATOM     86  O   UNL A   1      47.596  26.608  39.542  1.00  0.00    -0.237 OA
ATOM     87  O   UNL A   1      49.041  26.554  37.548  1.00  0.00    -0.744 OA
ENDBRANCH  83  84
ENDBRANCH  51  76
BRANCH  63  88
ATOM     88  C   UNL A   1      39.698  33.538  37.344  1.00  0.00     0.058 A 
ATOM     89  C   UNL A   1      38.778  33.110  38.314  1.00  0.00     0.135 A 
ATOM     90  C   UNL A   1      40.369  34.752  37.568  1.00  0.00     0.135 A 
ATOM     91  F   UNL A   1      38.106  31.961  38.146  1.00  0.00    -0.206 F 
ATOM     92  C   UNL A   1      38.520  33.865  39.454  1.00  0.00     0.059 A 
ATOM     93  C   UNL A   1      40.145  35.510  38.713  1.00  0.00     0.059 A 
ATOM     94  F   UNL A   1      41.267  35.202  36.677  1.00  0.00    -0.206 F 
ATOM     95  C   UNL A   1      39.210  35.064  39.646  1.00  0.00     0.060 A 
BRANCH  95  96
ATOM     96  S   UNL A   1      38.894  36.018  41.146  1.00  0.00     0.124 S 
ATOM     97  O   UNL A   1      37.662  35.403  41.631  1.00  0.00    -0.237 OA
ATOM     98  O   UNL A   1      40.089  35.754  41.942  1.00  0.00    -0.237 OA
ATOM     99  O   UNL A   1      38.763  37.386  40.657  1.00  0.00    -0.744 OA
ENDBRANCH  95  96
ENDBRANCH  63  88
ENDBRANCH  37  38
ENDBRANCH  30  32
ENDBRANCH  29  30
ENDBRANCH  28  29
ENDBRANCH  27  28
ENDBRANCH  26  27
ENDBRANCH   1  26
TORSDOF 22
ENDMDL
MODEL 2
REMARK VINA RESULT:      -9.8      4.757     11.295
REMARK SMILES O=C(CSCc1ccc(C(=O)OCCOCCOC(=O)c2ccc(-c3c4nc(c(-c5c(F)cc(S(=O)(=O)[O-])cc5F)c5ccc([nH]5)c(-c5c(F)cc(S(=O)(=O)[O-])cc5F)c5nc(c(-c6c(F)cc(S(=O)(=O)[O-])cc6F)c6ccc3[nH]6)C=C5)C=C4)cc2)cc1)Nc1ccc(Cl)cc1
REMARK SMILES IDX 14 1 13 2 12 3 10 4 11 5 9 6 6 7 7 8 88 9 8 10 87 11 5 12
REMARK SMILES IDX 4 13 3 14 2 15 1 16 89 17 90 19 91 20 96 21 92 22 95 23
REMARK SMILES IDX 93 24 94 25 15 26 16 27 17 28 18 29 19 30 20 31 21 32 22 33
REMARK SMILES IDX 86 34 23 35 85 36 24 37 25 38 26 39 79 40 27 41 84 42 78 43
REMARK SMILES IDX 80 44 28 45 83 46 77 47 76 48 29 50 63 51 42 52 62 53 43 54
REMARK SMILES IDX 46 55 61 56 81 57 44 58 45 59 60 61 82 62 47 63 30 64 31 65
REMARK SMILES IDX 40 66 32 67 33 68 39 69 41 70 34 71 35 72 36 73 37 74 38 75
REMARK SMILES IDX 64 76 65 77 74 78 66 79 67 80 73 81 75 82 68 83 69 84 70 85
REMARK SMILES IDX 71 86 72 87 48 88 49 89 58 90 50 91 51 92 57 93 59 94 52 95
REMARK SMILES IDX 53 96 54 97 55 98 56 99
REMARK H PARENT 89 18 80 49 46 60
REMARK Flexibility Score: inf
ROOT
ATOM      1  C   UNL A   1      46.384  24.591  27.152  1.00  0.00     0.202 C 
ENDROOT
BRANCH   1   2
ATOM      2  C   UNL A   1      46.867  25.752  28.026  1.00  0.00     0.261 C 
BRANCH   2   3
ATOM      3  O   UNL A   1      46.838  25.400  29.420  1.00  0.00    -0.460 OA
BRANCH   3   4
ATOM      4  C   UNL A   1      45.923  26.070  30.159  1.00  0.00     0.338 C 
ATOM      5  O   UNL A   1      45.310  27.077  29.832  1.00  0.00    -0.246 OA
BRANCH   4   6
ATOM      6  C   UNL A   1      45.616  25.331  31.406  1.00  0.00     0.060 A 
ATOM      7  C   UNL A   1      44.831  23.934  33.728  1.00  0.00    -0.038 A 
ATOM      8  C   UNL A   1      44.184  23.714  32.502  1.00  0.00     0.005 A 
ATOM      9  C   UNL A   1      45.899  24.849  33.765  1.00  0.00     0.005 A 
ATOM     10  C   UNL A   1      44.568  24.408  31.355  1.00  0.00     0.016 A 
ATOM     11  C   UNL A   1      46.304  25.531  32.607  1.00  0.00     0.016 A 
BRANCH   7  12
ATOM     12  C   UNL A   1      44.238  23.295  34.962  1.00  0.00     0.105 C 
BRANCH  12  13
ATOM     13  S   UNL A   1      45.327  23.039  36.392  1.00  0.00    -0.147 SA
BRANCH  13  14
ATOM     14  C   UNL A   1      45.720  21.271  36.203  1.00  0.00     0.170 C 
BRANCH  14  15
ATOM     15  C   UNL A   1      46.843  20.989  35.214  1.00  0.00     0.234 C 
ATOM     16  O   UNL A   1      46.603  20.432  34.147  1.00  0.00    -0.274 OA
ATOM     17  N   UNL A   1      48.083  21.463  35.611  1.00  0.00    -0.325 N 
ATOM     18  H   UNL A   1      48.151  21.806  36.532  1.00  0.00     0.169 HD
BRANCH  17  19
ATOM     19  C   UNL A   1      49.259  21.506  34.836  1.00  0.00     0.041 A 
ATOM     20  C   UNL A   1      49.838  20.289  34.459  1.00  0.00     0.027 A 
ATOM     21  C   UNL A   1      49.882  22.698  34.453  1.00  0.00     0.027 A 
ATOM     22  C   UNL A   1      51.003  20.265  33.683  1.00  0.00     0.022 A 
ATOM     23  C   UNL A   1      51.056  22.676  33.693  1.00  0.00     0.022 A 
ATOM     24  C   UNL A   1      51.608  21.460  33.303  1.00  0.00     0.041 A 
ATOM     25  Cl  UNL A   1      53.042  21.434  32.354  1.00  0.00    -0.084 Cl
ENDBRANCH  17  19
ENDBRANCH  14  15
ENDBRANCH  13  14
ENDBRANCH  12  13
ENDBRANCH   7  12
ENDBRANCH   4   6
ENDBRANCH   3   4
ENDBRANCH   2   3
ENDBRANCH   1   2
BRANCH   1  26
ATOM     26  O   UNL A   1      45.833  23.473  27.852  1.00  0.00    -0.374 OA
BRANCH  26  27
ATOM     27  C   UNL A   1      44.411  23.340  27.826  1.00  0.00     0.202 C 
BRANCH  27  28
ATOM     28  C   UNL A   1      43.753  23.413  26.443  1.00  0.00     0.261 C 
BRANCH  28  29
ATOM     29  O   UNL A   1      42.866  24.541  26.332  1.00  0.00    -0.460 OA
BRANCH  29  30
ATOM     30  C   UNL A   1      41.634  24.353  26.863  1.00  0.00     0.338 C 
ATOM     31  O   UNL A   1      40.948  23.342  26.793  1.00  0.00    -0.246 OA
BRANCH  30  32
ATOM     32  C   UNL A   1      41.276  25.498  27.721  1.00  0.00     0.060 A 
ATOM     33  C   UNL A   1      42.198  26.549  27.816  1.00  0.00     0.016 A 
ATOM     34  C   UNL A   1      40.092  25.526  28.463  1.00  0.00     0.016 A 
ATOM     35  C   UNL A   1      41.966  27.605  28.693  1.00  0.00     0.010 A 
ATOM     36  C   UNL A   1      39.864  26.584  29.349  1.00  0.00     0.010 A 
ATOM     37  C   UNL A   1      40.816  27.610  29.494  1.00  0.00    -0.014 A 
BRANCH  37  38
ATOM     38  C   UNL A   1      40.682  28.614  30.577  1.00  0.00     0.031 A 
ATOM     39  C   UNL A   1      41.601  28.533  31.765  1.00  0.00     0.074 A 
ATOM     40  C   UNL A   1      39.769  29.598  30.493  1.00  0.00     0.049 A 
ATOM     41  N   UNL A   1      41.641  29.282  32.835  1.00  0.00    -0.248 NA
ATOM     42  C   UNL A   1      42.606  27.459  31.744  1.00  0.00     0.031 C 
ATOM     43  C   UNL A   1      38.844  29.798  29.379  1.00  0.00     0.029 A 
ATOM     44  N   UNL A   1      39.466  30.609  31.371  1.00  0.00    -0.354 N 
ATOM     45  C   UNL A   1      42.668  28.769  33.619  1.00  0.00     0.074 A 
ATOM     46  C   UNL A   1      43.205  27.624  32.914  1.00  0.00     0.031 C 
ATOM     47  C   UNL A   1      38.066  30.861  29.645  1.00  0.00     0.029 A 
ATOM     48  C   UNL A   1      38.418  31.398  30.960  1.00  0.00     0.049 A 
ATOM     49  H   UNL A   1      39.951  30.755  32.213  1.00  0.00     0.167 HD
ATOM     50  C   UNL A   1      43.125  29.214  34.814  1.00  0.00     0.037 A 
ATOM     51  C   UNL A   1      37.801  32.423  31.581  1.00  0.00     0.037 A 
ATOM     52  C   UNL A   1      42.588  30.354  35.510  1.00  0.00     0.049 A 
ATOM     53  C   UNL A   1      38.292  32.870  32.933  1.00  0.00     0.074 A 
ATOM     54  C   UNL A   1      42.999  30.901  36.713  1.00  0.00     0.029 A 
ATOM     55  N   UNL A   1      41.514  31.117  35.071  1.00  0.00    -0.354 N 
ATOM     56  N   UNL A   1      39.282  32.393  33.650  1.00  0.00    -0.248 NA
ATOM     57  C   UNL A   1      37.586  33.998  33.558  1.00  0.00     0.031 C 
ATOM     58  C   UNL A   1      42.145  31.965  37.023  1.00  0.00     0.029 A 
ATOM     59  C   UNL A   1      41.233  32.113  35.989  1.00  0.00     0.049 A 
ATOM     60  H   UNL A   1      41.026  30.970  34.229  1.00  0.00     0.167 HD
ATOM     61  C   UNL A   1      39.334  33.178  34.798  1.00  0.00     0.074 A 
ATOM     62  C   UNL A   1      38.281  34.164  34.676  1.00  0.00     0.031 C 
ATOM     63  C   UNL A   1      40.182  33.091  35.854  1.00  0.00     0.037 A 
BRANCH  50  64
ATOM     64  C   UNL A   1      44.246  28.444  35.456  1.00  0.00     0.058 A 
ATOM     65  C   UNL A   1      44.003  27.393  36.356  1.00  0.00     0.135 A 
ATOM     66  C   UNL A   1      45.583  28.755  35.159  1.00  0.00     0.135 A 
ATOM     67  F   UNL A   1      42.745  27.065  36.688  1.00  0.00    -0.206 F 
ATOM     68  C   UNL A   1      45.046  26.700  36.963  1.00  0.00     0.059 A 
ATOM     69  C   UNL A   1      46.641  28.058  35.734  1.00  0.00     0.059 A 
ATOM     70  F   UNL A   1      45.871  29.751  34.307  1.00  0.00    -0.206 F 
ATOM     71  C   UNL A   1      46.362  27.044  36.649  1.00  0.00     0.060 A 
BRANCH  71  72
ATOM     72  S   UNL A   1      47.705  26.148  37.457  1.00  0.00     0.124 S 
ATOM     73  O   UNL A   1      48.603  27.239  37.824  1.00  0.00    -0.237 OA
ATOM     74  O   UNL A   1      47.021  25.489  38.564  1.00  0.00    -0.237 OA
ATOM     75  O   UNL A   1      48.198  25.258  36.410  1.00  0.00    -0.744 OA
ENDBRANCH  71  72
ENDBRANCH  50  64
BRANCH  51  76
ATOM     76  C   UNL A   1      36.645  33.089  30.928  1.00  0.00     0.058 A 
ATOM     77  C   UNL A   1      35.339  32.912  31.405  1.00  0.00     0.135 A 
ATOM     78  C   UNL A   1      36.829  33.940  29.826  1.00  0.00     0.135 A 
ATOM     79  F   UNL A   1      35.110  32.098  32.447  1.00  0.00    -0.206 F 
ATOM     80  C   UNL A   1      34.255  33.552  30.814  1.00  0.00     0.059 A 
ATOM     81  C   UNL A   1      35.764  34.610  29.233  1.00  0.00     0.059 A 
ATOM     82  F   UNL A   1      38.061  34.150  29.337  1.00  0.00    -0.206 F 
ATOM     83  C   UNL A   1      34.479  34.405  29.732  1.00  0.00     0.060 A 
BRANCH  83  84
ATOM     84  S   UNL A   1      33.074  35.290  29.019  1.00  0.00     0.124 S 
ATOM     85  O   UNL A   1      32.591  34.329  28.034  1.00  0.00    -0.237 OA
ATOM     86  O   UNL A   1      32.220  35.497  30.184  1.00  0.00    -0.237 OA
ATOM     87  O   UNL A   1      33.682  36.501  28.475  1.00  0.00    -0.744 OA
ENDBRANCH  83  84
ENDBRANCH  51  76
BRANCH  63  88
ATOM     88  C   UNL A   1      40.029  34.107  36.953  1.00  0.00     0.058 A 
ATOM     89  C   UNL A   1      40.522  35.415  36.825  1.00  0.00     0.135 A 
ATOM     90  C   UNL A   1      39.330  33.783  38.127  1.00  0.00     0.135 A 
ATOM     91  F   UNL A   1      41.203  35.775  35.726  1.00  0.00    -0.206 F 
ATOM     92  C   UNL A   1      40.343  36.361  37.829  1.00  0.00     0.059 A 
ATOM     93  C   UNL A   1      39.117  34.720  39.134  1.00  0.00     0.059 A 
ATOM     94  F   UNL A   1      38.829  32.549  38.297  1.00  0.00    -0.206 F 
ATOM     95  C   UNL A   1      39.637  36.004  38.981  1.00  0.00     0.060 A 
BRANCH  95  96
ATOM     96  S   UNL A   1      39.380  37.250  40.262  1.00  0.00     0.124 S 
ATOM     97  O   UNL A   1      40.716  37.361  40.837  1.00  0.00    -0.237 OA
ATOM     98  O   UNL A   1      38.925  38.403  39.490  1.00  0.00    -0.237 OA
ATOM     99  O   UNL A   1      38.372  36.645  41.126  1.00  0.00    -0.744 OA
ENDBRANCH  95  96
ENDBRANCH  63  88
ENDBRANCH  37  38
ENDBRANCH  30  32
ENDBRANCH  29  30
ENDBRANCH  28  29
ENDBRANCH  27  28
ENDBRANCH  26  27
ENDBRANCH   1  26
TORSDOF 22
ENDMDL
MODEL 3
REMARK VINA RESULT:      -9.3      6.494      9.077
REMARK SMILES O=C(CSCc1ccc(C(=O)OCCOCCOC(=O)c2ccc(-c3c4nc(c(-c5c(F)cc(S(=O)(=O)[O-])cc5F)c5ccc([nH]5)c(-c5c(F)cc(S(=O)(=O)[O-])cc5F)c5nc(c(-c6c(F)cc(S(=O)(=O)[O-])cc6F)c6ccc3[nH]6)C=C5)C=C4)cc2)cc1)Nc1ccc(Cl)cc1
REMARK SMILES IDX 14 1 13 2 12 3 10 4 11 5 9 6 6 7 7 8 88 9 8 10 87 11 5 12
REMARK SMILES IDX 4 13 3 14 2 15 1 16 89 17 90 19 91 20 96 21 92 22 95 23
REMARK SMILES IDX 93 24 94 25 15 26 16 27 17 28 18 29 19 30 20 31 21 32 22 33
REMARK SMILES IDX 86 34 23 35 85 36 24 37 25 38 26 39 79 40 27 41 84 42 78 43
REMARK SMILES IDX 80 44 28 45 83 46 77 47 76 48 29 50 63 51 42 52 62 53 43 54
REMARK SMILES IDX 46 55 61 56 81 57 44 58 45 59 60 61 82 62 47 63 30 64 31 65
REMARK SMILES IDX 40 66 32 67 33 68 39 69 41 70 34 71 35 72 36 73 37 74 38 75
REMARK SMILES IDX 64 76 65 77 74 78 66 79 67 80 73 81 75 82 68 83 69 84 70 85
REMARK SMILES IDX 71 86 72 87 48 88 49 89 58 90 50 91 51 92 57 93 59 94 52 95
REMARK SMILES IDX 53 96 54 97 55 98 56 99
REMARK H PARENT 89 18 80 49 46 60
REMARK Flexibility Score: inf
ROOT
ATOM      1  C   UNL A   1      40.499  23.039  27.817  1.00  0.00     0.202 C 
ENDROOT
BRANCH   1   2
ATOM      2  C   UNL A   1      40.068  23.268  26.366  1.00  0.00     0.261 C 
BRANCH   2   3
ATOM      3  O   UNL A   1      38.652  23.497  26.274  1.00  0.00    -0.460 OA
BRANCH   3   4
ATOM      4  C   UNL A   1      37.969  22.571  25.561  1.00  0.00     0.338 C 
ATOM      5  O   UNL A   1      38.290  21.406  25.375  1.00  0.00    -0.246 OA
BRANCH   4   6
ATOM      6  C   UNL A   1      36.652  23.103  25.139  1.00  0.00     0.060 A 
ATOM      7  C   UNL A   1      34.221  24.132  24.144  1.00  0.00    -0.038 A 
ATOM      8  C   UNL A   1      34.983  23.226  23.388  1.00  0.00     0.005 A 
ATOM      9  C   UNL A   1      34.686  24.493  25.421  1.00  0.00     0.005 A 
ATOM     10  C   UNL A   1      36.188  22.722  23.878  1.00  0.00     0.016 A 
ATOM     11  C   UNL A   1      35.886  23.968  25.927  1.00  0.00     0.016 A 
BRANCH   7  12
ATOM     12  C   UNL A   1      33.034  24.782  23.474  1.00  0.00     0.105 C 
BRANCH  12  13
ATOM     13  S   UNL A   1      31.584  23.747  23.124  1.00  0.00    -0.147 SA
BRANCH  13  14
ATOM     14  C   UNL A   1      31.179  23.157  24.798  1.00  0.00     0.170 C 
BRANCH  14  15
ATOM     15  C   UNL A   1      32.023  21.977  25.259  1.00  0.00     0.234 C 
ATOM     16  O   UNL A   1      32.369  21.884  26.434  1.00  0.00    -0.274 OA
ATOM     17  N   UNL A   1      32.287  21.044  24.269  1.00  0.00    -0.325 N 
ATOM     18  H   UNL A   1      32.031  21.291  23.351  1.00  0.00     0.169 HD
BRANCH  17  19
ATOM     19  C   UNL A   1      32.885  19.779  24.436  1.00  0.00     0.041 A 
ATOM     20  C   UNL A   1      34.281  19.720  24.507  1.00  0.00     0.027 A 
ATOM     21  C   UNL A   1      32.153  18.589  24.508  1.00  0.00     0.027 A 
ATOM     22  C   UNL A   1      34.934  18.493  24.680  1.00  0.00     0.022 A 
ATOM     23  C   UNL A   1      32.804  17.361  24.662  1.00  0.00     0.022 A 
ATOM     24  C   UNL A   1      34.192  17.318  24.757  1.00  0.00     0.041 A 
ATOM     25  Cl  UNL A   1      34.991  15.809  24.964  1.00  0.00    -0.084 Cl
ENDBRANCH  17  19
ENDBRANCH  14  15
ENDBRANCH  13  14
ENDBRANCH  12  13
ENDBRANCH   7  12
ENDBRANCH   4   6
ENDBRANCH   3   4
ENDBRANCH   2   3
ENDBRANCH   1   2
BRANCH   1  26
ATOM     26  O   UNL A   1      40.966  21.723  28.126  1.00  0.00    -0.374 OA
BRANCH  26  27
ATOM     27  C   UNL A   1      40.944  20.770  27.062  1.00  0.00     0.202 C 
BRANCH  27  28
ATOM     28  C   UNL A   1      42.275  20.068  26.760  1.00  0.00     0.261 C 
BRANCH  28  29
ATOM     29  O   UNL A   1      42.646  20.200  25.376  1.00  0.00    -0.460 OA
BRANCH  29  30
ATOM     30  C   UNL A   1      43.976  20.125  25.133  1.00  0.00     0.338 C 
ATOM     31  O   UNL A   1      44.593  19.160  24.705  1.00  0.00    -0.246 OA
BRANCH  30  32
ATOM     32  C   UNL A   1      44.592  21.458  25.283  1.00  0.00     0.060 A 
ATOM     33  C   UNL A   1      45.228  21.742  26.499  1.00  0.00     0.016 A 
ATOM     34  C   UNL A   1      44.505  22.431  24.285  1.00  0.00     0.016 A 
ATOM     35  C   UNL A   1      45.733  23.017  26.741  1.00  0.00     0.010 A 
ATOM     36  C   UNL A   1      45.006  23.714  24.534  1.00  0.00     0.010 A 
ATOM     37  C   UNL A   1      45.590  24.022  25.776  1.00  0.00    -0.014 A 
BRANCH  37  38
ATOM     38  C   UNL A   1      45.927  25.424  26.121  1.00  0.00     0.031 A 
ATOM     39  C   UNL A   1      44.835  26.338  26.605  1.00  0.00     0.074 A 
ATOM     40  C   UNL A   1      47.192  25.871  26.027  1.00  0.00     0.049 A 
ATOM     41  N   UNL A   1      44.896  27.602  26.933  1.00  0.00    -0.248 NA
ATOM     42  C   UNL A   1      43.493  25.748  26.732  1.00  0.00     0.031 C 
ATOM     43  C   UNL A   1      48.339  25.072  25.600  1.00  0.00     0.029 A 
ATOM     44  N   UNL A   1      47.719  27.113  26.277  1.00  0.00    -0.354 N 
ATOM     45  C   UNL A   1      43.604  27.963  27.297  1.00  0.00     0.074 A 
ATOM     46  C   UNL A   1      42.774  26.790  27.121  1.00  0.00     0.031 C 
ATOM     47  C   UNL A   1      49.436  25.848  25.606  1.00  0.00     0.029 A 
ATOM     48  C   UNL A   1      49.064  27.204  26.008  1.00  0.00     0.049 A 
ATOM     49  H   UNL A   1      47.186  27.867  26.616  1.00  0.00     0.167 HD
ATOM     50  C   UNL A   1      43.152  29.159  27.744  1.00  0.00     0.037 A 
ATOM     51  C   UNL A   1      49.895  28.264  26.062  1.00  0.00     0.037 A 
ATOM     52  C   UNL A   1      43.983  30.322  27.918  1.00  0.00     0.049 A 
ATOM     53  C   UNL A   1      49.361  29.599  26.513  1.00  0.00     0.074 A 
ATOM     54  C   UNL A   1      43.626  31.573  28.389  1.00  0.00     0.029 A 
ATOM     55  N   UNL A   1      45.337  30.380  27.618  1.00  0.00    -0.354 N 
ATOM     56  N   UNL A   1      48.143  29.918  26.881  1.00  0.00    -0.248 NA
ATOM     57  C   UNL A   1      50.316  30.716  26.559  1.00  0.00     0.031 C 
ATOM     58  C   UNL A   1      44.753  32.400  28.330  1.00  0.00     0.029 A 
ATOM     59  C   UNL A   1      45.824  31.651  27.869  1.00  0.00     0.049 A 
ATOM     60  H   UNL A   1      45.872  29.627  27.276  1.00  0.00     0.167 HD
ATOM     61  C   UNL A   1      48.190  31.265  27.227  1.00  0.00     0.074 A 
ATOM     62  C   UNL A   1      49.559  31.698  27.031  1.00  0.00     0.031 C 
ATOM     63  C   UNL A   1      47.191  32.068  27.672  1.00  0.00     0.037 A 
BRANCH  50  64
ATOM     64  C   UNL A   1      41.683  29.275  28.046  1.00  0.00     0.058 A 
ATOM     65  C   UNL A   1      40.714  29.260  27.029  1.00  0.00     0.135 A 
ATOM     66  C   UNL A   1      41.238  29.391  29.373  1.00  0.00     0.135 A 
ATOM     67  F   UNL A   1      41.086  29.169  25.743  1.00  0.00    -0.206 F 
ATOM     68  C   UNL A   1      39.359  29.391  27.315  1.00  0.00     0.059 A 
ATOM     69  C   UNL A   1      39.886  29.495  29.683  1.00  0.00     0.059 A 
ATOM     70  F   UNL A   1      42.122  29.411  30.382  1.00  0.00    -0.206 F 
ATOM     71  C   UNL A   1      38.955  29.513  28.645  1.00  0.00     0.060 A 
BRANCH  71  72
ATOM     72  S   UNL A   1      37.194  29.697  29.001  1.00  0.00     0.124 S 
ATOM     73  O   UNL A   1      37.072  31.147  29.117  1.00  0.00    -0.237 OA
ATOM     74  O   UNL A   1      36.572  29.101  27.824  1.00  0.00    -0.237 OA
ATOM     75  O   UNL A   1      37.019  28.953  30.244  1.00  0.00    -0.744 OA
ENDBRANCH  71  72
ENDBRANCH  50  64
BRANCH  51  76
ATOM     76  C   UNL A   1      51.319  28.102  25.671  1.00  0.00     0.058 A 
ATOM     77  C   UNL A   1      51.731  28.271  24.342  1.00  0.00     0.135 A 
ATOM     78  C   UNL A   1      52.301  27.799  26.628  1.00  0.00     0.135 A 
ATOM     79  F   UNL A   1      50.828  28.548  23.389  1.00  0.00    -0.206 F 
ATOM     80  C   UNL A   1      53.067  28.145  23.973  1.00  0.00     0.059 A 
ATOM     81  C   UNL A   1      53.646  27.691  26.287  1.00  0.00     0.059 A 
ATOM     82  F   UNL A   1      51.959  27.636  27.915  1.00  0.00    -0.206 F 
ATOM     83  C   UNL A   1      54.018  27.861  24.955  1.00  0.00     0.060 A 
BRANCH  83  84
ATOM     84  S   UNL A   1      55.758  27.773  24.478  1.00  0.00     0.124 S 
ATOM     85  O   UNL A   1      55.970  29.091  23.892  1.00  0.00    -0.237 OA
ATOM     86  O   UNL A   1      56.414  27.530  25.759  1.00  0.00    -0.237 OA
ATOM     87  O   UNL A   1      55.793  26.652  23.543  1.00  0.00    -0.744 OA
ENDBRANCH  83  84
ENDBRANCH  51  76
BRANCH  63  88
ATOM     88  C   UNL A   1      47.541  33.492  28.009  1.00  0.00     0.058 A 
ATOM     89  C   UNL A   1      48.009  33.858  29.280  1.00  0.00     0.135 A 
ATOM     90  C   UNL A   1      47.461  34.493  27.027  1.00  0.00     0.135 A 
ATOM     91  F   UNL A   1      48.098  32.941  30.256  1.00  0.00    -0.206 F 
ATOM     92  C   UNL A   1      48.367  35.170  29.573  1.00  0.00     0.059 A 
ATOM     93  C   UNL A   1      47.838  35.807  27.290  1.00  0.00     0.059 A 
ATOM     94  F   UNL A   1      47.030  34.196  25.791  1.00  0.00    -0.206 F 
ATOM     95  C   UNL A   1      48.280  36.138  28.570  1.00  0.00     0.060 A 
BRANCH  95  96
ATOM     96  S   UNL A   1      48.783  37.830  28.951  1.00  0.00     0.124 S 
ATOM     97  O   UNL A   1      49.571  38.175  27.772  1.00  0.00    -0.237 OA
ATOM     98  O   UNL A   1      47.500  38.516  29.078  1.00  0.00    -0.237 OA
ATOM     99  O   UNL A   1      49.537  37.689  30.192  1.00  0.00    -0.744 OA
ENDBRANCH  95  96
ENDBRANCH  63  88
ENDBRANCH  37  38
ENDBRANCH  30  32
ENDBRANCH  29  30
ENDBRANCH  28  29
ENDBRANCH  27  28
ENDBRANCH  26  27
ENDBRANCH   1  26
TORSDOF 22
ENDMDL
