MODEL 1
REMARK VINA RESULT:     -12.7      0.000      0.000
REMARK SMILES Cc1ccc([C@H]2CC(c3cccs3)=NN2C(=O)CCC(=O)OCCOCCOC(=O)c2ccc(-c3c4nc(c(-c5c(F)cc(S(=O)(=O)[O-])cc5F)c5ccc([nH]5)c(-c5c(F)cc(S(=O)(=O)[O-])cc5F)c5nc(c(-c6c(F)cc(S(=O)(=O)[O-])cc6F)c6ccc3[nH]6)C=C5)C=C4)cc2)o1
REMARK SMILES IDX 24 1 23 2 22 3 20 4 21 5 19 6 18 7 16 8 17 9 15 10 6 11 7 12
REMARK SMILES IDX 8 13 14 14 5 15 1 16 2 17 3 18 97 19 4 20 9 21 10 22 13 23
REMARK SMILES IDX 11 24 12 25 25 26 26 27 27 28 28 29 29 30 30 31 31 32 32 33
REMARK SMILES IDX 96 34 33 35 95 36 34 37 35 38 36 39 89 40 37 41 94 42 88 43
REMARK SMILES IDX 90 44 38 45 93 46 87 47 86 48 39 50 73 51 52 52 72 53 53 54
REMARK SMILES IDX 56 55 71 56 91 57 54 58 55 59 70 61 92 62 57 63 40 64 41 65
REMARK SMILES IDX 50 66 42 67 43 68 49 69 51 70 44 71 45 72 46 73 47 74 48 75
REMARK SMILES IDX 74 76 75 77 84 78 76 79 77 80 83 81 85 82 78 83 79 84 80 85
REMARK SMILES IDX 81 86 82 87 58 88 59 89 68 90 60 91 61 92 67 93 69 94 62 95
REMARK SMILES IDX 63 96 64 97 65 98 66 99
REMARK H PARENT 90 49 56 60
REMARK Flexibility Score: inf
ROOT
ATOM      1  C   UNL A   1      34.315  22.910  26.476  1.00  0.00     0.202 C 
ENDROOT
BRANCH   1   2
ATOM      2  C   UNL A   1      33.067  22.561  27.620  1.00  0.00     0.261 C 
BRANCH   2   3
ATOM      3  O   UNL A   1      31.711  23.326  27.624  1.00  0.00    -0.463 OA
BRANCH   3   4
ATOM      4  C   UNL A   1      30.518  23.349  26.881  1.00  0.00     0.306 C 
ATOM      5  O   UNL A   1      29.423  23.278  27.434  1.00  0.00    -0.252 OA
BRANCH   4   6
ATOM      6  C   UNL A   1      30.599  23.886  25.264  1.00  0.00     0.132 C 
BRANCH   6   7
ATOM      7  C   UNL A   1      30.421  25.294  24.590  1.00  0.00     0.114 C 
BRANCH   7   8
ATOM      8  C   UNL A   1      31.442  25.453  23.537  1.00  0.00     0.243 C 
ATOM      9  O   UNL A   1      31.833  24.575  22.795  1.00  0.00    -0.273 OA
BRANCH   8  10
ATOM     10  N   UNL A   1      31.950  26.704  23.682  1.00  0.00    -0.222 N 
ATOM     11  C   UNL A   1      31.663  27.865  22.780  1.00  0.00     0.183 C 
ATOM     12  C   UNL A   1      32.890  28.660  23.310  1.00  0.00     0.095 C 
ATOM     13  C   UNL A   1      33.080  28.199  24.745  1.00  0.00     0.081 C 
ATOM     14  N   UNL A   1      32.683  26.973  24.861  1.00  0.00    -0.173 NA
BRANCH  11  15
ATOM     15  C   UNL A   1      29.985  28.471  22.569  1.00  0.00     0.129 A 
ATOM     16  C   UNL A   1      28.108  31.245  21.088  1.00  0.00     0.087 C 
ATOM     17  C   UNL A   1      28.508  30.010  21.775  1.00  0.00     0.101 A 
ATOM     18  C   UNL A   1      27.809  29.338  22.720  1.00  0.00     0.045 A 
ATOM     19  O   UNL A   1      29.740  29.428  21.550  1.00  0.00    -0.464 OA
ATOM     20  C   UNL A   1      28.679  28.331  23.122  1.00  0.00     0.048 A 
ENDBRANCH  11  15
BRANCH  13  21
ATOM     21  C   UNL A   1      33.572  29.053  25.824  1.00  0.00     0.050 A 
ATOM     22  C   UNL A   1      34.651  28.956  26.700  1.00  0.00     0.022 A 
ATOM     23  S   UNL A   1      32.604  30.335  26.315  1.00  0.00    -0.142 S 
ATOM     24  C   UNL A   1      34.651  29.979  27.724  1.00  0.00     0.012 A 
ATOM     25  C   UNL A   1      33.645  30.888  27.523  1.00  0.00     0.065 A 
ENDBRANCH  13  21
ENDBRANCH   8  10
ENDBRANCH   7   8
ENDBRANCH   6   7
ENDBRANCH   4   6
ENDBRANCH   3   4
ENDBRANCH   2   3
ENDBRANCH   1   2
BRANCH   1  26
ATOM     26  O   UNL A   1      35.520  22.207  26.083  1.00  0.00    -0.374 OA
BRANCH  26  27
ATOM     27  C   UNL A   1      36.912  22.503  25.848  1.00  0.00     0.202 C 
BRANCH  27  28
ATOM     28  C   UNL A   1      37.781  23.746  25.512  1.00  0.00     0.261 C 
BRANCH  28  29
ATOM     29  O   UNL A   1      38.143  24.621  26.569  1.00  0.00    -0.460 OA
BRANCH  29  30
ATOM     30  C   UNL A   1      39.445  24.530  26.925  1.00  0.00     0.338 C 
ATOM     31  O   UNL A   1      40.243  23.736  26.486  1.00  0.00    -0.246 OA
BRANCH  30  32
ATOM     32  C   UNL A   1      39.817  25.673  27.796  1.00  0.00     0.060 A 
ATOM     33  C   UNL A   1      39.135  25.719  29.010  1.00  0.00     0.016 A 
ATOM     34  C   UNL A   1      40.803  26.634  27.503  1.00  0.00     0.016 A 
ATOM     35  C   UNL A   1      39.465  26.691  29.949  1.00  0.00     0.010 A 
ATOM     36  C   UNL A   1      41.135  27.620  28.456  1.00  0.00     0.010 A 
ATOM     37  C   UNL A   1      40.490  27.636  29.701  1.00  0.00    -0.014 A 
BRANCH  37  38
ATOM     38  C   UNL A   1      40.637  28.699  30.734  1.00  0.00     0.031 A 
ATOM     39  C   UNL A   1      39.511  29.679  30.765  1.00  0.00     0.074 A 
ATOM     40  C   UNL A   1      41.572  28.701  31.711  1.00  0.00     0.049 A 
ATOM     41  N   UNL A   1      39.185  30.539  31.686  1.00  0.00    -0.248 NA
ATOM     42  C   UNL A   1      38.640  29.690  29.574  1.00  0.00     0.031 C 
ATOM     43  C   UNL A   1      42.783  27.893  31.737  1.00  0.00     0.029 A 
ATOM     44  N   UNL A   1      41.611  29.359  32.925  1.00  0.00    -0.354 N 
ATOM     45  C   UNL A   1      38.110  31.234  31.159  1.00  0.00     0.074 A 
ATOM     46  C   UNL A   1      37.789  30.652  29.877  1.00  0.00     0.031 C 
ATOM     47  C   UNL A   1      43.333  27.943  32.964  1.00  0.00     0.029 A 
ATOM     48  C   UNL A   1      42.584  28.882  33.792  1.00  0.00     0.049 A 
ATOM     49  H   UNL A   1      41.002  30.098  33.155  1.00  0.00     0.167 HD
ATOM     50  C   UNL A   1      37.499  32.323  31.668  1.00  0.00     0.037 A 
ATOM     51  C   UNL A   1      42.835  29.184  35.089  1.00  0.00     0.037 A 
ATOM     52  C   UNL A   1      37.894  32.946  32.896  1.00  0.00     0.049 A 
ATOM     53  C   UNL A   1      42.075  30.356  35.675  1.00  0.00     0.074 A 
ATOM     54  C   UNL A   1      37.416  34.111  33.459  1.00  0.00     0.029 A 
ATOM     55  N   UNL A   1      38.888  32.464  33.737  1.00  0.00    -0.354 N 
ATOM     56  N   UNL A   1      41.070  31.026  35.160  1.00  0.00    -0.248 NA
ATOM     57  C   UNL A   1      42.542  30.880  36.968  1.00  0.00     0.031 C 
ATOM     58  C   UNL A   1      38.154  34.362  34.618  1.00  0.00     0.029 A 
ATOM     59  C   UNL A   1      39.042  33.314  34.815  1.00  0.00     0.049 A 
ATOM     60  H   UNL A   1      39.407  31.640  33.586  1.00  0.00     0.167 HD
ATOM     61  C   UNL A   1      40.819  32.073  36.038  1.00  0.00     0.074 A 
ATOM     62  C   UNL A   1      41.724  31.906  37.156  1.00  0.00     0.031 C 
ATOM     63  C   UNL A   1      39.952  33.107  35.914  1.00  0.00     0.037 A 
BRANCH  50  64
ATOM     64  C   UNL A   1      36.467  32.962  30.795  1.00  0.00     0.058 A 
ATOM     65  C   UNL A   1      36.812  33.790  29.717  1.00  0.00     0.135 A 
ATOM     66  C   UNL A   1      35.108  32.818  31.115  1.00  0.00     0.135 A 
ATOM     67  F   UNL A   1      38.102  34.012  29.418  1.00  0.00    -0.206 F 
ATOM     68  C   UNL A   1      35.841  34.470  28.994  1.00  0.00     0.059 A 
ATOM     69  C   UNL A   1      34.120  33.464  30.387  1.00  0.00     0.059 A 
ATOM     70  F   UNL A   1      34.735  32.073  32.167  1.00  0.00    -0.206 F 
ATOM     71  C   UNL A   1      34.498  34.299  29.335  1.00  0.00     0.060 A 
BRANCH  71  72
ATOM     72  S   UNL A   1      33.249  35.178  28.379  1.00  0.00     0.124 S 
ATOM     73  O   UNL A   1      32.486  35.839  29.433  1.00  0.00    -0.237 OA
ATOM     74  O   UNL A   1      34.062  36.053  27.541  1.00  0.00    -0.237 OA
ATOM     75  O   UNL A   1      32.548  34.110  27.673  1.00  0.00    -0.744 OA
ENDBRANCH  71  72
ENDBRANCH  50  64
BRANCH  51  76
ATOM     76  C   UNL A   1      43.872  28.480  35.924  1.00  0.00     0.058 A 
ATOM     77  C   UNL A   1      43.526  27.402  36.767  1.00  0.00     0.135 A 
ATOM     78  C   UNL A   1      45.209  28.905  35.977  1.00  0.00     0.135 A 
ATOM     79  F   UNL A   1      42.259  26.960  36.801  1.00  0.00    -0.206 F 
ATOM     80  C   UNL A   1      44.447  26.796  37.626  1.00  0.00     0.059 A 
ATOM     81  C   UNL A   1      46.160  28.285  36.790  1.00  0.00     0.059 A 
ATOM     82  F   UNL A   1      45.613  29.951  35.240  1.00  0.00    -0.206 F 
ATOM     83  C   UNL A   1      45.767  27.242  37.627  1.00  0.00     0.060 A 
BRANCH  83  84
ATOM     84  S   UNL A   1      46.973  26.439  38.712  1.00  0.00     0.124 S 
ATOM     85  O   UNL A   1      46.108  25.836  39.719  1.00  0.00    -0.237 OA
ATOM     86  O   UNL A   1      47.638  25.509  37.804  1.00  0.00    -0.237 OA
ATOM     87  O   UNL A   1      47.799  27.551  39.173  1.00  0.00    -0.744 OA
ENDBRANCH  83  84
ENDBRANCH  51  76
BRANCH  63  88
ATOM     88  C   UNL A   1      39.921  34.122  37.019  1.00  0.00     0.058 A 
ATOM     89  C   UNL A   1      40.696  35.292  36.972  1.00  0.00     0.135 A 
ATOM     90  C   UNL A   1      39.038  33.956  38.096  1.00  0.00     0.135 A 
ATOM     91  F   UNL A   1      41.557  35.494  35.961  1.00  0.00    -0.206 F 
ATOM     92  C   UNL A   1      40.608  36.256  37.969  1.00  0.00     0.059 A 
ATOM     93  C   UNL A   1      38.912  34.920  39.088  1.00  0.00     0.059 A 
ATOM     94  F   UNL A   1      38.266  32.860  38.176  1.00  0.00    -0.206 F 
ATOM     95  C   UNL A   1      39.709  36.063  39.021  1.00  0.00     0.060 A 
BRANCH  95  96
ATOM     96  S   UNL A   1      39.571  37.339  40.287  1.00  0.00     0.124 S 
ATOM     97  O   UNL A   1      40.966  37.724  40.470  1.00  0.00    -0.237 OA
ATOM     98  O   UNL A   1      38.718  38.330  39.639  1.00  0.00    -0.237 OA
ATOM     99  O   UNL A   1      38.960  36.636  41.413  1.00  0.00    -0.744 OA
ENDBRANCH  95  96
ENDBRANCH  63  88
ENDBRANCH  37  38
ENDBRANCH  30  32
ENDBRANCH  29  30
ENDBRANCH  28  29
ENDBRANCH  27  28
ENDBRANCH  26  27
ENDBRANCH   1  26
TORSDOF 22
ENDMDL
MODEL 2
REMARK VINA RESULT:     -12.3      5.030      9.044
REMARK SMILES Cc1ccc([C@H]2CC(c3cccs3)=NN2C(=O)CCC(=O)OCCOCCOC(=O)c2ccc(-c3c4nc(c(-c5c(F)cc(S(=O)(=O)[O-])cc5F)c5ccc([nH]5)c(-c5c(F)cc(S(=O)(=O)[O-])cc5F)c5nc(c(-c6c(F)cc(S(=O)(=O)[O-])cc6F)c6ccc3[nH]6)C=C5)C=C4)cc2)o1
REMARK SMILES IDX 24 1 23 2 22 3 20 4 21 5 19 6 18 7 16 8 17 9 15 10 6 11 7 12
REMARK SMILES IDX 8 13 14 14 5 15 1 16 2 17 3 18 97 19 4 20 9 21 10 22 13 23
REMARK SMILES IDX 11 24 12 25 25 26 26 27 27 28 28 29 29 30 30 31 31 32 32 33
REMARK SMILES IDX 96 34 33 35 95 36 34 37 35 38 36 39 89 40 37 41 94 42 88 43
REMARK SMILES IDX 90 44 38 45 93 46 87 47 86 48 39 50 73 51 52 52 72 53 53 54
REMARK SMILES IDX 56 55 71 56 91 57 54 58 55 59 70 61 92 62 57 63 40 64 41 65
REMARK SMILES IDX 50 66 42 67 43 68 49 69 51 70 44 71 45 72 46 73 47 74 48 75
REMARK SMILES IDX 74 76 75 77 84 78 76 79 77 80 83 81 85 82 78 83 79 84 80 85
REMARK SMILES IDX 81 86 82 87 58 88 59 89 68 90 60 91 61 92 67 93 69 94 62 95
REMARK SMILES IDX 63 96 64 97 65 98 66 99
REMARK H PARENT 90 49 56 60
REMARK Flexibility Score: inf
ROOT
ATOM      1  C   UNL A   1      34.407  22.278  26.907  1.00  0.00     0.202 C 
ENDROOT
BRANCH   1   2
ATOM      2  C   UNL A   1      32.833  22.494  27.590  1.00  0.00     0.261 C 
BRANCH   2   3
ATOM      3  O   UNL A   1      31.567  22.688  26.704  1.00  0.00    -0.463 OA
BRANCH   3   4
ATOM      4  C   UNL A   1      30.315  23.322  26.788  1.00  0.00     0.306 C 
ATOM      5  O   UNL A   1      29.496  23.001  27.645  1.00  0.00    -0.252 OA
BRANCH   4   6
ATOM      6  C   UNL A   1      30.117  24.800  25.960  1.00  0.00     0.132 C 
BRANCH   6   7
ATOM      7  C   UNL A   1      30.584  25.311  24.549  1.00  0.00     0.114 C 
BRANCH   7   8
ATOM      8  C   UNL A   1      29.890  26.578  24.246  1.00  0.00     0.243 C 
ATOM      9  O   UNL A   1      28.723  26.685  23.929  1.00  0.00    -0.273 OA
BRANCH   8  10
ATOM     10  N   UNL A   1      30.844  27.543  24.238  1.00  0.00    -0.222 N 
ATOM     11  C   UNL A   1      30.987  28.612  23.198  1.00  0.00     0.183 C 
ATOM     12  C   UNL A   1      32.446  28.928  23.632  1.00  0.00     0.095 C 
ATOM     13  C   UNL A   1      32.506  28.599  25.114  1.00  0.00     0.081 C 
ATOM     14  N   UNL A   1      31.674  27.644  25.379  1.00  0.00    -0.173 NA
BRANCH  11  15
ATOM     15  C   UNL A   1      29.662  29.789  22.904  1.00  0.00     0.129 A 
ATOM     16  C   UNL A   1      28.032  31.649  20.202  1.00  0.00     0.087 C 
ATOM     17  C   UNL A   1      28.419  31.080  21.500  1.00  0.00     0.101 A 
ATOM     18  C   UNL A   1      28.190  31.609  22.725  1.00  0.00     0.045 A 
ATOM     19  O   UNL A   1      29.156  29.915  21.584  1.00  0.00    -0.464 OA
ATOM     20  C   UNL A   1      28.863  30.751  23.588  1.00  0.00     0.048 A 
ENDBRANCH  11  15
BRANCH  13  21
ATOM     21  C   UNL A   1      33.333  29.316  26.083  1.00  0.00     0.050 A 
ATOM     22  C   UNL A   1      34.578  29.055  26.652  1.00  0.00     0.022 A 
ATOM     23  S   UNL A   1      32.654  30.633  26.873  1.00  0.00    -0.142 S 
ATOM     24  C   UNL A   1      34.935  29.987  27.699  1.00  0.00     0.012 A 
ATOM     25  C   UNL A   1      34.011  30.994  27.810  1.00  0.00     0.065 A 
ENDBRANCH  13  21
ENDBRANCH   8  10
ENDBRANCH   7   8
ENDBRANCH   6   7
ENDBRANCH   4   6
ENDBRANCH   3   4
ENDBRANCH   2   3
ENDBRANCH   1   2
BRANCH   1  26
ATOM     26  O   UNL A   1      35.011  21.212  26.133  1.00  0.00    -0.374 OA
BRANCH  26  27
ATOM     27  C   UNL A   1      35.951  21.068  25.049  1.00  0.00     0.202 C 
BRANCH  27  28
ATOM     28  C   UNL A   1      37.377  21.569  24.691  1.00  0.00     0.261 C 
BRANCH  28  29
ATOM     29  O   UNL A   1      37.991  22.522  25.545  1.00  0.00    -0.460 OA
BRANCH  29  30
ATOM     30  C   UNL A   1      39.102  22.059  26.164  1.00  0.00     0.338 C 
ATOM     31  O   UNL A   1      39.565  20.949  26.045  1.00  0.00    -0.246 OA
BRANCH  30  32
ATOM     32  C   UNL A   1      39.794  23.167  26.867  1.00  0.00     0.060 A 
ATOM     33  C   UNL A   1      39.345  24.440  26.521  1.00  0.00     0.016 A 
ATOM     34  C   UNL A   1      40.792  23.013  27.847  1.00  0.00     0.016 A 
ATOM     35  C   UNL A   1      39.854  25.553  27.182  1.00  0.00     0.010 A 
ATOM     36  C   UNL A   1      41.309  24.143  28.516  1.00  0.00     0.010 A 
ATOM     37  C   UNL A   1      40.819  25.421  28.210  1.00  0.00    -0.014 A 
BRANCH  37  38
ATOM     38  C   UNL A   1      41.373  26.703  28.728  1.00  0.00     0.031 A 
ATOM     39  C   UNL A   1      42.763  26.997  28.269  1.00  0.00     0.074 A 
ATOM     40  C   UNL A   1      40.656  27.644  29.383  1.00  0.00     0.049 A 
ATOM     41  N   UNL A   1      43.427  28.115  28.299  1.00  0.00    -0.248 NA
ATOM     42  C   UNL A   1      43.506  25.852  27.707  1.00  0.00     0.031 C 
ATOM     43  C   UNL A   1      39.349  27.452  29.994  1.00  0.00     0.029 A 
ATOM     44  N   UNL A   1      40.895  28.992  29.577  1.00  0.00    -0.354 N 
ATOM     45  C   UNL A   1      44.685  27.795  27.818  1.00  0.00     0.074 A 
ATOM     46  C   UNL A   1      44.673  26.403  27.432  1.00  0.00     0.031 C 
ATOM     47  C   UNL A   1      38.818  28.648  30.310  1.00  0.00     0.029 A 
ATOM     48  C   UNL A   1      39.792  29.698  30.035  1.00  0.00     0.049 A 
ATOM     49  H   UNL A   1      41.769  29.412  29.405  1.00  0.00     0.167 HD
ATOM     50  C   UNL A   1      45.782  28.578  27.782  1.00  0.00     0.037 A 
ATOM     51  C   UNL A   1      39.609  31.029  30.215  1.00  0.00     0.037 A 
ATOM     52  C   UNL A   1      45.801  29.929  28.258  1.00  0.00     0.049 A 
ATOM     53  C   UNL A   1      40.835  31.908  30.084  1.00  0.00     0.074 A 
ATOM     54  C   UNL A   1      46.877  30.786  28.365  1.00  0.00     0.029 A 
ATOM     55  N   UNL A   1      44.688  30.610  28.735  1.00  0.00    -0.354 N 
ATOM     56  N   UNL A   1      42.032  31.593  29.647  1.00  0.00    -0.248 NA
ATOM     57  C   UNL A   1      40.720  33.295  30.562  1.00  0.00     0.031 C 
ATOM     58  C   UNL A   1      46.426  31.970  28.953  1.00  0.00     0.029 A 
ATOM     59  C   UNL A   1      45.054  31.877  29.144  1.00  0.00     0.049 A 
ATOM     60  H   UNL A   1      43.775  30.243  28.776  1.00  0.00     0.167 HD
ATOM     61  C   UNL A   1      42.820  32.721  29.842  1.00  0.00     0.074 A 
ATOM     62  C   UNL A   1      41.948  33.753  30.365  1.00  0.00     0.031 C 
ATOM     63  C   UNL A   1      44.152  32.880  29.652  1.00  0.00     0.037 A 
BRANCH  50  64
ATOM     64  C   UNL A   1      47.050  27.910  27.357  1.00  0.00     0.058 A 
ATOM     65  C   UNL A   1      47.920  27.310  28.278  1.00  0.00     0.135 A 
ATOM     66  C   UNL A   1      47.442  27.967  26.011  1.00  0.00     0.135 A 
ATOM     67  F   UNL A   1      47.618  27.295  29.587  1.00  0.00    -0.206 F 
ATOM     68  C   UNL A   1      49.150  26.801  27.880  1.00  0.00     0.059 A 
ATOM     69  C   UNL A   1      48.653  27.438  25.586  1.00  0.00     0.059 A 
ATOM     70  F   UNL A   1      46.663  28.573  25.102  1.00  0.00    -0.206 F 
ATOM     71  C   UNL A   1      49.505  26.868  26.531  1.00  0.00     0.060 A 
BRANCH  71  72
ATOM     72  S   UNL A   1      51.099  26.193  26.028  1.00  0.00     0.124 S 
ATOM     73  O   UNL A   1      52.024  27.081  26.722  1.00  0.00    -0.237 OA
ATOM     74  O   UNL A   1      51.029  24.827  26.536  1.00  0.00    -0.237 OA
ATOM     75  O   UNL A   1      51.077  26.320  24.574  1.00  0.00    -0.744 OA
ENDBRANCH  71  72
ENDBRANCH  50  64
BRANCH  51  76
ATOM     76  C   UNL A   1      38.294  31.643  30.616  1.00  0.00     0.058 A 
ATOM     77  C   UNL A   1      37.498  32.342  29.684  1.00  0.00     0.135 A 
ATOM     78  C   UNL A   1      37.832  31.631  31.942  1.00  0.00     0.135 A 
ATOM     79  F   UNL A   1      37.889  32.431  28.403  1.00  0.00    -0.206 F 
ATOM     80  C   UNL A   1      36.323  33.006  30.050  1.00  0.00     0.059 A 
ATOM     81  C   UNL A   1      36.637  32.246  32.324  1.00  0.00     0.059 A 
ATOM     82  F   UNL A   1      38.550  31.026  32.900  1.00  0.00    -0.206 F 
ATOM     83  C   UNL A   1      35.897  32.948  31.375  1.00  0.00     0.060 A 
BRANCH  83  84
ATOM     84  S   UNL A   1      34.359  33.777  31.849  1.00  0.00     0.124 S 
ATOM     85  O   UNL A   1      34.858  35.029  32.405  1.00  0.00    -0.237 OA
ATOM     86  O   UNL A   1      33.656  33.881  30.574  1.00  0.00    -0.237 OA
ATOM     87  O   UNL A   1      33.764  32.853  32.810  1.00  0.00    -0.744 OA
ENDBRANCH  83  84
ENDBRANCH  51  76
BRANCH  63  88
ATOM     88  C   UNL A   1      44.744  34.218  29.985  1.00  0.00     0.058 A 
ATOM     89  C   UNL A   1      44.761  35.272  29.058  1.00  0.00     0.135 A 
ATOM     90  C   UNL A   1      45.222  34.469  31.280  1.00  0.00     0.135 A 
ATOM     91  F   UNL A   1      44.316  35.080  27.806  1.00  0.00    -0.206 F 
ATOM     92  C   UNL A   1      45.251  36.527  29.401  1.00  0.00     0.059 A 
ATOM     93  C   UNL A   1      45.687  35.723  31.653  1.00  0.00     0.059 A 
ATOM     94  F   UNL A   1      45.211  33.495  32.205  1.00  0.00    -0.206 F 
ATOM     95  C   UNL A   1      45.708  36.743  30.703  1.00  0.00     0.060 A 
BRANCH  95  96
ATOM     96  S   UNL A   1      46.301  38.386  31.151  1.00  0.00     0.124 S 
ATOM     97  O   UNL A   1      45.098  38.990  31.713  1.00  0.00    -0.237 OA
ATOM     98  O   UNL A   1      47.366  38.085  32.102  1.00  0.00    -0.237 OA
ATOM     99  O   UNL A   1      46.747  38.945  29.877  1.00  0.00    -0.744 OA
ENDBRANCH  95  96
ENDBRANCH  63  88
ENDBRANCH  37  38
ENDBRANCH  30  32
ENDBRANCH  29  30
ENDBRANCH  28  29
ENDBRANCH  27  28
ENDBRANCH  26  27
ENDBRANCH   1  26
TORSDOF 22
ENDMDL
MODEL 3
REMARK VINA RESULT:     -11.6      2.790      8.423
REMARK SMILES Cc1ccc([C@H]2CC(c3cccs3)=NN2C(=O)CCC(=O)OCCOCCOC(=O)c2ccc(-c3c4nc(c(-c5c(F)cc(S(=O)(=O)[O-])cc5F)c5ccc([nH]5)c(-c5c(F)cc(S(=O)(=O)[O-])cc5F)c5nc(c(-c6c(F)cc(S(=O)(=O)[O-])cc6F)c6ccc3[nH]6)C=C5)C=C4)cc2)o1
REMARK SMILES IDX 24 1 23 2 22 3 20 4 21 5 19 6 18 7 16 8 17 9 15 10 6 11 7 12
REMARK SMILES IDX 8 13 14 14 5 15 1 16 2 17 3 18 97 19 4 20 9 21 10 22 13 23
REMARK SMILES IDX 11 24 12 25 25 26 26 27 27 28 28 29 29 30 30 31 31 32 32 33
REMARK SMILES IDX 96 34 33 35 95 36 34 37 35 38 36 39 89 40 37 41 94 42 88 43
REMARK SMILES IDX 90 44 38 45 93 46 87 47 86 48 39 50 73 51 52 52 72 53 53 54
REMARK SMILES IDX 56 55 71 56 91 57 54 58 55 59 70 61 92 62 57 63 40 64 41 65
REMARK SMILES IDX 50 66 42 67 43 68 49 69 51 70 44 71 45 72 46 73 47 74 48 75
REMARK SMILES IDX 74 76 75 77 84 78 76 79 77 80 83 81 85 82 78 83 79 84 80 85
REMARK SMILES IDX 81 86 82 87 58 88 59 89 68 90 60 91 61 92 67 93 69 94 62 95
REMARK SMILES IDX 63 96 64 97 65 98 66 99
REMARK H PARENT 90 49 56 60
REMARK Flexibility Score: inf
ROOT
ATOM      1  C   UNL A   1      34.448  22.526  27.074  1.00  0.00     0.202 C 
ENDROOT
BRANCH   1   2
ATOM      2  C   UNL A   1      32.948  22.227  27.880  1.00  0.00     0.261 C 
BRANCH   2   3
ATOM      3  O   UNL A   1      31.693  23.117  27.647  1.00  0.00    -0.463 OA
BRANCH   3   4
ATOM      4  C   UNL A   1      30.728  23.329  26.646  1.00  0.00     0.306 C 
ATOM      5  O   UNL A   1      29.829  22.516  26.448  1.00  0.00    -0.252 OA
BRANCH   4   6
ATOM      6  C   UNL A   1      30.585  24.902  26.001  1.00  0.00     0.132 C 
BRANCH   6   7
ATOM      7  C   UNL A   1      30.142  25.449  24.596  1.00  0.00     0.114 C 
BRANCH   7   8
ATOM      8  C   UNL A   1      31.328  25.540  23.723  1.00  0.00     0.243 C 
ATOM      9  O   UNL A   1      31.842  24.612  23.132  1.00  0.00    -0.273 OA
BRANCH   8  10
ATOM     10  N   UNL A   1      31.801  26.806  23.851  1.00  0.00    -0.222 N 
ATOM     11  C   UNL A   1      31.398  27.972  23.002  1.00  0.00     0.183 C 
ATOM     12  C   UNL A   1      32.636  28.803  23.442  1.00  0.00     0.095 C 
ATOM     13  C   UNL A   1      32.965  28.323  24.846  1.00  0.00     0.081 C 
ATOM     14  N   UNL A   1      32.622  27.081  24.970  1.00  0.00    -0.173 NA
BRANCH  11  15
ATOM     15  C   UNL A   1      29.687  28.518  22.947  1.00  0.00     0.129 A 
ATOM     16  C   UNL A   1      27.641  31.548  23.165  1.00  0.00     0.087 C 
ATOM     17  C   UNL A   1      28.119  30.166  23.024  1.00  0.00     0.101 A 
ATOM     18  C   UNL A   1      27.417  29.032  23.259  1.00  0.00     0.045 A 
ATOM     19  O   UNL A   1      29.428  29.888  22.683  1.00  0.00    -0.464 OA
ATOM     20  C   UNL A   1      28.360  28.021  23.102  1.00  0.00     0.048 A 
ENDBRANCH  11  15
BRANCH  13  21
ATOM     21  C   UNL A   1      33.516  29.175  25.898  1.00  0.00     0.050 A 
ATOM     22  C   UNL A   1      34.636  29.071  26.720  1.00  0.00     0.022 A 
ATOM     23  S   UNL A   1      32.583  30.465  26.434  1.00  0.00    -0.142 S 
ATOM     24  C   UNL A   1      34.696  30.095  27.739  1.00  0.00     0.012 A 
ATOM     25  C   UNL A   1      33.687  31.012  27.587  1.00  0.00     0.065 A 
ENDBRANCH  13  21
ENDBRANCH   8  10
ENDBRANCH   7   8
ENDBRANCH   6   7
ENDBRANCH   4   6
ENDBRANCH   3   4
ENDBRANCH   2   3
ENDBRANCH   1   2
BRANCH   1  26
ATOM     26  O   UNL A   1      35.365  21.673  26.344  1.00  0.00    -0.374 OA
BRANCH  26  27
ATOM     27  C   UNL A   1      36.176  21.733  25.154  1.00  0.00     0.202 C 
BRANCH  27  28
ATOM     28  C   UNL A   1      37.345  22.595  24.603  1.00  0.00     0.261 C 
BRANCH  28  29
ATOM     29  O   UNL A   1      37.798  23.692  25.381  1.00  0.00    -0.460 OA
BRANCH  29  30
ATOM     30  C   UNL A   1      38.889  23.410  26.130  1.00  0.00     0.338 C 
ATOM     31  O   UNL A   1      39.530  22.387  26.087  1.00  0.00    -0.246 OA
BRANCH  30  32
ATOM     32  C   UNL A   1      39.316  24.615  26.885  1.00  0.00     0.060 A 
ATOM     33  C   UNL A   1      38.935  24.621  28.225  1.00  0.00     0.016 A 
ATOM     34  C   UNL A   1      40.084  25.673  26.365  1.00  0.00     0.016 A 
ATOM     35  C   UNL A   1      39.357  25.653  29.056  1.00  0.00     0.010 A 
ATOM     36  C   UNL A   1      40.510  26.721  27.209  1.00  0.00     0.010 A 
ATOM     37  C   UNL A   1      40.176  26.701  28.571  1.00  0.00    -0.014 A 
BRANCH  37  38
ATOM     38  C   UNL A   1      40.432  27.806  29.536  1.00  0.00     0.031 A 
ATOM     39  C   UNL A   1      41.855  27.915  29.977  1.00  0.00     0.074 A 
ATOM     40  C   UNL A   1      39.542  28.774  29.854  1.00  0.00     0.049 A 
ATOM     41  N   UNL A   1      42.466  28.896  30.573  1.00  0.00    -0.248 NA
ATOM     42  C   UNL A   1      42.698  26.733  29.711  1.00  0.00     0.031 C 
ATOM     43  C   UNL A   1      38.110  28.735  29.601  1.00  0.00     0.029 A 
ATOM     44  N   UNL A   1      39.729  30.032  30.394  1.00  0.00    -0.354 N 
ATOM     45  C   UNL A   1      43.747  28.427  30.809  1.00  0.00     0.074 A 
ATOM     46  C   UNL A   1      43.852  27.109  30.228  1.00  0.00     0.031 C 
ATOM     47  C   UNL A   1      37.583  29.958  29.792  1.00  0.00     0.029 A 
ATOM     48  C   UNL A   1      38.617  30.856  30.296  1.00  0.00     0.049 A 
ATOM     49  H   UNL A   1      40.574  30.318  30.810  1.00  0.00     0.167 HD
ATOM     50  C   UNL A   1      44.725  29.016  31.526  1.00  0.00     0.037 A 
ATOM     51  C   UNL A   1      38.463  32.170  30.591  1.00  0.00     0.037 A 
ATOM     52  C   UNL A   1      44.571  30.283  32.176  1.00  0.00     0.049 A 
ATOM     53  C   UNL A   1      39.609  32.843  31.319  1.00  0.00     0.074 A 
ATOM     54  C   UNL A   1      45.456  30.931  33.012  1.00  0.00     0.029 A 
ATOM     55  N   UNL A   1      43.438  31.081  32.083  1.00  0.00    -0.354 N 
ATOM     56  N   UNL A   1      40.815  32.384  31.558  1.00  0.00    -0.248 NA
ATOM     57  C   UNL A   1      39.346  34.167  31.904  1.00  0.00     0.031 C 
ATOM     58  C   UNL A   1      44.841  32.101  33.466  1.00  0.00     0.029 A 
ATOM     59  C   UNL A   1      43.601  32.216  32.854  1.00  0.00     0.049 A 
ATOM     60  H   UNL A   1      42.638  30.869  31.549  1.00  0.00     0.167 HD
ATOM     61  C   UNL A   1      41.435  33.336  32.359  1.00  0.00     0.074 A 
ATOM     62  C   UNL A   1      40.500  34.433  32.500  1.00  0.00     0.031 C 
ATOM     63  C   UNL A   1      42.647  33.291  32.962  1.00  0.00     0.037 A 
BRANCH  50  64
ATOM     64  C   UNL A   1      45.956  28.198  31.748  1.00  0.00     0.058 A 
ATOM     65  C   UNL A   1      46.071  27.302  32.821  1.00  0.00     0.135 A 
ATOM     66  C   UNL A   1      47.076  28.399  30.926  1.00  0.00     0.135 A 
ATOM     67  F   UNL A   1      45.049  27.131  33.675  1.00  0.00    -0.206 F 
ATOM     68  C   UNL A   1      47.265  26.642  33.081  1.00  0.00     0.059 A 
ATOM     69  C   UNL A   1      48.269  27.727  31.150  1.00  0.00     0.059 A 
ATOM     70  F   UNL A   1      47.026  29.282  29.916  1.00  0.00    -0.206 F 
ATOM     71  C   UNL A   1      48.357  26.859  32.238  1.00  0.00     0.060 A 
BRANCH  71  72
ATOM     72  S   UNL A   1      49.896  25.986  32.582  1.00  0.00     0.124 S 
ATOM     73  O   UNL A   1      50.888  27.008  32.268  1.00  0.00    -0.237 OA
ATOM     74  O   UNL A   1      49.752  25.654  33.995  1.00  0.00    -0.237 OA
ATOM     75  O   UNL A   1      49.853  24.850  31.665  1.00  0.00    -0.744 OA
ENDBRANCH  71  72
ENDBRANCH  50  64
BRANCH  51  76
ATOM     76  C   UNL A   1      37.202  32.945  30.313  1.00  0.00     0.058 A 
ATOM     77  C   UNL A   1      36.177  33.046  31.278  1.00  0.00     0.135 A 
ATOM     78  C   UNL A   1      36.939  33.530  29.064  1.00  0.00     0.135 A 
ATOM     79  F   UNL A   1      36.336  32.481  32.485  1.00  0.00    -0.206 F 
ATOM     80  C   UNL A   1      34.956  33.673  31.012  1.00  0.00     0.059 A 
ATOM     81  C   UNL A   1      35.747  34.204  28.790  1.00  0.00     0.059 A 
ATOM     82  F   UNL A   1      37.843  33.443  28.077  1.00  0.00    -0.206 F 
ATOM     83  C   UNL A   1      34.752  34.256  29.763  1.00  0.00     0.060 A 
BRANCH  83  84
ATOM     84  S   UNL A   1      33.187  35.099  29.424  1.00  0.00     0.124 S 
ATOM     85  O   UNL A   1      32.552  34.180  28.487  1.00  0.00    -0.237 OA
ATOM     86  O   UNL A   1      32.581  35.176  30.750  1.00  0.00    -0.237 OA
ATOM     87  O   UNL A   1      33.612  36.379  28.863  1.00  0.00    -0.744 OA
ENDBRANCH  83  84
ENDBRANCH  51  76
BRANCH  63  88
ATOM     88  C   UNL A   1      43.043  34.466  33.807  1.00  0.00     0.058 A 
ATOM     89  C   UNL A   1      42.892  34.460  35.203  1.00  0.00     0.135 A 
ATOM     90  C   UNL A   1      43.662  35.577  33.214  1.00  0.00     0.135 A 
ATOM     91  F   UNL A   1      42.304  33.420  35.815  1.00  0.00    -0.206 F 
ATOM     92  C   UNL A   1      43.325  35.527  35.980  1.00  0.00     0.059 A 
ATOM     93  C   UNL A   1      44.130  36.641  33.975  1.00  0.00     0.059 A 
ATOM     94  F   UNL A   1      43.842  35.621  31.884  1.00  0.00    -0.206 F 
ATOM     95  C   UNL A   1      43.947  36.611  35.357  1.00  0.00     0.060 A 
BRANCH  95  96
ATOM     96  S   UNL A   1      44.545  37.972  36.379  1.00  0.00     0.124 S 
ATOM     97  O   UNL A   1      45.890  37.518  36.714  1.00  0.00    -0.237 OA
ATOM     98  O   UNL A   1      44.466  39.107  35.465  1.00  0.00    -0.237 OA
ATOM     99  O   UNL A   1      43.598  38.003  37.491  1.00  0.00    -0.744 OA
ENDBRANCH  95  96
ENDBRANCH  63  88
ENDBRANCH  37  38
ENDBRANCH  30  32
ENDBRANCH  29  30
ENDBRANCH  28  29
ENDBRANCH  27  28
ENDBRANCH  26  27
ENDBRANCH   1  26
TORSDOF 22
ENDMDL
