MODEL 1
REMARK VINA RESULT:     -12.1      0.000      0.000
REMARK SMILES O=C(OCCOCCOC(=O)c1nccnc1C(=O)Nc1n[nH]c2ncccc12)c1ccc(-c2c3nc(c(-c4c(F)cc(S(=O)(=O)[O-])cc4F)c4ccc([nH]4)c(-c4c(F)cc(S(=O)(=O)[O-])cc4F)c4nc(c(-c5c(F)cc(S(=O)(=O)[O-])cc5F)c5ccc2[nH]5)C=C4)C=C3)cc1
REMARK SMILES IDX 5 1 4 2 3 3 2 4 1 5 30 6 31 7 95 8 32 9 94 10 33 11 34 12
REMARK SMILES IDX 35 13 88 14 36 15 93 16 87 17 89 18 37 19 92 20 86 21 85 22
REMARK SMILES IDX 38 24 72 25 51 26 71 27 52 28 55 29 70 30 90 31 53 32 54 33
REMARK SMILES IDX 69 35 91 36 56 37 39 38 40 39 49 40 41 41 42 42 48 43 50 44
REMARK SMILES IDX 43 45 44 46 45 47 46 48 47 49 73 50 74 51 83 52 75 53 76 54
REMARK SMILES IDX 82 55 84 56 77 57 78 58 79 59 80 60 81 61 57 62 58 63 67 64
REMARK SMILES IDX 59 65 60 66 66 67 68 68 61 69 62 70 63 71 64 72 65 73 6 74
REMARK SMILES IDX 7 75 8 76 9 77 10 78 11 79 12 80 13 81 17 82 14 83 16 84
REMARK SMILES IDX 15 85 18 86 19 87 20 88 21 90 22 91 29 92 23 93 24 94 28 95
REMARK SMILES IDX 25 97 27 98 26 99
REMARK H PARENT 89 23 55 34 20 89 23 96
REMARK Flexibility Score: inf
ROOT
ATOM      1  C   UNL A   1      38.320  21.500  25.390  1.00  0.00     0.202 C 
ENDROOT
BRANCH   1   2
ATOM      2  C   UNL A   1      39.342  22.005  26.406  1.00  0.00     0.261 C 
BRANCH   2   3
ATOM      3  O   UNL A   1      39.364  23.439  26.508  1.00  0.00    -0.460 OA
BRANCH   3   4
ATOM      4  C   UNL A   1      40.474  24.186  26.759  1.00  0.00     0.338 C 
ATOM      5  O   UNL A   1      41.539  23.916  26.215  1.00  0.00    -0.246 OA
BRANCH   4   6
ATOM      6  C   UNL A   1      40.415  25.347  27.680  1.00  0.00     0.060 A 
ATOM      7  C   UNL A   1      41.224  26.470  27.522  1.00  0.00     0.016 A 
ATOM      8  C   UNL A   1      39.431  25.371  28.668  1.00  0.00     0.016 A 
ATOM      9  C   UNL A   1      41.223  27.505  28.438  1.00  0.00     0.010 A 
ATOM     10  C   UNL A   1      39.324  26.481  29.512  1.00  0.00     0.010 A 
ATOM     11  C   UNL A   1      40.251  27.535  29.429  1.00  0.00    -0.014 A 
BRANCH  11  12
ATOM     12  C   UNL A   1      40.271  28.624  30.427  1.00  0.00     0.031 A 
ATOM     13  C   UNL A   1      41.321  28.565  31.495  1.00  0.00     0.074 A 
ATOM     14  C   UNL A   1      39.416  29.662  30.341  1.00  0.00     0.049 A 
ATOM     15  N   UNL A   1      41.396  29.214  32.622  1.00  0.00    -0.248 NA
ATOM     16  C   UNL A   1      42.429  27.619  31.269  1.00  0.00     0.031 C 
ATOM     17  C   UNL A   1      38.445  29.880  29.264  1.00  0.00     0.029 A 
ATOM     18  N   UNL A   1      39.232  30.739  31.167  1.00  0.00    -0.354 N 
ATOM     19  C   UNL A   1      42.507  28.697  33.275  1.00  0.00     0.074 A 
ATOM     20  C   UNL A   1      43.083  27.688  32.418  1.00  0.00     0.031 C 
ATOM     21  C   UNL A   1      37.795  31.034  29.478  1.00  0.00     0.029 A 
ATOM     22  C   UNL A   1      38.217  31.576  30.762  1.00  0.00     0.049 A 
ATOM     23  H   UNL A   1      39.774  30.901  31.973  1.00  0.00     0.167 HD
ATOM     24  C   UNL A   1      42.980  29.035  34.496  1.00  0.00     0.037 A 
ATOM     25  C   UNL A   1      37.650  32.621  31.396  1.00  0.00     0.037 A 
ATOM     26  C   UNL A   1      42.395  30.082  35.288  1.00  0.00     0.049 A 
ATOM     27  C   UNL A   1      38.160  32.952  32.773  1.00  0.00     0.074 A 
ATOM     28  C   UNL A   1      42.733  30.503  36.559  1.00  0.00     0.029 A 
ATOM     29  N   UNL A   1      41.349  30.892  34.858  1.00  0.00    -0.354 N 
ATOM     30  N   UNL A   1      39.132  32.380  33.450  1.00  0.00    -0.248 NA
ATOM     31  C   UNL A   1      37.484  34.039  33.489  1.00  0.00     0.031 C 
ATOM     32  C   UNL A   1      41.868  31.546  36.910  1.00  0.00     0.029 A 
ATOM     33  C   UNL A   1      41.023  31.808  35.839  1.00  0.00     0.049 A 
ATOM     34  H   UNL A   1      40.905  30.821  33.982  1.00  0.00     0.167 HD
ATOM     35  C   UNL A   1      39.191  33.043  34.668  1.00  0.00     0.074 A 
ATOM     36  C   UNL A   1      38.170  34.074  34.624  1.00  0.00     0.031 C 
ATOM     37  C   UNL A   1      40.003  32.822  35.732  1.00  0.00     0.037 A 
BRANCH  24  38
ATOM     38  C   UNL A   1      44.114  28.217  35.047  1.00  0.00     0.058 A 
ATOM     39  C   UNL A   1      45.460  28.562  34.845  1.00  0.00     0.135 A 
ATOM     40  C   UNL A   1      43.844  27.030  35.750  1.00  0.00     0.135 A 
ATOM     41  F   UNL A   1      45.777  29.666  34.150  1.00  0.00    -0.206 F 
ATOM     42  C   UNL A   1      46.497  27.743  35.286  1.00  0.00     0.059 A 
ATOM     43  C   UNL A   1      44.865  26.211  36.224  1.00  0.00     0.059 A 
ATOM     44  F   UNL A   1      42.577  26.642  35.959  1.00  0.00    -0.206 F 
ATOM     45  C   UNL A   1      46.188  26.566  35.969  1.00  0.00     0.060 A 
BRANCH  45  46
ATOM     46  S   UNL A   1      47.541  25.499  36.511  1.00  0.00     0.124 S 
ATOM     47  O   UNL A   1      47.036  25.017  37.793  1.00  0.00    -0.237 OA
ATOM     48  O   UNL A   1      47.604  24.508  35.442  1.00  0.00    -0.237 OA
ATOM     49  O   UNL A   1      48.681  26.408  36.587  1.00  0.00    -0.744 OA
ENDBRANCH  45  46
ENDBRANCH  24  38
BRANCH  25  50
ATOM     50  C   UNL A   1      36.512  33.360  30.779  1.00  0.00     0.058 A 
ATOM     51  C   UNL A   1      35.205  33.226  31.269  1.00  0.00     0.135 A 
ATOM     52  C   UNL A   1      36.707  34.227  29.690  1.00  0.00     0.135 A 
ATOM     53  F   UNL A   1      34.956  32.405  32.301  1.00  0.00    -0.206 F 
ATOM     54  C   UNL A   1      34.134  33.915  30.702  1.00  0.00     0.059 A 
ATOM     55  C   UNL A   1      35.660  34.950  29.125  1.00  0.00     0.059 A 
ATOM     56  F   UNL A   1      37.936  34.403  29.182  1.00  0.00    -0.206 F 
ATOM     57  C   UNL A   1      34.373  34.778  29.630  1.00  0.00     0.060 A 
BRANCH  57  58
ATOM     58  S   UNL A   1      32.986  35.698  28.926  1.00  0.00     0.124 S 
ATOM     59  O   UNL A   1      32.244  36.072  30.124  1.00  0.00    -0.237 OA
ATOM     60  O   UNL A   1      33.664  36.787  28.228  1.00  0.00    -0.237 OA
ATOM     61  O   UNL A   1      32.338  34.717  28.061  1.00  0.00    -0.744 OA
ENDBRANCH  57  58
ENDBRANCH  25  50
BRANCH  37  62
ATOM     62  C   UNL A   1      39.838  33.740  36.907  1.00  0.00     0.058 A 
ATOM     63  C   UNL A   1      40.443  35.005  36.939  1.00  0.00     0.135 A 
ATOM     64  C   UNL A   1      39.009  33.370  37.976  1.00  0.00     0.135 A 
ATOM     65  F   UNL A   1      41.250  35.395  35.940  1.00  0.00    -0.206 F 
ATOM     66  C   UNL A   1      40.242  35.870  38.006  1.00  0.00     0.059 A 
ATOM     67  C   UNL A   1      38.774  34.230  39.040  1.00  0.00     0.059 A 
ATOM     68  F   UNL A   1      38.402  32.172  37.980  1.00  0.00    -0.206 F 
ATOM     69  C   UNL A   1      39.402  35.475  39.050  1.00  0.00     0.060 A 
BRANCH  69  70
ATOM     70  S   UNL A   1      39.110  36.628  40.406  1.00  0.00     0.124 S 
ATOM     71  O   UNL A   1      38.053  35.948  41.146  1.00  0.00    -0.237 OA
ATOM     72  O   UNL A   1      40.414  36.677  41.060  1.00  0.00    -0.237 OA
ATOM     73  O   UNL A   1      38.711  37.856  39.725  1.00  0.00    -0.744 OA
ENDBRANCH  69  70
ENDBRANCH  37  62
ENDBRANCH  11  12
ENDBRANCH   4   6
ENDBRANCH   3   4
ENDBRANCH   2   3
ENDBRANCH   1   2
BRANCH   1  74
ATOM     74  O   UNL A   1      36.965  21.612  25.784  1.00  0.00    -0.374 OA
BRANCH  74  75
ATOM     75  C   UNL A   1      35.976  21.929  24.807  1.00  0.00     0.202 C 
BRANCH  75  76
ATOM     76  C   UNL A   1      35.319  23.469  25.003  1.00  0.00     0.261 C 
BRANCH  76  77
ATOM     77  O   UNL A   1      34.508  24.706  23.596  1.00  0.00    -0.458 OA
BRANCH  77  78
ATOM     78  C   UNL A   1      33.614  25.566  22.875  1.00  0.00     0.359 C 
ATOM     79  O   UNL A   1      33.553  25.522  21.646  1.00  0.00    -0.244 OA
BRANCH  78  80
ATOM     80  C   UNL A   1      32.802  26.632  23.577  1.00  0.00     0.179 A 
ATOM     81  N   UNL A   1      33.630  27.719  23.813  1.00  0.00    -0.245 NA
ATOM     82  C   UNL A   1      31.483  26.596  24.073  1.00  0.00     0.161 A 
ATOM     83  C   UNL A   1      33.140  28.736  24.542  1.00  0.00     0.132 A 
ATOM     84  N   UNL A   1      31.055  27.655  24.855  1.00  0.00    -0.247 NA
ATOM     85  C   UNL A   1      31.877  28.699  25.068  1.00  0.00     0.132 A 
BRANCH  82  86
ATOM     86  C   UNL A   1      30.315  25.614  23.956  1.00  0.00     0.278 C 
ATOM     87  O   UNL A   1      29.210  26.080  23.638  1.00  0.00    -0.267 OA
ATOM     88  N   UNL A   1      30.325  24.257  24.130  1.00  0.00    -0.303 N 
ATOM     89  H   UNL A   1      29.542  23.782  23.769  1.00  0.00     0.172 HD
BRANCH  88  90
ATOM     90  C   UNL A   1      31.252  23.473  24.725  1.00  0.00     0.164 A 
ATOM     91  N   UNL A   1      31.456  23.578  26.046  1.00  0.00    -0.155 NA
ATOM     92  C   UNL A   1      31.924  22.422  24.108  1.00  0.00     0.063 A 
ATOM     93  N   UNL A   1      31.885  22.367  26.510  1.00  0.00    -0.259 N 
ATOM     94  C   UNL A   1      32.150  21.457  25.535  1.00  0.00     0.157 A 
ATOM     95  C   UNL A   1      32.037  21.606  22.470  1.00  0.00     0.017 A 
ATOM     96  H   UNL A   1      31.993  22.169  27.468  1.00  0.00     0.192 HD
ATOM     97  N   UNL A   1      32.461  19.775  25.522  1.00  0.00    -0.237 NA
ATOM     98  C   UNL A   1      32.316  19.839  22.410  1.00  0.00     0.021 A 
ATOM     99  C   UNL A   1      32.479  18.996  23.952  1.00  0.00     0.113 A 
ENDBRANCH  88  90
ENDBRANCH  82  86
ENDBRANCH  78  80
ENDBRANCH  77  78
ENDBRANCH  76  77
ENDBRANCH  75  76
ENDBRANCH  74  75
ENDBRANCH   1  74
TORSDOF 19
ENDMDL
MODEL 2
REMARK VINA RESULT:     -12.0      6.215     13.192
REMARK SMILES O=C(OCCOCCOC(=O)c1nccnc1C(=O)Nc1n[nH]c2ncccc12)c1ccc(-c2c3nc(c(-c4c(F)cc(S(=O)(=O)[O-])cc4F)c4ccc([nH]4)c(-c4c(F)cc(S(=O)(=O)[O-])cc4F)c4nc(c(-c5c(F)cc(S(=O)(=O)[O-])cc5F)c5ccc2[nH]5)C=C4)C=C3)cc1
REMARK SMILES IDX 5 1 4 2 3 3 2 4 1 5 30 6 31 7 95 8 32 9 94 10 33 11 34 12
REMARK SMILES IDX 35 13 88 14 36 15 93 16 87 17 89 18 37 19 92 20 86 21 85 22
REMARK SMILES IDX 38 24 72 25 51 26 71 27 52 28 55 29 70 30 90 31 53 32 54 33
REMARK SMILES IDX 69 35 91 36 56 37 39 38 40 39 49 40 41 41 42 42 48 43 50 44
REMARK SMILES IDX 43 45 44 46 45 47 46 48 47 49 73 50 74 51 83 52 75 53 76 54
REMARK SMILES IDX 82 55 84 56 77 57 78 58 79 59 80 60 81 61 57 62 58 63 67 64
REMARK SMILES IDX 59 65 60 66 66 67 68 68 61 69 62 70 63 71 64 72 65 73 6 74
REMARK SMILES IDX 7 75 8 76 9 77 10 78 11 79 12 80 13 81 17 82 14 83 16 84
REMARK SMILES IDX 15 85 18 86 19 87 20 88 21 90 22 91 29 92 23 93 24 94 28 95
REMARK SMILES IDX 25 97 27 98 26 99
REMARK H PARENT 89 23 55 34 20 89 23 96
REMARK Flexibility Score: inf
ROOT
ATOM      1  C   UNL A   1      35.142  33.421  28.168  1.00  0.00     0.202 C 
ENDROOT
BRANCH   1   2
ATOM      2  C   UNL A   1      34.435  32.083  27.971  1.00  0.00     0.261 C 
BRANCH   2   3
ATOM      3  O   UNL A   1      35.004  31.029  28.767  1.00  0.00    -0.460 OA
BRANCH   3   4
ATOM      4  C   UNL A   1      35.497  29.860  28.275  1.00  0.00     0.338 C 
ATOM      5  O   UNL A   1      34.743  29.033  27.773  1.00  0.00    -0.246 OA
BRANCH   4   6
ATOM      6  C   UNL A   1      36.950  29.569  28.321  1.00  0.00     0.060 A 
ATOM      7  C   UNL A   1      37.816  29.918  27.287  1.00  0.00     0.016 A 
ATOM      8  C   UNL A   1      37.491  29.036  29.490  1.00  0.00     0.016 A 
ATOM      9  C   UNL A   1      39.152  29.561  27.303  1.00  0.00     0.010 A 
ATOM     10  C   UNL A   1      38.868  28.804  29.573  1.00  0.00     0.010 A 
ATOM     11  C   UNL A   1      39.699  29.025  28.460  1.00  0.00    -0.014 A 
BRANCH  11  12
ATOM     12  C   UNL A   1      41.118  28.613  28.464  1.00  0.00     0.031 A 
ATOM     13  C   UNL A   1      42.140  29.652  28.811  1.00  0.00     0.074 A 
ATOM     14  C   UNL A   1      41.471  27.335  28.225  1.00  0.00     0.049 A 
ATOM     15  N   UNL A   1      43.430  29.641  28.627  1.00  0.00    -0.248 NA
ATOM     16  C   UNL A   1      41.629  30.889  29.428  1.00  0.00     0.031 C 
ATOM     17  C   UNL A   1      40.543  26.219  28.008  1.00  0.00     0.029 A 
ATOM     18  N   UNL A   1      42.707  26.750  28.136  1.00  0.00    -0.354 N 
ATOM     19  C   UNL A   1      43.872  30.896  29.026  1.00  0.00     0.074 A 
ATOM     20  C   UNL A   1      42.718  31.640  29.472  1.00  0.00     0.031 C 
ATOM     21  C   UNL A   1      41.241  25.085  27.846  1.00  0.00     0.029 A 
ATOM     22  C   UNL A   1      42.660  25.409  27.830  1.00  0.00     0.049 A 
ATOM     23  H   UNL A   1      43.548  27.241  28.278  1.00  0.00     0.167 HD
ATOM     24  C   UNL A   1      45.136  31.374  28.999  1.00  0.00     0.037 A 
ATOM     25  C   UNL A   1      43.654  24.559  27.506  1.00  0.00     0.037 A 
ATOM     26  C   UNL A   1      46.257  30.572  28.591  1.00  0.00     0.049 A 
ATOM     27  C   UNL A   1      45.048  25.122  27.435  1.00  0.00     0.074 A 
ATOM     28  C   UNL A   1      47.584  30.932  28.464  1.00  0.00     0.029 A 
ATOM     29  N   UNL A   1      46.169  29.223  28.260  1.00  0.00    -0.354 N 
ATOM     30  N   UNL A   1      45.455  26.346  27.690  1.00  0.00    -0.248 NA
ATOM     31  C   UNL A   1      46.113  24.210  27.003  1.00  0.00     0.031 C 
ATOM     32  C   UNL A   1      48.293  29.808  28.025  1.00  0.00     0.029 A 
ATOM     33  C   UNL A   1      47.417  28.735  27.925  1.00  0.00     0.049 A 
ATOM     34  H   UNL A   1      45.339  28.695  28.264  1.00  0.00     0.167 HD
ATOM     35  C   UNL A   1      46.823  26.351  27.459  1.00  0.00     0.074 A 
ATOM     36  C   UNL A   1      47.177  24.999  27.065  1.00  0.00     0.031 C 
ATOM     37  C   UNL A   1      47.711  27.373  27.552  1.00  0.00     0.037 A 
BRANCH  24  38
ATOM     38  C   UNL A   1      45.333  32.824  29.343  1.00  0.00     0.058 A 
ATOM     39  C   UNL A   1      45.512  33.268  30.664  1.00  0.00     0.135 A 
ATOM     40  C   UNL A   1      45.289  33.796  28.330  1.00  0.00     0.135 A 
ATOM     41  F   UNL A   1      45.525  32.386  31.676  1.00  0.00    -0.206 F 
ATOM     42  C   UNL A   1      45.601  34.623  30.971  1.00  0.00     0.059 A 
ATOM     43  C   UNL A   1      45.405  35.155  28.611  1.00  0.00     0.059 A 
ATOM     44  F   UNL A   1      45.105  33.432  27.051  1.00  0.00    -0.206 F 
ATOM     45  C   UNL A   1      45.540  35.559  29.938  1.00  0.00     0.060 A 
BRANCH  45  46
ATOM     46  S   UNL A   1      45.630  37.314  30.354  1.00  0.00     0.124 S 
ATOM     47  O   UNL A   1      46.469  37.827  29.275  1.00  0.00    -0.237 OA
ATOM     48  O   UNL A   1      44.228  37.717  30.312  1.00  0.00    -0.237 OA
ATOM     49  O   UNL A   1      46.241  37.319  31.679  1.00  0.00    -0.744 OA
ENDBRANCH  45  46
ENDBRANCH  24  38
BRANCH  25  50
ATOM     50  C   UNL A   1      43.359  23.140  27.156  1.00  0.00     0.058 A 
ATOM     51  C   UNL A   1      43.049  22.195  28.144  1.00  0.00     0.135 A 
ATOM     52  C   UNL A   1      43.369  22.699  25.821  1.00  0.00     0.135 A 
ATOM     53  F   UNL A   1      43.033  22.556  29.436  1.00  0.00    -0.206 F 
ATOM     54  C   UNL A   1      42.768  20.867  27.827  1.00  0.00     0.059 A 
ATOM     55  C   UNL A   1      43.062  21.385  25.476  1.00  0.00     0.059 A 
ATOM     56  F   UNL A   1      43.651  23.558  24.830  1.00  0.00    -0.206 F 
ATOM     57  C   UNL A   1      42.774  20.472  26.488  1.00  0.00     0.060 A 
BRANCH  57  58
ATOM     58  S   UNL A   1      42.369  18.759  26.081  1.00  0.00     0.124 S 
ATOM     59  O   UNL A   1      40.969  18.874  25.690  1.00  0.00    -0.237 OA
ATOM     60  O   UNL A   1      43.312  18.468  25.006  1.00  0.00    -0.237 OA
ATOM     61  O   UNL A   1      42.619  18.050  27.332  1.00  0.00    -0.744 OA
ENDBRANCH  57  58
ENDBRANCH  25  50
BRANCH  37  62
ATOM     62  C   UNL A   1      49.146  27.047  27.261  1.00  0.00     0.058 A 
ATOM     63  C   UNL A   1      50.029  26.657  28.278  1.00  0.00     0.135 A 
ATOM     64  C   UNL A   1      49.615  27.062  25.939  1.00  0.00     0.135 A 
ATOM     65  F   UNL A   1      49.624  26.637  29.557  1.00  0.00    -0.206 F 
ATOM     66  C   UNL A   1      51.342  26.305  27.993  1.00  0.00     0.059 A 
ATOM     67  C   UNL A   1      50.915  26.689  25.629  1.00  0.00     0.059 A 
ATOM     68  F   UNL A   1      48.798  27.419  24.934  1.00  0.00    -0.206 F 
ATOM     69  C   UNL A   1      51.774  26.320  26.664  1.00  0.00     0.060 A 
BRANCH  69  70
ATOM     70  S   UNL A   1      53.467  25.814  26.301  1.00  0.00     0.124 S 
ATOM     71  O   UNL A   1      53.254  24.538  25.629  1.00  0.00    -0.237 OA
ATOM     72  O   UNL A   1      53.945  26.905  25.458  1.00  0.00    -0.237 OA
ATOM     73  O   UNL A   1      54.086  25.733  27.622  1.00  0.00    -0.744 OA
ENDBRANCH  69  70
ENDBRANCH  37  62
ENDBRANCH  11  12
ENDBRANCH   4   6
ENDBRANCH   3   4
ENDBRANCH   2   3
ENDBRANCH   1   2
BRANCH   1  74
ATOM     74  O   UNL A   1      36.558  33.366  28.172  1.00  0.00    -0.374 OA
BRANCH  74  75
ATOM     75  C   UNL A   1      37.272  33.807  29.325  1.00  0.00     0.202 C 
BRANCH  75  76
ATOM     76  C   UNL A   1      38.422  32.696  29.859  1.00  0.00     0.261 C 
BRANCH  76  77
ATOM     77  O   UNL A   1      39.642  32.798  31.491  1.00  0.00    -0.458 OA
BRANCH  77  78
ATOM     78  C   UNL A   1      40.157  32.717  32.829  1.00  0.00     0.359 C 
ATOM     79  O   UNL A   1      40.344  33.737  33.494  1.00  0.00    -0.244 OA
BRANCH  78  80
ATOM     80  C   UNL A   1      40.595  31.401  33.431  1.00  0.00     0.179 A 
ATOM     81  N   UNL A   1      41.804  31.044  32.851  1.00  0.00    -0.245 NA
ATOM     82  C   UNL A   1      39.926  30.534  34.318  1.00  0.00     0.161 A 
ATOM     83  C   UNL A   1      42.314  29.837  33.153  1.00  0.00     0.132 A 
ATOM     84  N   UNL A   1      40.483  29.288  34.553  1.00  0.00    -0.247 NA
ATOM     85  C   UNL A   1      41.657  28.967  33.980  1.00  0.00     0.132 A 
BRANCH  82  86
ATOM     86  C   UNL A   1      38.649  30.628  35.157  1.00  0.00     0.278 C 
ATOM     87  O   UNL A   1      38.682  30.146  36.299  1.00  0.00    -0.267 OA
ATOM     88  N   UNL A   1      37.456  31.209  34.825  1.00  0.00    -0.303 N 
ATOM     89  H   UNL A   1      36.851  31.385  35.581  1.00  0.00     0.172 HD
BRANCH  88  90
ATOM     90  C   UNL A   1      36.986  31.576  33.611  1.00  0.00     0.164 A 
ATOM     91  N   UNL A   1      36.821  30.647  32.659  1.00  0.00    -0.155 NA
ATOM     92  C   UNL A   1      36.491  32.838  33.294  1.00  0.00     0.063 A 
ATOM     93  N   UNL A   1      35.809  31.053  31.836  1.00  0.00    -0.259 N 
ATOM     94  C   UNL A   1      35.366  32.317  32.077  1.00  0.00     0.157 A 
ATOM     95  C   UNL A   1      36.241  34.476  34.076  1.00  0.00     0.017 A 
ATOM     96  H   UNL A   1      35.433  30.482  31.128  1.00  0.00     0.192 HD
ATOM     97  N   UNL A   1      34.017  33.230  31.557  1.00  0.00    -0.237 NA
ATOM     98  C   UNL A   1      34.816  35.447  33.596  1.00  0.00     0.021 A 
ATOM     99  C   UNL A   1      33.743  34.755  32.376  1.00  0.00     0.113 A 
ENDBRANCH  88  90
ENDBRANCH  82  86
ENDBRANCH  78  80
ENDBRANCH  77  78
ENDBRANCH  76  77
ENDBRANCH  75  76
ENDBRANCH  74  75
ENDBRANCH   1  74
TORSDOF 19
ENDMDL
MODEL 3
REMARK VINA RESULT:     -11.9      1.291      8.270
REMARK SMILES O=C(OCCOCCOC(=O)c1nccnc1C(=O)Nc1n[nH]c2ncccc12)c1ccc(-c2c3nc(c(-c4c(F)cc(S(=O)(=O)[O-])cc4F)c4ccc([nH]4)c(-c4c(F)cc(S(=O)(=O)[O-])cc4F)c4nc(c(-c5c(F)cc(S(=O)(=O)[O-])cc5F)c5ccc2[nH]5)C=C4)C=C3)cc1
REMARK SMILES IDX 5 1 4 2 3 3 2 4 1 5 30 6 31 7 95 8 32 9 94 10 33 11 34 12
REMARK SMILES IDX 35 13 88 14 36 15 93 16 87 17 89 18 37 19 92 20 86 21 85 22
REMARK SMILES IDX 38 24 72 25 51 26 71 27 52 28 55 29 70 30 90 31 53 32 54 33
REMARK SMILES IDX 69 35 91 36 56 37 39 38 40 39 49 40 41 41 42 42 48 43 50 44
REMARK SMILES IDX 43 45 44 46 45 47 46 48 47 49 73 50 74 51 83 52 75 53 76 54
REMARK SMILES IDX 82 55 84 56 77 57 78 58 79 59 80 60 81 61 57 62 58 63 67 64
REMARK SMILES IDX 59 65 60 66 66 67 68 68 61 69 62 70 63 71 64 72 65 73 6 74
REMARK SMILES IDX 7 75 8 76 9 77 10 78 11 79 12 80 13 81 17 82 14 83 16 84
REMARK SMILES IDX 15 85 18 86 19 87 20 88 21 90 22 91 29 92 23 93 24 94 28 95
REMARK SMILES IDX 25 97 27 98 26 99
REMARK H PARENT 89 23 55 34 20 89 23 96
REMARK Flexibility Score: inf
ROOT
ATOM      1  C   UNL A   1      40.001  21.800  26.252  1.00  0.00     0.202 C 
ENDROOT
BRANCH   1   2
ATOM      2  C   UNL A   1      40.953  22.966  26.503  1.00  0.00     0.261 C 
BRANCH   2   3
ATOM      3  O   UNL A   1      40.365  24.242  26.197  1.00  0.00    -0.460 OA
BRANCH   3   4
ATOM      4  C   UNL A   1      41.008  25.438  26.287  1.00  0.00     0.338 C 
ATOM      5  O   UNL A   1      41.752  25.811  25.387  1.00  0.00    -0.246 OA
BRANCH   4   6
ATOM      6  C   UNL A   1      40.809  26.321  27.463  1.00  0.00     0.060 A 
ATOM      7  C   UNL A   1      41.470  27.538  27.605  1.00  0.00     0.016 A 
ATOM      8  C   UNL A   1      39.835  25.978  28.401  1.00  0.00     0.016 A 
ATOM      9  C   UNL A   1      41.344  28.307  28.747  1.00  0.00     0.010 A 
ATOM     10  C   UNL A   1      39.595  26.824  29.488  1.00  0.00     0.010 A 
ATOM     11  C   UNL A   1      40.382  27.972  29.690  1.00  0.00    -0.014 A 
BRANCH  11  12
ATOM     12  C   UNL A   1      40.271  28.776  30.925  1.00  0.00     0.031 A 
ATOM     13  C   UNL A   1      39.201  29.823  30.976  1.00  0.00     0.074 A 
ATOM     14  C   UNL A   1      41.064  28.531  31.986  1.00  0.00     0.049 A 
ATOM     15  N   UNL A   1      39.060  30.825  31.797  1.00  0.00    -0.248 NA
ATOM     16  C   UNL A   1      38.158  29.742  29.939  1.00  0.00     0.031 C 
ATOM     17  C   UNL A   1      42.047  27.446  32.085  1.00  0.00     0.029 A 
ATOM     18  N   UNL A   1      41.163  29.168  33.194  1.00  0.00    -0.354 N 
ATOM     19  C   UNL A   1      37.967  31.539  31.325  1.00  0.00     0.074 A 
ATOM     20  C   UNL A   1      37.473  30.853  30.154  1.00  0.00     0.031 C 
ATOM     21  C   UNL A   1      42.621  27.474  33.297  1.00  0.00     0.029 A 
ATOM     22  C   UNL A   1      42.136  28.644  34.015  1.00  0.00     0.049 A 
ATOM     23  H   UNL A   1      40.593  29.928  33.453  1.00  0.00     0.167 HD
ATOM     24  C   UNL A   1      37.444  32.680  31.829  1.00  0.00     0.037 A 
ATOM     25  C   UNL A   1      42.624  29.104  35.184  1.00  0.00     0.037 A 
ATOM     26  C   UNL A   1      37.945  33.296  33.028  1.00  0.00     0.049 A 
ATOM     27  C   UNL A   1      42.061  30.400  35.705  1.00  0.00     0.074 A 
ATOM     28  C   UNL A   1      37.552  34.474  33.630  1.00  0.00     0.029 A 
ATOM     29  N   UNL A   1      38.952  32.752  33.819  1.00  0.00    -0.354 N 
ATOM     30  N   UNL A   1      41.110  31.148  35.192  1.00  0.00    -0.248 NA
ATOM     31  C   UNL A   1      42.653  30.934  36.936  1.00  0.00     0.031 C 
ATOM     32  C   UNL A   1      38.344  34.659  34.769  1.00  0.00     0.029 A 
ATOM     33  C   UNL A   1      39.198  33.572  34.904  1.00  0.00     0.049 A 
ATOM     34  H   UNL A   1      39.420  31.906  33.634  1.00  0.00     0.167 HD
ATOM     35  C   UNL A   1      40.981  32.238  36.042  1.00  0.00     0.074 A 
ATOM     36  C   UNL A   1      41.939  32.038  37.114  1.00  0.00     0.031 C 
ATOM     37  C   UNL A   1      40.158  33.312  35.949  1.00  0.00     0.037 A 
BRANCH  24  38
ATOM     38  C   UNL A   1      36.348  33.343  31.043  1.00  0.00     0.058 A 
ATOM     39  C   UNL A   1      36.584  33.994  29.821  1.00  0.00     0.135 A 
ATOM     40  C   UNL A   1      35.038  33.370  31.553  1.00  0.00     0.135 A 
ATOM     41  F   UNL A   1      37.822  34.030  29.304  1.00  0.00    -0.206 F 
ATOM     42  C   UNL A   1      35.572  34.679  29.153  1.00  0.00     0.059 A 
ATOM     43  C   UNL A   1      34.006  34.025  30.889  1.00  0.00     0.059 A 
ATOM     44  F   UNL A   1      34.757  32.779  32.725  1.00  0.00    -0.206 F 
ATOM     45  C   UNL A   1      34.287  34.694  29.699  1.00  0.00     0.060 A 
BRANCH  45  46
ATOM     46  S   UNL A   1      32.992  35.610  28.837  1.00  0.00     0.124 S 
ATOM     47  O   UNL A   1      33.772  36.621  28.129  1.00  0.00    -0.237 OA
ATOM     48  O   UNL A   1      32.383  34.581  28.002  1.00  0.00    -0.237 OA
ATOM     49  O   UNL A   1      32.152  36.113  29.920  1.00  0.00    -0.744 OA
ENDBRANCH  45  46
ENDBRANCH  24  38
BRANCH  25  50
ATOM     50  C   UNL A   1      43.730  28.389  35.881  1.00  0.00     0.058 A 
ATOM     51  C   UNL A   1      45.072  28.745  35.675  1.00  0.00     0.135 A 
ATOM     52  C   UNL A   1      43.472  27.340  36.780  1.00  0.00     0.135 A 
ATOM     53  F   UNL A   1      45.380  29.733  34.821  1.00  0.00    -0.206 F 
ATOM     54  C   UNL A   1      46.113  28.085  36.325  1.00  0.00     0.059 A 
ATOM     55  C   UNL A   1      44.493  26.685  37.464  1.00  0.00     0.059 A 
ATOM     56  F   UNL A   1      42.209  26.959  37.025  1.00  0.00    -0.206 F 
ATOM     57  C   UNL A   1      45.813  27.057  37.221  1.00  0.00     0.060 A 
BRANCH  57  58
ATOM     58  S   UNL A   1      47.167  26.234  38.090  1.00  0.00     0.124 S 
ATOM     59  O   UNL A   1      48.017  25.817  36.981  1.00  0.00    -0.237 OA
ATOM     60  O   UNL A   1      47.691  27.308  38.929  1.00  0.00    -0.237 OA
ATOM     61  O   UNL A   1      46.496  25.157  38.811  1.00  0.00    -0.744 OA
ENDBRANCH  57  58
ENDBRANCH  25  50
BRANCH  37  62
ATOM     62  C   UNL A   1      40.238  34.320  37.056  1.00  0.00     0.058 A 
ATOM     63  C   UNL A   1      41.137  35.396  37.005  1.00  0.00     0.135 A 
ATOM     64  C   UNL A   1      39.356  34.240  38.144  1.00  0.00     0.135 A 
ATOM     65  F   UNL A   1      42.004  35.506  35.986  1.00  0.00    -0.206 F 
ATOM     66  C   UNL A   1      41.168  36.355  38.008  1.00  0.00     0.059 A 
ATOM     67  C   UNL A   1      39.352  35.202  39.145  1.00  0.00     0.059 A 
ATOM     68  F   UNL A   1      38.472  33.232  38.227  1.00  0.00    -0.206 F 
ATOM     69  C   UNL A   1      40.268  36.252  39.072  1.00  0.00     0.060 A 
BRANCH  69  70
ATOM     70  S   UNL A   1      40.285  37.530  40.344  1.00  0.00     0.124 S 
ATOM     71  O   UNL A   1      40.592  36.751  41.539  1.00  0.00    -0.237 OA
ATOM     72  O   UNL A   1      41.343  38.421  39.877  1.00  0.00    -0.237 OA
ATOM     73  O   UNL A   1      38.935  38.084  40.284  1.00  0.00    -0.744 OA
ENDBRANCH  69  70
ENDBRANCH  37  62
ENDBRANCH  11  12
ENDBRANCH   4   6
ENDBRANCH   3   4
ENDBRANCH   2   3
ENDBRANCH   1   2
BRANCH   1  74
ATOM     74  O   UNL A   1      38.635  22.148  26.118  1.00  0.00    -0.374 OA
BRANCH  74  75
ATOM     75  C   UNL A   1      37.764  21.296  25.377  1.00  0.00     0.202 C 
BRANCH  75  76
ATOM     76  C   UNL A   1      37.033  22.069  24.069  1.00  0.00     0.261 C 
BRANCH  76  77
ATOM     77  O   UNL A   1      35.540  23.461  24.074  1.00  0.00    -0.458 OA
BRANCH  77  78
ATOM     78  C   UNL A   1      34.614  24.480  24.477  1.00  0.00     0.359 C 
ATOM     79  O   UNL A   1      34.708  25.016  25.582  1.00  0.00    -0.244 OA
BRANCH  78  80
ATOM     80  C   UNL A   1      33.426  24.856  23.618  1.00  0.00     0.179 A 
ATOM     81  N   UNL A   1      33.905  25.429  22.450  1.00  0.00    -0.245 NA
ATOM     82  C   UNL A   1      32.046  24.809  23.898  1.00  0.00     0.161 A 
ATOM     83  C   UNL A   1      33.010  25.951  21.593  1.00  0.00     0.132 A 
ATOM     84  N   UNL A   1      31.180  25.405  22.996  1.00  0.00    -0.247 NA
ATOM     85  C   UNL A   1      31.669  25.952  21.869  1.00  0.00     0.132 A 
BRANCH  82  86
ATOM     86  C   UNL A   1      31.195  24.219  25.025  1.00  0.00     0.278 C 
ATOM     87  O   UNL A   1      30.275  24.921  25.471  1.00  0.00    -0.267 OA
ATOM     88  N   UNL A   1      31.291  22.983  25.604  1.00  0.00    -0.303 N 
ATOM     89  H   UNL A   1      30.506  22.703  26.127  1.00  0.00     0.172 HD
BRANCH  88  90
ATOM     90  C   UNL A   1      32.307  22.091  25.563  1.00  0.00     0.164 A 
ATOM     91  N   UNL A   1      32.989  21.816  26.684  1.00  0.00    -0.155 NA
ATOM     92  C   UNL A   1      32.619  21.285  24.471  1.00  0.00     0.063 A 
ATOM     93  N   UNL A   1      33.461  20.537  26.594  1.00  0.00    -0.259 N 
ATOM     94  C   UNL A   1      33.275  19.956  25.378  1.00  0.00     0.157 A 
ATOM     95  C   UNL A   1      32.056  20.982  22.753  1.00  0.00     0.017 A 
ATOM     96  H   UNL A   1      33.898  20.074  27.345  1.00  0.00     0.192 HD
ATOM     97  N   UNL A   1      33.425  18.362  24.779  1.00  0.00    -0.237 NA
ATOM     98  C   UNL A   1      32.152  19.318  22.101  1.00  0.00     0.021 A 
ATOM     99  C   UNL A   1      32.803  18.071  23.167  1.00  0.00     0.113 A 
ENDBRANCH  88  90
ENDBRANCH  82  86
ENDBRANCH  78  80
ENDBRANCH  77  78
ENDBRANCH  76  77
ENDBRANCH  75  76
ENDBRANCH  74  75
ENDBRANCH   1  74
TORSDOF 19
ENDMDL
