MODEL 1
REMARK VINA RESULT:     -12.0      0.000      0.000
REMARK SMILES Cc1ccc(/C=C(\NC(=O)c2cccc(C)c2)C(=O)OCCOCCOC(=O)c2ccc(-c3c4nc(c(-c5c(F)cc(S(=O)(=O)[O-])cc5F)c5ccc([nH]5)c(-c5c(F)cc(S(=O)(=O)[O-])cc5F)c5nc(c(-c6c(F)cc(S(=O)(=O)[O-])cc6F)c6ccc3[nH]6)C=C5)C=C4)cc2)cc1
REMARK SMILES IDX 24 1 23 2 22 3 21 4 20 5 18 6 19 7 7 8 6 9 5 10 1 11 2 12
REMARK SMILES IDX 3 13 96 14 4 15 95 16 8 17 9 18 10 20 11 21 12 22 17 23
REMARK SMILES IDX 13 24 15 25 14 26 16 27 25 28 26 29 27 30 28 31 29 32 30 33
REMARK SMILES IDX 94 34 31 35 93 36 32 37 33 38 34 39 87 40 35 41 92 42 86 43
REMARK SMILES IDX 88 44 36 45 91 46 85 47 84 48 37 50 71 51 50 52 70 53 51 54
REMARK SMILES IDX 54 55 69 56 89 57 52 58 53 59 68 61 90 62 55 63 38 64 39 65
REMARK SMILES IDX 48 66 40 67 41 68 47 69 49 70 42 71 43 72 44 73 45 74 46 75
REMARK SMILES IDX 72 76 73 77 82 78 74 79 75 80 81 81 83 82 76 83 77 84 78 85
REMARK SMILES IDX 79 86 80 87 56 88 57 89 66 90 58 91 59 92 65 93 67 94 60 95
REMARK SMILES IDX 61 96 62 97 63 98 64 99
REMARK H PARENT 8 19 88 49 54 60
REMARK Flexibility Score: inf
ROOT
ATOM      1  C   UNL A   1      33.155  30.713  26.872  1.00  0.00     0.202 C 
ENDROOT
BRANCH   1   2
ATOM      2  O   UNL A   1      32.737  30.342  25.597  1.00  0.00    -0.374 OA
BRANCH   2   3
ATOM      3  C   UNL A   1      32.771  28.973  25.261  1.00  0.00     0.202 C 
BRANCH   3   4
ATOM      4  C   UNL A   1      32.983  29.078  23.812  1.00  0.00     0.261 C 
BRANCH   4   5
ATOM      5  O   UNL A   1      33.272  27.748  23.386  1.00  0.00    -0.459 OA
BRANCH   5   6
ATOM      6  C   UNL A   1      32.294  26.837  23.195  1.00  0.00     0.354 C 
ATOM      7  O   UNL A   1      31.411  26.712  22.374  1.00  0.00    -0.244 OA
BRANCH   6   8
ATOM      8  C   UNL A   1      32.651  25.794  24.156  1.00  0.00     0.128 C 
ATOM      9  C   UNL A   1      33.693  25.069  23.695  1.00  0.00     0.042 C 
BRANCH   9  10
ATOM     10  C   UNL A   1      34.708  24.161  24.238  1.00  0.00    -0.023 A 
ATOM     11  C   UNL A   1      38.123  21.824  25.471  1.00  0.00     0.044 C 
ATOM     12  C   UNL A   1      36.952  22.636  25.009  1.00  0.00    -0.051 A 
ATOM     13  C   UNL A   1      36.396  23.594  25.868  1.00  0.00     0.004 A 
ATOM     14  C   UNL A   1      36.393  22.451  23.747  1.00  0.00     0.004 A 
ATOM     15  C   UNL A   1      35.286  24.351  25.484  1.00  0.00     0.008 A 
ATOM     16  C   UNL A   1      35.279  23.204  23.368  1.00  0.00     0.008 A 
ENDBRANCH   9  10
BRANCH   8  17
ATOM     17  N   UNL A   1      31.960  25.842  25.349  1.00  0.00    -0.316 N 
ATOM     18  C   UNL A   1      31.215  24.830  26.048  1.00  0.00     0.255 C 
ATOM     19  H   UNL A   1      31.980  26.718  25.799  1.00  0.00     0.170 HD
ATOM     20  O   UNL A   1      30.343  25.358  26.762  1.00  0.00    -0.269 OA
BRANCH  18  21
ATOM     21  C   UNL A   1      31.305  23.138  26.094  1.00  0.00     0.040 A 
ATOM     22  C   UNL A   1      32.420  22.814  27.363  1.00  0.00     0.014 A 
ATOM     23  C   UNL A   1      31.481  21.933  24.781  1.00  0.00     0.017 A 
ATOM     24  C   UNL A   1      33.886  21.444  27.201  1.00  0.00     0.001 A 
ATOM     25  C   UNL A   1      32.788  20.710  24.516  1.00  0.00    -0.050 A 
ATOM     26  C   UNL A   1      34.012  20.461  25.717  1.00  0.00     0.003 A 
ATOM     27  C   UNL A   1      32.601  19.813  23.330  1.00  0.00     0.044 C 
ENDBRANCH  18  21
ENDBRANCH   8  17
ENDBRANCH   6   8
ENDBRANCH   5   6
ENDBRANCH   4   5
ENDBRANCH   3   4
ENDBRANCH   2   3
ENDBRANCH   1   2
BRANCH   1  28
ATOM     28  C   UNL A   1      33.626  29.431  27.514  1.00  0.00     0.261 C 
BRANCH  28  29
ATOM     29  O   UNL A   1      35.089  29.443  27.692  1.00  0.00    -0.460 OA
BRANCH  29  30
ATOM     30  C   UNL A   1      35.698  30.430  28.441  1.00  0.00     0.338 C 
ATOM     31  O   UNL A   1      35.079  31.175  29.186  1.00  0.00    -0.246 OA
BRANCH  30  32
ATOM     32  C   UNL A   1      37.208  30.474  28.283  1.00  0.00     0.060 A 
ATOM     33  C   UNL A   1      37.892  29.738  27.309  1.00  0.00     0.016 A 
ATOM     34  C   UNL A   1      37.974  31.069  29.278  1.00  0.00     0.016 A 
ATOM     35  C   UNL A   1      39.275  29.453  27.489  1.00  0.00     0.010 A 
ATOM     36  C   UNL A   1      39.280  30.616  29.531  1.00  0.00     0.010 A 
ATOM     37  C   UNL A   1      39.940  29.684  28.717  1.00  0.00    -0.014 A 
BRANCH  37  38
ATOM     38  C   UNL A   1      41.436  29.363  29.057  1.00  0.00     0.031 A 
ATOM     39  C   UNL A   1      41.503  27.868  29.090  1.00  0.00     0.074 A 
ATOM     40  C   UNL A   1      42.542  30.137  29.504  1.00  0.00     0.049 A 
ATOM     41  N   UNL A   1      42.147  27.151  29.947  1.00  0.00    -0.248 NA
ATOM     42  C   UNL A   1      40.597  27.018  28.266  1.00  0.00     0.031 C 
ATOM     43  C   UNL A   1      43.947  29.811  29.802  1.00  0.00     0.029 A 
ATOM     44  N   UNL A   1      42.615  31.467  30.056  1.00  0.00    -0.354 N 
ATOM     45  C   UNL A   1      42.187  25.912  29.335  1.00  0.00     0.074 A 
ATOM     46  C   UNL A   1      40.954  25.794  28.640  1.00  0.00     0.031 C 
ATOM     47  C   UNL A   1      44.465  30.642  30.762  1.00  0.00     0.029 A 
ATOM     48  C   UNL A   1      43.380  31.488  31.302  1.00  0.00     0.049 A 
ATOM     49  H   UNL A   1      42.203  32.262  29.645  1.00  0.00     0.167 HD
ATOM     50  C   UNL A   1      43.420  25.416  29.044  1.00  0.00     0.037 A 
ATOM     51  C   UNL A   1      42.965  31.729  32.668  1.00  0.00     0.037 A 
ATOM     52  C   UNL A   1      44.415  26.061  29.907  1.00  0.00     0.049 A 
ATOM     53  C   UNL A   1      43.668  30.575  33.490  1.00  0.00     0.074 A 
ATOM     54  C   UNL A   1      45.498  26.888  29.677  1.00  0.00     0.029 A 
ATOM     55  N   UNL A   1      44.150  26.152  31.272  1.00  0.00    -0.354 N 
ATOM     56  N   UNL A   1      44.086  29.480  32.896  1.00  0.00    -0.248 NA
ATOM     57  C   UNL A   1      43.886  30.472  34.933  1.00  0.00     0.031 C 
ATOM     58  C   UNL A   1      45.840  27.518  30.914  1.00  0.00     0.029 A 
ATOM     59  C   UNL A   1      44.964  27.080  31.894  1.00  0.00     0.049 A 
ATOM     60  H   UNL A   1      43.465  25.620  31.738  1.00  0.00     0.167 HD
ATOM     61  C   UNL A   1      44.521  28.537  33.775  1.00  0.00     0.074 A 
ATOM     62  C   UNL A   1      44.425  29.234  35.049  1.00  0.00     0.031 C 
ATOM     63  C   UNL A   1      44.842  27.272  33.343  1.00  0.00     0.037 A 
BRANCH  50  64
ATOM     64  C   UNL A   1      43.745  24.614  27.783  1.00  0.00     0.058 A 
ATOM     65  C   UNL A   1      44.224  23.298  27.934  1.00  0.00     0.135 A 
ATOM     66  C   UNL A   1      43.712  25.060  26.431  1.00  0.00     0.135 A 
ATOM     67  F   UNL A   1      44.332  22.737  29.146  1.00  0.00    -0.206 F 
ATOM     68  C   UNL A   1      44.623  22.498  26.860  1.00  0.00     0.059 A 
ATOM     69  C   UNL A   1      44.069  24.264  25.340  1.00  0.00     0.059 A 
ATOM     70  F   UNL A   1      43.375  26.301  26.069  1.00  0.00    -0.206 F 
ATOM     71  C   UNL A   1      44.527  22.980  25.562  1.00  0.00     0.060 A 
BRANCH  71  72
ATOM     72  S   UNL A   1      44.973  21.909  24.189  1.00  0.00     0.124 S 
ATOM     73  O   UNL A   1      44.503  22.676  23.040  1.00  0.00    -0.237 OA
ATOM     74  O   UNL A   1      46.421  21.809  24.342  1.00  0.00    -0.237 OA
ATOM     75  O   UNL A   1      44.235  20.677  24.460  1.00  0.00    -0.744 OA
ENDBRANCH  71  72
ENDBRANCH  50  64
BRANCH  51  76
ATOM     76  C   UNL A   1      41.343  32.387  33.257  1.00  0.00     0.058 A 
ATOM     77  C   UNL A   1      40.662  33.789  32.285  1.00  0.00     0.135 A 
ATOM     78  C   UNL A   1      39.979  31.578  34.535  1.00  0.00     0.135 A 
ATOM     79  F   UNL A   1      41.355  34.351  31.285  1.00  0.00    -0.206 F 
ATOM     80  C   UNL A   1      38.908  34.242  32.504  1.00  0.00     0.059 A 
ATOM     81  C   UNL A   1      38.340  32.136  34.694  1.00  0.00     0.059 A 
ATOM     82  F   UNL A   1      40.075  30.584  35.480  1.00  0.00    -0.206 F 
ATOM     83  C   UNL A   1      37.809  33.384  33.654  1.00  0.00     0.060 A 
BRANCH  83  84
ATOM     84  S   UNL A   1      36.059  32.804  33.121  1.00  0.00     0.124 S 
ATOM     85  O   UNL A   1      36.275  31.409  32.776  1.00  0.00    -0.237 OA
ATOM     86  O   UNL A   1      35.269  33.080  34.317  1.00  0.00    -0.237 OA
ATOM     87  O   UNL A   1      35.742  33.682  31.992  1.00  0.00    -0.744 OA
ENDBRANCH  83  84
ENDBRANCH  51  76
BRANCH  63  88
ATOM     88  C   UNL A   1      45.109  26.047  34.201  1.00  0.00     0.058 A 
ATOM     89  C   UNL A   1      44.123  25.297  34.851  1.00  0.00     0.135 A 
ATOM     90  C   UNL A   1      46.431  25.523  34.313  1.00  0.00     0.135 A 
ATOM     91  F   UNL A   1      42.819  25.549  34.676  1.00  0.00    -0.206 F 
ATOM     92  C   UNL A   1      44.439  24.223  35.686  1.00  0.00     0.059 A 
ATOM     93  C   UNL A   1      46.753  24.401  35.059  1.00  0.00     0.059 A 
ATOM     94  F   UNL A   1      47.484  26.086  33.701  1.00  0.00    -0.206 F 
ATOM     95  C   UNL A   1      45.761  23.804  35.806  1.00  0.00     0.060 A 
BRANCH  95  96
ATOM     96  S   UNL A   1      46.186  22.513  36.978  1.00  0.00     0.124 S 
ATOM     97  O   UNL A   1      45.502  21.363  36.392  1.00  0.00    -0.237 OA
ATOM     98  O   UNL A   1      47.644  22.488  36.902  1.00  0.00    -0.237 OA
ATOM     99  O   UNL A   1      45.636  22.997  38.239  1.00  0.00    -0.744 OA
ENDBRANCH  95  96
ENDBRANCH  63  88
ENDBRANCH  37  38
ENDBRANCH  30  32
ENDBRANCH  29  30
ENDBRANCH  28  29
ENDBRANCH   1  28
TORSDOF 20
ENDMDL
MODEL 2
REMARK VINA RESULT:     -11.1      1.420      2.732
REMARK SMILES Cc1ccc(/C=C(\NC(=O)c2cccc(C)c2)C(=O)OCCOCCOC(=O)c2ccc(-c3c4nc(c(-c5c(F)cc(S(=O)(=O)[O-])cc5F)c5ccc([nH]5)c(-c5c(F)cc(S(=O)(=O)[O-])cc5F)c5nc(c(-c6c(F)cc(S(=O)(=O)[O-])cc6F)c6ccc3[nH]6)C=C5)C=C4)cc2)cc1
REMARK SMILES IDX 24 1 23 2 22 3 21 4 20 5 18 6 19 7 7 8 6 9 5 10 1 11 2 12
REMARK SMILES IDX 3 13 96 14 4 15 95 16 8 17 9 18 10 20 11 21 12 22 17 23
REMARK SMILES IDX 13 24 15 25 14 26 16 27 25 28 26 29 27 30 28 31 29 32 30 33
REMARK SMILES IDX 94 34 31 35 93 36 32 37 33 38 34 39 87 40 35 41 92 42 86 43
REMARK SMILES IDX 88 44 36 45 91 46 85 47 84 48 37 50 71 51 50 52 70 53 51 54
REMARK SMILES IDX 54 55 69 56 89 57 52 58 53 59 68 61 90 62 55 63 38 64 39 65
REMARK SMILES IDX 48 66 40 67 41 68 47 69 49 70 42 71 43 72 44 73 45 74 46 75
REMARK SMILES IDX 72 76 73 77 82 78 74 79 75 80 81 81 83 82 76 83 77 84 78 85
REMARK SMILES IDX 79 86 80 87 56 88 57 89 66 90 58 91 59 92 65 93 67 94 60 95
REMARK SMILES IDX 61 96 62 97 63 98 64 99
REMARK H PARENT 8 19 88 49 54 60
REMARK Flexibility Score: inf
ROOT
ATOM      1  C   UNL A   1      33.160  28.887  26.808  1.00  0.00     0.202 C 
ENDROOT
BRANCH   1   2
ATOM      2  O   UNL A   1      32.777  27.577  26.536  1.00  0.00    -0.374 OA
BRANCH   2   3
ATOM      3  C   UNL A   1      31.406  27.256  26.621  1.00  0.00     0.202 C 
BRANCH   3   4
ATOM      4  C   UNL A   1      31.228  26.582  25.329  1.00  0.00     0.261 C 
BRANCH   4   5
ATOM      5  O   UNL A   1      31.895  25.330  25.473  1.00  0.00    -0.459 OA
BRANCH   5   6
ATOM      6  C   UNL A   1      32.076  24.497  24.425  1.00  0.00     0.354 C 
ATOM      7  O   UNL A   1      32.213  24.667  23.233  1.00  0.00    -0.244 OA
BRANCH   6   8
ATOM      8  C   UNL A   1      32.300  23.213  25.085  1.00  0.00     0.128 C 
ATOM      9  C   UNL A   1      31.915  22.199  24.281  1.00  0.00     0.042 C 
BRANCH   9  10
ATOM     10  C   UNL A   1      32.147  20.756  24.166  1.00  0.00    -0.023 A 
ATOM     11  C   UNL A   1      33.409  16.670  23.573  1.00  0.00     0.044 C 
ATOM     12  C   UNL A   1      32.988  18.096  23.747  1.00  0.00    -0.051 A 
ATOM     13  C   UNL A   1      32.997  18.666  25.026  1.00  0.00     0.004 A 
ATOM     14  C   UNL A   1      32.572  18.867  22.663  1.00  0.00     0.004 A 
ATOM     15  C   UNL A   1      32.584  19.985  25.233  1.00  0.00     0.008 A 
ATOM     16  C   UNL A   1      32.151  20.183  22.874  1.00  0.00     0.008 A 
ENDBRANCH   9  10
BRANCH   8  17
ATOM     17  N   UNL A   1      32.953  23.288  26.299  1.00  0.00    -0.316 N 
ATOM     18  C   UNL A   1      34.323  23.029  26.650  1.00  0.00     0.255 C 
ATOM     19  H   UNL A   1      32.384  23.567  27.053  1.00  0.00     0.170 HD
ATOM     20  O   UNL A   1      34.402  22.699  27.847  1.00  0.00    -0.269 OA
BRANCH  18  21
ATOM     21  C   UNL A   1      35.782  23.098  25.788  1.00  0.00     0.040 A 
ATOM     22  C   UNL A   1      35.874  21.570  25.003  1.00  0.00     0.014 A 
ATOM     23  C   UNL A   1      37.413  23.650  26.278  1.00  0.00     0.017 A 
ATOM     24  C   UNL A   1      37.564  20.477  24.941  1.00  0.00     0.001 A 
ATOM     25  C   UNL A   1      38.971  22.731  26.318  1.00  0.00    -0.050 A 
ATOM     26  C   UNL A   1      39.061  21.130  25.661  1.00  0.00     0.003 A 
ATOM     27  C   UNL A   1      40.174  23.519  26.738  1.00  0.00     0.044 C 
ENDBRANCH  18  21
ENDBRANCH   8  17
ENDBRANCH   6   8
ENDBRANCH   5   6
ENDBRANCH   4   5
ENDBRANCH   3   4
ENDBRANCH   2   3
ENDBRANCH   1   2
BRANCH   1  28
ATOM     28  C   UNL A   1      34.646  28.812  27.061  1.00  0.00     0.261 C 
BRANCH  28  29
ATOM     29  O   UNL A   1      35.201  30.154  27.311  1.00  0.00    -0.460 OA
BRANCH  29  30
ATOM     30  C   UNL A   1      35.819  30.447  28.510  1.00  0.00     0.338 C 
ATOM     31  O   UNL A   1      35.202  30.614  29.552  1.00  0.00    -0.246 OA
BRANCH  30  32
ATOM     32  C   UNL A   1      37.334  30.503  28.420  1.00  0.00     0.060 A 
ATOM     33  C   UNL A   1      38.081  29.626  27.626  1.00  0.00     0.016 A 
ATOM     34  C   UNL A   1      38.036  31.283  29.332  1.00  0.00     0.016 A 
ATOM     35  C   UNL A   1      39.458  29.414  27.920  1.00  0.00     0.010 A 
ATOM     36  C   UNL A   1      39.335  30.916  29.723  1.00  0.00     0.010 A 
ATOM     37  C   UNL A   1      40.053  29.874  29.119  1.00  0.00    -0.014 A 
BRANCH  37  38
ATOM     38  C   UNL A   1      41.535  29.657  29.583  1.00  0.00     0.031 A 
ATOM     39  C   UNL A   1      41.756  28.181  29.460  1.00  0.00     0.074 A 
ATOM     40  C   UNL A   1      42.503  30.472  30.228  1.00  0.00     0.049 A 
ATOM     41  N   UNL A   1      42.386  27.432  30.299  1.00  0.00    -0.248 NA
ATOM     42  C   UNL A   1      41.030  27.354  28.455  1.00  0.00     0.031 C 
ATOM     43  C   UNL A   1      43.899  30.247  30.640  1.00  0.00     0.029 A 
ATOM     44  N   UNL A   1      42.381  31.729  30.927  1.00  0.00    -0.354 N 
ATOM     45  C   UNL A   1      42.616  26.283  29.564  1.00  0.00     0.074 A 
ATOM     46  C   UNL A   1      41.476  26.133  28.730  1.00  0.00     0.031 C 
ATOM     47  C   UNL A   1      44.230  31.003  31.735  1.00  0.00     0.029 A 
ATOM     48  C   UNL A   1      43.014  31.673  32.243  1.00  0.00     0.049 A 
ATOM     49  H   UNL A   1      41.929  32.524  30.562  1.00  0.00     0.167 HD
ATOM     50  C   UNL A   1      43.918  25.944  29.356  1.00  0.00     0.037 A 
ATOM     51  C   UNL A   1      42.446  31.709  33.574  1.00  0.00     0.037 A 
ATOM     52  C   UNL A   1      44.750  26.572  30.387  1.00  0.00     0.049 A 
ATOM     53  C   UNL A   1      43.184  30.537  34.337  1.00  0.00     0.074 A 
ATOM     54  C   UNL A   1      45.757  27.519  30.368  1.00  0.00     0.029 A 
ATOM     55  N   UNL A   1      44.345  26.475  31.717  1.00  0.00    -0.354 N 
ATOM     56  N   UNL A   1      43.771  29.565  33.676  1.00  0.00    -0.248 NA
ATOM     57  C   UNL A   1      43.271  30.284  35.776  1.00  0.00     0.031 C 
ATOM     58  C   UNL A   1      45.908  28.027  31.696  1.00  0.00     0.029 A 
ATOM     59  C   UNL A   1      44.992  27.395  32.521  1.00  0.00     0.049 A 
ATOM     60  H   UNL A   1      43.679  25.829  32.045  1.00  0.00     0.167 HD
ATOM     61  C   UNL A   1      44.217  28.569  34.490  1.00  0.00     0.074 A 
ATOM     62  C   UNL A   1      43.925  29.097  35.814  1.00  0.00     0.031 C 
ATOM     63  C   UNL A   1      44.710  27.401  33.960  1.00  0.00     0.037 A 
BRANCH  50  64
ATOM     64  C   UNL A   1      44.446  25.332  28.058  1.00  0.00     0.058 A 
ATOM     65  C   UNL A   1      44.325  23.940  27.879  1.00  0.00     0.135 A 
ATOM     66  C   UNL A   1      45.151  25.985  27.007  1.00  0.00     0.135 A 
ATOM     67  F   UNL A   1      43.702  23.178  28.789  1.00  0.00    -0.206 F 
ATOM     68  C   UNL A   1      44.837  23.261  26.770  1.00  0.00     0.059 A 
ATOM     69  C   UNL A   1      45.636  25.332  25.871  1.00  0.00     0.059 A 
ATOM     70  F   UNL A   1      45.455  27.287  27.017  1.00  0.00    -0.206 F 
ATOM     71  C   UNL A   1      45.476  23.965  25.760  1.00  0.00     0.060 A 
BRANCH  71  72
ATOM     72  S   UNL A   1      46.061  23.083  24.306  1.00  0.00     0.124 S 
ATOM     73  O   UNL A   1      47.067  24.000  23.780  1.00  0.00    -0.237 OA
ATOM     74  O   UNL A   1      46.567  21.844  24.887  1.00  0.00    -0.237 OA
ATOM     75  O   UNL A   1      44.861  22.939  23.485  1.00  0.00    -0.744 OA
ENDBRANCH  71  72
ENDBRANCH  50  64
BRANCH  51  76
ATOM     76  C   UNL A   1      40.714  32.137  34.051  1.00  0.00     0.058 A 
ATOM     77  C   UNL A   1      40.418  33.908  34.439  1.00  0.00     0.135 A 
ATOM     78  C   UNL A   1      38.987  31.080  33.828  1.00  0.00     0.135 A 
ATOM     79  F   UNL A   1      41.421  34.795  34.471  1.00  0.00    -0.206 F 
ATOM     80  C   UNL A   1      38.700  34.518  34.513  1.00  0.00     0.059 A 
ATOM     81  C   UNL A   1      37.397  31.766  33.977  1.00  0.00     0.059 A 
ATOM     82  F   UNL A   1      38.744  29.745  33.609  1.00  0.00    -0.206 F 
ATOM     83  C   UNL A   1      37.267  33.450  34.241  1.00  0.00     0.060 A 
BRANCH  83  84
ATOM     84  S   UNL A   1      35.838  33.974  33.072  1.00  0.00     0.124 S 
ATOM     85  O   UNL A   1      34.682  33.324  33.668  1.00  0.00    -0.237 OA
ATOM     86  O   UNL A   1      35.897  35.430  33.152  1.00  0.00    -0.237 OA
ATOM     87  O   UNL A   1      36.250  33.438  31.772  1.00  0.00    -0.744 OA
ENDBRANCH  83  84
ENDBRANCH  51  76
BRANCH  63  88
ATOM     88  C   UNL A   1      45.022  26.112  34.704  1.00  0.00     0.058 A 
ATOM     89  C   UNL A   1      44.071  25.157  35.078  1.00  0.00     0.135 A 
ATOM     90  C   UNL A   1      46.373  25.755  34.986  1.00  0.00     0.135 A 
ATOM     91  F   UNL A   1      42.788  25.259  34.705  1.00  0.00    -0.206 F 
ATOM     92  C   UNL A   1      44.409  24.027  35.825  1.00  0.00     0.059 A 
ATOM     93  C   UNL A   1      46.740  24.591  35.643  1.00  0.00     0.059 A 
ATOM     94  F   UNL A   1      47.411  26.530  34.640  1.00  0.00    -0.206 F 
ATOM     95  C   UNL A   1      45.744  23.771  36.127  1.00  0.00     0.060 A 
BRANCH  95  96
ATOM     96  S   UNL A   1      46.169  22.395  37.198  1.00  0.00     0.124 S 
ATOM     97  O   UNL A   1      47.622  22.367  37.057  1.00  0.00    -0.237 OA
ATOM     98  O   UNL A   1      45.667  22.838  38.495  1.00  0.00    -0.237 OA
ATOM     99  O   UNL A   1      45.458  21.266  36.608  1.00  0.00    -0.744 OA
ENDBRANCH  95  96
ENDBRANCH  63  88
ENDBRANCH  37  38
ENDBRANCH  30  32
ENDBRANCH  29  30
ENDBRANCH  28  29
ENDBRANCH   1  28
TORSDOF 20
ENDMDL
MODEL 3
REMARK VINA RESULT:     -11.1      4.985     10.949
REMARK SMILES Cc1ccc(/C=C(\NC(=O)c2cccc(C)c2)C(=O)OCCOCCOC(=O)c2ccc(-c3c4nc(c(-c5c(F)cc(S(=O)(=O)[O-])cc5F)c5ccc([nH]5)c(-c5c(F)cc(S(=O)(=O)[O-])cc5F)c5nc(c(-c6c(F)cc(S(=O)(=O)[O-])cc6F)c6ccc3[nH]6)C=C5)C=C4)cc2)cc1
REMARK SMILES IDX 24 1 23 2 22 3 21 4 20 5 18 6 19 7 7 8 6 9 5 10 1 11 2 12
REMARK SMILES IDX 3 13 96 14 4 15 95 16 8 17 9 18 10 20 11 21 12 22 17 23
REMARK SMILES IDX 13 24 15 25 14 26 16 27 25 28 26 29 27 30 28 31 29 32 30 33
REMARK SMILES IDX 94 34 31 35 93 36 32 37 33 38 34 39 87 40 35 41 92 42 86 43
REMARK SMILES IDX 88 44 36 45 91 46 85 47 84 48 37 50 71 51 50 52 70 53 51 54
REMARK SMILES IDX 54 55 69 56 89 57 52 58 53 59 68 61 90 62 55 63 38 64 39 65
REMARK SMILES IDX 48 66 40 67 41 68 47 69 49 70 42 71 43 72 44 73 45 74 46 75
REMARK SMILES IDX 72 76 73 77 82 78 74 79 75 80 81 81 83 82 76 83 77 84 78 85
REMARK SMILES IDX 79 86 80 87 56 88 57 89 66 90 58 91 59 92 65 93 67 94 60 95
REMARK SMILES IDX 61 96 62 97 63 98 64 99
REMARK H PARENT 8 19 88 49 54 60
REMARK Flexibility Score: inf
ROOT
ATOM      1  C   UNL A   1      47.078  29.370  26.523  1.00  0.00     0.202 C 
ENDROOT
BRANCH   1   2
ATOM      2  O   UNL A   1      45.769  29.663  26.152  1.00  0.00    -0.374 OA
BRANCH   2   3
ATOM      3  C   UNL A   1      44.971  30.395  27.056  1.00  0.00     0.202 C 
BRANCH   3   4
ATOM      4  C   UNL A   1      43.662  29.792  26.777  1.00  0.00     0.261 C 
BRANCH   4   5
ATOM      5  O   UNL A   1      43.954  28.604  26.044  1.00  0.00    -0.459 OA
BRANCH   5   6
ATOM      6  C   UNL A   1      42.974  27.825  25.536  1.00  0.00     0.354 C 
ATOM      7  O   UNL A   1      42.188  27.954  24.623  1.00  0.00    -0.244 OA
BRANCH   6   8
ATOM      8  C   UNL A   1      43.183  26.564  26.245  1.00  0.00     0.128 C 
ATOM      9  C   UNL A   1      43.481  25.579  25.371  1.00  0.00     0.042 C 
BRANCH   9  10
ATOM     10  C   UNL A   1      44.094  24.247  25.403  1.00  0.00    -0.023 A 
ATOM     11  C   UNL A   1      46.073  20.446  24.879  1.00  0.00     0.044 C 
ATOM     12  C   UNL A   1      45.374  21.762  25.026  1.00  0.00    -0.051 A 
ATOM     13  C   UNL A   1      45.984  22.788  25.760  1.00  0.00     0.004 A 
ATOM     14  C   UNL A   1      44.121  21.985  24.460  1.00  0.00     0.004 A 
ATOM     15  C   UNL A   1      45.351  24.020  25.944  1.00  0.00     0.008 A 
ATOM     16  C   UNL A   1      43.486  23.216  24.652  1.00  0.00     0.008 A 
ENDBRANCH   9  10
BRANCH   8  17
ATOM     17  N   UNL A   1      43.158  26.659  27.621  1.00  0.00    -0.316 N 
ATOM     18  C   UNL A   1      42.215  26.159  28.585  1.00  0.00     0.255 C 
ATOM     19  H   UNL A   1      43.916  27.154  28.010  1.00  0.00     0.170 HD
ATOM     20  O   UNL A   1      42.240  26.861  29.611  1.00  0.00    -0.269 OA
BRANCH  18  21
ATOM     21  C   UNL A   1      41.139  24.849  28.592  1.00  0.00     0.040 A 
ATOM     22  C   UNL A   1      42.164  23.469  28.650  1.00  0.00     0.014 A 
ATOM     23  C   UNL A   1      39.689  24.511  27.598  1.00  0.00     0.017 A 
ATOM     24  C   UNL A   1      41.866  21.842  27.502  1.00  0.00     0.001 A 
ATOM     25  C   UNL A   1      39.356  23.119  26.492  1.00  0.00    -0.050 A 
ATOM     26  C   UNL A   1      40.446  21.774  26.422  1.00  0.00     0.003 A 
ATOM     27  C   UNL A   1      38.005  23.120  25.843  1.00  0.00     0.044 C 
ENDBRANCH  18  21
ENDBRANCH   8  17
ENDBRANCH   6   8
ENDBRANCH   5   6
ENDBRANCH   4   5
ENDBRANCH   3   4
ENDBRANCH   2   3
ENDBRANCH   1   2
BRANCH   1  28
ATOM     28  C   UNL A   1      47.330  27.979  25.995  1.00  0.00     0.261 C 
BRANCH  28  29
ATOM     29  O   UNL A   1      46.947  26.964  26.993  1.00  0.00    -0.460 OA
BRANCH  29  30
ATOM     30  C   UNL A   1      47.813  26.615  28.009  1.00  0.00     0.338 C 
ATOM     31  O   UNL A   1      49.000  26.908  28.000  1.00  0.00    -0.246 OA
BRANCH  30  32
ATOM     32  C   UNL A   1      47.147  25.871  29.153  1.00  0.00     0.060 A 
ATOM     33  C   UNL A   1      45.963  25.142  28.997  1.00  0.00     0.016 A 
ATOM     34  C   UNL A   1      47.577  26.107  30.453  1.00  0.00     0.016 A 
ATOM     35  C   UNL A   1      45.155  24.865  30.137  1.00  0.00     0.010 A 
ATOM     36  C   UNL A   1      46.677  25.993  31.527  1.00  0.00     0.010 A 
ATOM     37  C   UNL A   1      45.376  25.489  31.388  1.00  0.00    -0.014 A 
BRANCH  37  38
ATOM     38  C   UNL A   1      44.529  25.313  32.695  1.00  0.00     0.031 A 
ATOM     39  C   UNL A   1      44.277  26.710  33.172  1.00  0.00     0.074 A 
ATOM     40  C   UNL A   1      44.194  24.206  33.521  1.00  0.00     0.049 A 
ATOM     41  N   UNL A   1      44.324  27.119  34.394  1.00  0.00    -0.248 NA
ATOM     42  C   UNL A   1      44.196  27.863  32.232  1.00  0.00     0.031 C 
ATOM     43  C   UNL A   1      43.379  24.066  34.740  1.00  0.00     0.029 A 
ATOM     44  N   UNL A   1      44.735  22.871  33.593  1.00  0.00    -0.354 N 
ATOM     45  C   UNL A   1      43.677  28.339  34.329  1.00  0.00     0.074 A 
ATOM     46  C   UNL A   1      44.025  28.885  33.065  1.00  0.00     0.031 C 
ATOM     47  C   UNL A   1      43.822  23.034  35.527  1.00  0.00     0.029 A 
ATOM     48  C   UNL A   1      45.084  22.508  34.965  1.00  0.00     0.049 A 
ATOM     49  H   UNL A   1      44.853  22.277  32.815  1.00  0.00     0.167 HD
ATOM     50  C   UNL A   1      42.540  28.465  35.067  1.00  0.00     0.037 A 
ATOM     51  C   UNL A   1      46.371  22.281  35.591  1.00  0.00     0.037 A 
ATOM     52  C   UNL A   1      42.556  27.476  36.149  1.00  0.00     0.049 A 
ATOM     53  C   UNL A   1      46.285  23.090  36.946  1.00  0.00     0.074 A 
ATOM     54  C   UNL A   1      41.769  26.386  36.469  1.00  0.00     0.029 A 
ATOM     55  N   UNL A   1      43.715  27.345  36.913  1.00  0.00    -0.354 N 
ATOM     56  N   UNL A   1      45.410  24.057  37.101  1.00  0.00    -0.248 NA
ATOM     57  C   UNL A   1      47.133  22.992  38.134  1.00  0.00     0.031 C 
ATOM     58  C   UNL A   1      42.499  25.573  37.392  1.00  0.00     0.029 A 
ATOM     59  C   UNL A   1      43.729  26.163  37.629  1.00  0.00     0.049 A 
ATOM     60  H   UNL A   1      44.436  28.014  36.938  1.00  0.00     0.167 HD
ATOM     61  C   UNL A   1      45.583  24.743  38.265  1.00  0.00     0.074 A 
ATOM     62  C   UNL A   1      46.652  23.994  38.908  1.00  0.00     0.031 C 
ATOM     63  C   UNL A   1      44.863  25.886  38.517  1.00  0.00     0.037 A 
BRANCH  50  64
ATOM     64  C   UNL A   1      41.305  29.243  34.611  1.00  0.00     0.058 A 
ATOM     65  C   UNL A   1      40.887  30.344  35.383  1.00  0.00     0.135 A 
ATOM     66  C   UNL A   1      40.436  28.944  33.524  1.00  0.00     0.135 A 
ATOM     67  F   UNL A   1      41.589  30.744  36.453  1.00  0.00    -0.206 F 
ATOM     68  C   UNL A   1      39.733  31.083  35.107  1.00  0.00     0.059 A 
ATOM     69  C   UNL A   1      39.299  29.692  33.207  1.00  0.00     0.059 A 
ATOM     70  F   UNL A   1      40.595  27.890  32.717  1.00  0.00    -0.206 F 
ATOM     71  C   UNL A   1      38.952  30.763  34.006  1.00  0.00     0.060 A 
BRANCH  71  72
ATOM     72  S   UNL A   1      37.514  31.772  33.624  1.00  0.00     0.124 S 
ATOM     73  O   UNL A   1      36.681  30.840  32.871  1.00  0.00    -0.237 OA
ATOM     74  O   UNL A   1      37.032  32.129  34.954  1.00  0.00    -0.237 OA
ATOM     75  O   UNL A   1      38.067  32.880  32.848  1.00  0.00    -0.744 OA
ENDBRANCH  71  72
ENDBRANCH  50  64
BRANCH  51  76
ATOM     76  C   UNL A   1      48.010  22.090  34.763  1.00  0.00     0.058 A 
ATOM     77  C   UNL A   1      49.169  23.499  34.977  1.00  0.00     0.135 A 
ATOM     78  C   UNL A   1      48.917  20.432  34.004  1.00  0.00     0.135 A 
ATOM     79  F   UNL A   1      48.798  24.623  35.604  1.00  0.00    -0.206 F 
ATOM     80  C   UNL A   1      50.933  23.258  34.572  1.00  0.00     0.059 A 
ATOM     81  C   UNL A   1      50.606  20.341  33.604  1.00  0.00     0.059 A 
ATOM     82  F   UNL A   1      48.429  19.204  33.625  1.00  0.00    -0.206 F 
ATOM     83  C   UNL A   1      51.591  21.695  33.948  1.00  0.00     0.060 A 
BRANCH  83  84
ATOM     84  S   UNL A   1      53.180  20.913  34.688  1.00  0.00     0.124 S 
ATOM     85  O   UNL A   1      53.796  22.033  35.379  1.00  0.00    -0.237 OA
ATOM     86  O   UNL A   1      52.635  19.840  35.513  1.00  0.00    -0.237 OA
ATOM     87  O   UNL A   1      53.904  20.437  33.507  1.00  0.00    -0.744 OA
ENDBRANCH  83  84
ENDBRANCH  51  76
BRANCH  63  88
ATOM     88  C   UNL A   1      45.094  26.892  39.633  1.00  0.00     0.058 A 
ATOM     89  C   UNL A   1      45.762  28.112  39.482  1.00  0.00     0.135 A 
ATOM     90  C   UNL A   1      44.533  26.671  40.926  1.00  0.00     0.135 A 
ATOM     91  F   UNL A   1      46.168  28.546  38.282  1.00  0.00    -0.206 F 
ATOM     92  C   UNL A   1      46.007  28.961  40.563  1.00  0.00     0.059 A 
ATOM     93  C   UNL A   1      44.683  27.548  41.989  1.00  0.00     0.059 A 
ATOM     94  F   UNL A   1      43.812  25.580  41.222  1.00  0.00    -0.206 F 
ATOM     95  C   UNL A   1      45.488  28.653  41.818  1.00  0.00     0.060 A 
BRANCH  95  96
ATOM     96  S   UNL A   1      45.912  29.670  43.235  1.00  0.00     0.124 S 
ATOM     97  O   UNL A   1      47.278  29.228  43.501  1.00  0.00    -0.237 OA
ATOM     98  O   UNL A   1      45.777  31.023  42.702  1.00  0.00    -0.237 OA
ATOM     99  O   UNL A   1      44.922  29.294  44.237  1.00  0.00    -0.744 OA
ENDBRANCH  95  96
ENDBRANCH  63  88
ENDBRANCH  37  38
ENDBRANCH  30  32
ENDBRANCH  29  30
ENDBRANCH  28  29
ENDBRANCH   1  28
TORSDOF 20
ENDMDL
