MODEL 1
REMARK VINA RESULT:     -10.8      0.000      0.000
REMARK SMILES CCCc1cc(OCC(=O)OCCOCCOC(=O)c2ccc(-c3c4nc(c(-c5c(F)cc(S(=O)(=O)[O-])cc5F)c5ccc([nH]5)c(-c5c(F)cc(S(=O)(=O)[O-])cc5F)c5nc(c(-c6c(F)cc(S(=O)(=O)[O-])cc6F)c6ccc3[nH]6)C=C5)C=C4)cc2)nc(Nc2ccc(C#N)cc2)n1
REMARK SMILES IDX 13 1 12 2 11 3 9 4 10 5 8 6 7 7 6 8 4 9 5 10 97 11 87 12
REMARK SMILES IDX 86 13 3 14 2 15 1 16 88 17 89 19 90 20 96 21 91 22 95 23
REMARK SMILES IDX 92 24 93 25 94 26 14 27 15 28 16 29 17 30 18 31 19 32 20 33
REMARK SMILES IDX 21 34 85 35 22 36 84 37 23 38 24 39 25 40 78 41 26 42 83 43
REMARK SMILES IDX 77 44 79 45 27 46 82 47 76 48 75 49 28 51 62 52 41 53 61 54
REMARK SMILES IDX 42 55 45 56 60 57 80 58 43 59 44 60 59 62 81 63 46 64 29 65
REMARK SMILES IDX 30 66 39 67 31 68 32 69 38 70 40 71 33 72 34 73 35 74 36 75
REMARK SMILES IDX 37 76 63 77 64 78 73 79 65 80 66 81 72 82 74 83 67 84 68 85
REMARK SMILES IDX 69 86 70 87 71 88 47 89 48 90 57 91 49 92 50 93 56 94 58 95
REMARK SMILES IDX 51 96 52 97 53 98 54 99 55 100
REMARK H PARENT 88 18 79 50 45 61
REMARK Flexibility Score: inf
ROOT
ATOM      1  C   UNL A   1      41.909  20.768  26.496  1.00  0.00     0.202 C 
ENDROOT
BRANCH   1   2
ATOM      2  C   UNL A   1      40.410  20.446  26.386  1.00  0.00     0.261 C 
BRANCH   2   3
ATOM      3  O   UNL A   1      39.539  21.601  26.331  1.00  0.00    -0.461 OA
BRANCH   3   4
ATOM      4  C   UNL A   1      38.398  21.444  25.602  1.00  0.00     0.344 C 
ATOM      5  O   UNL A   1      38.083  20.412  25.015  1.00  0.00    -0.248 OA
BRANCH   4   6
ATOM      6  C   UNL A   1      37.497  22.689  25.557  1.00  0.00     0.353 C 
BRANCH   6   7
ATOM      7  O   UNL A   1      36.538  22.906  24.546  1.00  0.00    -0.466 OA
BRANCH   7   8
ATOM      8  C   UNL A   1      35.204  22.999  24.819  1.00  0.00     0.218 A 
ATOM      9  C   UNL A   1      33.164  24.124  25.154  1.00  0.00     0.050 A 
ATOM     10  C   UNL A   1      34.547  24.120  25.296  1.00  0.00     0.092 A 
ATOM     11  N   UNL A   1      32.509  23.035  24.727  1.00  0.00    -0.218 NA
ATOM     12  C   UNL A   1      33.208  21.953  24.357  1.00  0.00     0.230 A 
ATOM     13  N   UNL A   1      34.542  21.903  24.393  1.00  0.00    -0.177 NA
BRANCH   9  14
ATOM     14  C   UNL A   1      32.323  25.364  25.378  1.00  0.00     0.056 C 
BRANCH  14  15
ATOM     15  C   UNL A   1      33.036  26.623  25.927  1.00  0.00     0.003 C 
ATOM     16  C   UNL A   1      32.451  27.969  25.523  1.00  0.00     0.004 C 
ENDBRANCH  14  15
ENDBRANCH   9  14
BRANCH  12  17
ATOM     17  N   UNL A   1      32.522  20.845  23.865  1.00  0.00    -0.324 N 
ATOM     18  H   UNL A   1      31.789  21.017  23.230  1.00  0.00     0.170 HD
BRANCH  17  19
ATOM     19  C   UNL A   1      32.781  19.513  24.193  1.00  0.00     0.041 A 
ATOM     20  C   UNL A   1      32.817  19.113  25.531  1.00  0.00     0.027 A 
ATOM     21  C   UNL A   1      32.993  18.552  23.197  1.00  0.00     0.027 A 
ATOM     22  C   UNL A   1      32.922  17.758  25.864  1.00  0.00     0.021 A 
ATOM     23  C   UNL A   1      33.102  17.195  23.522  1.00  0.00     0.021 A 
ATOM     24  C   UNL A   1      33.031  16.793  24.857  1.00  0.00     0.052 A 
BRANCH  24  25
ATOM     25  C   UNL A   1      33.021  15.401  25.197  1.00  0.00     0.099 C 
ATOM     26  N   UNL A   1      33.034  14.262  25.438  1.00  0.00    -0.192 NA
ENDBRANCH  24  25
ENDBRANCH  17  19
ENDBRANCH  12  17
ENDBRANCH   7   8
ENDBRANCH   6   7
ENDBRANCH   4   6
ENDBRANCH   3   4
ENDBRANCH   2   3
ENDBRANCH   1   2
BRANCH   1  27
ATOM     27  O   UNL A   1      42.587  21.312  25.369  1.00  0.00    -0.374 OA
BRANCH  27  28
ATOM     28  C   UNL A   1      42.939  22.682  25.408  1.00  0.00     0.202 C 
BRANCH  28  29
ATOM     29  C   UNL A   1      42.542  23.541  26.613  1.00  0.00     0.261 C 
BRANCH  29  30
ATOM     30  O   UNL A   1      41.295  24.187  26.535  1.00  0.00    -0.460 OA
BRANCH  30  31
ATOM     31  C   UNL A   1      41.412  25.471  26.148  1.00  0.00     0.338 C 
ATOM     32  O   UNL A   1      41.409  25.942  25.027  1.00  0.00    -0.246 OA
BRANCH  31  33
ATOM     33  C   UNL A   1      41.421  26.244  27.374  1.00  0.00     0.060 A 
ATOM     34  C   UNL A   1      40.387  26.008  28.278  1.00  0.00     0.016 A 
ATOM     35  C   UNL A   1      42.438  27.173  27.606  1.00  0.00     0.016 A 
ATOM     36  C   UNL A   1      40.326  26.776  29.419  1.00  0.00     0.010 A 
ATOM     37  C   UNL A   1      42.379  27.936  28.759  1.00  0.00     0.010 A 
ATOM     38  C   UNL A   1      41.295  27.767  29.635  1.00  0.00    -0.014 A 
BRANCH  38  39
ATOM     39  C   UNL A   1      41.076  28.725  30.723  1.00  0.00     0.031 A 
ATOM     40  C   UNL A   1      41.976  28.659  31.919  1.00  0.00     0.074 A 
ATOM     41  C   UNL A   1      40.121  29.658  30.584  1.00  0.00     0.049 A 
ATOM     42  N   UNL A   1      41.971  29.406  32.987  1.00  0.00    -0.248 NA
ATOM     43  C   UNL A   1      43.017  27.614  31.919  1.00  0.00     0.031 C 
ATOM     44  C   UNL A   1      39.232  29.790  29.427  1.00  0.00     0.029 A 
ATOM     45  N   UNL A   1      39.744  30.673  31.417  1.00  0.00    -0.354 N 
ATOM     46  C   UNL A   1      42.989  28.911  33.793  1.00  0.00     0.074 A 
ATOM     47  C   UNL A   1      43.579  27.788  33.107  1.00  0.00     0.031 C 
ATOM     48  C   UNL A   1      38.412  30.833  29.625  1.00  0.00     0.029 A 
ATOM     49  C   UNL A   1      38.688  31.406  30.938  1.00  0.00     0.049 A 
ATOM     50  H   UNL A   1      40.188  30.859  32.276  1.00  0.00     0.167 HD
ATOM     51  C   UNL A   1      43.385  29.371  35.000  1.00  0.00     0.037 A 
ATOM     52  C   UNL A   1      38.008  32.408  31.522  1.00  0.00     0.037 A 
ATOM     53  C   UNL A   1      42.785  30.509  35.643  1.00  0.00     0.049 A 
ATOM     54  C   UNL A   1      38.450  32.864  32.888  1.00  0.00     0.074 A 
ATOM     55  C   UNL A   1      43.136  31.097  36.844  1.00  0.00     0.029 A 
ATOM     56  N   UNL A   1      41.703  31.221  35.145  1.00  0.00    -0.354 N 
ATOM     57  N   UNL A   1      39.450  32.427  33.620  1.00  0.00    -0.248 NA
ATOM     58  C   UNL A   1      37.682  33.950  33.505  1.00  0.00     0.031 C 
ATOM     59  C   UNL A   1      42.216  32.113  37.111  1.00  0.00     0.029 A 
ATOM     60  C   UNL A   1      41.345  32.216  36.035  1.00  0.00     0.049 A 
ATOM     61  H   UNL A   1      41.256  31.043  34.286  1.00  0.00     0.167 HD
ATOM     62  C   UNL A   1      39.450  33.211  34.767  1.00  0.00     0.074 A 
ATOM     63  C   UNL A   1      38.365  34.159  34.620  1.00  0.00     0.031 C 
ATOM     64  C   UNL A   1      40.269  33.156  35.848  1.00  0.00     0.037 A 
BRANCH  51  65
ATOM     65  C   UNL A   1      44.482  28.643  35.721  1.00  0.00     0.058 A 
ATOM     66  C   UNL A   1      44.228  27.553  36.566  1.00  0.00     0.135 A 
ATOM     67  C   UNL A   1      45.822  28.988  35.480  1.00  0.00     0.135 A 
ATOM     68  F   UNL A   1      42.966  27.198  36.855  1.00  0.00    -0.206 F 
ATOM     69  C   UNL A   1      45.265  26.820  37.136  1.00  0.00     0.059 A 
ATOM     70  C   UNL A   1      46.874  28.254  36.015  1.00  0.00     0.059 A 
ATOM     71  F   UNL A   1      46.118  30.036  34.695  1.00  0.00    -0.206 F 
ATOM     72  C   UNL A   1      46.584  27.168  36.839  1.00  0.00     0.060 A 
BRANCH  72  73
ATOM     73  S   UNL A   1      47.917  26.156  37.517  1.00  0.00     0.124 S 
ATOM     74  O   UNL A   1      48.566  25.674  36.303  1.00  0.00    -0.237 OA
ATOM     75  O   UNL A   1      48.674  27.130  38.298  1.00  0.00    -0.237 OA
ATOM     76  O   UNL A   1      47.213  25.142  38.297  1.00  0.00    -0.744 OA
ENDBRANCH  72  73
ENDBRANCH  51  65
BRANCH  52  77
ATOM     77  C   UNL A   1      36.831  33.016  30.847  1.00  0.00     0.058 A 
ATOM     78  C   UNL A   1      36.986  33.899  29.769  1.00  0.00     0.135 A 
ATOM     79  C   UNL A   1      35.526  32.758  31.297  1.00  0.00     0.135 A 
ATOM     80  F   UNL A   1      38.212  34.174  29.297  1.00  0.00    -0.206 F 
ATOM     81  C   UNL A   1      35.897  34.547  29.197  1.00  0.00     0.059 A 
ATOM     82  C   UNL A   1      34.418  33.362  30.715  1.00  0.00     0.059 A 
ATOM     83  F   UNL A   1      35.317  31.901  32.309  1.00  0.00    -0.206 F 
ATOM     84  C   UNL A   1      34.617  34.276  29.683  1.00  0.00     0.060 A 
BRANCH  84  85
ATOM     85  S   UNL A   1      33.213  35.138  28.948  1.00  0.00     0.124 S 
ATOM     86  O   UNL A   1      33.864  36.288  28.332  1.00  0.00    -0.237 OA
ATOM     87  O   UNL A   1      32.684  34.133  28.031  1.00  0.00    -0.237 OA
ATOM     88  O   UNL A   1      32.363  35.435  30.098  1.00  0.00    -0.744 OA
ENDBRANCH  84  85
ENDBRANCH  52  77
BRANCH  64  89
ATOM     89  C   UNL A   1      40.056  34.184  36.924  1.00  0.00     0.058 A 
ATOM     90  C   UNL A   1      40.672  35.445  36.880  1.00  0.00     0.135 A 
ATOM     91  C   UNL A   1      39.180  33.916  37.988  1.00  0.00     0.135 A 
ATOM     92  F   UNL A   1      41.524  35.747  35.888  1.00  0.00    -0.206 F 
ATOM     93  C   UNL A   1      40.452  36.391  37.874  1.00  0.00     0.059 A 
ATOM     94  C   UNL A   1      38.912  34.864  38.969  1.00  0.00     0.059 A 
ATOM     95  F   UNL A   1      38.554  32.731  38.071  1.00  0.00    -0.206 F 
ATOM     96  C   UNL A   1      39.566  36.094  38.911  1.00  0.00     0.060 A 
BRANCH  96  97
ATOM     97  S   UNL A   1      39.264  37.346  40.173  1.00  0.00     0.124 S 
ATOM     98  O   UNL A   1      38.665  36.550  41.239  1.00  0.00    -0.237 OA
ATOM     99  O   UNL A   1      40.609  37.849  40.436  1.00  0.00    -0.237 OA
ATOM    100  O   UNL A   1      38.366  38.287  39.513  1.00  0.00    -0.744 OA
ENDBRANCH  96  97
ENDBRANCH  64  89
ENDBRANCH  38  39
ENDBRANCH  31  33
ENDBRANCH  30  31
ENDBRANCH  29  30
ENDBRANCH  28  29
ENDBRANCH  27  28
ENDBRANCH   1  27
TORSDOF 24
ENDMDL
MODEL 2
REMARK VINA RESULT:     -10.4      6.495     13.746
REMARK SMILES CCCc1cc(OCC(=O)OCCOCCOC(=O)c2ccc(-c3c4nc(c(-c5c(F)cc(S(=O)(=O)[O-])cc5F)c5ccc([nH]5)c(-c5c(F)cc(S(=O)(=O)[O-])cc5F)c5nc(c(-c6c(F)cc(S(=O)(=O)[O-])cc6F)c6ccc3[nH]6)C=C5)C=C4)cc2)nc(Nc2ccc(C#N)cc2)n1
REMARK SMILES IDX 13 1 12 2 11 3 9 4 10 5 8 6 7 7 6 8 4 9 5 10 97 11 87 12
REMARK SMILES IDX 86 13 3 14 2 15 1 16 88 17 89 19 90 20 96 21 91 22 95 23
REMARK SMILES IDX 92 24 93 25 94 26 14 27 15 28 16 29 17 30 18 31 19 32 20 33
REMARK SMILES IDX 21 34 85 35 22 36 84 37 23 38 24 39 25 40 78 41 26 42 83 43
REMARK SMILES IDX 77 44 79 45 27 46 82 47 76 48 75 49 28 51 62 52 41 53 61 54
REMARK SMILES IDX 42 55 45 56 60 57 80 58 43 59 44 60 59 62 81 63 46 64 29 65
REMARK SMILES IDX 30 66 39 67 31 68 32 69 38 70 40 71 33 72 34 73 35 74 36 75
REMARK SMILES IDX 37 76 63 77 64 78 73 79 65 80 66 81 72 82 74 83 67 84 68 85
REMARK SMILES IDX 69 86 70 87 71 88 47 89 48 90 57 91 49 92 50 93 56 94 58 95
REMARK SMILES IDX 51 96 52 97 53 98 54 99 55 100
REMARK H PARENT 88 18 79 50 45 61
REMARK Flexibility Score: inf
ROOT
ATOM      1  C   UNL A   1      33.265  35.502  30.160  1.00  0.00     0.202 C 
ENDROOT
BRANCH   1   2
ATOM      2  C   UNL A   1      33.077  35.755  31.665  1.00  0.00     0.261 C 
BRANCH   2   3
ATOM      3  O   UNL A   1      33.209  34.583  32.504  1.00  0.00    -0.461 OA
BRANCH   3   4
ATOM      4  C   UNL A   1      34.350  34.517  33.248  1.00  0.00     0.344 C 
ATOM      5  O   UNL A   1      34.951  35.493  33.689  1.00  0.00    -0.248 OA
BRANCH   4   6
ATOM      6  C   UNL A   1      34.855  33.089  33.509  1.00  0.00     0.353 C 
BRANCH   6   7
ATOM      7  O   UNL A   1      36.018  32.812  34.259  1.00  0.00    -0.466 OA
BRANCH   7   8
ATOM      8  C   UNL A   1      37.242  32.668  33.673  1.00  0.00     0.218 A 
ATOM      9  C   UNL A   1      39.225  33.419  32.652  1.00  0.00     0.050 A 
ATOM     10  C   UNL A   1      37.857  33.583  32.836  1.00  0.00     0.092 A 
ATOM     11  N   UNL A   1      39.864  32.343  33.132  1.00  0.00    -0.218 NA
ATOM     12  C   UNL A   1      39.185  31.452  33.868  1.00  0.00     0.230 A 
ATOM     13  N   UNL A   1      37.886  31.584  34.151  1.00  0.00    -0.177 NA
BRANCH   9  14
ATOM     14  C   UNL A   1      40.092  34.469  31.989  1.00  0.00     0.056 C 
BRANCH  14  15
ATOM     15  C   UNL A   1      40.534  34.214  30.527  1.00  0.00     0.003 C 
ATOM     16  C   UNL A   1      39.537  34.585  29.439  1.00  0.00     0.004 C 
ENDBRANCH  14  15
ENDBRANCH   9  14
BRANCH  12  17
ATOM     17  N   UNL A   1      39.868  30.364  34.406  1.00  0.00    -0.324 N 
ATOM     18  H   UNL A   1      39.576  30.045  35.291  1.00  0.00     0.170 HD
BRANCH  17  19
ATOM     19  C   UNL A   1      40.930  29.687  33.803  1.00  0.00     0.041 A 
ATOM     20  C   UNL A   1      41.014  28.295  33.887  1.00  0.00     0.027 A 
ATOM     21  C   UNL A   1      41.918  30.380  33.092  1.00  0.00     0.027 A 
ATOM     22  C   UNL A   1      41.984  27.598  33.159  1.00  0.00     0.021 A 
ATOM     23  C   UNL A   1      42.894  29.690  32.365  1.00  0.00     0.021 A 
ATOM     24  C   UNL A   1      42.906  28.294  32.370  1.00  0.00     0.052 A 
BRANCH  24  25
ATOM     25  C   UNL A   1      43.822  27.573  31.536  1.00  0.00     0.099 C 
ATOM     26  N   UNL A   1      44.567  27.020  30.834  1.00  0.00    -0.192 NA
ENDBRANCH  24  25
ENDBRANCH  17  19
ENDBRANCH  12  17
ENDBRANCH   7   8
ENDBRANCH   6   7
ENDBRANCH   4   6
ENDBRANCH   3   4
ENDBRANCH   2   3
ENDBRANCH   1   2
BRANCH   1  27
ATOM     27  O   UNL A   1      33.488  34.173  29.702  1.00  0.00    -0.374 OA
BRANCH  27  28
ATOM     28  C   UNL A   1      34.736  33.882  29.103  1.00  0.00     0.202 C 
BRANCH  28  29
ATOM     29  C   UNL A   1      35.807  33.123  29.894  1.00  0.00     0.261 C 
BRANCH  29  30
ATOM     30  O   UNL A   1      36.252  31.911  29.337  1.00  0.00    -0.460 OA
BRANCH  30  31
ATOM     31  C   UNL A   1      36.512  30.984  30.278  1.00  0.00     0.338 C 
ATOM     32  O   UNL A   1      35.857  30.672  31.253  1.00  0.00    -0.246 OA
BRANCH  31  33
ATOM     33  C   UNL A   1      37.714  30.308  29.831  1.00  0.00     0.060 A 
ATOM     34  C   UNL A   1      38.538  29.770  30.818  1.00  0.00     0.016 A 
ATOM     35  C   UNL A   1      37.998  30.217  28.467  1.00  0.00     0.016 A 
ATOM     36  C   UNL A   1      39.724  29.184  30.432  1.00  0.00     0.010 A 
ATOM     37  C   UNL A   1      39.186  29.619  28.084  1.00  0.00     0.010 A 
ATOM     38  C   UNL A   1      40.065  29.150  29.072  1.00  0.00    -0.014 A 
BRANCH  38  39
ATOM     39  C   UNL A   1      41.427  28.743  28.710  1.00  0.00     0.031 A 
ATOM     40  C   UNL A   1      42.510  29.777  28.748  1.00  0.00     0.074 A 
ATOM     41  C   UNL A   1      41.663  27.456  28.416  1.00  0.00     0.049 A 
ATOM     42  N   UNL A   1      43.778  29.643  28.479  1.00  0.00    -0.248 NA
ATOM     43  C   UNL A   1      42.118  31.146  29.138  1.00  0.00     0.031 C 
ATOM     44  C   UNL A   1      40.651  26.396  28.391  1.00  0.00     0.029 A 
ATOM     45  N   UNL A   1      42.826  26.819  28.088  1.00  0.00    -0.354 N 
ATOM     46  C   UNL A   1      44.331  30.906  28.644  1.00  0.00     0.074 A 
ATOM     47  C   UNL A   1      43.263  31.802  29.016  1.00  0.00     0.031 C 
ATOM     48  C   UNL A   1      41.243  25.236  28.067  1.00  0.00     0.029 A 
ATOM     49  C   UNL A   1      42.659  25.484  27.816  1.00  0.00     0.049 A 
ATOM     50  H   UNL A   1      43.699  27.274  28.052  1.00  0.00     0.167 HD
ATOM     51  C   UNL A   1      45.624  31.268  28.496  1.00  0.00     0.037 A 
ATOM     52  C   UNL A   1      43.555  24.582  27.382  1.00  0.00     0.037 A 
ATOM     53  C   UNL A   1      46.665  30.340  28.145  1.00  0.00     0.049 A 
ATOM     54  C   UNL A   1      44.979  25.032  27.185  1.00  0.00     0.074 A 
ATOM     55  C   UNL A   1      48.020  30.582  28.015  1.00  0.00     0.029 A 
ATOM     56  N   UNL A   1      46.464  28.998  27.855  1.00  0.00    -0.354 N 
ATOM     57  N   UNL A   1      45.505  26.218  27.397  1.00  0.00    -0.248 NA
ATOM     58  C   UNL A   1      45.931  24.029  26.699  1.00  0.00     0.031 C 
ATOM     59  C   UNL A   1      48.626  29.406  27.569  1.00  0.00     0.029 A 
ATOM     60  C   UNL A   1      47.665  28.408  27.504  1.00  0.00     0.049 A 
ATOM     61  H   UNL A   1      45.596  28.535  27.892  1.00  0.00     0.167 HD
ATOM     62  C   UNL A   1      46.858  26.089  27.104  1.00  0.00     0.074 A 
ATOM     63  C   UNL A   1      47.068  24.708  26.721  1.00  0.00     0.031 C 
ATOM     64  C   UNL A   1      47.841  27.023  27.145  1.00  0.00     0.037 A 
BRANCH  51  65
ATOM     65  C   UNL A   1      45.990  32.713  28.675  1.00  0.00     0.058 A 
ATOM     66  C   UNL A   1      45.974  33.627  27.612  1.00  0.00     0.135 A 
ATOM     67  C   UNL A   1      46.268  33.205  29.961  1.00  0.00     0.135 A 
ATOM     68  F   UNL A   1      45.745  33.206  26.359  1.00  0.00    -0.206 F 
ATOM     69  C   UNL A   1      46.207  34.984  27.819  1.00  0.00     0.059 A 
ATOM     70  C   UNL A   1      46.474  34.560  30.196  1.00  0.00     0.059 A 
ATOM     71  F   UNL A   1      46.315  32.369  31.009  1.00  0.00    -0.206 F 
ATOM     72  C   UNL A   1      46.438  35.442  29.118  1.00  0.00     0.060 A 
BRANCH  72  73
ATOM     73  S   UNL A   1      46.652  37.215  29.381  1.00  0.00     0.124 S 
ATOM     74  O   UNL A   1      47.694  37.532  28.410  1.00  0.00    -0.237 OA
ATOM     75  O   UNL A   1      45.322  37.734  29.076  1.00  0.00    -0.237 OA
ATOM     76  O   UNL A   1      47.053  37.307  30.782  1.00  0.00    -0.744 OA
ENDBRANCH  72  73
ENDBRANCH  51  65
BRANCH  52  77
ATOM     77  C   UNL A   1      43.135  23.190  27.072  1.00  0.00     0.058 A 
ATOM     78  C   UNL A   1      42.908  22.254  28.090  1.00  0.00     0.135 A 
ATOM     79  C   UNL A   1      42.993  22.756  25.743  1.00  0.00     0.135 A 
ATOM     80  F   UNL A   1      43.024  22.619  29.376  1.00  0.00    -0.206 F 
ATOM     81  C   UNL A   1      42.611  20.925  27.805  1.00  0.00     0.059 A 
ATOM     82  C   UNL A   1      42.658  21.444  25.433  1.00  0.00     0.059 A 
ATOM     83  F   UNL A   1      43.174  23.617  24.729  1.00  0.00    -0.206 F 
ATOM     84  C   UNL A   1      42.495  20.530  26.471  1.00  0.00     0.060 A 
BRANCH  84  85
ATOM     85  S   UNL A   1      42.131  18.800  26.111  1.00  0.00     0.124 S 
ATOM     86  O   UNL A   1      42.444  18.164  27.385  1.00  0.00    -0.237 OA
ATOM     87  O   UNL A   1      40.717  18.854  25.752  1.00  0.00    -0.237 OA
ATOM     88  O   UNL A   1      43.038  18.488  25.010  1.00  0.00    -0.744 OA
ENDBRANCH  84  85
ENDBRANCH  52  77
BRANCH  64  89
ATOM     89  C   UNL A   1      49.236  26.568  26.821  1.00  0.00     0.058 A 
ATOM     90  C   UNL A   1      49.749  26.615  25.515  1.00  0.00     0.135 A 
ATOM     91  C   UNL A   1      50.088  26.128  27.847  1.00  0.00     0.135 A 
ATOM     92  F   UNL A   1      48.974  27.021  24.498  1.00  0.00    -0.206 F 
ATOM     93  C   UNL A   1      51.048  26.207  25.234  1.00  0.00     0.059 A 
ATOM     94  C   UNL A   1      51.404  25.757  27.595  1.00  0.00     0.059 A 
ATOM     95  F   UNL A   1      49.652  26.078  29.116  1.00  0.00    -0.206 F 
ATOM     96  C   UNL A   1      51.869  25.786  26.281  1.00  0.00     0.060 A 
BRANCH  96  97
ATOM     97  S   UNL A   1      53.563  25.294  25.905  1.00  0.00     0.124 S 
ATOM     98  O   UNL A   1      54.180  25.330  27.227  1.00  0.00    -0.237 OA
ATOM     99  O   UNL A   1      53.377  23.966  25.328  1.00  0.00    -0.237 OA
ATOM    100  O   UNL A   1      54.017  26.319  24.972  1.00  0.00    -0.744 OA
ENDBRANCH  96  97
ENDBRANCH  64  89
ENDBRANCH  38  39
ENDBRANCH  31  33
ENDBRANCH  30  31
ENDBRANCH  29  30
ENDBRANCH  28  29
ENDBRANCH  27  28
ENDBRANCH   1  27
TORSDOF 24
ENDMDL
MODEL 3
REMARK VINA RESULT:     -10.4      0.705      8.143
REMARK SMILES CCCc1cc(OCC(=O)OCCOCCOC(=O)c2ccc(-c3c4nc(c(-c5c(F)cc(S(=O)(=O)[O-])cc5F)c5ccc([nH]5)c(-c5c(F)cc(S(=O)(=O)[O-])cc5F)c5nc(c(-c6c(F)cc(S(=O)(=O)[O-])cc6F)c6ccc3[nH]6)C=C5)C=C4)cc2)nc(Nc2ccc(C#N)cc2)n1
REMARK SMILES IDX 13 1 12 2 11 3 9 4 10 5 8 6 7 7 6 8 4 9 5 10 97 11 87 12
REMARK SMILES IDX 86 13 3 14 2 15 1 16 88 17 89 19 90 20 96 21 91 22 95 23
REMARK SMILES IDX 92 24 93 25 94 26 14 27 15 28 16 29 17 30 18 31 19 32 20 33
REMARK SMILES IDX 21 34 85 35 22 36 84 37 23 38 24 39 25 40 78 41 26 42 83 43
REMARK SMILES IDX 77 44 79 45 27 46 82 47 76 48 75 49 28 51 62 52 41 53 61 54
REMARK SMILES IDX 42 55 45 56 60 57 80 58 43 59 44 60 59 62 81 63 46 64 29 65
REMARK SMILES IDX 30 66 39 67 31 68 32 69 38 70 40 71 33 72 34 73 35 74 36 75
REMARK SMILES IDX 37 76 63 77 64 78 73 79 65 80 66 81 72 82 74 83 67 84 68 85
REMARK SMILES IDX 69 86 70 87 71 88 47 89 48 90 57 91 49 92 50 93 56 94 58 95
REMARK SMILES IDX 51 96 52 97 53 98 54 99 55 100
REMARK H PARENT 88 18 79 50 45 61
REMARK Flexibility Score: inf
ROOT
ATOM      1  C   UNL A   1      41.955  20.844  26.490  1.00  0.00     0.202 C 
ENDROOT
BRANCH   1   2
ATOM      2  C   UNL A   1      40.464  20.483  26.398  1.00  0.00     0.261 C 
BRANCH   2   3
ATOM      3  O   UNL A   1      39.556  21.609  26.466  1.00  0.00    -0.461 OA
BRANCH   3   4
ATOM      4  C   UNL A   1      38.445  21.517  25.682  1.00  0.00     0.344 C 
ATOM      5  O   UNL A   1      38.112  20.512  25.059  1.00  0.00    -0.248 OA
BRANCH   4   6
ATOM      6  C   UNL A   1      37.601  22.801  25.623  1.00  0.00     0.353 C 
BRANCH   6   7
ATOM      7  O   UNL A   1      36.611  23.024  24.644  1.00  0.00    -0.466 OA
BRANCH   7   8
ATOM      8  C   UNL A   1      35.289  23.143  24.963  1.00  0.00     0.218 A 
ATOM      9  C   UNL A   1      33.312  24.308  25.483  1.00  0.00     0.050 A 
ATOM     10  C   UNL A   1      34.695  24.227  25.585  1.00  0.00     0.092 A 
ATOM     11  N   UNL A   1      32.597  23.307  24.950  1.00  0.00    -0.218 NA
ATOM     12  C   UNL A   1      33.237  22.246  24.438  1.00  0.00     0.230 A 
ATOM     13  N   UNL A   1      34.568  22.134  24.430  1.00  0.00    -0.177 NA
BRANCH   9  14
ATOM     14  C   UNL A   1      32.534  25.548  25.874  1.00  0.00     0.056 C 
BRANCH  14  15
ATOM     15  C   UNL A   1      30.990  25.485  25.775  1.00  0.00     0.003 C 
ATOM     16  C   UNL A   1      30.379  25.829  24.425  1.00  0.00     0.004 C 
ENDBRANCH  14  15
ENDBRANCH   9  14
BRANCH  12  17
ATOM     17  N   UNL A   1      32.489  21.234  23.839  1.00  0.00    -0.324 N 
ATOM     18  H   UNL A   1      31.871  21.500  23.119  1.00  0.00     0.170 HD
BRANCH  17  19
ATOM     19  C   UNL A   1      32.538  19.879  24.169  1.00  0.00     0.041 A 
ATOM     20  C   UNL A   1      32.556  18.910  23.162  1.00  0.00     0.027 A 
ATOM     21  C   UNL A   1      32.586  19.462  25.506  1.00  0.00     0.027 A 
ATOM     22  C   UNL A   1      32.759  17.563  23.478  1.00  0.00     0.021 A 
ATOM     23  C   UNL A   1      32.785  18.115  25.829  1.00  0.00     0.021 A 
ATOM     24  C   UNL A   1      32.908  17.168  24.812  1.00  0.00     0.052 A 
BRANCH  24  25
ATOM     25  C   UNL A   1      33.232  15.807  25.122  1.00  0.00     0.099 C 
ATOM     26  N   UNL A   1      33.534  14.708  25.360  1.00  0.00    -0.192 NA
ENDBRANCH  24  25
ENDBRANCH  17  19
ENDBRANCH  12  17
ENDBRANCH   7   8
ENDBRANCH   6   7
ENDBRANCH   4   6
ENDBRANCH   3   4
ENDBRANCH   2   3
ENDBRANCH   1   2
BRANCH   1  27
ATOM     27  O   UNL A   1      42.611  21.382  25.348  1.00  0.00    -0.374 OA
BRANCH  27  28
ATOM     28  C   UNL A   1      42.901  22.767  25.343  1.00  0.00     0.202 C 
BRANCH  28  29
ATOM     29  C   UNL A   1      42.475  23.642  26.525  1.00  0.00     0.261 C 
BRANCH  29  30
ATOM     30  O   UNL A   1      41.269  24.350  26.375  1.00  0.00    -0.460 OA
BRANCH  30  31
ATOM     31  C   UNL A   1      41.474  25.646  26.078  1.00  0.00     0.338 C 
ATOM     32  O   UNL A   1      41.522  26.190  24.992  1.00  0.00    -0.246 OA
BRANCH  31  33
ATOM     33  C   UNL A   1      41.508  26.334  27.354  1.00  0.00     0.060 A 
ATOM     34  C   UNL A   1      40.486  26.045  28.255  1.00  0.00     0.016 A 
ATOM     35  C   UNL A   1      42.537  27.236  27.632  1.00  0.00     0.016 A 
ATOM     36  C   UNL A   1      40.449  26.734  29.447  1.00  0.00     0.010 A 
ATOM     37  C   UNL A   1      42.502  27.920  28.835  1.00  0.00     0.010 A 
ATOM     38  C   UNL A   1      41.430  27.700  29.715  1.00  0.00    -0.014 A 
BRANCH  38  39
ATOM     39  C   UNL A   1      41.235  28.583  30.869  1.00  0.00     0.031 A 
ATOM     40  C   UNL A   1      40.117  29.579  30.821  1.00  0.00     0.074 A 
ATOM     41  C   UNL A   1      42.023  28.429  31.945  1.00  0.00     0.049 A 
ATOM     42  N   UNL A   1      39.757  30.447  31.724  1.00  0.00    -0.248 NA
ATOM     43  C   UNL A   1      39.295  29.606  29.595  1.00  0.00     0.031 C 
ATOM     44  C   UNL A   1      43.111  27.453  32.061  1.00  0.00     0.029 A 
ATOM     45  N   UNL A   1      42.027  29.083  33.143  1.00  0.00    -0.354 N 
ATOM     46  C   UNL A   1      38.685  31.137  31.171  1.00  0.00     0.074 A 
ATOM     47  C   UNL A   1      38.462  30.606  29.848  1.00  0.00     0.031 C 
ATOM     48  C   UNL A   1      43.677  27.575  33.271  1.00  0.00     0.029 A 
ATOM     49  C   UNL A   1      43.022  28.663  33.990  1.00  0.00     0.049 A 
ATOM     50  H   UNL A   1      41.379  29.787  33.376  1.00  0.00     0.167 HD
ATOM     51  C   UNL A   1      37.959  32.125  31.737  1.00  0.00     0.037 A 
ATOM     52  C   UNL A   1      43.374  29.138  35.197  1.00  0.00     0.037 A 
ATOM     53  C   UNL A   1      38.198  32.613  33.068  1.00  0.00     0.049 A 
ATOM     54  C   UNL A   1      42.569  30.271  35.777  1.00  0.00     0.074 A 
ATOM     55  C   UNL A   1      37.493  33.577  33.766  1.00  0.00     0.029 A 
ATOM     56  N   UNL A   1      39.225  32.185  33.896  1.00  0.00    -0.354 N 
ATOM     57  N   UNL A   1      41.522  30.882  35.270  1.00  0.00    -0.248 NA
ATOM     58  C   UNL A   1      42.984  30.776  37.089  1.00  0.00     0.031 C 
ATOM     59  C   UNL A   1      38.144  33.788  34.983  1.00  0.00     0.029 A 
ATOM     60  C   UNL A   1      39.201  32.895  35.082  1.00  0.00     0.049 A 
ATOM     61  H   UNL A   1      39.875  31.480  33.672  1.00  0.00     0.167 HD
ATOM     62  C   UNL A   1      41.132  31.818  36.222  1.00  0.00     0.074 A 
ATOM     63  C   UNL A   1      42.045  31.676  37.338  1.00  0.00     0.031 C 
ATOM     64  C   UNL A   1      40.116  32.716  36.181  1.00  0.00     0.037 A 
BRANCH  51  65
ATOM     65  C   UNL A   1      36.870  32.769  30.928  1.00  0.00     0.058 A 
ATOM     66  C   UNL A   1      37.137  33.726  29.939  1.00  0.00     0.135 A 
ATOM     67  C   UNL A   1      35.541  32.342  31.087  1.00  0.00     0.135 A 
ATOM     68  F   UNL A   1      38.384  34.192  29.765  1.00  0.00    -0.206 F 
ATOM     69  C   UNL A   1      36.127  34.227  29.123  1.00  0.00     0.059 A 
ATOM     70  C   UNL A   1      34.521  32.807  30.264  1.00  0.00     0.059 A 
ATOM     71  F   UNL A   1      35.229  31.443  32.033  1.00  0.00    -0.206 F 
ATOM     72  C   UNL A   1      34.825  33.748  29.283  1.00  0.00     0.060 A 
BRANCH  72  73
ATOM     73  S   UNL A   1      33.542  34.344  28.161  1.00  0.00     0.124 S 
ATOM     74  O   UNL A   1      32.691  35.107  29.068  1.00  0.00    -0.237 OA
ATOM     75  O   UNL A   1      34.314  35.132  27.204  1.00  0.00    -0.237 OA
ATOM     76  O   UNL A   1      32.954  33.118  27.631  1.00  0.00    -0.744 OA
ENDBRANCH  72  73
ENDBRANCH  51  65
BRANCH  52  77
ATOM     77  C   UNL A   1      44.550  28.579  35.915  1.00  0.00     0.058 A 
ATOM     78  C   UNL A   1      44.399  27.600  36.907  1.00  0.00     0.135 A 
ATOM     79  C   UNL A   1      45.848  29.045  35.650  1.00  0.00     0.135 A 
ATOM     80  F   UNL A   1      43.181  27.116  37.193  1.00  0.00    -0.206 F 
ATOM     81  C   UNL A   1      45.483  27.144  37.650  1.00  0.00     0.059 A 
ATOM     82  C   UNL A   1      46.952  28.576  36.351  1.00  0.00     0.059 A 
ATOM     83  F   UNL A   1      46.054  29.964  34.693  1.00  0.00    -0.206 F 
ATOM     84  C   UNL A   1      46.755  27.644  37.368  1.00  0.00     0.060 A 
BRANCH  84  85
ATOM     85  S   UNL A   1      48.151  27.063  38.352  1.00  0.00     0.124 S 
ATOM     86  O   UNL A   1      49.186  26.921  37.335  1.00  0.00    -0.237 OA
ATOM     87  O   UNL A   1      48.331  28.156  39.302  1.00  0.00    -0.237 OA
ATOM     88  O   UNL A   1      47.658  25.815  38.929  1.00  0.00    -0.744 OA
ENDBRANCH  84  85
ENDBRANCH  52  77
BRANCH  64  89
ATOM     89  C   UNL A   1      39.906  33.571  37.399  1.00  0.00     0.058 A 
ATOM     90  C   UNL A   1      38.979  33.229  38.397  1.00  0.00     0.135 A 
ATOM     91  C   UNL A   1      40.684  34.724  37.591  1.00  0.00     0.135 A 
ATOM     92  F   UNL A   1      38.206  32.141  38.258  1.00  0.00    -0.206 F 
ATOM     93  C   UNL A   1      38.808  34.020  39.526  1.00  0.00     0.059 A 
ATOM     94  C   UNL A   1      40.560  35.506  38.734  1.00  0.00     0.059 A 
ATOM     95  F   UNL A   1      41.594  35.089  36.674  1.00  0.00    -0.206 F 
ATOM     96  C   UNL A   1      39.608  35.154  39.689  1.00  0.00     0.060 A 
BRANCH  96  97
ATOM     97  S   UNL A   1      39.398  36.151  41.176  1.00  0.00     0.124 S 
ATOM     98  O   UNL A   1      38.787  35.191  42.090  1.00  0.00    -0.237 OA
ATOM     99  O   UNL A   1      40.771  36.535  41.487  1.00  0.00    -0.237 OA
ATOM    100  O   UNL A   1      38.531  37.239  40.739  1.00  0.00    -0.744 OA
ENDBRANCH  96  97
ENDBRANCH  64  89
ENDBRANCH  38  39
ENDBRANCH  31  33
ENDBRANCH  30  31
ENDBRANCH  29  30
ENDBRANCH  28  29
ENDBRANCH  27  28
ENDBRANCH   1  27
TORSDOF 24
ENDMDL
