MODEL 1
REMARK VINA RESULT:      -9.7      0.000      0.000
REMARK SMILES Nc1ccc([C@H]([NH3+])C(=O)OCCOCCOC(=O)c2ccc(-c3c4nc(c(-c5c(F)cc(S(=O)(=O)[O-])cc5F)c5ccc([nH]5)c(-c5c(F)cc(S(=O)(=O)[O-])cc5F)c5nc(c(-c6c(F)cc(S(=O)(=O)[O-])cc6F)c6ccc3[nH]6)C=C5)C=C4)cc2)cc1C(F)(F)F
REMARK SMILES IDX 14 1 13 2 12 3 11 4 10 5 8 6 9 7 6 8 5 9 2 10 3 11 86 12
REMARK SMILES IDX 4 13 85 14 1 15 87 18 88 19 89 20 90 21 7 22 15 26 16 27
REMARK SMILES IDX 17 28 18 29 19 30 20 31 84 32 21 33 83 34 22 35 23 36 24 37
REMARK SMILES IDX 77 38 25 39 82 40 76 41 78 42 26 43 81 44 75 45 74 46 27 48
REMARK SMILES IDX 61 49 40 50 60 51 41 52 44 53 59 54 79 55 42 56 43 57 58 59
REMARK SMILES IDX 80 60 45 61 28 62 29 63 38 64 30 65 31 66 37 67 39 68 32 69
REMARK SMILES IDX 33 70 34 71 35 72 36 73 62 74 63 75 72 76 64 77 65 78 71 79
REMARK SMILES IDX 73 80 66 81 67 82 68 83 69 84 70 85 46 86 47 87 56 88 48 89
REMARK SMILES IDX 49 90 55 91 57 92 50 93 51 94 52 95 53 96 54 97
REMARK H PARENT 1 16 1 17 7 23 7 24 7 25 78 47 44 58
REMARK Flexibility Score: inf
ROOT
ATOM      1  C   UNL A   1      41.803  19.982  26.384  1.00  0.00     0.202 C 
ENDROOT
BRANCH   1   2
ATOM      2  O   UNL A   1      42.227  19.173  25.288  1.00  0.00    -0.374 OA
BRANCH   2   3
ATOM      3  C   UNL A   1      43.576  18.705  25.296  1.00  0.00     0.202 C 
BRANCH   3   4
ATOM      4  C   UNL A   1      44.669  19.773  25.201  1.00  0.00     0.261 C 
BRANCH   4   5
ATOM      5  O   UNL A   1      44.457  20.628  24.066  1.00  0.00    -0.459 OA
BRANCH   5   6
ATOM      6  C   UNL A   1      44.529  21.971  24.306  1.00  0.00     0.369 C 
ATOM      7  O   UNL A   1      43.611  22.767  24.137  1.00  0.00    -0.245 OA
BRANCH   6   8
ATOM      8  C   UNL A   1      45.934  22.394  24.784  1.00  0.00     0.323 C 
BRANCH   8   9
ATOM      9  C   UNL A   1      45.843  23.158  26.085  1.00  0.00     0.021 A 
ATOM     10  C   UNL A   1      45.808  24.431  28.616  1.00  0.00     0.044 A 
ATOM     11  C   UNL A   1      46.825  24.685  27.686  1.00  0.00     0.026 A 
ATOM     12  C   UNL A   1      44.758  23.577  28.249  1.00  0.00     0.079 A 
ATOM     13  C   UNL A   1      46.854  24.052  26.442  1.00  0.00     0.013 A 
ATOM     14  C   UNL A   1      44.789  22.948  26.986  1.00  0.00     0.025 A 
BRANCH  10  15
ATOM     15  N   UNL A   1      45.827  25.123  29.817  1.00  0.00    -0.398 N 
ATOM     16  H   UNL A   1      46.086  24.661  30.647  1.00  0.00     0.156 HD
ATOM     17  H   UNL A   1      45.582  26.076  29.840  1.00  0.00     0.156 HD
ENDBRANCH  10  15
BRANCH  12  18
ATOM     18  C   UNL A   1      43.595  23.247  29.153  1.00  0.00     0.418 C 
ATOM     19  F   UNL A   1      42.722  24.288  29.264  1.00  0.00    -0.166 F 
ATOM     20  F   UNL A   1      42.861  22.202  28.675  1.00  0.00    -0.166 F 
ATOM     21  F   UNL A   1      43.938  22.907  30.427  1.00  0.00    -0.166 F 
ENDBRANCH  12  18
ENDBRANCH   8   9
BRANCH   8  22
ATOM     22  N   UNL A   1      46.705  23.133  23.758  1.00  0.00    -0.342 N 
ATOM     23  H   UNL A   1      47.617  23.387  24.137  1.00  0.00     0.345 HD
ATOM     24  H   UNL A   1      46.198  23.980  23.498  1.00  0.00     0.345 HD
ATOM     25  H   UNL A   1      46.828  22.545  22.935  1.00  0.00     0.345 HD
ENDBRANCH   8  22
ENDBRANCH   6   8
ENDBRANCH   5   6
ENDBRANCH   4   5
ENDBRANCH   3   4
ENDBRANCH   2   3
ENDBRANCH   1   2
BRANCH   1  26
ATOM     26  C   UNL A   1      40.403  20.602  26.301  1.00  0.00     0.261 C 
BRANCH  26  27
ATOM     27  O   UNL A   1      40.295  21.862  26.985  1.00  0.00    -0.460 OA
BRANCH  27  28
ATOM     28  C   UNL A   1      39.311  22.669  26.523  1.00  0.00     0.338 C 
ATOM     29  O   UNL A   1      38.288  22.326  25.940  1.00  0.00    -0.246 OA
BRANCH  28  30
ATOM     30  C   UNL A   1      39.537  24.059  26.957  1.00  0.00     0.060 A 
ATOM     31  C   UNL A   1      40.085  24.947  26.023  1.00  0.00     0.016 A 
ATOM     32  C   UNL A   1      39.305  24.466  28.273  1.00  0.00     0.016 A 
ATOM     33  C   UNL A   1      40.456  26.231  26.414  1.00  0.00     0.010 A 
ATOM     34  C   UNL A   1      39.686  25.755  28.666  1.00  0.00     0.010 A 
ATOM     35  C   UNL A   1      40.297  26.628  27.748  1.00  0.00    -0.014 A 
BRANCH  35  36
ATOM     36  C   UNL A   1      40.909  27.900  28.208  1.00  0.00     0.031 A 
ATOM     37  C   UNL A   1      42.397  28.083  28.078  1.00  0.00     0.074 A 
ATOM     38  C   UNL A   1      40.144  28.889  28.702  1.00  0.00     0.049 A 
ATOM     39  N   UNL A   1      43.141  29.098  28.432  1.00  0.00    -0.248 NA
ATOM     40  C   UNL A   1      43.145  26.971  27.470  1.00  0.00     0.031 C 
ATOM     41  C   UNL A   1      38.690  28.843  28.845  1.00  0.00     0.029 A 
ATOM     42  N   UNL A   1      40.490  30.128  29.183  1.00  0.00    -0.354 N 
ATOM     43  C   UNL A   1      44.444  28.748  28.096  1.00  0.00     0.074 A 
ATOM     44  C   UNL A   1      44.392  27.415  27.537  1.00  0.00     0.031 C 
ATOM     45  C   UNL A   1      38.268  29.997  29.387  1.00  0.00     0.029 A 
ATOM     46  C   UNL A   1      39.423  30.852  29.656  1.00  0.00     0.049 A 
ATOM     47  H   UNL A   1      41.415  30.464  29.187  1.00  0.00     0.167 HD
ATOM     48  C   UNL A   1      45.579  29.474  28.236  1.00  0.00     0.037 A 
ATOM     49  C   UNL A   1      39.386  32.059  30.256  1.00  0.00     0.037 A 
ATOM     50  C   UNL A   1      45.624  30.802  28.791  1.00  0.00     0.049 A 
ATOM     51  C   UNL A   1      40.667  32.828  30.448  1.00  0.00     0.074 A 
ATOM     52  C   UNL A   1      46.720  31.629  28.955  1.00  0.00     0.029 A 
ATOM     53  N   UNL A   1      44.525  31.494  29.279  1.00  0.00    -0.354 N 
ATOM     54  N   UNL A   1      41.889  32.494  30.105  1.00  0.00    -0.248 NA
ATOM     55  C   UNL A   1      40.564  34.139  31.106  1.00  0.00     0.031 C 
ATOM     56  C   UNL A   1      46.292  32.804  29.583  1.00  0.00     0.029 A 
ATOM     57  C   UNL A   1      44.920  32.729  29.765  1.00  0.00     0.049 A 
ATOM     58  H   UNL A   1      43.600  31.156  29.279  1.00  0.00     0.167 HD
ATOM     59  C   UNL A   1      42.696  33.564  30.480  1.00  0.00     0.074 A 
ATOM     60  C   UNL A   1      41.823  34.558  31.071  1.00  0.00     0.031 C 
ATOM     61  C   UNL A   1      44.038  33.711  30.344  1.00  0.00     0.037 A 
BRANCH  48  62
ATOM     62  C   UNL A   1      46.869  28.836  27.802  1.00  0.00     0.058 A 
ATOM     63  C   UNL A   1      47.307  28.883  26.469  1.00  0.00     0.135 A 
ATOM     64  C   UNL A   1      47.689  28.185  28.739  1.00  0.00     0.135 A 
ATOM     65  F   UNL A   1      46.554  29.477  25.530  1.00  0.00    -0.206 F 
ATOM     66  C   UNL A   1      48.499  28.282  26.075  1.00  0.00     0.059 A 
ATOM     67  C   UNL A   1      48.897  27.600  28.372  1.00  0.00     0.059 A 
ATOM     68  F   UNL A   1      47.316  28.110  30.027  1.00  0.00    -0.206 F 
ATOM     69  C   UNL A   1      49.286  27.641  27.033  1.00  0.00     0.060 A 
BRANCH  69  70
ATOM     70  S   UNL A   1      50.827  26.861  26.506  1.00  0.00     0.124 S 
ATOM     71  O   UNL A   1      51.212  26.134  27.712  1.00  0.00    -0.237 OA
ATOM     72  O   UNL A   1      50.393  26.038  25.381  1.00  0.00    -0.237 OA
ATOM     73  O   UNL A   1      51.679  27.993  26.156  1.00  0.00    -0.744 OA
ENDBRANCH  69  70
ENDBRANCH  48  62
BRANCH  49  74
ATOM     74  C   UNL A   1      38.087  32.610  30.723  1.00  0.00     0.058 A 
ATOM     75  C   UNL A   1      37.642  32.408  32.037  1.00  0.00     0.135 A 
ATOM     76  C   UNL A   1      37.271  33.364  29.865  1.00  0.00     0.135 A 
ATOM     77  F   UNL A   1      38.382  31.684  32.892  1.00  0.00    -0.206 F 
ATOM     78  C   UNL A   1      36.431  32.928  32.485  1.00  0.00     0.059 A 
ATOM     79  C   UNL A   1      36.068  33.914  30.296  1.00  0.00     0.059 A 
ATOM     80  F   UNL A   1      37.656  33.594  28.600  1.00  0.00    -0.206 F 
ATOM     81  C   UNL A   1      35.653  33.684  31.606  1.00  0.00     0.060 A 
BRANCH  81  82
ATOM     82  S   UNL A   1      34.111  34.403  32.214  1.00  0.00     0.124 S 
ATOM     83  O   UNL A   1      33.391  34.651  30.970  1.00  0.00    -0.237 OA
ATOM     84  O   UNL A   1      33.584  33.333  33.055  1.00  0.00    -0.237 OA
ATOM     85  O   UNL A   1      34.558  35.593  32.933  1.00  0.00    -0.744 OA
ENDBRANCH  81  82
ENDBRANCH  49  74
BRANCH  61  86
ATOM     86  C   UNL A   1      44.646  35.006  30.809  1.00  0.00     0.058 A 
ATOM     87  C   UNL A   1      45.186  35.148  32.096  1.00  0.00     0.135 A 
ATOM     88  C   UNL A   1      44.744  36.099  29.931  1.00  0.00     0.135 A 
ATOM     89  F   UNL A   1      45.114  34.137  32.975  1.00  0.00    -0.206 F 
ATOM     90  C   UNL A   1      45.784  36.337  32.505  1.00  0.00     0.059 A 
ATOM     91  C   UNL A   1      45.359  37.287  30.310  1.00  0.00     0.059 A 
ATOM     92  F   UNL A   1      44.252  36.010  28.684  1.00  0.00    -0.206 F 
ATOM     93  C   UNL A   1      45.868  37.400  31.604  1.00  0.00     0.060 A 
BRANCH  93  94
ATOM     94  S   UNL A   1      46.681  38.924  32.132  1.00  0.00     0.124 S 
ATOM     95  O   UNL A   1      47.585  39.176  31.015  1.00  0.00    -0.237 OA
ATOM     96  O   UNL A   1      45.560  39.849  32.262  1.00  0.00    -0.237 OA
ATOM     97  O   UNL A   1      47.323  38.547  33.389  1.00  0.00    -0.744 OA
ENDBRANCH  93  94
ENDBRANCH  61  86
ENDBRANCH  35  36
ENDBRANCH  28  30
ENDBRANCH  27  28
ENDBRANCH  26  27
ENDBRANCH   1  26
TORSDOF 21
ENDMDL
MODEL 2
REMARK VINA RESULT:      -9.4      5.365      9.695
REMARK SMILES Nc1ccc([C@H]([NH3+])C(=O)OCCOCCOC(=O)c2ccc(-c3c4nc(c(-c5c(F)cc(S(=O)(=O)[O-])cc5F)c5ccc([nH]5)c(-c5c(F)cc(S(=O)(=O)[O-])cc5F)c5nc(c(-c6c(F)cc(S(=O)(=O)[O-])cc6F)c6ccc3[nH]6)C=C5)C=C4)cc2)cc1C(F)(F)F
REMARK SMILES IDX 14 1 13 2 12 3 11 4 10 5 8 6 9 7 6 8 5 9 2 10 3 11 86 12
REMARK SMILES IDX 4 13 85 14 1 15 87 18 88 19 89 20 90 21 7 22 15 26 16 27
REMARK SMILES IDX 17 28 18 29 19 30 20 31 84 32 21 33 83 34 22 35 23 36 24 37
REMARK SMILES IDX 77 38 25 39 82 40 76 41 78 42 26 43 81 44 75 45 74 46 27 48
REMARK SMILES IDX 61 49 40 50 60 51 41 52 44 53 59 54 79 55 42 56 43 57 58 59
REMARK SMILES IDX 80 60 45 61 28 62 29 63 38 64 30 65 31 66 37 67 39 68 32 69
REMARK SMILES IDX 33 70 34 71 35 72 36 73 62 74 63 75 72 76 64 77 65 78 71 79
REMARK SMILES IDX 73 80 66 81 67 82 68 83 69 84 70 85 46 86 47 87 56 88 48 89
REMARK SMILES IDX 49 90 55 91 57 92 50 93 51 94 52 95 53 96 54 97
REMARK H PARENT 1 16 1 17 7 23 7 24 7 25 78 47 44 58
REMARK Flexibility Score: inf
ROOT
ATOM      1  C   UNL A   1      44.912  24.461  25.003  1.00  0.00     0.202 C 
ENDROOT
BRANCH   1   2
ATOM      2  O   UNL A   1      45.443  23.143  24.868  1.00  0.00    -0.374 OA
BRANCH   2   3
ATOM      3  C   UNL A   1      44.678  22.197  24.121  1.00  0.00     0.202 C 
BRANCH   3   4
ATOM      4  C   UNL A   1      44.729  20.746  24.605  1.00  0.00     0.261 C 
BRANCH   4   5
ATOM      5  O   UNL A   1      43.425  20.288  25.002  1.00  0.00    -0.459 OA
BRANCH   5   6
ATOM      6  C   UNL A   1      43.363  19.019  25.504  1.00  0.00     0.369 C 
ATOM      7  O   UNL A   1      44.115  18.100  25.191  1.00  0.00    -0.245 OA
BRANCH   6   8
ATOM      8  C   UNL A   1      42.194  18.851  26.496  1.00  0.00     0.323 C 
BRANCH   8   9
ATOM      9  C   UNL A   1      41.341  20.098  26.524  1.00  0.00     0.021 A 
ATOM     10  C   UNL A   1      39.652  22.359  26.772  1.00  0.00     0.044 A 
ATOM     11  C   UNL A   1      40.913  22.320  27.383  1.00  0.00     0.026 A 
ATOM     12  C   UNL A   1      39.258  21.278  25.972  1.00  0.00     0.079 A 
ATOM     13  C   UNL A   1      41.744  21.204  27.274  1.00  0.00     0.013 A 
ATOM     14  C   UNL A   1      40.108  20.157  25.859  1.00  0.00     0.025 A 
BRANCH  10  15
ATOM     15  N   UNL A   1      38.897  23.516  26.897  1.00  0.00    -0.398 N 
ATOM     16  H   UNL A   1      38.998  24.242  26.240  1.00  0.00     0.156 HD
ATOM     17  H   UNL A   1      38.261  23.610  27.641  1.00  0.00     0.156 HD
ENDBRANCH  10  15
BRANCH  12  18
ATOM     18  C   UNL A   1      37.937  21.216  25.244  1.00  0.00     0.418 C 
ATOM     19  F   UNL A   1      37.749  20.015  24.627  1.00  0.00    -0.166 F 
ATOM     20  F   UNL A   1      36.881  21.361  26.094  1.00  0.00    -0.166 F 
ATOM     21  F   UNL A   1      37.769  22.163  24.279  1.00  0.00    -0.166 F 
ENDBRANCH  12  18
ENDBRANCH   8   9
BRANCH   8  22
ATOM     22  N   UNL A   1      42.629  18.445  27.853  1.00  0.00    -0.342 N 
ATOM     23  H   UNL A   1      41.963  17.775  28.236  1.00  0.00     0.345 HD
ATOM     24  H   UNL A   1      42.670  19.267  28.456  1.00  0.00     0.345 HD
ATOM     25  H   UNL A   1      43.552  18.015  27.800  1.00  0.00     0.345 HD
ENDBRANCH   8  22
ENDBRANCH   6   8
ENDBRANCH   5   6
ENDBRANCH   4   5
ENDBRANCH   3   4
ENDBRANCH   2   3
ENDBRANCH   1   2
BRANCH   1  26
ATOM     26  C   UNL A   1      43.505  24.595  25.597  1.00  0.00     0.261 C 
BRANCH  26  27
ATOM     27  O   UNL A   1      42.859  25.834  25.260  1.00  0.00    -0.460 OA
BRANCH  27  28
ATOM     28  C   UNL A   1      41.627  25.989  25.799  1.00  0.00     0.338 C 
ATOM     29  O   UNL A   1      40.568  25.554  25.359  1.00  0.00    -0.246 OA
BRANCH  28  30
ATOM     30  C   UNL A   1      41.718  26.637  27.120  1.00  0.00     0.060 A 
ATOM     31  C   UNL A   1      40.863  26.174  28.128  1.00  0.00     0.016 A 
ATOM     32  C   UNL A   1      42.553  27.734  27.344  1.00  0.00     0.016 A 
ATOM     33  C   UNL A   1      40.800  26.840  29.350  1.00  0.00     0.010 A 
ATOM     34  C   UNL A   1      42.481  28.406  28.571  1.00  0.00     0.010 A 
ATOM     35  C   UNL A   1      41.578  27.985  29.563  1.00  0.00    -0.014 A 
BRANCH  35  36
ATOM     36  C   UNL A   1      41.332  28.820  30.764  1.00  0.00     0.031 A 
ATOM     37  C   UNL A   1      40.204  29.815  30.743  1.00  0.00     0.074 A 
ATOM     38  C   UNL A   1      42.082  28.670  31.871  1.00  0.00     0.049 A 
ATOM     39  N   UNL A   1      39.824  30.658  31.667  1.00  0.00    -0.248 NA
ATOM     40  C   UNL A   1      39.398  29.868  29.511  1.00  0.00     0.031 C 
ATOM     41  C   UNL A   1      43.179  27.716  32.024  1.00  0.00     0.029 A 
ATOM     42  N   UNL A   1      42.036  29.326  33.075  1.00  0.00    -0.354 N 
ATOM     43  C   UNL A   1      38.740  31.346  31.131  1.00  0.00     0.074 A 
ATOM     44  C   UNL A   1      38.542  30.842  29.790  1.00  0.00     0.031 C 
ATOM     45  C   UNL A   1      43.710  27.856  33.250  1.00  0.00     0.029 A 
ATOM     46  C   UNL A   1      43.009  28.927  33.958  1.00  0.00     0.049 A 
ATOM     47  H   UNL A   1      41.367  30.017  33.286  1.00  0.00     0.167 HD
ATOM     48  C   UNL A   1      37.977  32.305  31.707  1.00  0.00     0.037 A 
ATOM     49  C   UNL A   1      43.313  29.387  35.187  1.00  0.00     0.037 A 
ATOM     50  C   UNL A   1      38.177  32.801  33.044  1.00  0.00     0.049 A 
ATOM     51  C   UNL A   1      42.484  30.491  35.790  1.00  0.00     0.074 A 
ATOM     52  C   UNL A   1      37.445  33.756  33.726  1.00  0.00     0.029 A 
ATOM     53  N   UNL A   1      39.188  32.386  33.899  1.00  0.00    -0.354 N 
ATOM     54  N   UNL A   1      41.448  31.115  35.280  1.00  0.00    -0.248 NA
ATOM     55  C   UNL A   1      42.861  30.950  37.134  1.00  0.00     0.031 C 
ATOM     56  C   UNL A   1      38.039  33.951  34.978  1.00  0.00     0.029 A 
ATOM     57  C   UNL A   1      39.112  33.082  35.093  1.00  0.00     0.049 A 
ATOM     58  H   UNL A   1      39.860  31.699  33.687  1.00  0.00     0.167 HD
ATOM     59  C   UNL A   1      41.033  32.021  36.251  1.00  0.00     0.074 A 
ATOM     60  C   UNL A   1      41.926  31.860  37.381  1.00  0.00     0.031 C 
ATOM     61  C   UNL A   1      40.004  32.904  36.213  1.00  0.00     0.037 A 
BRANCH  48  62
ATOM     62  C   UNL A   1      36.868  32.898  30.882  1.00  0.00     0.058 A 
ATOM     63  C   UNL A   1      37.114  33.881  29.911  1.00  0.00     0.135 A 
ATOM     64  C   UNL A   1      35.544  32.461  31.052  1.00  0.00     0.135 A 
ATOM     65  F   UNL A   1      38.359  34.346  29.719  1.00  0.00    -0.206 F 
ATOM     66  C   UNL A   1      36.082  34.431  29.156  1.00  0.00     0.059 A 
ATOM     67  C   UNL A   1      34.500  32.979  30.291  1.00  0.00     0.059 A 
ATOM     68  F   UNL A   1      35.254  31.525  31.969  1.00  0.00    -0.206 F 
ATOM     69  C   UNL A   1      34.778  33.975  29.356  1.00  0.00     0.060 A 
BRANCH  69  70
ATOM     70  S   UNL A   1      33.447  34.702  28.375  1.00  0.00     0.124 S 
ATOM     71  O   UNL A   1      34.192  35.596  27.492  1.00  0.00    -0.237 OA
ATOM     72  O   UNL A   1      32.853  33.532  27.738  1.00  0.00    -0.237 OA
ATOM     73  O   UNL A   1      32.610  35.361  29.373  1.00  0.00    -0.744 OA
ENDBRANCH  69  70
ENDBRANCH  48  62
BRANCH  49  74
ATOM     74  C   UNL A   1      44.464  28.806  35.929  1.00  0.00     0.058 A 
ATOM     75  C   UNL A   1      45.758  29.324  35.785  1.00  0.00     0.135 A 
ATOM     76  C   UNL A   1      44.285  27.726  36.809  1.00  0.00     0.135 A 
ATOM     77  F   UNL A   1      45.982  30.347  34.946  1.00  0.00    -0.206 F 
ATOM     78  C   UNL A   1      46.839  28.790  36.481  1.00  0.00     0.059 A 
ATOM     79  C   UNL A   1      45.345  27.192  37.535  1.00  0.00     0.059 A 
ATOM     80  F   UNL A   1      43.063  27.201  36.990  1.00  0.00    -0.206 F 
ATOM     81  C   UNL A   1      46.620  27.726  37.358  1.00  0.00     0.060 A 
BRANCH  81  82
ATOM     82  S   UNL A   1      48.018  27.079  38.302  1.00  0.00     0.124 S 
ATOM     83  O   UNL A   1      49.061  28.046  37.983  1.00  0.00    -0.237 OA
ATOM     84  O   UNL A   1      47.508  27.116  39.669  1.00  0.00    -0.237 OA
ATOM     85  O   UNL A   1      48.205  25.741  37.747  1.00  0.00    -0.744 OA
ENDBRANCH  81  82
ENDBRANCH  49  74
BRANCH  61  86
ATOM     86  C   UNL A   1      39.761  33.743  37.438  1.00  0.00     0.058 A 
ATOM     87  C   UNL A   1      38.877  33.335  38.448  1.00  0.00     0.135 A 
ATOM     88  C   UNL A   1      40.472  34.940  37.630  1.00  0.00     0.135 A 
ATOM     89  F   UNL A   1      38.171  32.203  38.312  1.00  0.00    -0.206 F 
ATOM     90  C   UNL A   1      38.689  34.097  39.598  1.00  0.00     0.059 A 
ATOM     91  C   UNL A   1      40.318  35.703  38.782  1.00  0.00     0.059 A 
ATOM     92  F   UNL A   1      41.339  35.368  36.698  1.00  0.00    -0.206 F 
ATOM     93  C   UNL A   1      39.416  35.278  39.757  1.00  0.00     0.060 A 
BRANCH  93  94
ATOM     94  S   UNL A   1      39.192  36.237  41.271  1.00  0.00     0.124 S 
ATOM     95  O   UNL A   1      40.522  36.159  41.866  1.00  0.00    -0.237 OA
ATOM     96  O   UNL A   1      38.803  37.547  40.758  1.00  0.00    -0.237 OA
ATOM     97  O   UNL A   1      38.142  35.512  41.980  1.00  0.00    -0.744 OA
ENDBRANCH  93  94
ENDBRANCH  61  86
ENDBRANCH  35  36
ENDBRANCH  28  30
ENDBRANCH  27  28
ENDBRANCH  26  27
ENDBRANCH   1  26
TORSDOF 21
ENDMDL
MODEL 3
REMARK VINA RESULT:      -9.3      5.133      6.771
REMARK SMILES Nc1ccc([C@H]([NH3+])C(=O)OCCOCCOC(=O)c2ccc(-c3c4nc(c(-c5c(F)cc(S(=O)(=O)[O-])cc5F)c5ccc([nH]5)c(-c5c(F)cc(S(=O)(=O)[O-])cc5F)c5nc(c(-c6c(F)cc(S(=O)(=O)[O-])cc6F)c6ccc3[nH]6)C=C5)C=C4)cc2)cc1C(F)(F)F
REMARK SMILES IDX 14 1 13 2 12 3 11 4 10 5 8 6 9 7 6 8 5 9 2 10 3 11 86 12
REMARK SMILES IDX 4 13 85 14 1 15 87 18 88 19 89 20 90 21 7 22 15 26 16 27
REMARK SMILES IDX 17 28 18 29 19 30 20 31 84 32 21 33 83 34 22 35 23 36 24 37
REMARK SMILES IDX 77 38 25 39 82 40 76 41 78 42 26 43 81 44 75 45 74 46 27 48
REMARK SMILES IDX 61 49 40 50 60 51 41 52 44 53 59 54 79 55 42 56 43 57 58 59
REMARK SMILES IDX 80 60 45 61 28 62 29 63 38 64 30 65 31 66 37 67 39 68 32 69
REMARK SMILES IDX 33 70 34 71 35 72 36 73 62 74 63 75 72 76 64 77 65 78 71 79
REMARK SMILES IDX 73 80 66 81 67 82 68 83 69 84 70 85 46 86 47 87 56 88 48 89
REMARK SMILES IDX 49 90 55 91 57 92 50 93 51 94 52 95 53 96 54 97
REMARK H PARENT 1 16 1 17 7 23 7 24 7 25 78 47 44 58
REMARK Flexibility Score: inf
ROOT
ATOM      1  C   UNL A   1      45.371  24.314  25.051  1.00  0.00     0.202 C 
ENDROOT
BRANCH   1   2
ATOM      2  O   UNL A   1      45.879  22.981  25.112  1.00  0.00    -0.374 OA
BRANCH   2   3
ATOM      3  C   UNL A   1      45.133  21.960  24.451  1.00  0.00     0.202 C 
BRANCH   3   4
ATOM      4  C   UNL A   1      44.797  20.717  25.279  1.00  0.00     0.261 C 
BRANCH   4   5
ATOM      5  O   UNL A   1      43.405  20.378  25.160  1.00  0.00    -0.459 OA
BRANCH   5   6
ATOM      6  C   UNL A   1      43.072  19.092  25.483  1.00  0.00     0.369 C 
ATOM      7  O   UNL A   1      43.527  18.090  24.941  1.00  0.00    -0.245 OA
BRANCH   6   8
ATOM      8  C   UNL A   1      42.008  19.039  26.598  1.00  0.00     0.323 C 
BRANCH   8   9
ATOM      9  C   UNL A   1      41.181  20.304  26.601  1.00  0.00     0.021 A 
ATOM     10  C   UNL A   1      39.533  22.600  26.799  1.00  0.00     0.044 A 
ATOM     11  C   UNL A   1      40.770  22.532  27.453  1.00  0.00     0.026 A 
ATOM     12  C   UNL A   1      39.144  21.530  25.981  1.00  0.00     0.079 A 
ATOM     13  C   UNL A   1      41.580  21.399  27.369  1.00  0.00     0.013 A 
ATOM     14  C   UNL A   1      39.974  20.392  25.893  1.00  0.00     0.025 A 
BRANCH  10  15
ATOM     15  N   UNL A   1      38.799  23.772  26.901  1.00  0.00    -0.398 N 
ATOM     16  H   UNL A   1      38.986  24.524  26.293  1.00  0.00     0.156 HD
ATOM     17  H   UNL A   1      38.092  23.852  27.580  1.00  0.00     0.156 HD
ENDBRANCH  10  15
BRANCH  12  18
ATOM     18  C   UNL A   1      37.849  21.498  25.206  1.00  0.00     0.418 C 
ATOM     19  F   UNL A   1      37.763  20.405  24.397  1.00  0.00    -0.166 F 
ATOM     20  F   UNL A   1      36.765  21.431  26.031  1.00  0.00    -0.166 F 
ATOM     21  F   UNL A   1      37.636  22.577  24.402  1.00  0.00    -0.166 F 
ENDBRANCH  12  18
ENDBRANCH   8   9
BRANCH   8  22
ATOM     22  N   UNL A   1      42.572  18.742  27.935  1.00  0.00    -0.342 N 
ATOM     23  H   UNL A   1      41.864  18.284  28.508  1.00  0.00     0.345 HD
ATOM     24  H   UNL A   1      42.861  19.612  28.383  1.00  0.00     0.345 HD
ATOM     25  H   UNL A   1      43.379  18.127  27.834  1.00  0.00     0.345 HD
ENDBRANCH   8  22
ENDBRANCH   6   8
ENDBRANCH   5   6
ENDBRANCH   4   5
ENDBRANCH   3   4
ENDBRANCH   2   3
ENDBRANCH   1   2
BRANCH   1  26
ATOM     26  C   UNL A   1      44.024  24.585  25.730  1.00  0.00     0.261 C 
BRANCH  26  27
ATOM     27  O   UNL A   1      43.339  25.734  25.203  1.00  0.00    -0.460 OA
BRANCH  27  28
ATOM     28  C   UNL A   1      42.081  25.903  25.674  1.00  0.00     0.338 C 
ATOM     29  O   UNL A   1      41.047  25.449  25.195  1.00  0.00    -0.246 OA
BRANCH  28  30
ATOM     30  C   UNL A   1      42.104  26.595  26.975  1.00  0.00     0.060 A 
ATOM     31  C   UNL A   1      41.206  26.157  27.956  1.00  0.00     0.016 A 
ATOM     32  C   UNL A   1      42.919  27.706  27.202  1.00  0.00     0.016 A 
ATOM     33  C   UNL A   1      41.079  26.862  29.150  1.00  0.00     0.010 A 
ATOM     34  C   UNL A   1      42.784  28.418  28.400  1.00  0.00     0.010 A 
ATOM     35  C   UNL A   1      41.837  28.021  29.362  1.00  0.00    -0.014 A 
BRANCH  35  36
ATOM     36  C   UNL A   1      41.528  28.893  30.522  1.00  0.00     0.031 A 
ATOM     37  C   UNL A   1      42.380  28.793  31.758  1.00  0.00     0.074 A 
ATOM     38  C   UNL A   1      40.524  29.786  30.460  1.00  0.00     0.049 A 
ATOM     39  N   UNL A   1      42.278  29.441  32.890  1.00  0.00    -0.248 NA
ATOM     40  C   UNL A   1      43.493  27.831  31.713  1.00  0.00     0.031 C 
ATOM     41  C   UNL A   1      39.653  30.000  29.306  1.00  0.00     0.029 A 
ATOM     42  N   UNL A   1      40.065  30.678  31.398  1.00  0.00    -0.354 N 
ATOM     43  C   UNL A   1      43.307  28.963  33.693  1.00  0.00     0.074 A 
ATOM     44  C   UNL A   1      44.004  27.951  32.930  1.00  0.00     0.031 C 
ATOM     45  C   UNL A   1      38.757  30.955  29.607  1.00  0.00     0.029 A 
ATOM     46  C   UNL A   1      38.973  31.399  30.983  1.00  0.00     0.049 A 
ATOM     47  H   UNL A   1      40.481  30.789  32.283  1.00  0.00     0.167 HD
ATOM     48  C   UNL A   1      43.645  29.340  34.950  1.00  0.00     0.037 A 
ATOM     49  C   UNL A   1      38.220  32.300  31.646  1.00  0.00     0.037 A 
ATOM     50  C   UNL A   1      42.949  30.350  35.704  1.00  0.00     0.049 A 
ATOM     51  C   UNL A   1      38.582  32.667  33.061  1.00  0.00     0.074 A 
ATOM     52  C   UNL A   1      43.226  30.818  36.976  1.00  0.00     0.029 A 
ATOM     53  N   UNL A   1      41.833  31.043  35.257  1.00  0.00    -0.354 N 
ATOM     54  N   UNL A   1      39.572  32.224  33.801  1.00  0.00    -0.248 NA
ATOM     55  C   UNL A   1      37.727  33.656  33.732  1.00  0.00     0.031 C 
ATOM     56  C   UNL A   1      42.251  31.762  37.316  1.00  0.00     0.029 A 
ATOM     57  C   UNL A   1      41.397  31.919  36.237  1.00  0.00     0.049 A 
ATOM     58  H   UNL A   1      41.414  30.929  34.374  1.00  0.00     0.167 HD
ATOM     59  C   UNL A   1      39.475  32.901  35.012  1.00  0.00     0.074 A 
ATOM     60  C   UNL A   1      38.334  33.787  34.905  1.00  0.00     0.031 C 
ATOM     61  C   UNL A   1      40.262  32.801  36.113  1.00  0.00     0.037 A 
BRANCH  48  62
ATOM     62  C   UNL A   1      44.805  28.635  35.598  1.00  0.00     0.058 A 
ATOM     63  C   UNL A   1      46.119  29.116  35.484  1.00  0.00     0.135 A 
ATOM     64  C   UNL A   1      44.595  27.475  36.360  1.00  0.00     0.135 A 
ATOM     65  F   UNL A   1      46.378  30.212  34.754  1.00  0.00    -0.206 F 
ATOM     66  C   UNL A   1      47.188  28.455  36.080  1.00  0.00     0.059 A 
ATOM     67  C   UNL A   1      45.646  26.811  36.985  1.00  0.00     0.059 A 
ATOM     68  F   UNL A   1      43.358  26.971  36.498  1.00  0.00    -0.206 F 
ATOM     69  C   UNL A   1      46.942  27.301  36.826  1.00  0.00     0.060 A 
BRANCH  69  70
ATOM     70  S   UNL A   1      48.340  26.449  37.589  1.00  0.00     0.124 S 
ATOM     71  O   UNL A   1      48.657  25.447  36.575  1.00  0.00    -0.237 OA
ATOM     72  O   UNL A   1      49.315  27.524  37.744  1.00  0.00    -0.237 OA
ATOM     73  O   UNL A   1      47.783  25.928  38.833  1.00  0.00    -0.744 OA
ENDBRANCH  69  70
ENDBRANCH  48  62
BRANCH  49  74
ATOM     74  C   UNL A   1      37.044  32.915  30.975  1.00  0.00     0.058 A 
ATOM     75  C   UNL A   1      35.742  32.472  31.242  1.00  0.00     0.135 A 
ATOM     76  C   UNL A   1      37.202  33.969  30.061  1.00  0.00     0.135 A 
ATOM     77  F   UNL A   1      35.540  31.459  32.099  1.00  0.00    -0.206 F 
ATOM     78  C   UNL A   1      34.635  33.047  30.624  1.00  0.00     0.059 A 
ATOM     79  C   UNL A   1      36.110  34.576  29.449  1.00  0.00     0.059 A 
ATOM     80  F   UNL A   1      38.428  34.436  29.778  1.00  0.00    -0.206 F 
ATOM     81  C   UNL A   1      34.830  34.103  29.732  1.00  0.00     0.060 A 
BRANCH  81  82
ATOM     82  S   UNL A   1      33.384  34.881  28.981  1.00  0.00     0.124 S 
ATOM     83  O   UNL A   1      33.963  36.093  28.413  1.00  0.00    -0.237 OA
ATOM     84  O   UNL A   1      32.954  33.869  28.021  1.00  0.00    -0.237 OA
ATOM     85  O   UNL A   1      32.485  35.081  30.114  1.00  0.00    -0.744 OA
ENDBRANCH  81  82
ENDBRANCH  49  74
BRANCH  61  86
ATOM     86  C   UNL A   1      39.942  33.694  37.280  1.00  0.00     0.058 A 
ATOM     87  C   UNL A   1      40.551  34.947  37.439  1.00  0.00     0.135 A 
ATOM     88  C   UNL A   1      38.966  33.314  38.217  1.00  0.00     0.135 A 
ATOM     89  F   UNL A   1      41.493  35.356  36.576  1.00  0.00    -0.206 F 
ATOM     90  C   UNL A   1      40.220  35.786  38.500  1.00  0.00     0.059 A 
ATOM     91  C   UNL A   1      38.602  34.146  39.269  1.00  0.00     0.059 A 
ATOM     92  F   UNL A   1      38.345  32.128  38.103  1.00  0.00    -0.206 F 
ATOM     93  C   UNL A   1      39.242  35.377  39.409  1.00  0.00     0.060 A 
BRANCH  93  94
ATOM     94  S   UNL A   1      38.791  36.490  40.758  1.00  0.00     0.124 S 
ATOM     95  O   UNL A   1      38.298  37.652  40.027  1.00  0.00    -0.237 OA
ATOM     96  O   UNL A   1      37.783  35.718  41.478  1.00  0.00    -0.237 OA
ATOM     97  O   UNL A   1      40.050  36.683  41.473  1.00  0.00    -0.744 OA
ENDBRANCH  93  94
ENDBRANCH  61  86
ENDBRANCH  35  36
ENDBRANCH  28  30
ENDBRANCH  27  28
ENDBRANCH  26  27
ENDBRANCH   1  26
TORSDOF 21
ENDMDL
