MODEL 1
REMARK VINA RESULT:      -9.6      0.000      0.000
REMARK SMILES CC(C)N(CCCC(=O)OCCOCCOC(=O)c1ccc(-c2c3nc(c(-c4c(F)cc(S(=O)(=O)[O-])cc4F)c4ccc([nH]4)c(-c4c(F)cc(S(=O)(=O)[O-])cc4F)c4nc(c(-c5c(F)cc(S(=O)(=O)[O-])cc5F)c5ccc2[nH]5)C=C4)C=C3)cc1)C(=O)Cc1c(F)cccc1F
REMARK SMILES IDX 11 1 10 2 8 3 9 4 7 5 6 6 5 7 4 8 2 9 1 10 3 11 85 12 86 13
REMARK SMILES IDX 87 14 88 15 89 16 94 17 90 18 91 19 93 20 95 21 92 22 12 23
REMARK SMILES IDX 13 24 14 25 15 26 16 27 17 28 18 29 19 30 20 31 84 32 21 33
REMARK SMILES IDX 83 34 22 35 23 36 24 37 77 38 25 39 82 40 76 41 78 42 26 43
REMARK SMILES IDX 81 44 75 45 74 46 27 48 61 49 40 50 60 51 41 52 44 53 59 54
REMARK SMILES IDX 79 55 42 56 43 57 58 59 80 60 45 61 28 62 29 63 38 64 30 65
REMARK SMILES IDX 31 66 37 67 39 68 32 69 33 70 34 71 35 72 36 73 62 74 63 75
REMARK SMILES IDX 72 76 64 77 65 78 71 79 73 80 66 81 67 82 68 83 69 84 70 85
REMARK SMILES IDX 46 86 47 87 56 88 48 89 49 90 55 91 57 92 50 93 51 94 52 95
REMARK SMILES IDX 53 96 54 97
REMARK H PARENT 78 47 44 58
REMARK Flexibility Score: inf
ROOT
ATOM      1  C   UNL A   1      33.417  30.367  27.044  1.00  0.00     0.261 C 
ENDROOT
BRANCH   1   2
ATOM      2  O   UNL A   1      33.388  28.935  27.138  1.00  0.00    -0.463 OA
BRANCH   2   3
ATOM      3  C   UNL A   1      32.208  28.335  26.834  1.00  0.00     0.305 C 
ATOM      4  O   UNL A   1      31.604  27.560  27.565  1.00  0.00    -0.252 OA
BRANCH   3   5
ATOM      5  C   UNL A   1      31.686  28.710  25.459  1.00  0.00     0.124 C 
BRANCH   5   6
ATOM      6  C   UNL A   1      31.149  27.581  24.577  1.00  0.00     0.033 C 
BRANCH   6   7
ATOM      7  C   UNL A   1      32.202  26.617  24.014  1.00  0.00     0.120 C 
BRANCH   7   8
ATOM      8  N   UNL A   1      32.209  25.285  24.628  1.00  0.00    -0.340 N 
BRANCH   8   9
ATOM      9  C   UNL A   1      30.895  24.605  24.706  1.00  0.00     0.078 C 
ATOM     10  C   UNL A   1      30.374  24.193  23.325  1.00  0.00     0.031 C 
ATOM     11  C   UNL A   1      30.875  23.440  25.696  1.00  0.00     0.031 C 
ENDBRANCH   8   9
BRANCH   8  12
ATOM     12  C   UNL A   1      33.368  24.549  24.907  1.00  0.00     0.227 C 
ATOM     13  O   UNL A   1      33.882  24.536  26.030  1.00  0.00    -0.275 OA
BRANCH  12  14
ATOM     14  C   UNL A   1      34.080  23.810  23.788  1.00  0.00     0.142 C 
BRANCH  14  15
ATOM     15  C   UNL A   1      35.011  22.673  24.126  1.00  0.00     0.033 A 
ATOM     16  C   UNL A   1      36.403  22.739  24.108  1.00  0.00     0.129 A 
ATOM     17  C   UNL A   1      34.436  21.472  24.562  1.00  0.00     0.129 A 
ATOM     18  F   UNL A   1      37.032  23.856  23.724  1.00  0.00    -0.207 F 
ATOM     19  C   UNL A   1      37.188  21.671  24.545  1.00  0.00     0.040 A 
ATOM     20  C   UNL A   1      35.207  20.391  24.990  1.00  0.00     0.040 A 
ATOM     21  F   UNL A   1      33.101  21.364  24.631  1.00  0.00    -0.207 F 
ATOM     22  C   UNL A   1      36.594  20.493  24.991  1.00  0.00     0.006 A 
ENDBRANCH  14  15
ENDBRANCH  12  14
ENDBRANCH   8  12
ENDBRANCH   7   8
ENDBRANCH   6   7
ENDBRANCH   5   6
ENDBRANCH   3   5
ENDBRANCH   2   3
ENDBRANCH   1   2
BRANCH   1  23
ATOM     23  C   UNL A   1      34.675  31.012  27.625  1.00  0.00     0.202 C 
BRANCH  23  24
ATOM     24  O   UNL A   1      34.648  32.414  27.848  1.00  0.00    -0.374 OA
BRANCH  24  25
ATOM     25  C   UNL A   1      35.408  32.928  28.937  1.00  0.00     0.202 C 
BRANCH  25  26
ATOM     26  C   UNL A   1      35.142  32.371  30.346  1.00  0.00     0.261 C 
BRANCH  26  27
ATOM     27  O   UNL A   1      36.024  31.316  30.784  1.00  0.00    -0.460 OA
BRANCH  27  28
ATOM     28  C   UNL A   1      37.287  31.732  31.063  1.00  0.00     0.338 C 
ATOM     29  O   UNL A   1      37.594  32.696  31.755  1.00  0.00    -0.246 OA
BRANCH  28  30
ATOM     30  C   UNL A   1      38.322  30.836  30.507  1.00  0.00     0.060 A 
ATOM     31  C   UNL A   1      39.311  30.367  31.382  1.00  0.00     0.016 A 
ATOM     32  C   UNL A   1      38.457  30.647  29.130  1.00  0.00     0.016 A 
ATOM     33  C   UNL A   1      40.476  29.783  30.879  1.00  0.00     0.010 A 
ATOM     34  C   UNL A   1      39.630  30.066  28.627  1.00  0.00     0.010 A 
ATOM     35  C   UNL A   1      40.670  29.683  29.495  1.00  0.00    -0.014 A 
BRANCH  35  36
ATOM     36  C   UNL A   1      42.026  29.369  28.967  1.00  0.00     0.031 A 
ATOM     37  C   UNL A   1      42.320  27.967  28.493  1.00  0.00     0.074 A 
ATOM     38  C   UNL A   1      42.975  30.316  28.861  1.00  0.00     0.049 A 
ATOM     39  N   UNL A   1      43.431  27.469  28.015  1.00  0.00    -0.248 NA
ATOM     40  C   UNL A   1      41.212  27.000  28.570  1.00  0.00     0.031 C 
ATOM     41  C   UNL A   1      42.819  31.713  29.257  1.00  0.00     0.029 A 
ATOM     42  N   UNL A   1      44.263  30.244  28.389  1.00  0.00    -0.354 N 
ATOM     43  C   UNL A   1      43.160  26.135  27.733  1.00  0.00     0.074 A 
ATOM     44  C   UNL A   1      41.785  25.893  28.117  1.00  0.00     0.031 C 
ATOM     45  C   UNL A   1      43.967  32.368  29.015  1.00  0.00     0.029 A 
ATOM     46  C   UNL A   1      44.952  31.431  28.478  1.00  0.00     0.049 A 
ATOM     47  H   UNL A   1      44.656  29.419  28.023  1.00  0.00     0.167 HD
ATOM     48  C   UNL A   1      43.975  25.196  27.195  1.00  0.00     0.037 A 
ATOM     49  C   UNL A   1      46.235  31.723  28.184  1.00  0.00     0.037 A 
ATOM     50  C   UNL A   1      45.345  25.424  26.818  1.00  0.00     0.049 A 
ATOM     51  C   UNL A   1      47.138  30.648  27.635  1.00  0.00     0.074 A 
ATOM     52  C   UNL A   1      46.253  24.525  26.285  1.00  0.00     0.029 A 
ATOM     53  N   UNL A   1      46.005  26.638  26.929  1.00  0.00    -0.354 N 
ATOM     54  N   UNL A   1      46.864  29.393  27.374  1.00  0.00    -0.248 NA
ATOM     55  C   UNL A   1      48.527  31.031  27.340  1.00  0.00     0.031 C 
ATOM     56  C   UNL A   1      47.471  25.187  26.100  1.00  0.00     0.029 A 
ATOM     57  C   UNL A   1      47.310  26.509  26.482  1.00  0.00     0.049 A 
ATOM     58  H   UNL A   1      45.606  27.468  27.275  1.00  0.00     0.167 HD
ATOM     59  C   UNL A   1      48.037  28.845  26.860  1.00  0.00     0.074 A 
ATOM     60  C   UNL A   1      49.020  29.906  26.838  1.00  0.00     0.031 C 
ATOM     61  C   UNL A   1      48.275  27.577  26.445  1.00  0.00     0.037 A 
BRANCH  48  62
ATOM     62  C   UNL A   1      43.407  23.820  26.992  1.00  0.00     0.058 A 
ATOM     63  C   UNL A   1      43.319  22.902  28.051  1.00  0.00     0.135 A 
ATOM     64  C   UNL A   1      42.911  23.428  25.739  1.00  0.00     0.135 A 
ATOM     65  F   UNL A   1      43.795  23.223  29.264  1.00  0.00    -0.206 F 
ATOM     66  C   UNL A   1      42.773  21.636  27.870  1.00  0.00     0.059 A 
ATOM     67  C   UNL A   1      42.343  22.174  25.540  1.00  0.00     0.059 A 
ATOM     68  F   UNL A   1      42.976  24.269  24.693  1.00  0.00    -0.206 F 
ATOM     69  C   UNL A   1      42.289  21.281  26.609  1.00  0.00     0.060 A 
BRANCH  69  70
ATOM     70  S   UNL A   1      41.577  19.637  26.389  1.00  0.00     0.124 S 
ATOM     71  O   UNL A   1      40.186  19.960  26.086  1.00  0.00    -0.237 OA
ATOM     72  O   UNL A   1      42.359  19.101  25.280  1.00  0.00    -0.237 OA
ATOM     73  O   UNL A   1      41.803  18.993  27.679  1.00  0.00    -0.744 OA
ENDBRANCH  69  70
ENDBRANCH  48  62
BRANCH  49  74
ATOM     74  C   UNL A   1      46.761  33.092  28.424  1.00  0.00     0.058 A 
ATOM     75  C   UNL A   1      47.286  33.461  29.671  1.00  0.00     0.135 A 
ATOM     76  C   UNL A   1      46.720  34.068  27.416  1.00  0.00     0.135 A 
ATOM     77  F   UNL A   1      47.334  32.565  30.669  1.00  0.00    -0.206 F 
ATOM     78  C   UNL A   1      47.728  34.756  29.920  1.00  0.00     0.059 A 
ATOM     79  C   UNL A   1      47.180  35.362  27.633  1.00  0.00     0.059 A 
ATOM     80  F   UNL A   1      46.236  33.760  26.203  1.00  0.00    -0.206 F 
ATOM     81  C   UNL A   1      47.668  35.701  28.895  1.00  0.00     0.060 A 
BRANCH  81  82
ATOM     82  S   UNL A   1      48.264  37.375  29.216  1.00  0.00     0.124 S 
ATOM     83  O   UNL A   1      49.083  37.625  28.035  1.00  0.00    -0.237 OA
ATOM     84  O   UNL A   1      47.021  38.135  29.304  1.00  0.00    -0.237 OA
ATOM     85  O   UNL A   1      48.992  37.234  30.473  1.00  0.00    -0.744 OA
ENDBRANCH  81  82
ENDBRANCH  49  74
BRANCH  61  86
ATOM     86  C   UNL A   1      49.637  27.271  25.887  1.00  0.00     0.058 A 
ATOM     87  C   UNL A   1      50.711  26.911  26.716  1.00  0.00     0.135 A 
ATOM     88  C   UNL A   1      49.855  27.283  24.499  1.00  0.00     0.135 A 
ATOM     89  F   UNL A   1      50.556  26.888  28.049  1.00  0.00    -0.206 F 
ATOM     90  C   UNL A   1      51.959  26.593  26.190  1.00  0.00     0.059 A 
ATOM     91  C   UNL A   1      51.088  26.948  23.950  1.00  0.00     0.059 A 
ATOM     92  F   UNL A   1      48.857  27.610  23.662  1.00  0.00    -0.206 F 
ATOM     93  C   UNL A   1      52.138  26.614  24.805  1.00  0.00     0.060 A 
BRANCH  93  94
ATOM     94  S   UNL A   1      53.751  26.164  24.128  1.00  0.00     0.124 S 
ATOM     95  O   UNL A   1      53.978  24.864  24.749  1.00  0.00    -0.237 OA
ATOM     96  O   UNL A   1      53.494  26.144  22.691  1.00  0.00    -0.237 OA
ATOM     97  O   UNL A   1      54.624  27.241  24.586  1.00  0.00    -0.744 OA
ENDBRANCH  93  94
ENDBRANCH  61  86
ENDBRANCH  35  36
ENDBRANCH  28  30
ENDBRANCH  27  28
ENDBRANCH  26  27
ENDBRANCH  25  26
ENDBRANCH  24  25
ENDBRANCH  23  24
ENDBRANCH   1  23
TORSDOF 24
ENDMDL
MODEL 2
REMARK VINA RESULT:      -9.4      1.599      8.315
REMARK SMILES CC(C)N(CCCC(=O)OCCOCCOC(=O)c1ccc(-c2c3nc(c(-c4c(F)cc(S(=O)(=O)[O-])cc4F)c4ccc([nH]4)c(-c4c(F)cc(S(=O)(=O)[O-])cc4F)c4nc(c(-c5c(F)cc(S(=O)(=O)[O-])cc5F)c5ccc2[nH]5)C=C4)C=C3)cc1)C(=O)Cc1c(F)cccc1F
REMARK SMILES IDX 11 1 10 2 8 3 9 4 7 5 6 6 5 7 4 8 2 9 1 10 3 11 85 12 86 13
REMARK SMILES IDX 87 14 88 15 89 16 94 17 90 18 91 19 93 20 95 21 92 22 12 23
REMARK SMILES IDX 13 24 14 25 15 26 16 27 17 28 18 29 19 30 20 31 84 32 21 33
REMARK SMILES IDX 83 34 22 35 23 36 24 37 77 38 25 39 82 40 76 41 78 42 26 43
REMARK SMILES IDX 81 44 75 45 74 46 27 48 61 49 40 50 60 51 41 52 44 53 59 54
REMARK SMILES IDX 79 55 42 56 43 57 58 59 80 60 45 61 28 62 29 63 38 64 30 65
REMARK SMILES IDX 31 66 37 67 39 68 32 69 33 70 34 71 35 72 36 73 62 74 63 75
REMARK SMILES IDX 72 76 64 77 65 78 71 79 73 80 66 81 67 82 68 83 69 84 70 85
REMARK SMILES IDX 46 86 47 87 56 88 48 89 49 90 55 91 57 92 50 93 51 94 52 95
REMARK SMILES IDX 53 96 54 97
REMARK H PARENT 78 47 44 58
REMARK Flexibility Score: inf
ROOT
ATOM      1  C   UNL A   1      32.879  30.301  26.253  1.00  0.00     0.261 C 
ENDROOT
BRANCH   1   2
ATOM      2  O   UNL A   1      33.883  29.307  26.003  1.00  0.00    -0.463 OA
BRANCH   2   3
ATOM      3  C   UNL A   1      33.482  28.205  25.315  1.00  0.00     0.305 C 
ATOM      4  O   UNL A   1      32.867  28.222  24.257  1.00  0.00    -0.252 OA
BRANCH   3   5
ATOM      5  C   UNL A   1      33.865  26.905  25.997  1.00  0.00     0.124 C 
BRANCH   5   6
ATOM      6  C   UNL A   1      34.181  25.705  25.102  1.00  0.00     0.033 C 
BRANCH   6   7
ATOM      7  C   UNL A   1      33.087  24.634  25.012  1.00  0.00     0.120 C 
BRANCH   7   8
ATOM      8  N   UNL A   1      33.397  23.508  24.123  1.00  0.00    -0.340 N 
BRANCH   8   9
ATOM      9  C   UNL A   1      32.618  23.450  22.864  1.00  0.00     0.078 C 
ATOM     10  C   UNL A   1      31.285  22.716  23.042  1.00  0.00     0.031 C 
ATOM     11  C   UNL A   1      32.435  24.815  22.202  1.00  0.00     0.031 C 
ENDBRANCH   8   9
BRANCH   8  12
ATOM     12  C   UNL A   1      34.507  22.666  24.270  1.00  0.00     0.227 C 
ATOM     13  O   UNL A   1      35.457  22.690  23.482  1.00  0.00    -0.275 OA
BRANCH  12  14
ATOM     14  C   UNL A   1      34.522  21.625  25.374  1.00  0.00     0.142 C 
BRANCH  14  15
ATOM     15  C   UNL A   1      34.084  20.215  25.069  1.00  0.00     0.033 A 
ATOM     16  C   UNL A   1      32.762  19.780  24.993  1.00  0.00     0.129 A 
ATOM     17  C   UNL A   1      35.080  19.277  24.765  1.00  0.00     0.129 A 
ATOM     18  F   UNL A   1      31.749  20.618  25.248  1.00  0.00    -0.207 F 
ATOM     19  C   UNL A   1      32.444  18.482  24.592  1.00  0.00     0.040 A 
ATOM     20  C   UNL A   1      34.780  17.972  24.376  1.00  0.00     0.040 A 
ATOM     21  F   UNL A   1      36.368  19.650  24.790  1.00  0.00    -0.207 F 
ATOM     22  C   UNL A   1      33.452  17.573  24.279  1.00  0.00     0.006 A 
ENDBRANCH  14  15
ENDBRANCH  12  14
ENDBRANCH   8  12
ENDBRANCH   7   8
ENDBRANCH   6   7
ENDBRANCH   5   6
ENDBRANCH   3   5
ENDBRANCH   2   3
ENDBRANCH   1   2
BRANCH   1  23
ATOM     23  C   UNL A   1      33.116  31.133  27.513  1.00  0.00     0.202 C 
BRANCH  23  24
ATOM     24  O   UNL A   1      34.378  31.769  27.649  1.00  0.00    -0.374 OA
BRANCH  24  25
ATOM     25  C   UNL A   1      34.403  33.091  28.177  1.00  0.00     0.202 C 
BRANCH  25  26
ATOM     26  C   UNL A   1      34.552  33.272  29.697  1.00  0.00     0.261 C 
BRANCH  26  27
ATOM     27  O   UNL A   1      34.971  32.103  30.433  1.00  0.00    -0.460 OA
BRANCH  27  28
ATOM     28  C   UNL A   1      36.180  32.235  31.038  1.00  0.00     0.338 C 
ATOM     29  O   UNL A   1      36.449  33.000  31.957  1.00  0.00    -0.246 OA
BRANCH  28  30
ATOM     30  C   UNL A   1      37.181  31.273  30.533  1.00  0.00     0.060 A 
ATOM     31  C   UNL A   1      37.951  30.582  31.479  1.00  0.00     0.016 A 
ATOM     32  C   UNL A   1      37.519  31.218  29.179  1.00  0.00     0.016 A 
ATOM     33  C   UNL A   1      39.108  29.905  31.085  1.00  0.00     0.010 A 
ATOM     34  C   UNL A   1      38.684  30.543  28.787  1.00  0.00     0.010 A 
ATOM     35  C   UNL A   1      39.514  29.930  29.744  1.00  0.00    -0.014 A 
BRANCH  35  36
ATOM     36  C   UNL A   1      40.893  29.496  29.390  1.00  0.00     0.031 A 
ATOM     37  C   UNL A   1      42.022  30.492  29.488  1.00  0.00     0.074 A 
ATOM     38  C   UNL A   1      41.160  28.227  29.032  1.00  0.00     0.049 A 
ATOM     39  N   UNL A   1      43.292  30.338  29.213  1.00  0.00    -0.248 NA
ATOM     40  C   UNL A   1      41.669  31.843  29.957  1.00  0.00     0.031 C 
ATOM     41  C   UNL A   1      40.172  27.158  28.921  1.00  0.00     0.029 A 
ATOM     42  N   UNL A   1      42.346  27.623  28.692  1.00  0.00    -0.354 N 
ATOM     43  C   UNL A   1      43.890  31.565  29.475  1.00  0.00     0.074 A 
ATOM     44  C   UNL A   1      42.840  32.463  29.907  1.00  0.00     0.031 C 
ATOM     45  C   UNL A   1      40.790  26.028  28.537  1.00  0.00     0.029 A 
ATOM     46  C   UNL A   1      42.212  26.300  28.342  1.00  0.00     0.049 A 
ATOM     47  H   UNL A   1      43.211  28.094  28.698  1.00  0.00     0.167 HD
ATOM     48  C   UNL A   1      45.195  31.914  29.376  1.00  0.00     0.037 A 
ATOM     49  C   UNL A   1      43.127  25.417  27.892  1.00  0.00     0.037 A 
ATOM     50  C   UNL A   1      46.245  31.030  28.940  1.00  0.00     0.049 A 
ATOM     51  C   UNL A   1      44.565  25.843  27.740  1.00  0.00     0.074 A 
ATOM     52  C   UNL A   1      47.594  31.304  28.788  1.00  0.00     0.029 A 
ATOM     53  N   UNL A   1      46.066  29.701  28.589  1.00  0.00    -0.354 N 
ATOM     54  N   UNL A   1      45.112  27.007  27.994  1.00  0.00    -0.248 NA
ATOM     55  C   UNL A   1      45.510  24.833  27.239  1.00  0.00     0.031 C 
ATOM     56  C   UNL A   1      48.227  30.149  28.318  1.00  0.00     0.029 A 
ATOM     57  C   UNL A   1      47.279  29.144  28.215  1.00  0.00     0.049 A 
ATOM     58  H   UNL A   1      45.206  29.224  28.604  1.00  0.00     0.167 HD
ATOM     59  C   UNL A   1      46.468  26.860  27.710  1.00  0.00     0.074 A 
ATOM     60  C   UNL A   1      46.659  25.494  27.274  1.00  0.00     0.031 C 
ATOM     61  C   UNL A   1      47.462  27.777  27.802  1.00  0.00     0.037 A 
BRANCH  48  62
ATOM     62  C   UNL A   1      45.565  33.325  29.735  1.00  0.00     0.058 A 
ATOM     63  C   UNL A   1      45.515  34.357  28.786  1.00  0.00     0.135 A 
ATOM     64  C   UNL A   1      45.933  33.655  31.049  1.00  0.00     0.135 A 
ATOM     65  F   UNL A   1      45.186  34.089  27.513  1.00  0.00    -0.206 F 
ATOM     66  C   UNL A   1      45.835  35.668  29.122  1.00  0.00     0.059 A 
ATOM     67  C   UNL A   1      46.239  34.963  31.412  1.00  0.00     0.059 A 
ATOM     68  F   UNL A   1      46.000  32.702  31.992  1.00  0.00    -0.206 F 
ATOM     69  C   UNL A   1      46.197  35.961  30.439  1.00  0.00     0.060 A 
BRANCH  69  70
ATOM     70  S   UNL A   1      46.604  37.667  30.864  1.00  0.00     0.124 S 
ATOM     71  O   UNL A   1      45.804  38.407  29.892  1.00  0.00    -0.237 OA
ATOM     72  O   UNL A   1      46.160  37.760  32.251  1.00  0.00    -0.237 OA
ATOM     73  O   UNL A   1      48.048  37.732  30.666  1.00  0.00    -0.744 OA
ENDBRANCH  69  70
ENDBRANCH  48  62
BRANCH  49  74
ATOM     74  C   UNL A   1      42.712  24.038  27.524  1.00  0.00     0.058 A 
ATOM     75  C   UNL A   1      42.753  22.993  28.459  1.00  0.00     0.135 A 
ATOM     76  C   UNL A   1      42.296  23.733  26.219  1.00  0.00     0.135 A 
ATOM     77  F   UNL A   1      43.157  23.234  29.716  1.00  0.00    -0.206 F 
ATOM     78  C   UNL A   1      42.421  21.689  28.108  1.00  0.00     0.059 A 
ATOM     79  C   UNL A   1      41.934  22.441  25.851  1.00  0.00     0.059 A 
ATOM     80  F   UNL A   1      42.231  24.700  25.292  1.00  0.00    -0.206 F 
ATOM     81  C   UNL A   1      42.015  21.423  26.799  1.00  0.00     0.060 A 
BRANCH  81  82
ATOM     82  S   UNL A   1      41.563  19.732  26.355  1.00  0.00     0.124 S 
ATOM     83  O   UNL A   1      42.469  19.470  25.242  1.00  0.00    -0.237 OA
ATOM     84  O   UNL A   1      41.840  19.003  27.589  1.00  0.00    -0.237 OA
ATOM     85  O   UNL A   1      40.150  19.845  26.008  1.00  0.00    -0.744 OA
ENDBRANCH  81  82
ENDBRANCH  49  74
BRANCH  61  86
ATOM     86  C   UNL A   1      48.858  27.327  27.470  1.00  0.00     0.058 A 
ATOM     87  C   UNL A   1      49.746  26.883  28.461  1.00  0.00     0.135 A 
ATOM     88  C   UNL A   1      49.291  27.290  26.134  1.00  0.00     0.135 A 
ATOM     89  F   UNL A   1      49.382  26.902  29.752  1.00  0.00    -0.206 F 
ATOM     90  C   UNL A   1      51.024  26.434  28.141  1.00  0.00     0.059 A 
ATOM     91  C   UNL A   1      50.557  26.826  25.790  1.00  0.00     0.059 A 
ATOM     92  F   UNL A   1      48.476  27.695  25.147  1.00  0.00    -0.206 F 
ATOM     93  C   UNL A   1      51.420  26.408  26.802  1.00  0.00     0.060 A 
BRANCH  93  94
ATOM     94  S   UNL A   1      53.067  25.790  26.393  1.00  0.00     0.124 S 
ATOM     95  O   UNL A   1      52.753  24.508  25.771  1.00  0.00    -0.237 OA
ATOM     96  O   UNL A   1      53.577  26.823  25.495  1.00  0.00    -0.237 OA
ATOM     97  O   UNL A   1      53.733  25.714  27.689  1.00  0.00    -0.744 OA
ENDBRANCH  93  94
ENDBRANCH  61  86
ENDBRANCH  35  36
ENDBRANCH  28  30
ENDBRANCH  27  28
ENDBRANCH  26  27
ENDBRANCH  25  26
ENDBRANCH  24  25
ENDBRANCH  23  24
ENDBRANCH   1  23
TORSDOF 24
ENDMDL
MODEL 3
REMARK VINA RESULT:      -9.2      6.517     11.015
REMARK SMILES CC(C)N(CCCC(=O)OCCOCCOC(=O)c1ccc(-c2c3nc(c(-c4c(F)cc(S(=O)(=O)[O-])cc4F)c4ccc([nH]4)c(-c4c(F)cc(S(=O)(=O)[O-])cc4F)c4nc(c(-c5c(F)cc(S(=O)(=O)[O-])cc5F)c5ccc2[nH]5)C=C4)C=C3)cc1)C(=O)Cc1c(F)cccc1F
REMARK SMILES IDX 11 1 10 2 8 3 9 4 7 5 6 6 5 7 4 8 2 9 1 10 3 11 85 12 86 13
REMARK SMILES IDX 87 14 88 15 89 16 94 17 90 18 91 19 93 20 95 21 92 22 12 23
REMARK SMILES IDX 13 24 14 25 15 26 16 27 17 28 18 29 19 30 20 31 84 32 21 33
REMARK SMILES IDX 83 34 22 35 23 36 24 37 77 38 25 39 82 40 76 41 78 42 26 43
REMARK SMILES IDX 81 44 75 45 74 46 27 48 61 49 40 50 60 51 41 52 44 53 59 54
REMARK SMILES IDX 79 55 42 56 43 57 58 59 80 60 45 61 28 62 29 63 38 64 30 65
REMARK SMILES IDX 31 66 37 67 39 68 32 69 33 70 34 71 35 72 36 73 62 74 63 75
REMARK SMILES IDX 72 76 64 77 65 78 71 79 73 80 66 81 67 82 68 83 69 84 70 85
REMARK SMILES IDX 46 86 47 87 56 88 48 89 49 90 55 91 57 92 50 93 51 94 52 95
REMARK SMILES IDX 53 96 54 97
REMARK H PARENT 78 47 44 58
REMARK Flexibility Score: inf
ROOT
ATOM      1  C   UNL A   1      34.369  31.118  27.964  1.00  0.00     0.261 C 
ENDROOT
BRANCH   1   2
ATOM      2  O   UNL A   1      34.716  29.783  27.565  1.00  0.00    -0.463 OA
BRANCH   2   3
ATOM      3  C   UNL A   1      33.707  29.022  27.066  1.00  0.00     0.305 C 
ATOM      4  O   UNL A   1      32.622  28.850  27.607  1.00  0.00    -0.252 OA
BRANCH   3   5
ATOM      5  C   UNL A   1      34.052  28.370  25.739  1.00  0.00     0.124 C 
BRANCH   5   6
ATOM      6  C   UNL A   1      32.900  27.786  24.920  1.00  0.00     0.033 C 
BRANCH   6   7
ATOM      7  C   UNL A   1      33.072  27.839  23.396  1.00  0.00     0.120 C 
BRANCH   7   8
ATOM      8  N   UNL A   1      32.243  26.887  22.649  1.00  0.00    -0.340 N 
BRANCH   8   9
ATOM      9  C   UNL A   1      30.829  27.282  22.450  1.00  0.00     0.078 C 
ATOM     10  C   UNL A   1      29.897  26.636  23.480  1.00  0.00     0.031 C 
ATOM     11  C   UNL A   1      30.631  28.796  22.370  1.00  0.00     0.031 C 
ENDBRANCH   8   9
BRANCH   8  12
ATOM     12  C   UNL A   1      32.746  25.794  21.931  1.00  0.00     0.227 C 
ATOM     13  O   UNL A   1      33.238  25.919  20.806  1.00  0.00    -0.275 OA
BRANCH  12  14
ATOM     14  C   UNL A   1      32.611  24.392  22.498  1.00  0.00     0.142 C 
BRANCH  14  15
ATOM     15  C   UNL A   1      32.810  24.169  23.976  1.00  0.00     0.033 A 
ATOM     16  C   UNL A   1      31.821  23.762  24.870  1.00  0.00     0.129 A 
ATOM     17  C   UNL A   1      34.108  24.312  24.485  1.00  0.00     0.129 A 
ATOM     18  F   UNL A   1      30.559  23.582  24.462  1.00  0.00    -0.207 F 
ATOM     19  C   UNL A   1      32.119  23.469  26.202  1.00  0.00     0.040 A 
ATOM     20  C   UNL A   1      34.419  24.036  25.816  1.00  0.00     0.040 A 
ATOM     21  F   UNL A   1      35.104  24.670  23.662  1.00  0.00    -0.207 F 
ATOM     22  C   UNL A   1      33.421  23.602  26.680  1.00  0.00     0.006 A 
ENDBRANCH  14  15
ENDBRANCH  12  14
ENDBRANCH   8  12
ENDBRANCH   7   8
ENDBRANCH   6   7
ENDBRANCH   5   6
ENDBRANCH   3   5
ENDBRANCH   2   3
ENDBRANCH   1   2
BRANCH   1  23
ATOM     23  C   UNL A   1      35.558  32.071  28.080  1.00  0.00     0.202 C 
BRANCH  23  24
ATOM     24  O   UNL A   1      35.364  33.274  28.808  1.00  0.00    -0.374 OA
BRANCH  24  25
ATOM     25  C   UNL A   1      34.765  34.373  28.129  1.00  0.00     0.202 C 
BRANCH  25  26
ATOM     26  C   UNL A   1      33.612  35.122  28.817  1.00  0.00     0.261 C 
BRANCH  26  27
ATOM     27  O   UNL A   1      33.086  34.508  30.013  1.00  0.00    -0.460 OA
BRANCH  27  28
ATOM     28  C   UNL A   1      33.219  35.270  31.130  1.00  0.00     0.338 C 
ATOM     29  O   UNL A   1      32.551  36.258  31.414  1.00  0.00    -0.246 OA
BRANCH  28  30
ATOM     30  C   UNL A   1      34.229  34.739  32.068  1.00  0.00     0.060 A 
ATOM     31  C   UNL A   1      35.454  35.414  32.153  1.00  0.00     0.016 A 
ATOM     32  C   UNL A   1      34.073  33.491  32.674  1.00  0.00     0.016 A 
ATOM     33  C   UNL A   1      36.551  34.807  32.770  1.00  0.00     0.010 A 
ATOM     34  C   UNL A   1      35.177  32.880  33.287  1.00  0.00     0.010 A 
ATOM     35  C   UNL A   1      36.435  33.511  33.289  1.00  0.00    -0.014 A 
BRANCH  35  36
ATOM     36  C   UNL A   1      37.667  32.753  33.643  1.00  0.00     0.031 A 
ATOM     37  C   UNL A   1      38.394  33.093  34.920  1.00  0.00     0.074 A 
ATOM     38  C   UNL A   1      38.116  31.744  32.875  1.00  0.00     0.049 A 
ATOM     39  N   UNL A   1      39.490  32.578  35.414  1.00  0.00    -0.248 NA
ATOM     40  C   UNL A   1      37.804  34.159  35.749  1.00  0.00     0.031 C 
ATOM     41  C   UNL A   1      37.499  31.294  31.631  1.00  0.00     0.029 A 
ATOM     42  N   UNL A   1      39.201  30.916  33.028  1.00  0.00    -0.354 N 
ATOM     43  C   UNL A   1      39.723  33.250  36.608  1.00  0.00     0.074 A 
ATOM     44  C   UNL A   1      38.668  34.231  36.753  1.00  0.00     0.031 C 
ATOM     45  C   UNL A   1      38.215  30.272  31.131  1.00  0.00     0.029 A 
ATOM     46  C   UNL A   1      39.361  30.017  32.001  1.00  0.00     0.049 A 
ATOM     47  H   UNL A   1      39.809  30.963  33.803  1.00  0.00     0.167 HD
ATOM     48  C   UNL A   1      40.718  33.066  37.509  1.00  0.00     0.037 A 
ATOM     49  C   UNL A   1      40.333  29.110  31.774  1.00  0.00     0.037 A 
ATOM     50  C   UNL A   1      41.775  32.100  37.370  1.00  0.00     0.049 A 
ATOM     51  C   UNL A   1      41.459  28.958  32.765  1.00  0.00     0.074 A 
ATOM     52  C   UNL A   1      42.839  31.858  38.223  1.00  0.00     0.029 A 
ATOM     53  N   UNL A   1      41.904  31.213  36.312  1.00  0.00    -0.354 N 
ATOM     54  N   UNL A   1      41.662  29.602  33.889  1.00  0.00    -0.248 NA
ATOM     55  C   UNL A   1      42.489  27.955  32.456  1.00  0.00     0.031 C 
ATOM     56  C   UNL A   1      43.626  30.844  37.667  1.00  0.00     0.029 A 
ATOM     57  C   UNL A   1      43.032  30.429  36.487  1.00  0.00     0.049 A 
ATOM     58  H   UNL A   1      41.285  31.151  35.549  1.00  0.00     0.167 HD
ATOM     59  C   UNL A   1      42.825  29.064  34.432  1.00  0.00     0.074 A 
ATOM     60  C   UNL A   1      43.277  28.036  33.520  1.00  0.00     0.031 C 
ATOM     61  C   UNL A   1      43.461  29.393  35.583  1.00  0.00     0.037 A 
BRANCH  48  62
ATOM     62  C   UNL A   1      40.719  33.942  38.729  1.00  0.00     0.058 A 
ATOM     63  C   UNL A   1      41.419  35.158  38.756  1.00  0.00     0.135 A 
ATOM     64  C   UNL A   1      39.981  33.582  39.868  1.00  0.00     0.135 A 
ATOM     65  F   UNL A   1      42.153  35.538  37.698  1.00  0.00    -0.206 F 
ATOM     66  C   UNL A   1      41.402  35.980  39.877  1.00  0.00     0.059 A 
ATOM     67  C   UNL A   1      39.934  34.399  40.993  1.00  0.00     0.059 A 
ATOM     68  F   UNL A   1      39.297  32.427  39.894  1.00  0.00    -0.206 F 
ATOM     69  C   UNL A   1      40.657  35.592  40.993  1.00  0.00     0.060 A 
BRANCH  69  70
ATOM     70  S   UNL A   1      40.639  36.671  42.439  1.00  0.00     0.124 S 
ATOM     71  O   UNL A   1      41.884  37.413  42.263  1.00  0.00    -0.237 OA
ATOM     72  O   UNL A   1      39.413  37.438  42.243  1.00  0.00    -0.237 OA
ATOM     73  O   UNL A   1      40.618  35.738  43.560  1.00  0.00    -0.744 OA
ENDBRANCH  69  70
ENDBRANCH  48  62
BRANCH  49  74
ATOM     74  C   UNL A   1      40.306  28.282  30.540  1.00  0.00     0.058 A 
ATOM     75  C   UNL A   1      39.428  27.195  30.414  1.00  0.00     0.135 A 
ATOM     76  C   UNL A   1      41.182  28.543  29.476  1.00  0.00     0.135 A 
ATOM     77  F   UNL A   1      38.579  26.899  31.411  1.00  0.00    -0.206 F 
ATOM     78  C   UNL A   1      39.435  26.381  29.286  1.00  0.00     0.059 A 
ATOM     79  C   UNL A   1      41.191  27.759  28.328  1.00  0.00     0.059 A 
ATOM     80  F   UNL A   1      42.035  29.576  29.547  1.00  0.00    -0.206 F 
ATOM     81  C   UNL A   1      40.324  26.670  28.249  1.00  0.00     0.060 A 
BRANCH  81  82
ATOM     82  S   UNL A   1      40.314  25.623  26.777  1.00  0.00     0.124 S 
ATOM     83  O   UNL A   1      41.266  24.584  27.151  1.00  0.00    -0.237 OA
ATOM     84  O   UNL A   1      38.915  25.211  26.700  1.00  0.00    -0.237 OA
ATOM     85  O   UNL A   1      40.749  26.530  25.720  1.00  0.00    -0.744 OA
ENDBRANCH  81  82
ENDBRANCH  49  74
BRANCH  61  86
ATOM     86  C   UNL A   1      44.689  28.608  35.951  1.00  0.00     0.058 A 
ATOM     87  C   UNL A   1      45.974  29.023  35.570  1.00  0.00     0.135 A 
ATOM     88  C   UNL A   1      44.581  27.453  36.744  1.00  0.00     0.135 A 
ATOM     89  F   UNL A   1      46.131  30.118  34.809  1.00  0.00    -0.206 F 
ATOM     90  C   UNL A   1      47.108  28.311  35.946  1.00  0.00     0.059 A 
ATOM     91  C   UNL A   1      45.703  26.736  37.148  1.00  0.00     0.059 A 
ATOM     92  F   UNL A   1      43.375  27.018  37.143  1.00  0.00    -0.206 F 
ATOM     93  C   UNL A   1      46.963  27.168  36.735  1.00  0.00     0.060 A 
BRANCH  93  94
ATOM     94  S   UNL A   1      48.443  26.270  37.249  1.00  0.00     0.124 S 
ATOM     95  O   UNL A   1      49.466  27.304  37.144  1.00  0.00    -0.237 OA
ATOM     96  O   UNL A   1      48.102  25.851  38.606  1.00  0.00    -0.237 OA
ATOM     97  O   UNL A   1      48.539  25.188  36.273  1.00  0.00    -0.744 OA
ENDBRANCH  93  94
ENDBRANCH  61  86
ENDBRANCH  35  36
ENDBRANCH  28  30
ENDBRANCH  27  28
ENDBRANCH  26  27
ENDBRANCH  25  26
ENDBRANCH  24  25
ENDBRANCH  23  24
ENDBRANCH   1  23
TORSDOF 24
ENDMDL
