MODEL 1
REMARK VINA RESULT:      -9.7      0.000      0.000
REMARK SMILES O=C(OCCOCCOC(=O)[C@H]1C[C@](F)(c2cccc(F)c2)C1)c1ccc(-c2c3nc(c(-c4c(F)cc(S(=O)(=O)[O-])cc4F)c4ccc([nH]4)c(-c4c(F)cc(S(=O)(=O)[O-])cc4F)c4nc(c(-c5c(F)cc(S(=O)(=O)[O-])cc5F)c5ccc2[nH]5)C=C4)C=C3)cc1
REMARK SMILES IDX 5 1 4 2 3 3 2 4 1 5 24 6 25 7 89 8 26 9 88 10 27 11 28 12
REMARK SMILES IDX 29 13 82 14 30 15 87 16 81 17 83 18 31 19 86 20 80 21 79 22
REMARK SMILES IDX 32 24 66 25 45 26 65 27 46 28 49 29 64 30 84 31 47 32 48 33
REMARK SMILES IDX 63 35 85 36 50 37 33 38 34 39 43 40 35 41 36 42 42 43 44 44
REMARK SMILES IDX 37 45 38 46 39 47 40 48 41 49 67 50 68 51 77 52 69 53 70 54
REMARK SMILES IDX 76 55 78 56 71 57 72 58 73 59 74 60 75 61 51 62 52 63 61 64
REMARK SMILES IDX 53 65 54 66 60 67 62 68 55 69 56 70 57 71 58 72 59 73 6 74
REMARK SMILES IDX 7 75 8 76 9 77 10 78 11 79 12 80 13 81 23 82 14 83 15 84
REMARK SMILES IDX 16 85 17 86 22 87 18 88 20 89 19 90 21 91
REMARK H PARENT 83 23 49 34
REMARK Flexibility Score: inf
ROOT
ATOM      1  C   UNL A   1      33.427  33.907  28.375  1.00  0.00     0.202 C 
ENDROOT
BRANCH   1   2
ATOM      2  C   UNL A   1      34.518  32.830  28.299  1.00  0.00     0.261 C 
BRANCH   2   3
ATOM      3  O   UNL A   1      33.940  31.512  28.310  1.00  0.00    -0.460 OA
BRANCH   3   4
ATOM      4  C   UNL A   1      34.514  30.340  27.945  1.00  0.00     0.338 C 
ATOM      5  O   UNL A   1      33.843  29.531  27.308  1.00  0.00    -0.246 OA
BRANCH   4   6
ATOM      6  C   UNL A   1      35.919  29.973  28.296  1.00  0.00     0.060 A 
ATOM      7  C   UNL A   1      36.314  29.467  29.533  1.00  0.00     0.016 A 
ATOM      8  C   UNL A   1      36.892  30.069  27.286  1.00  0.00     0.016 A 
ATOM      9  C   UNL A   1      37.635  29.177  29.810  1.00  0.00     0.010 A 
ATOM     10  C   UNL A   1      38.222  29.704  27.531  1.00  0.00     0.010 A 
ATOM     11  C   UNL A   1      38.596  29.278  28.809  1.00  0.00    -0.014 A 
BRANCH  11  12
ATOM     12  C   UNL A   1      39.984  28.987  29.205  1.00  0.00     0.031 A 
ATOM     13  C   UNL A   1      40.575  27.669  28.812  1.00  0.00     0.074 A 
ATOM     14  C   UNL A   1      40.735  29.993  29.695  1.00  0.00     0.049 A 
ATOM     15  N   UNL A   1      41.794  27.237  28.974  1.00  0.00    -0.248 NA
ATOM     16  C   UNL A   1      39.687  26.720  28.118  1.00  0.00     0.031 C 
ATOM     17  C   UNL A   1      40.244  31.351  29.966  1.00  0.00     0.029 A 
ATOM     18  N   UNL A   1      42.070  30.063  29.982  1.00  0.00    -0.354 N 
ATOM     19  C   UNL A   1      41.818  25.967  28.415  1.00  0.00     0.074 A 
ATOM     20  C   UNL A   1      40.493  25.688  27.916  1.00  0.00     0.031 C 
ATOM     21  C   UNL A   1      41.278  32.130  30.319  1.00  0.00     0.029 A 
ATOM     22  C   UNL A   1      42.483  31.315  30.378  1.00  0.00     0.049 A 
ATOM     23  H   UNL A   1      42.678  29.292  29.912  1.00  0.00     0.167 HD
ATOM     24  C   UNL A   1      42.866  25.117  28.332  1.00  0.00     0.037 A 
ATOM     25  C   UNL A   1      43.701  31.740  30.765  1.00  0.00     0.037 A 
ATOM     26  C   UNL A   1      44.174  25.435  28.837  1.00  0.00     0.049 A 
ATOM     27  C   UNL A   1      44.817  30.731  30.771  1.00  0.00     0.074 A 
ATOM     28  C   UNL A   1      45.294  24.629  28.897  1.00  0.00     0.029 A 
ATOM     29  N   UNL A   1      44.534  26.670  29.362  1.00  0.00    -0.354 N 
ATOM     30  N   UNL A   1      44.806  29.493  30.333  1.00  0.00    -0.248 NA
ATOM     31  C   UNL A   1      46.097  31.158  31.347  1.00  0.00     0.031 C 
ATOM     32  C   UNL A   1      46.322  25.365  29.497  1.00  0.00     0.029 A 
ATOM     33  C   UNL A   1      45.855  26.644  29.766  1.00  0.00     0.049 A 
ATOM     34  H   UNL A   1      43.935  27.449  29.435  1.00  0.00     0.167 HD
ATOM     35  C   UNL A   1      46.077  28.992  30.580  1.00  0.00     0.074 A 
ATOM     36  C   UNL A   1      46.840  30.073  31.175  1.00  0.00     0.031 C 
ATOM     37  C   UNL A   1      46.570  27.749  30.353  1.00  0.00     0.037 A 
BRANCH  24  38
ATOM     38  C   UNL A   1      42.626  23.764  27.731  1.00  0.00     0.058 A 
ATOM     39  C   UNL A   1      42.387  22.656  28.558  1.00  0.00     0.135 A 
ATOM     40  C   UNL A   1      42.664  23.550  26.344  1.00  0.00     0.135 A 
ATOM     41  F   UNL A   1      42.315  22.811  29.890  1.00  0.00    -0.206 F 
ATOM     42  C   UNL A   1      42.224  21.378  28.036  1.00  0.00     0.059 A 
ATOM     43  C   UNL A   1      42.484  22.283  25.797  1.00  0.00     0.059 A 
ATOM     44  F   UNL A   1      42.847  24.584  25.506  1.00  0.00    -0.206 F 
ATOM     45  C   UNL A   1      42.281  21.200  26.654  1.00  0.00     0.060 A 
BRANCH  45  46
ATOM     46  S   UNL A   1      42.065  19.532  25.995  1.00  0.00     0.124 S 
ATOM     47  O   UNL A   1      42.523  18.708  27.108  1.00  0.00    -0.237 OA
ATOM     48  O   UNL A   1      40.632  19.496  25.722  1.00  0.00    -0.237 OA
ATOM     49  O   UNL A   1      42.919  19.523  24.811  1.00  0.00    -0.744 OA
ENDBRANCH  45  46
ENDBRANCH  24  38
BRANCH  25  50
ATOM     50  C   UNL A   1      43.909  33.140  31.234  1.00  0.00     0.058 A 
ATOM     51  C   UNL A   1      43.830  33.464  32.599  1.00  0.00     0.135 A 
ATOM     52  C   UNL A   1      44.212  34.179  30.341  1.00  0.00     0.135 A 
ATOM     53  F   UNL A   1      43.543  32.514  33.504  1.00  0.00    -0.206 F 
ATOM     54  C   UNL A   1      44.028  34.760  33.059  1.00  0.00     0.059 A 
ATOM     55  C   UNL A   1      44.447  35.481  30.781  1.00  0.00     0.059 A 
ATOM     56  F   UNL A   1      44.313  33.923  29.027  1.00  0.00    -0.206 F 
ATOM     57  C   UNL A   1      44.343  35.763  32.142  1.00  0.00     0.060 A 
BRANCH  57  58
ATOM     58  S   UNL A   1      44.658  37.427  32.772  1.00  0.00     0.124 S 
ATOM     59  O   UNL A   1      45.056  38.129  31.557  1.00  0.00    -0.237 OA
ATOM     60  O   UNL A   1      43.356  37.796  33.320  1.00  0.00    -0.237 OA
ATOM     61  O   UNL A   1      45.714  37.220  33.757  1.00  0.00    -0.744 OA
ENDBRANCH  57  58
ENDBRANCH  25  50
BRANCH  37  62
ATOM     62  C   UNL A   1      47.996  27.505  30.747  1.00  0.00     0.058 A 
ATOM     63  C   UNL A   1      49.035  27.734  29.833  1.00  0.00     0.135 A 
ATOM     64  C   UNL A   1      48.323  26.980  32.007  1.00  0.00     0.135 A 
ATOM     65  F   UNL A   1      48.769  28.229  28.614  1.00  0.00    -0.206 F 
ATOM     66  C   UNL A   1      50.354  27.438  30.151  1.00  0.00     0.059 A 
ATOM     67  C   UNL A   1      49.639  26.702  32.356  1.00  0.00     0.059 A 
ATOM     68  F   UNL A   1      47.361  26.755  32.916  1.00  0.00    -0.206 F 
ATOM     69  C   UNL A   1      50.646  26.920  31.414  1.00  0.00     0.060 A 
BRANCH  69  70
ATOM     70  S   UNL A   1      52.366  26.561  31.819  1.00  0.00     0.124 S 
ATOM     71  O   UNL A   1      52.786  27.802  32.460  1.00  0.00    -0.237 OA
ATOM     72  O   UNL A   1      52.241  25.401  32.698  1.00  0.00    -0.237 OA
ATOM     73  O   UNL A   1      52.969  26.288  30.518  1.00  0.00    -0.744 OA
ENDBRANCH  69  70
ENDBRANCH  37  62
ENDBRANCH  11  12
ENDBRANCH   4   6
ENDBRANCH   3   4
ENDBRANCH   2   3
ENDBRANCH   1   2
BRANCH   1  74
ATOM     74  O   UNL A   1      33.235  34.542  29.643  1.00  0.00    -0.374 OA
BRANCH  74  75
ATOM     75  C   UNL A   1      32.936  35.944  29.608  1.00  0.00     0.202 C 
BRANCH  75  76
ATOM     76  C   UNL A   1      32.845  36.499  31.033  1.00  0.00     0.261 C 
BRANCH  76  77
ATOM     77  O   UNL A   1      33.345  35.489  31.918  1.00  0.00    -0.463 OA
BRANCH  77  78
ATOM     78  C   UNL A   1      33.986  35.994  33.012  1.00  0.00     0.309 C 
ATOM     79  O   UNL A   1      33.603  36.985  33.628  1.00  0.00    -0.252 OA
BRANCH  78  80
ATOM     80  C   UNL A   1      35.162  35.074  33.397  1.00  0.00     0.106 C 
ATOM     81  C   UNL A   1      36.158  34.660  32.308  1.00  0.00     0.061 C 
ATOM     82  C   UNL A   1      34.856  33.609  33.692  1.00  0.00     0.061 C 
ATOM     83  C   UNL A   1      35.826  33.166  32.567  1.00  0.00     0.137 C 
ATOM     84  F   UNL A   1      35.179  32.572  31.530  1.00  0.00    -0.239 F 
BRANCH  83  85
ATOM     85  C   UNL A   1      37.072  32.229  32.918  1.00  0.00    -0.008 A 
ATOM     86  C   UNL A   1      36.904  30.827  32.978  1.00  0.00     0.007 A 
ATOM     87  C   UNL A   1      38.367  32.704  33.201  1.00  0.00     0.046 A 
ATOM     88  C   UNL A   1      37.945  29.957  33.319  1.00  0.00     0.003 A 
ATOM     89  C   UNL A   1      39.405  31.838  33.540  1.00  0.00     0.123 A 
ATOM     90  C   UNL A   1      39.204  30.469  33.608  1.00  0.00     0.039 A 
ATOM     91  F   UNL A   1      40.616  32.342  33.815  1.00  0.00    -0.207 F 
ENDBRANCH  83  85
ENDBRANCH  78  80
ENDBRANCH  77  78
ENDBRANCH  76  77
ENDBRANCH  75  76
ENDBRANCH  74  75
ENDBRANCH   1  74
TORSDOF 18
ENDMDL
MODEL 2
REMARK VINA RESULT:      -9.4      1.036      8.396
REMARK SMILES O=C(OCCOCCOC(=O)[C@H]1C[C@](F)(c2cccc(F)c2)C1)c1ccc(-c2c3nc(c(-c4c(F)cc(S(=O)(=O)[O-])cc4F)c4ccc([nH]4)c(-c4c(F)cc(S(=O)(=O)[O-])cc4F)c4nc(c(-c5c(F)cc(S(=O)(=O)[O-])cc5F)c5ccc2[nH]5)C=C4)C=C3)cc1
REMARK SMILES IDX 5 1 4 2 3 3 2 4 1 5 24 6 25 7 89 8 26 9 88 10 27 11 28 12
REMARK SMILES IDX 29 13 82 14 30 15 87 16 81 17 83 18 31 19 86 20 80 21 79 22
REMARK SMILES IDX 32 24 66 25 45 26 65 27 46 28 49 29 64 30 84 31 47 32 48 33
REMARK SMILES IDX 63 35 85 36 50 37 33 38 34 39 43 40 35 41 36 42 42 43 44 44
REMARK SMILES IDX 37 45 38 46 39 47 40 48 41 49 67 50 68 51 77 52 69 53 70 54
REMARK SMILES IDX 76 55 78 56 71 57 72 58 73 59 74 60 75 61 51 62 52 63 61 64
REMARK SMILES IDX 53 65 54 66 60 67 62 68 55 69 56 70 57 71 58 72 59 73 6 74
REMARK SMILES IDX 7 75 8 76 9 77 10 78 11 79 12 80 13 81 23 82 14 83 15 84
REMARK SMILES IDX 16 85 17 86 22 87 18 88 20 89 19 90 21 91
REMARK H PARENT 83 23 49 34
REMARK Flexibility Score: inf
ROOT
ATOM      1  C   UNL A   1      32.892  33.729  28.045  1.00  0.00     0.202 C 
ENDROOT
BRANCH   1   2
ATOM      2  C   UNL A   1      33.223  32.412  27.329  1.00  0.00     0.261 C 
BRANCH   2   3
ATOM      3  O   UNL A   1      33.870  31.490  28.223  1.00  0.00    -0.460 OA
BRANCH   3   4
ATOM      4  C   UNL A   1      34.404  30.277  27.939  1.00  0.00     0.338 C 
ATOM      5  O   UNL A   1      33.674  29.412  27.458  1.00  0.00    -0.246 OA
BRANCH   4   6
ATOM      6  C   UNL A   1      35.835  29.932  28.197  1.00  0.00     0.060 A 
ATOM      7  C   UNL A   1      36.301  29.342  29.370  1.00  0.00     0.016 A 
ATOM      8  C   UNL A   1      36.757  30.141  27.156  1.00  0.00     0.016 A 
ATOM      9  C   UNL A   1      37.642  29.076  29.565  1.00  0.00     0.010 A 
ATOM     10  C   UNL A   1      38.107  29.804  27.313  1.00  0.00     0.010 A 
ATOM     11  C   UNL A   1      38.552  29.290  28.535  1.00  0.00    -0.014 A 
BRANCH  11  12
ATOM     12  C   UNL A   1      39.965  29.016  28.844  1.00  0.00     0.031 A 
ATOM     13  C   UNL A   1      40.695  29.967  29.741  1.00  0.00     0.074 A 
ATOM     14  C   UNL A   1      40.475  27.817  28.503  1.00  0.00     0.049 A 
ATOM     15  N   UNL A   1      41.906  29.880  30.215  1.00  0.00    -0.248 NA
ATOM     16  C   UNL A   1      39.957  31.162  30.189  1.00  0.00     0.031 C 
ATOM     17  C   UNL A   1      39.756  26.784  27.746  1.00  0.00     0.029 A 
ATOM     18  N   UNL A   1      41.674  27.229  28.803  1.00  0.00    -0.354 N 
ATOM     19  C   UNL A   1      42.080  31.008  31.006  1.00  0.00     0.074 A 
ATOM     20  C   UNL A   1      40.857  31.773  30.945  1.00  0.00     0.031 C 
ATOM     21  C   UNL A   1      40.504  25.671  27.698  1.00  0.00     0.029 A 
ATOM     22  C   UNL A   1      41.782  25.935  28.345  1.00  0.00     0.049 A 
ATOM     23  H   UNL A   1      42.389  27.687  29.298  1.00  0.00     0.167 HD
ATOM     24  C   UNL A   1      43.173  31.360  31.719  1.00  0.00     0.037 A 
ATOM     25  C   UNL A   1      42.814  25.075  28.425  1.00  0.00     0.037 A 
ATOM     26  C   UNL A   1      44.371  30.567  31.759  1.00  0.00     0.049 A 
ATOM     27  C   UNL A   1      44.059  25.549  29.125  1.00  0.00     0.074 A 
ATOM     28  C   UNL A   1      45.577  30.856  32.366  1.00  0.00     0.029 A 
ATOM     29  N   UNL A   1      44.504  29.316  31.169  1.00  0.00    -0.354 N 
ATOM     30  N   UNL A   1      44.252  26.667  29.787  1.00  0.00    -0.248 NA
ATOM     31  C   UNL A   1      45.232  24.671  29.066  1.00  0.00     0.031 C 
ATOM     32  C   UNL A   1      46.455  29.797  32.109  1.00  0.00     0.029 A 
ATOM     33  C   UNL A   1      45.779  28.827  31.382  1.00  0.00     0.049 A 
ATOM     34  H   UNL A   1      43.795  28.847  30.672  1.00  0.00     0.167 HD
ATOM     35  C   UNL A   1      45.569  26.626  30.226  1.00  0.00     0.074 A 
ATOM     36  C   UNL A   1      46.113  25.357  29.781  1.00  0.00     0.031 C 
ATOM     37  C   UNL A   1      46.274  27.555  30.918  1.00  0.00     0.037 A 
BRANCH  24  38
ATOM     38  C   UNL A   1      43.140  32.668  32.453  1.00  0.00     0.058 A 
ATOM     39  C   UNL A   1      42.663  32.726  33.771  1.00  0.00     0.135 A 
ATOM     40  C   UNL A   1      43.546  33.868  31.849  1.00  0.00     0.135 A 
ATOM     41  F   UNL A   1      42.286  31.603  34.403  1.00  0.00    -0.206 F 
ATOM     42  C   UNL A   1      42.560  33.931  34.457  1.00  0.00     0.059 A 
ATOM     43  C   UNL A   1      43.471  35.084  32.523  1.00  0.00     0.059 A 
ATOM     44  F   UNL A   1      44.050  33.862  30.604  1.00  0.00    -0.206 F 
ATOM     45  C   UNL A   1      42.960  35.107  33.821  1.00  0.00     0.060 A 
BRANCH  45  46
ATOM     46  S   UNL A   1      42.821  36.662  34.729  1.00  0.00     0.124 S 
ATOM     47  O   UNL A   1      43.876  36.522  35.727  1.00  0.00    -0.237 OA
ATOM     48  O   UNL A   1      43.061  37.649  33.681  1.00  0.00    -0.237 OA
ATOM     49  O   UNL A   1      41.456  36.630  35.247  1.00  0.00    -0.744 OA
ENDBRANCH  45  46
ENDBRANCH  24  38
BRANCH  25  50
ATOM     50  C   UNL A   1      42.743  23.732  27.782  1.00  0.00     0.058 A 
ATOM     51  C   UNL A   1      42.456  22.583  28.538  1.00  0.00     0.135 A 
ATOM     52  C   UNL A   1      42.936  23.565  26.402  1.00  0.00     0.135 A 
ATOM     53  F   UNL A   1      42.262  22.677  29.864  1.00  0.00    -0.206 F 
ATOM     54  C   UNL A   1      42.378  21.322  27.958  1.00  0.00     0.059 A 
ATOM     55  C   UNL A   1      42.829  22.316  25.791  1.00  0.00     0.059 A 
ATOM     56  F   UNL A   1      43.199  24.630  25.630  1.00  0.00    -0.206 F 
ATOM     57  C   UNL A   1      42.559  21.199  26.581  1.00  0.00     0.060 A 
BRANCH  57  58
ATOM     58  S   UNL A   1      42.390  19.559  25.841  1.00  0.00     0.124 S 
ATOM     59  O   UNL A   1      43.363  19.625  24.757  1.00  0.00    -0.237 OA
ATOM     60  O   UNL A   1      42.740  18.684  26.956  1.00  0.00    -0.237 OA
ATOM     61  O   UNL A   1      40.989  19.517  25.432  1.00  0.00    -0.744 OA
ENDBRANCH  57  58
ENDBRANCH  25  50
BRANCH  37  62
ATOM     62  C   UNL A   1      47.701  27.223  31.235  1.00  0.00     0.058 A 
ATOM     63  C   UNL A   1      48.726  27.568  30.341  1.00  0.00     0.135 A 
ATOM     64  C   UNL A   1      48.042  26.504  32.390  1.00  0.00     0.135 A 
ATOM     65  F   UNL A   1      48.447  28.250  29.219  1.00  0.00    -0.206 F 
ATOM     66  C   UNL A   1      50.044  27.198  30.576  1.00  0.00     0.059 A 
ATOM     67  C   UNL A   1      49.358  26.148  32.660  1.00  0.00     0.059 A 
ATOM     68  F   UNL A   1      47.094  26.162  33.278  1.00  0.00    -0.206 F 
ATOM     69  C   UNL A   1      50.349  26.487  31.738  1.00  0.00     0.060 A 
BRANCH  69  70
ATOM     70  S   UNL A   1      52.068  26.033  32.040  1.00  0.00     0.124 S 
ATOM     71  O   UNL A   1      52.720  26.512  30.826  1.00  0.00    -0.237 OA
ATOM     72  O   UNL A   1      52.373  26.775  33.261  1.00  0.00    -0.237 OA
ATOM     73  O   UNL A   1      52.013  24.583  32.195  1.00  0.00    -0.744 OA
ENDBRANCH  69  70
ENDBRANCH  37  62
ENDBRANCH  11  12
ENDBRANCH   4   6
ENDBRANCH   3   4
ENDBRANCH   2   3
ENDBRANCH   1   2
BRANCH   1  74
ATOM     74  O   UNL A   1      33.992  34.446  28.615  1.00  0.00    -0.374 OA
BRANCH  74  75
ATOM     75  C   UNL A   1      33.715  35.787  29.042  1.00  0.00     0.202 C 
BRANCH  75  76
ATOM     76  C   UNL A   1      32.731  35.774  30.216  1.00  0.00     0.261 C 
BRANCH  76  77
ATOM     77  O   UNL A   1      33.291  34.934  31.234  1.00  0.00    -0.463 OA
BRANCH  77  78
ATOM     78  C   UNL A   1      33.931  35.628  32.220  1.00  0.00     0.309 C 
ATOM     79  O   UNL A   1      33.547  36.713  32.647  1.00  0.00    -0.252 OA
BRANCH  78  80
ATOM     80  C   UNL A   1      35.107  34.793  32.764  1.00  0.00     0.106 C 
ATOM     81  C   UNL A   1      35.976  34.012  31.771  1.00  0.00     0.061 C 
ATOM     82  C   UNL A   1      34.782  33.503  33.511  1.00  0.00     0.061 C 
ATOM     83  C   UNL A   1      35.620  32.686  32.495  1.00  0.00     0.137 C 
ATOM     84  F   UNL A   1      34.854  31.853  31.744  1.00  0.00    -0.239 F 
BRANCH  83  85
ATOM     85  C   UNL A   1      36.863  31.821  33.006  1.00  0.00    -0.008 A 
ATOM     86  C   UNL A   1      37.873  32.432  33.785  1.00  0.00     0.007 A 
ATOM     87  C   UNL A   1      37.051  30.455  32.719  1.00  0.00     0.046 A 
ATOM     88  C   UNL A   1      39.004  31.739  34.228  1.00  0.00     0.003 A 
ATOM     89  C   UNL A   1      38.178  29.765  33.162  1.00  0.00     0.123 A 
ATOM     90  C   UNL A   1      39.160  30.396  33.909  1.00  0.00     0.039 A 
ATOM     91  F   UNL A   1      38.317  28.469  32.849  1.00  0.00    -0.207 F 
ENDBRANCH  83  85
ENDBRANCH  78  80
ENDBRANCH  77  78
ENDBRANCH  76  77
ENDBRANCH  75  76
ENDBRANCH  74  75
ENDBRANCH   1  74
TORSDOF 18
ENDMDL
MODEL 3
REMARK VINA RESULT:      -9.4      4.542     12.550
REMARK SMILES O=C(OCCOCCOC(=O)[C@H]1C[C@](F)(c2cccc(F)c2)C1)c1ccc(-c2c3nc(c(-c4c(F)cc(S(=O)(=O)[O-])cc4F)c4ccc([nH]4)c(-c4c(F)cc(S(=O)(=O)[O-])cc4F)c4nc(c(-c5c(F)cc(S(=O)(=O)[O-])cc5F)c5ccc2[nH]5)C=C4)C=C3)cc1
REMARK SMILES IDX 5 1 4 2 3 3 2 4 1 5 24 6 25 7 89 8 26 9 88 10 27 11 28 12
REMARK SMILES IDX 29 13 82 14 30 15 87 16 81 17 83 18 31 19 86 20 80 21 79 22
REMARK SMILES IDX 32 24 66 25 45 26 65 27 46 28 49 29 64 30 84 31 47 32 48 33
REMARK SMILES IDX 63 35 85 36 50 37 33 38 34 39 43 40 35 41 36 42 42 43 44 44
REMARK SMILES IDX 37 45 38 46 39 47 40 48 41 49 67 50 68 51 77 52 69 53 70 54
REMARK SMILES IDX 76 55 78 56 71 57 72 58 73 59 74 60 75 61 51 62 52 63 61 64
REMARK SMILES IDX 53 65 54 66 60 67 62 68 55 69 56 70 57 71 58 72 59 73 6 74
REMARK SMILES IDX 7 75 8 76 9 77 10 78 11 79 12 80 13 81 23 82 14 83 15 84
REMARK SMILES IDX 16 85 17 86 22 87 18 88 20 89 19 90 21 91
REMARK H PARENT 83 23 49 34
REMARK Flexibility Score: inf
ROOT
ATOM      1  C   UNL A   1      45.331  23.066  25.302  1.00  0.00     0.202 C 
ENDROOT
BRANCH   1   2
ATOM      2  C   UNL A   1      44.790  24.059  26.340  1.00  0.00     0.261 C 
BRANCH   2   3
ATOM      3  O   UNL A   1      43.382  24.286  26.149  1.00  0.00    -0.460 OA
BRANCH   3   4
ATOM      4  C   UNL A   1      42.722  25.468  26.088  1.00  0.00     0.338 C 
ATOM      5  O   UNL A   1      42.280  25.838  25.002  1.00  0.00    -0.246 OA
BRANCH   4   6
ATOM      6  C   UNL A   1      42.521  26.354  27.274  1.00  0.00     0.060 A 
ATOM      7  C   UNL A   1      41.762  26.010  28.391  1.00  0.00     0.016 A 
ATOM      8  C   UNL A   1      43.207  27.581  27.299  1.00  0.00     0.016 A 
ATOM      9  C   UNL A   1      41.585  26.885  29.445  1.00  0.00     0.010 A 
ATOM     10  C   UNL A   1      43.097  28.443  28.397  1.00  0.00     0.010 A 
ATOM     11  C   UNL A   1      42.261  28.100  29.464  1.00  0.00    -0.014 A 
BRANCH  11  12
ATOM     12  C   UNL A   1      41.982  28.986  30.606  1.00  0.00     0.031 A 
ATOM     13  C   UNL A   1      40.752  29.839  30.562  1.00  0.00     0.074 A 
ATOM     14  C   UNL A   1      42.705  28.828  31.731  1.00  0.00     0.049 A 
ATOM     15  N   UNL A   1      40.264  30.621  31.483  1.00  0.00    -0.248 NA
ATOM     16  C   UNL A   1      39.946  29.784  29.329  1.00  0.00     0.031 C 
ATOM     17  C   UNL A   1      43.834  27.900  31.880  1.00  0.00     0.029 A 
ATOM     18  N   UNL A   1      42.564  29.375  32.978  1.00  0.00    -0.354 N 
ATOM     19  C   UNL A   1      39.104  31.159  30.941  1.00  0.00     0.074 A 
ATOM     20  C   UNL A   1      38.961  30.625  29.608  1.00  0.00     0.031 C 
ATOM     21  C   UNL A   1      44.239  27.899  33.159  1.00  0.00     0.029 A 
ATOM     22  C   UNL A   1      43.458  28.879  33.901  1.00  0.00     0.049 A 
ATOM     23  H   UNL A   1      41.889  30.057  33.193  1.00  0.00     0.167 HD
ATOM     24  C   UNL A   1      38.242  32.023  31.520  1.00  0.00     0.037 A 
ATOM     25  C   UNL A   1      43.631  29.206  35.195  1.00  0.00     0.037 A 
ATOM     26  C   UNL A   1      38.417  32.528  32.855  1.00  0.00     0.049 A 
ATOM     27  C   UNL A   1      42.726  30.260  35.771  1.00  0.00     0.074 A 
ATOM     28  C   UNL A   1      37.668  33.476  33.524  1.00  0.00     0.029 A 
ATOM     29  N   UNL A   1      39.416  32.112  33.727  1.00  0.00    -0.354 N 
ATOM     30  N   UNL A   1      41.687  30.843  35.216  1.00  0.00    -0.248 NA
ATOM     31  C   UNL A   1      43.026  30.726  37.129  1.00  0.00     0.031 C 
ATOM     32  C   UNL A   1      38.238  33.663  34.788  1.00  0.00     0.029 A 
ATOM     33  C   UNL A   1      39.314  32.797  34.923  1.00  0.00     0.049 A 
ATOM     34  H   UNL A   1      40.095  31.429  33.523  1.00  0.00     0.167 HD
ATOM     35  C   UNL A   1      41.209  31.744  36.157  1.00  0.00     0.074 A 
ATOM     36  C   UNL A   1      42.053  31.604  37.330  1.00  0.00     0.031 C 
ATOM     37  C   UNL A   1      40.179  32.621  36.062  1.00  0.00     0.037 A 
BRANCH  24  38
ATOM     38  C   UNL A   1      37.082  32.511  30.703  1.00  0.00     0.058 A 
ATOM     39  C   UNL A   1      37.237  33.608  29.844  1.00  0.00     0.135 A 
ATOM     40  C   UNL A   1      35.812  31.920  30.792  1.00  0.00     0.135 A 
ATOM     41  F   UNL A   1      38.437  34.193  29.703  1.00  0.00    -0.206 F 
ATOM     42  C   UNL A   1      36.167  34.124  29.121  1.00  0.00     0.059 A 
ATOM     43  C   UNL A   1      34.730  32.407  30.063  1.00  0.00     0.059 A 
ATOM     44  F   UNL A   1      35.621  30.841  31.568  1.00  0.00    -0.206 F 
ATOM     45  C   UNL A   1      34.915  33.521  29.243  1.00  0.00     0.060 A 
BRANCH  45  46
ATOM     46  S   UNL A   1      33.538  34.204  28.294  1.00  0.00     0.124 S 
ATOM     47  O   UNL A   1      32.712  34.790  29.344  1.00  0.00    -0.237 OA
ATOM     48  O   UNL A   1      34.215  35.151  27.413  1.00  0.00    -0.237 OA
ATOM     49  O   UNL A   1      32.973  33.035  27.627  1.00  0.00    -0.744 OA
ENDBRANCH  45  46
ENDBRANCH  24  38
BRANCH  25  50
ATOM     50  C   UNL A   1      44.726  28.591  35.999  1.00  0.00     0.058 A 
ATOM     51  C   UNL A   1      46.025  29.127  35.980  1.00  0.00     0.135 A 
ATOM     52  C   UNL A   1      44.500  27.474  36.818  1.00  0.00     0.135 A 
ATOM     53  F   UNL A   1      46.304  30.194  35.215  1.00  0.00    -0.206 F 
ATOM     54  C   UNL A   1      47.058  28.574  36.727  1.00  0.00     0.059 A 
ATOM     55  C   UNL A   1      45.513  26.922  37.602  1.00  0.00     0.059 A 
ATOM     56  F   UNL A   1      43.276  26.930  36.884  1.00  0.00    -0.206 F 
ATOM     57  C   UNL A   1      46.791  27.474  37.541  1.00  0.00     0.060 A 
BRANCH  57  58
ATOM     58  S   UNL A   1      48.136  26.813  38.550  1.00  0.00     0.124 S 
ATOM     59  O   UNL A   1      48.020  25.383  38.293  1.00  0.00    -0.237 OA
ATOM     60  O   UNL A   1      49.304  27.470  37.970  1.00  0.00    -0.237 OA
ATOM     61  O   UNL A   1      47.787  27.243  39.901  1.00  0.00    -0.744 OA
ENDBRANCH  57  58
ENDBRANCH  25  50
BRANCH  37  62
ATOM     62  C   UNL A   1      39.913  33.484  37.259  1.00  0.00     0.058 A 
ATOM     63  C   UNL A   1      38.947  33.111  38.205  1.00  0.00     0.135 A 
ATOM     64  C   UNL A   1      40.569  34.713  37.429  1.00  0.00     0.135 A 
ATOM     65  F   UNL A   1      38.290  31.947  38.079  1.00  0.00    -0.206 F 
ATOM     66  C   UNL A   1      38.629  33.935  39.276  1.00  0.00     0.059 A 
ATOM     67  C   UNL A   1      40.287  35.541  38.509  1.00  0.00     0.059 A 
ATOM     68  F   UNL A   1      41.508  35.105  36.553  1.00  0.00    -0.206 F 
ATOM     69  C   UNL A   1      39.303  35.149  39.418  1.00  0.00     0.060 A 
BRANCH  69  70
ATOM     70  S   UNL A   1      38.894  36.199  40.826  1.00  0.00     0.124 S 
ATOM     71  O   UNL A   1      38.522  37.447  40.169  1.00  0.00    -0.237 OA
ATOM     72  O   UNL A   1      37.800  35.460  41.454  1.00  0.00    -0.237 OA
ATOM     73  O   UNL A   1      40.136  36.235  41.592  1.00  0.00    -0.744 OA
ENDBRANCH  69  70
ENDBRANCH  37  62
ENDBRANCH  11  12
ENDBRANCH   4   6
ENDBRANCH   3   4
ENDBRANCH   2   3
ENDBRANCH   1   2
BRANCH   1  74
ATOM     74  O   UNL A   1      45.823  21.817  25.799  1.00  0.00    -0.374 OA
BRANCH  74  75
ATOM     75  C   UNL A   1      46.081  20.805  24.816  1.00  0.00     0.202 C 
BRANCH  75  76
ATOM     76  C   UNL A   1      44.778  20.089  24.444  1.00  0.00     0.261 C 
BRANCH  76  77
ATOM     77  O   UNL A   1      44.789  18.815  25.100  1.00  0.00    -0.463 OA
BRANCH  77  78
ATOM     78  C   UNL A   1      43.682  18.589  25.867  1.00  0.00     0.309 C 
ATOM     79  O   UNL A   1      43.616  17.715  26.726  1.00  0.00    -0.252 OA
BRANCH  78  80
ATOM     80  C   UNL A   1      42.611  19.655  25.562  1.00  0.00     0.106 C 
ATOM     81  C   UNL A   1      42.470  20.849  26.514  1.00  0.00     0.061 C 
ATOM     82  C   UNL A   1      41.149  19.286  25.789  1.00  0.00     0.061 C 
ATOM     83  C   UNL A   1      40.992  20.460  26.789  1.00  0.00     0.137 C 
ATOM     84  F   UNL A   1      40.777  20.033  28.060  1.00  0.00    -0.239 F 
BRANCH  83  85
ATOM     85  C   UNL A   1      39.911  21.603  26.506  1.00  0.00    -0.008 A 
ATOM     86  C   UNL A   1      40.092  22.894  27.054  1.00  0.00     0.007 A 
ATOM     87  C   UNL A   1      38.741  21.417  25.745  1.00  0.00     0.046 A 
ATOM     88  C   UNL A   1      39.163  23.924  26.876  1.00  0.00     0.003 A 
ATOM     89  C   UNL A   1      37.815  22.444  25.568  1.00  0.00     0.123 A 
ATOM     90  C   UNL A   1      38.012  23.694  26.132  1.00  0.00     0.039 A 
ATOM     91  F   UNL A   1      36.709  22.213  24.847  1.00  0.00    -0.207 F 
ENDBRANCH  83  85
ENDBRANCH  78  80
ENDBRANCH  77  78
ENDBRANCH  76  77
ENDBRANCH  75  76
ENDBRANCH  74  75
ENDBRANCH   1  74
TORSDOF 18
ENDMDL
