MODEL 1
REMARK VINA RESULT:     -11.9      0.000      0.000
REMARK SMILES NS(=O)(=O)c1ccc(-n2ccnc2-c2ccc(O)c(C(=O)OCCOCCOC(=O)c3ccc(-c4c5nc(c(-c6c(F)cc(S(=O)(=O)[O-])cc6F)c6ccc([nH]6)c(-c6c(F)cc(S(=O)(=O)[O-])cc6F)c6nc(c(-c7c(F)cc(S(=O)(=O)[O-])cc7F)c7ccc4[nH]7)C=C6)C=C5)cc3)c2)cc1
REMARK SMILES IDX 24 1 23 2 22 3 20 4 21 5 19 6 14 7 15 8 97 9 16 10 17 11
REMARK SMILES IDX 13 12 9 13 10 14 11 15 12 16 8 17 5 18 6 19 99 20 7 21 98 22
REMARK SMILES IDX 2 23 3 24 4 25 1 26 18 29 25 31 26 32 27 33 28 34 29 35
REMARK SMILES IDX 30 36 31 37 32 38 96 39 33 40 95 41 34 42 35 43 36 44 89 45
REMARK SMILES IDX 37 46 94 47 88 48 90 49 38 50 93 51 87 52 86 53 39 55 73 56
REMARK SMILES IDX 52 57 72 58 53 59 56 60 71 61 91 62 54 63 55 64 70 66 92 67
REMARK SMILES IDX 57 68 40 69 41 70 50 71 42 72 43 73 49 74 51 75 44 76 45 77
REMARK SMILES IDX 46 78 47 79 48 80 74 81 75 82 84 83 76 84 77 85 83 86 85 87
REMARK SMILES IDX 78 88 79 89 80 90 81 91 82 92 58 93 59 94 68 95 60 96 61 97
REMARK SMILES IDX 67 98 69 99 62 100 63 101 64 102 65 103 66 104
REMARK H PARENT 1 27 1 28 18 30 90 54 56 65
REMARK Flexibility Score: inf
ROOT
ATOM      1  C   UNL A   1      36.018  22.599  23.772  1.00  0.00     0.202 C 
ENDROOT
BRANCH   1   2
ATOM      2  C   UNL A   1      34.572  22.246  24.132  1.00  0.00     0.261 C 
BRANCH   2   3
ATOM      3  O   UNL A   1      33.918  23.281  24.882  1.00  0.00    -0.460 OA
BRANCH   3   4
ATOM      4  C   UNL A   1      33.124  24.092  24.143  1.00  0.00     0.342 C 
ATOM      5  O   UNL A   1      32.851  23.969  22.957  1.00  0.00    -0.246 OA
BRANCH   4   6
ATOM      6  C   UNL A   1      32.402  25.058  24.996  1.00  0.00     0.102 A 
ATOM      7  C   UNL A   1      32.311  27.157  26.219  1.00  0.00     0.019 A 
ATOM      8  C   UNL A   1      30.956  26.928  26.487  1.00  0.00     0.016 A 
ATOM      9  C   UNL A   1      33.046  26.173  25.534  1.00  0.00     0.031 A 
ATOM     10  C   UNL A   1      30.326  25.772  26.020  1.00  0.00     0.048 A 
ATOM     11  C   UNL A   1      31.040  24.857  25.254  1.00  0.00     0.130 A 
BRANCH   7  12
ATOM     12  C   UNL A   1      32.933  28.429  26.618  1.00  0.00     0.144 A 
ATOM     13  N   UNL A   1      32.680  29.663  26.020  1.00  0.00    -0.300 N 
ATOM     14  C   UNL A   1      33.633  30.536  26.486  1.00  0.00     0.113 A 
ATOM     15  C   UNL A   1      34.309  29.848  27.465  1.00  0.00     0.132 A 
ATOM     16  N   UNL A   1      33.854  28.560  27.557  1.00  0.00    -0.236 NA
BRANCH  13  17
ATOM     17  C   UNL A   1      31.670  29.960  25.073  1.00  0.00     0.047 A 
ATOM     18  C   UNL A   1      29.472  30.318  23.414  1.00  0.00     0.082 A 
ATOM     19  C   UNL A   1      29.666  31.186  24.493  1.00  0.00     0.024 A 
ATOM     20  C   UNL A   1      30.377  29.282  23.154  1.00  0.00     0.024 A 
ATOM     21  C   UNL A   1      30.769  31.006  25.326  1.00  0.00     0.028 A 
ATOM     22  C   UNL A   1      31.496  29.114  23.972  1.00  0.00     0.028 A 
BRANCH  18  23
ATOM     23  S   UNL A   1      28.039  30.549  22.405  1.00  0.00     0.238 S 
ATOM     24  O   UNL A   1      28.356  30.098  21.065  1.00  0.00    -0.207 OA
ATOM     25  O   UNL A   1      27.481  31.846  22.678  1.00  0.00    -0.207 OA
BRANCH  23  26
ATOM     26  N   UNL A   1      26.921  29.451  23.009  1.00  0.00    -0.225 NA
ATOM     27  H   UNL A   1      27.382  28.825  23.670  1.00  0.00     0.137 HD
ATOM     28  H   UNL A   1      26.530  28.906  22.241  1.00  0.00     0.137 HD
ENDBRANCH  23  26
ENDBRANCH  18  23
ENDBRANCH  13  17
ENDBRANCH   7  12
BRANCH  11  29
ATOM     29  O   UNL A   1      30.349  23.762  24.805  1.00  0.00    -0.507 OA
ATOM     30  H   UNL A   1      29.794  23.836  24.053  1.00  0.00     0.293 HD
ENDBRANCH  11  29
ENDBRANCH   4   6
ENDBRANCH   3   4
ENDBRANCH   2   3
ENDBRANCH   1   2
BRANCH   1  31
ATOM     31  O   UNL A   1      37.072  21.807  24.317  1.00  0.00    -0.374 OA
BRANCH  31  32
ATOM     32  C   UNL A   1      37.682  22.162  25.553  1.00  0.00     0.202 C 
BRANCH  32  33
ATOM     33  C   UNL A   1      38.958  21.464  25.993  1.00  0.00     0.261 C 
BRANCH  33  34
ATOM     34  O   UNL A   1      40.075  22.334  25.962  1.00  0.00    -0.460 OA
BRANCH  34  35
ATOM     35  C   UNL A   1      40.482  22.729  27.189  1.00  0.00     0.338 C 
ATOM     36  O   UNL A   1      40.453  22.078  28.221  1.00  0.00    -0.246 OA
BRANCH  35  37
ATOM     37  C   UNL A   1      40.839  24.146  27.119  1.00  0.00     0.060 A 
ATOM     38  C   UNL A   1      42.065  24.483  27.692  1.00  0.00     0.016 A 
ATOM     39  C   UNL A   1      39.839  25.096  26.862  1.00  0.00     0.016 A 
ATOM     40  C   UNL A   1      42.171  25.715  28.284  1.00  0.00     0.010 A 
ATOM     41  C   UNL A   1      39.943  26.321  27.464  1.00  0.00     0.010 A 
ATOM     42  C   UNL A   1      41.059  26.565  28.257  1.00  0.00    -0.014 A 
BRANCH  42  43
ATOM     43  C   UNL A   1      41.141  27.806  28.987  1.00  0.00     0.031 A 
ATOM     44  C   UNL A   1      42.258  28.627  28.478  1.00  0.00     0.074 A 
ATOM     45  C   UNL A   1      40.238  28.159  29.921  1.00  0.00     0.049 A 
ATOM     46  N   UNL A   1      43.433  28.760  28.998  1.00  0.00    -0.248 NA
ATOM     47  C   UNL A   1      42.162  29.108  27.088  1.00  0.00     0.031 C 
ATOM     48  C   UNL A   1      38.971  27.500  30.255  1.00  0.00     0.029 A 
ATOM     49  N   UNL A   1      40.229  29.256  30.724  1.00  0.00    -0.354 N 
ATOM     50  C   UNL A   1      44.108  29.602  28.125  1.00  0.00     0.074 A 
ATOM     51  C   UNL A   1      43.410  29.525  26.873  1.00  0.00     0.031 C 
ATOM     52  C   UNL A   1      38.220  28.329  31.017  1.00  0.00     0.029 A 
ATOM     53  C   UNL A   1      39.005  29.505  31.345  1.00  0.00     0.049 A 
ATOM     54  H   UNL A   1      41.021  29.826  30.858  1.00  0.00     0.167 HD
ATOM     55  C   UNL A   1      44.932  30.570  28.609  1.00  0.00     0.037 A 
ATOM     56  C   UNL A   1      38.678  30.640  32.017  1.00  0.00     0.037 A 
ATOM     57  C   UNL A   1      45.273  30.300  29.985  1.00  0.00     0.049 A 
ATOM     58  C   UNL A   1      39.961  31.291  32.390  1.00  0.00     0.074 A 
ATOM     59  C   UNL A   1      45.971  29.320  30.659  1.00  0.00     0.029 A 
ATOM     60  N   UNL A   1      44.478  30.930  30.910  1.00  0.00    -0.354 N 
ATOM     61  N   UNL A   1      40.825  30.764  33.218  1.00  0.00    -0.248 NA
ATOM     62  C   UNL A   1      40.498  32.309  31.500  1.00  0.00     0.031 C 
ATOM     63  C   UNL A   1      45.315  29.179  31.918  1.00  0.00     0.029 A 
ATOM     64  C   UNL A   1      44.285  30.121  31.996  1.00  0.00     0.049 A 
ATOM     65  H   UNL A   1      44.100  31.833  30.807  1.00  0.00     0.167 HD
ATOM     66  C   UNL A   1      42.068  31.066  32.680  1.00  0.00     0.074 A 
ATOM     67  C   UNL A   1      41.806  32.118  31.700  1.00  0.00     0.031 C 
ATOM     68  C   UNL A   1      43.132  30.229  32.873  1.00  0.00     0.037 A 
BRANCH  55  69
ATOM     69  C   UNL A   1      45.005  31.969  28.028  1.00  0.00     0.058 A 
ATOM     70  C   UNL A   1      46.235  32.426  27.511  1.00  0.00     0.135 A 
ATOM     71  C   UNL A   1      44.020  32.971  28.207  1.00  0.00     0.135 A 
ATOM     72  F   UNL A   1      47.252  31.571  27.316  1.00  0.00    -0.206 F 
ATOM     73  C   UNL A   1      46.483  33.776  27.251  1.00  0.00     0.059 A 
ATOM     74  C   UNL A   1      44.227  34.308  27.903  1.00  0.00     0.059 A 
ATOM     75  F   UNL A   1      42.834  32.734  28.776  1.00  0.00    -0.206 F 
ATOM     76  C   UNL A   1      45.472  34.710  27.458  1.00  0.00     0.060 A 
BRANCH  76  77
ATOM     77  S   UNL A   1      45.798  36.457  27.184  1.00  0.00     0.124 S 
ATOM     78  O   UNL A   1      44.447  36.988  27.049  1.00  0.00    -0.237 OA
ATOM     79  O   UNL A   1      46.515  36.821  28.401  1.00  0.00    -0.237 OA
ATOM     80  O   UNL A   1      46.603  36.460  25.966  1.00  0.00    -0.744 OA
ENDBRANCH  76  77
ENDBRANCH  55  69
BRANCH  56  81
ATOM     81  C   UNL A   1      37.382  31.373  31.998  1.00  0.00     0.058 A 
ATOM     82  C   UNL A   1      36.768  31.835  33.177  1.00  0.00     0.135 A 
ATOM     83  C   UNL A   1      36.860  31.883  30.792  1.00  0.00     0.135 A 
ATOM     84  F   UNL A   1      37.224  31.436  34.374  1.00  0.00    -0.206 F 
ATOM     85  C   UNL A   1      35.714  32.762  33.162  1.00  0.00     0.059 A 
ATOM     86  C   UNL A   1      35.811  32.804  30.751  1.00  0.00     0.059 A 
ATOM     87  F   UNL A   1      37.419  31.567  29.614  1.00  0.00    -0.206 F 
ATOM     88  C   UNL A   1      35.251  33.252  31.941  1.00  0.00     0.060 A 
BRANCH  88  89
ATOM     89  S   UNL A   1      33.977  34.539  31.914  1.00  0.00     0.124 S 
ATOM     90  O   UNL A   1      34.720  35.709  32.370  1.00  0.00    -0.237 OA
ATOM     91  O   UNL A   1      33.573  34.547  30.512  1.00  0.00    -0.237 OA
ATOM     92  O   UNL A   1      32.969  34.040  32.846  1.00  0.00    -0.744 OA
ENDBRANCH  88  89
ENDBRANCH  56  81
BRANCH  68  93
ATOM     93  C   UNL A   1      43.046  29.230  33.999  1.00  0.00     0.058 A 
ATOM     94  C   UNL A   1      43.279  29.511  35.358  1.00  0.00     0.135 A 
ATOM     95  C   UNL A   1      42.563  27.949  33.686  1.00  0.00     0.135 A 
ATOM     96  F   UNL A   1      43.661  30.735  35.751  1.00  0.00    -0.206 F 
ATOM     97  C   UNL A   1      43.068  28.551  36.354  1.00  0.00     0.059 A 
ATOM     98  C   UNL A   1      42.314  26.990  34.662  1.00  0.00     0.059 A 
ATOM     99  F   UNL A   1      42.270  27.637  32.413  1.00  0.00    -0.206 F 
ATOM    100  C   UNL A   1      42.579  27.293  35.995  1.00  0.00     0.060 A 
BRANCH 100 101
ATOM    101  S   UNL A   1      42.229  26.073  37.281  1.00  0.00     0.124 S 
ATOM    102  O   UNL A   1      42.461  24.813  36.581  1.00  0.00    -0.237 OA
ATOM    103  O   UNL A   1      43.201  26.415  38.315  1.00  0.00    -0.237 OA
ATOM    104  O   UNL A   1      40.836  26.340  37.634  1.00  0.00    -0.744 OA
ENDBRANCH 100 101
ENDBRANCH  68  93
ENDBRANCH  42  43
ENDBRANCH  35  37
ENDBRANCH  34  35
ENDBRANCH  33  34
ENDBRANCH  32  33
ENDBRANCH  31  32
ENDBRANCH   1  31
TORSDOF 22
ENDMDL
MODEL 2
REMARK VINA RESULT:     -11.3      2.071      3.218
REMARK SMILES NS(=O)(=O)c1ccc(-n2ccnc2-c2ccc(O)c(C(=O)OCCOCCOC(=O)c3ccc(-c4c5nc(c(-c6c(F)cc(S(=O)(=O)[O-])cc6F)c6ccc([nH]6)c(-c6c(F)cc(S(=O)(=O)[O-])cc6F)c6nc(c(-c7c(F)cc(S(=O)(=O)[O-])cc7F)c7ccc4[nH]7)C=C6)C=C5)cc3)c2)cc1
REMARK SMILES IDX 24 1 23 2 22 3 20 4 21 5 19 6 14 7 15 8 97 9 16 10 17 11
REMARK SMILES IDX 13 12 9 13 10 14 11 15 12 16 8 17 5 18 6 19 99 20 7 21 98 22
REMARK SMILES IDX 2 23 3 24 4 25 1 26 18 29 25 31 26 32 27 33 28 34 29 35
REMARK SMILES IDX 30 36 31 37 32 38 96 39 33 40 95 41 34 42 35 43 36 44 89 45
REMARK SMILES IDX 37 46 94 47 88 48 90 49 38 50 93 51 87 52 86 53 39 55 73 56
REMARK SMILES IDX 52 57 72 58 53 59 56 60 71 61 91 62 54 63 55 64 70 66 92 67
REMARK SMILES IDX 57 68 40 69 41 70 50 71 42 72 43 73 49 74 51 75 44 76 45 77
REMARK SMILES IDX 46 78 47 79 48 80 74 81 75 82 84 83 76 84 77 85 83 86 85 87
REMARK SMILES IDX 78 88 79 89 80 90 81 91 82 92 58 93 59 94 68 95 60 96 61 97
REMARK SMILES IDX 67 98 69 99 62 100 63 101 64 102 65 103 66 104
REMARK H PARENT 1 27 1 28 18 30 90 54 56 65
REMARK Flexibility Score: inf
ROOT
ATOM      1  C   UNL A   1      38.402  20.091  25.065  1.00  0.00     0.202 C 
ENDROOT
BRANCH   1   2
ATOM      2  C   UNL A   1      37.059  19.444  24.717  1.00  0.00     0.261 C 
BRANCH   2   3
ATOM      3  O   UNL A   1      35.944  20.321  24.938  1.00  0.00    -0.460 OA
BRANCH   3   4
ATOM      4  C   UNL A   1      34.739  19.781  24.639  1.00  0.00     0.342 C 
ATOM      5  O   UNL A   1      34.435  18.598  24.680  1.00  0.00    -0.246 OA
BRANCH   4   6
ATOM      6  C   UNL A   1      33.710  20.828  24.468  1.00  0.00     0.102 A 
ATOM      7  C   UNL A   1      32.860  22.804  23.336  1.00  0.00     0.019 A 
ATOM      8  C   UNL A   1      31.676  22.704  24.076  1.00  0.00     0.016 A 
ATOM      9  C   UNL A   1      33.906  21.900  23.596  1.00  0.00     0.031 A 
ATOM     10  C   UNL A   1      31.509  21.679  25.010  1.00  0.00     0.048 A 
ATOM     11  C   UNL A   1      32.510  20.730  25.183  1.00  0.00     0.130 A 
BRANCH   7  12
ATOM     12  C   UNL A   1      32.980  23.817  22.276  1.00  0.00     0.144 A 
ATOM     13  N   UNL A   1      32.814  25.190  22.461  1.00  0.00    -0.300 N 
ATOM     14  C   UNL A   1      32.740  25.756  21.212  1.00  0.00     0.113 A 
ATOM     15  C   UNL A   1      33.033  24.740  20.334  1.00  0.00     0.132 A 
ATOM     16  N   UNL A   1      33.204  23.556  21.000  1.00  0.00    -0.236 NA
BRANCH  13  17
ATOM     17  C   UNL A   1      32.693  25.874  23.694  1.00  0.00     0.047 A 
ATOM     18  C   UNL A   1      32.494  27.528  25.917  1.00  0.00     0.082 A 
ATOM     19  C   UNL A   1      31.334  27.165  25.225  1.00  0.00     0.024 A 
ATOM     20  C   UNL A   1      33.749  27.058  25.511  1.00  0.00     0.024 A 
ATOM     21  C   UNL A   1      31.433  26.336  24.110  1.00  0.00     0.028 A 
ATOM     22  C   UNL A   1      33.850  26.207  24.409  1.00  0.00     0.028 A 
BRANCH  18  23
ATOM     23  S   UNL A   1      32.334  28.616  27.301  1.00  0.00     0.238 S 
ATOM     24  O   UNL A   1      33.656  28.845  27.847  1.00  0.00    -0.207 OA
ATOM     25  O   UNL A   1      31.224  28.184  28.107  1.00  0.00    -0.207 OA
BRANCH  23  26
ATOM     26  N   UNL A   1      31.851  30.077  26.630  1.00  0.00    -0.225 NA
ATOM     27  H   UNL A   1      31.044  30.435  27.141  1.00  0.00     0.137 HD
ATOM     28  H   UNL A   1      31.598  29.936  25.653  1.00  0.00     0.137 HD
ENDBRANCH  23  26
ENDBRANCH  18  23
ENDBRANCH  13  17
ENDBRANCH   7  12
BRANCH  11  29
ATOM     29  O   UNL A   1      32.263  19.737  26.094  1.00  0.00    -0.507 OA
ATOM     30  H   UNL A   1      32.787  19.672  26.868  1.00  0.00     0.293 HD
ENDBRANCH  11  29
ENDBRANCH   4   6
ENDBRANCH   3   4
ENDBRANCH   2   3
ENDBRANCH   1   2
BRANCH   1  31
ATOM     31  O   UNL A   1      39.486  19.252  25.458  1.00  0.00    -0.374 OA
BRANCH  31  32
ATOM     32  C   UNL A   1      40.509  19.743  26.317  1.00  0.00     0.202 C 
BRANCH  32  33
ATOM     33  C   UNL A   1      41.040  21.155  26.128  1.00  0.00     0.261 C 
BRANCH  33  34
ATOM     34  O   UNL A   1      40.754  21.981  27.243  1.00  0.00    -0.460 OA
BRANCH  34  35
ATOM     35  C   UNL A   1      39.886  22.978  26.962  1.00  0.00     0.338 C 
ATOM     36  O   UNL A   1      38.733  22.867  26.577  1.00  0.00    -0.246 OA
BRANCH  35  37
ATOM     37  C   UNL A   1      40.604  24.250  27.051  1.00  0.00     0.060 A 
ATOM     38  C   UNL A   1      41.598  24.308  28.029  1.00  0.00     0.016 A 
ATOM     39  C   UNL A   1      40.044  25.400  26.474  1.00  0.00     0.016 A 
ATOM     40  C   UNL A   1      41.812  25.515  28.643  1.00  0.00     0.010 A 
ATOM     41  C   UNL A   1      40.251  26.600  27.098  1.00  0.00     0.010 A 
ATOM     42  C   UNL A   1      41.044  26.614  28.240  1.00  0.00    -0.014 A 
BRANCH  42  43
ATOM     43  C   UNL A   1      41.192  27.846  28.976  1.00  0.00     0.031 A 
ATOM     44  C   UNL A   1      42.306  28.642  28.424  1.00  0.00     0.074 A 
ATOM     45  C   UNL A   1      40.341  28.213  29.952  1.00  0.00     0.049 A 
ATOM     46  N   UNL A   1      43.506  28.739  28.893  1.00  0.00    -0.248 NA
ATOM     47  C   UNL A   1      42.162  29.138  27.044  1.00  0.00     0.031 C 
ATOM     48  C   UNL A   1      39.073  27.584  30.337  1.00  0.00     0.029 A 
ATOM     49  N   UNL A   1      40.396  29.302  30.764  1.00  0.00    -0.354 N 
ATOM     50  C   UNL A   1      44.164  29.571  27.997  1.00  0.00     0.074 A 
ATOM     51  C   UNL A   1      43.409  29.524  26.777  1.00  0.00     0.031 C 
ATOM     52  C   UNL A   1      38.378  28.426  31.138  1.00  0.00     0.029 A 
ATOM     53  C   UNL A   1      39.208  29.578  31.440  1.00  0.00     0.049 A 
ATOM     54  H   UNL A   1      41.209  29.850  30.866  1.00  0.00     0.167 HD
ATOM     55  C   UNL A   1      45.035  30.513  28.451  1.00  0.00     0.037 A 
ATOM     56  C   UNL A   1      38.942  30.714  32.136  1.00  0.00     0.037 A 
ATOM     57  C   UNL A   1      45.428  30.221  29.809  1.00  0.00     0.049 A 
ATOM     58  C   UNL A   1      40.257  31.328  32.457  1.00  0.00     0.074 A 
ATOM     59  C   UNL A   1      46.129  29.217  30.443  1.00  0.00     0.029 A 
ATOM     60  N   UNL A   1      44.693  30.863  30.774  1.00  0.00    -0.354 N 
ATOM     61  N   UNL A   1      41.143  30.771  33.241  1.00  0.00    -0.248 NA
ATOM     62  C   UNL A   1      40.781  32.340  31.552  1.00  0.00     0.031 C 
ATOM     63  C   UNL A   1      45.526  29.081  31.729  1.00  0.00     0.029 A 
ATOM     64  C   UNL A   1      44.527  30.048  31.861  1.00  0.00     0.049 A 
ATOM     65  H   UNL A   1      44.335  31.776  30.695  1.00  0.00     0.167 HD
ATOM     66  C   UNL A   1      42.368  31.045  32.650  1.00  0.00     0.074 A 
ATOM     67  C   UNL A   1      42.091  32.112  31.692  1.00  0.00     0.031 C 
ATOM     68  C   UNL A   1      43.417  30.179  32.789  1.00  0.00     0.037 A 
BRANCH  55  69
ATOM     69  C   UNL A   1      45.119  31.915  27.880  1.00  0.00     0.058 A 
ATOM     70  C   UNL A   1      46.343  32.352  27.334  1.00  0.00     0.135 A 
ATOM     71  C   UNL A   1      44.159  32.933  28.093  1.00  0.00     0.135 A 
ATOM     72  F   UNL A   1      47.337  31.479  27.104  1.00  0.00    -0.206 F 
ATOM     73  C   UNL A   1      46.610  33.699  27.077  1.00  0.00     0.059 A 
ATOM     74  C   UNL A   1      44.383  34.269  27.794  1.00  0.00     0.059 A 
ATOM     75  F   UNL A   1      42.984  32.715  28.691  1.00  0.00    -0.206 F 
ATOM     76  C   UNL A   1      45.623  34.650  27.319  1.00  0.00     0.060 A 
BRANCH  76  77
ATOM     77  S   UNL A   1      45.975  36.393  27.049  1.00  0.00     0.124 S 
ATOM     78  O   UNL A   1      46.734  36.726  28.248  1.00  0.00    -0.237 OA
ATOM     79  O   UNL A   1      46.728  36.356  25.799  1.00  0.00    -0.237 OA
ATOM     80  O   UNL A   1      44.647  36.992  26.955  1.00  0.00    -0.744 OA
ENDBRANCH  76  77
ENDBRANCH  55  69
BRANCH  56  81
ATOM     81  C   UNL A   1      37.666  31.482  32.181  1.00  0.00     0.058 A 
ATOM     82  C   UNL A   1      37.057  31.848  33.396  1.00  0.00     0.135 A 
ATOM     83  C   UNL A   1      37.166  32.117  31.026  1.00  0.00     0.135 A 
ATOM     84  F   UNL A   1      37.494  31.326  34.551  1.00  0.00    -0.206 F 
ATOM     85  C   UNL A   1      36.029  32.801  33.463  1.00  0.00     0.059 A 
ATOM     86  C   UNL A   1      36.143  33.066  31.067  1.00  0.00     0.059 A 
ATOM     87  F   UNL A   1      37.724  31.897  29.825  1.00  0.00    -0.206 F 
ATOM     88  C   UNL A   1      35.587  33.415  32.292  1.00  0.00     0.060 A 
BRANCH  88  89
ATOM     89  S   UNL A   1      34.349  34.735  32.381  1.00  0.00     0.124 S 
ATOM     90  O   UNL A   1      35.046  35.752  33.160  1.00  0.00    -0.237 OA
ATOM     91  O   UNL A   1      34.129  35.049  30.973  1.00  0.00    -0.237 OA
ATOM     92  O   UNL A   1      33.221  34.097  33.057  1.00  0.00    -0.744 OA
ENDBRANCH  88  89
ENDBRANCH  56  81
BRANCH  68  93
ATOM     93  C   UNL A   1      43.354  29.171  33.910  1.00  0.00     0.058 A 
ATOM     94  C   UNL A   1      42.822  27.873  33.809  1.00  0.00     0.135 A 
ATOM     95  C   UNL A   1      43.998  29.507  35.111  1.00  0.00     0.135 A 
ATOM     96  F   UNL A   1      42.266  27.445  32.667  1.00  0.00    -0.206 F 
ATOM     97  C   UNL A   1      42.905  26.961  34.867  1.00  0.00     0.059 A 
ATOM     98  C   UNL A   1      44.121  28.606  36.164  1.00  0.00     0.059 A 
ATOM     99  F   UNL A   1      44.572  30.713  35.249  1.00  0.00    -0.206 F 
ATOM    100  C   UNL A   1      43.562  27.337  36.040  1.00  0.00     0.060 A 
BRANCH 100 101
ATOM    101  S   UNL A   1      43.743  26.140  37.383  1.00  0.00     0.124 S 
ATOM    102  O   UNL A   1      44.987  26.570  38.013  1.00  0.00    -0.237 OA
ATOM    103  O   UNL A   1      42.528  26.355  38.164  1.00  0.00    -0.237 OA
ATOM    104  O   UNL A   1      43.808  24.856  36.689  1.00  0.00    -0.744 OA
ENDBRANCH 100 101
ENDBRANCH  68  93
ENDBRANCH  42  43
ENDBRANCH  35  37
ENDBRANCH  34  35
ENDBRANCH  33  34
ENDBRANCH  32  33
ENDBRANCH  31  32
ENDBRANCH   1  31
TORSDOF 22
ENDMDL
MODEL 3
REMARK VINA RESULT:     -11.3      2.429      3.702
REMARK SMILES NS(=O)(=O)c1ccc(-n2ccnc2-c2ccc(O)c(C(=O)OCCOCCOC(=O)c3ccc(-c4c5nc(c(-c6c(F)cc(S(=O)(=O)[O-])cc6F)c6ccc([nH]6)c(-c6c(F)cc(S(=O)(=O)[O-])cc6F)c6nc(c(-c7c(F)cc(S(=O)(=O)[O-])cc7F)c7ccc4[nH]7)C=C6)C=C5)cc3)c2)cc1
REMARK SMILES IDX 24 1 23 2 22 3 20 4 21 5 19 6 14 7 15 8 97 9 16 10 17 11
REMARK SMILES IDX 13 12 9 13 10 14 11 15 12 16 8 17 5 18 6 19 99 20 7 21 98 22
REMARK SMILES IDX 2 23 3 24 4 25 1 26 18 29 25 31 26 32 27 33 28 34 29 35
REMARK SMILES IDX 30 36 31 37 32 38 96 39 33 40 95 41 34 42 35 43 36 44 89 45
REMARK SMILES IDX 37 46 94 47 88 48 90 49 38 50 93 51 87 52 86 53 39 55 73 56
REMARK SMILES IDX 52 57 72 58 53 59 56 60 71 61 91 62 54 63 55 64 70 66 92 67
REMARK SMILES IDX 57 68 40 69 41 70 50 71 42 72 43 73 49 74 51 75 44 76 45 77
REMARK SMILES IDX 46 78 47 79 48 80 74 81 75 82 84 83 76 84 77 85 83 86 85 87
REMARK SMILES IDX 78 88 79 89 80 90 81 91 82 92 58 93 59 94 68 95 60 96 61 97
REMARK SMILES IDX 67 98 69 99 62 100 63 101 64 102 65 103 66 104
REMARK H PARENT 1 27 1 28 18 30 90 54 56 65
REMARK Flexibility Score: inf
ROOT
ATOM      1  C   UNL A   1      38.659  21.052  25.512  1.00  0.00     0.202 C 
ENDROOT
BRANCH   1   2
ATOM      2  C   UNL A   1      37.221  21.087  24.988  1.00  0.00     0.261 C 
BRANCH   2   3
ATOM      3  O   UNL A   1      36.467  22.192  25.506  1.00  0.00    -0.460 OA
BRANCH   3   4
ATOM      4  C   UNL A   1      35.273  21.851  26.048  1.00  0.00     0.342 C 
ATOM      5  O   UNL A   1      35.013  21.734  27.237  1.00  0.00    -0.246 OA
BRANCH   4   6
ATOM      6  C   UNL A   1      34.202  21.853  25.029  1.00  0.00     0.102 A 
ATOM      7  C   UNL A   1      33.113  22.845  23.096  1.00  0.00     0.019 A 
ATOM      8  C   UNL A   1      32.252  21.744  23.031  1.00  0.00     0.016 A 
ATOM      9  C   UNL A   1      34.040  22.925  24.151  1.00  0.00     0.031 A 
ATOM     10  C   UNL A   1      32.357  20.706  23.959  1.00  0.00     0.048 A 
ATOM     11  C   UNL A   1      33.347  20.748  24.935  1.00  0.00     0.130 A 
BRANCH   7  12
ATOM     12  C   UNL A   1      33.068  23.875  22.047  1.00  0.00     0.144 A 
ATOM     13  N   UNL A   1      32.774  25.222  22.262  1.00  0.00    -0.300 N 
ATOM     14  C   UNL A   1      32.571  25.789  21.028  1.00  0.00     0.113 A 
ATOM     15  C   UNL A   1      32.915  24.817  20.119  1.00  0.00     0.132 A 
ATOM     16  N   UNL A   1      33.244  23.650  20.756  1.00  0.00    -0.236 NA
BRANCH  13  17
ATOM     17  C   UNL A   1      32.654  25.878  23.510  1.00  0.00     0.047 A 
ATOM     18  C   UNL A   1      32.287  27.454  25.767  1.00  0.00     0.082 A 
ATOM     19  C   UNL A   1      31.252  26.618  25.339  1.00  0.00     0.024 A 
ATOM     20  C   UNL A   1      33.507  27.496  25.082  1.00  0.00     0.024 A 
ATOM     21  C   UNL A   1      31.436  25.827  24.206  1.00  0.00     0.028 A 
ATOM     22  C   UNL A   1      33.704  26.687  23.961  1.00  0.00     0.028 A 
BRANCH  18  23
ATOM     23  S   UNL A   1      32.004  28.475  27.183  1.00  0.00     0.238 S 
ATOM     24  O   UNL A   1      31.335  27.674  28.187  1.00  0.00    -0.207 OA
ATOM     25  O   UNL A   1      31.504  29.750  26.744  1.00  0.00    -0.207 OA
BRANCH  23  26
ATOM     26  N   UNL A   1      33.540  28.786  27.787  1.00  0.00    -0.225 NA
ATOM     27  H   UNL A   1      34.237  28.350  27.184  1.00  0.00     0.137 HD
ATOM     28  H   UNL A   1      33.619  28.403  28.729  1.00  0.00     0.137 HD
ENDBRANCH  23  26
ENDBRANCH  18  23
ENDBRANCH  13  17
ENDBRANCH   7  12
BRANCH  11  29
ATOM     29  O   UNL A   1      33.410  19.680  25.792  1.00  0.00    -0.507 OA
ATOM     30  H   UNL A   1      34.044  19.671  26.481  1.00  0.00     0.293 HD
ENDBRANCH  11  29
ENDBRANCH   4   6
ENDBRANCH   3   4
ENDBRANCH   2   3
ENDBRANCH   1   2
BRANCH   1  31
ATOM     31  O   UNL A   1      39.303  19.788  25.663  1.00  0.00    -0.374 OA
BRANCH  31  32
ATOM     32  C   UNL A   1      40.669  19.712  26.057  1.00  0.00     0.202 C 
BRANCH  32  33
ATOM     33  C   UNL A   1      41.309  20.881  26.788  1.00  0.00     0.261 C 
BRANCH  33  34
ATOM     34  O   UNL A   1      41.826  21.847  25.891  1.00  0.00    -0.460 OA
BRANCH  34  35
ATOM     35  C   UNL A   1      43.176  21.848  25.823  1.00  0.00     0.338 C 
ATOM     36  O   UNL A   1      43.909  20.882  25.687  1.00  0.00    -0.246 OA
BRANCH  35  37
ATOM     37  C   UNL A   1      43.648  23.206  26.092  1.00  0.00     0.060 A 
ATOM     38  C   UNL A   1      44.236  23.399  27.342  1.00  0.00     0.016 A 
ATOM     39  C   UNL A   1      43.169  24.269  25.311  1.00  0.00     0.016 A 
ATOM     40  C   UNL A   1      44.069  24.622  27.940  1.00  0.00     0.010 A 
ATOM     41  C   UNL A   1      42.993  25.485  25.915  1.00  0.00     0.010 A 
ATOM     42  C   UNL A   1      43.345  25.604  27.255  1.00  0.00    -0.014 A 
BRANCH  42  43
ATOM     43  C   UNL A   1      43.072  26.842  27.943  1.00  0.00     0.031 A 
ATOM     44  C   UNL A   1      44.171  27.804  27.725  1.00  0.00     0.074 A 
ATOM     45  C   UNL A   1      41.915  27.071  28.593  1.00  0.00     0.049 A 
ATOM     46  N   UNL A   1      45.137  28.085  28.535  1.00  0.00    -0.248 NA
ATOM     47  C   UNL A   1      44.391  28.275  26.346  1.00  0.00     0.031 C 
ATOM     48  C   UNL A   1      40.698  26.251  28.597  1.00  0.00     0.029 A 
ATOM     49  N   UNL A   1      41.553  28.153  29.331  1.00  0.00    -0.354 N 
ATOM     50  C   UNL A   1      45.910  29.012  27.847  1.00  0.00     0.074 A 
ATOM     51  C   UNL A   1      45.587  28.851  26.458  1.00  0.00     0.031 C 
ATOM     52  C   UNL A   1      39.672  26.973  29.107  1.00  0.00     0.029 A 
ATOM     53  C   UNL A   1      40.186  28.239  29.596  1.00  0.00     0.049 A 
ATOM     54  H   UNL A   1      42.202  28.821  29.653  1.00  0.00     0.167 HD
ATOM     55  C   UNL A   1      46.446  30.076  28.504  1.00  0.00     0.037 A 
ATOM     56  C   UNL A   1      39.551  29.318  30.123  1.00  0.00     0.037 A 
ATOM     57  C   UNL A   1      46.437  29.845  29.929  1.00  0.00     0.049 A 
ATOM     58  C   UNL A   1      40.595  30.128  30.805  1.00  0.00     0.074 A 
ATOM     59  C   UNL A   1      47.047  28.961  30.793  1.00  0.00     0.029 A 
ATOM     60  N   UNL A   1      45.351  30.363  30.590  1.00  0.00    -0.354 N 
ATOM     61  N   UNL A   1      41.265  29.714  31.848  1.00  0.00    -0.248 NA
ATOM     62  C   UNL A   1      41.218  31.212  30.059  1.00  0.00     0.031 C 
ATOM     63  C   UNL A   1      46.101  28.730  31.836  1.00  0.00     0.029 A 
ATOM     64  C   UNL A   1      44.978  29.529  31.609  1.00  0.00     0.049 A 
ATOM     65  H   UNL A   1      44.904  31.210  30.363  1.00  0.00     0.167 HD
ATOM     66  C   UNL A   1      42.558  30.177  31.650  1.00  0.00     0.074 A 
ATOM     67  C   UNL A   1      42.438  31.190  30.605  1.00  0.00     0.031 C 
ATOM     68  C   UNL A   1      43.628  29.483  32.144  1.00  0.00     0.037 A 
BRANCH  55  69
ATOM     69  C   UNL A   1      46.494  31.476  27.922  1.00  0.00     0.058 A 
ATOM     70  C   UNL A   1      47.716  32.179  27.948  1.00  0.00     0.135 A 
ATOM     71  C   UNL A   1      45.358  32.258  27.602  1.00  0.00     0.135 A 
ATOM     72  F   UNL A   1      48.860  31.547  28.256  1.00  0.00    -0.206 F 
ATOM     73  C   UNL A   1      47.792  33.557  27.733  1.00  0.00     0.059 A 
ATOM     74  C   UNL A   1      45.418  33.617  27.331  1.00  0.00     0.059 A 
ATOM     75  F   UNL A   1      44.111  31.778  27.628  1.00  0.00    -0.206 F 
ATOM     76  C   UNL A   1      46.633  34.267  27.432  1.00  0.00     0.060 A 
BRANCH  76  77
ATOM     77  S   UNL A   1      46.708  36.051  27.213  1.00  0.00     0.124 S 
ATOM     78  O   UNL A   1      45.581  36.492  28.025  1.00  0.00    -0.237 OA
ATOM     79  O   UNL A   1      48.036  36.359  27.731  1.00  0.00    -0.237 OA
ATOM     80  O   UNL A   1      46.551  36.217  25.770  1.00  0.00    -0.744 OA
ENDBRANCH  76  77
ENDBRANCH  55  69
BRANCH  56  81
ATOM     81  C   UNL A   1      38.225  29.878  29.738  1.00  0.00     0.058 A 
ATOM     82  C   UNL A   1      37.345  30.433  30.687  1.00  0.00     0.135 A 
ATOM     83  C   UNL A   1      37.916  30.135  28.388  1.00  0.00     0.135 A 
ATOM     84  F   UNL A   1      37.582  30.275  31.997  1.00  0.00    -0.206 F 
ATOM     85  C   UNL A   1      36.238  31.212  30.317  1.00  0.00     0.059 A 
ATOM     86  C   UNL A   1      36.819  30.904  27.995  1.00  0.00     0.059 A 
ATOM     87  F   UNL A   1      38.729  29.716  27.405  1.00  0.00    -0.206 F 
ATOM     88  C   UNL A   1      35.991  31.454  28.966  1.00  0.00     0.060 A 
BRANCH  88  89
ATOM     89  S   UNL A   1      34.639  32.559  28.483  1.00  0.00     0.124 S 
ATOM     90  O   UNL A   1      34.144  33.015  29.778  1.00  0.00    -0.237 OA
ATOM     91  O   UNL A   1      35.329  33.559  27.676  1.00  0.00    -0.237 OA
ATOM     92  O   UNL A   1      33.733  31.684  27.744  1.00  0.00    -0.744 OA
ENDBRANCH  88  89
ENDBRANCH  56  81
BRANCH  68  93
ATOM     93  C   UNL A   1      43.371  28.476  33.237  1.00  0.00     0.058 A 
ATOM     94  C   UNL A   1      43.302  27.082  33.059  1.00  0.00     0.135 A 
ATOM     95  C   UNL A   1      43.331  28.954  34.556  1.00  0.00     0.135 A 
ATOM     96  F   UNL A   1      43.417  26.538  31.839  1.00  0.00    -0.206 F 
ATOM     97  C   UNL A   1      43.171  26.209  34.144  1.00  0.00     0.059 A 
ATOM     98  C   UNL A   1      43.235  28.104  35.651  1.00  0.00     0.059 A 
ATOM     99  F   UNL A   1      43.446  30.271  34.794  1.00  0.00    -0.206 F 
ATOM    100  C   UNL A   1      43.144  26.731  35.439  1.00  0.00     0.060 A 
BRANCH 100 101
ATOM    101  S   UNL A   1      43.054  25.607  36.852  1.00  0.00     0.124 S 
ATOM    102  O   UNL A   1      41.631  25.633  37.176  1.00  0.00    -0.237 OA
ATOM    103  O   UNL A   1      43.555  24.355  36.292  1.00  0.00    -0.237 OA
ATOM    104  O   UNL A   1      43.929  26.232  37.841  1.00  0.00    -0.744 OA
ENDBRANCH 100 101
ENDBRANCH  68  93
ENDBRANCH  42  43
ENDBRANCH  35  37
ENDBRANCH  34  35
ENDBRANCH  33  34
ENDBRANCH  32  33
ENDBRANCH  31  32
ENDBRANCH   1  31
TORSDOF 22
ENDMDL
