MODEL 1
REMARK VINA RESULT:     -10.7      0.000      0.000
REMARK SMILES C[C@H](NC(=O)c1ccc(NC(N)=O)cc1)C(=O)OCCOCCOC(=O)c1ccc(-c2c3nc(c(-c4c(F)cc(S(=O)(=O)[O-])cc4F)c4ccc([nH]4)c(-c4c(F)cc(S(=O)(=O)[O-])cc4F)c4nc(c(-c5c(F)cc(S(=O)(=O)[O-])cc5F)c5ccc2[nH]5)C=C4)C=C3)cc1
REMARK SMILES IDX 21 1 20 2 19 3 18 4 16 5 17 6 2 7 1 8 3 9 4 10 5 12 6 13
REMARK SMILES IDX 7 14 15 15 8 16 14 17 9 18 10 19 11 20 12 22 13 23 22 26
REMARK SMILES IDX 23 27 24 28 25 29 26 30 27 31 28 32 92 33 29 34 91 35 30 36
REMARK SMILES IDX 31 37 32 38 85 39 33 40 90 41 84 42 86 43 34 44 89 45 83 46
REMARK SMILES IDX 82 47 35 49 69 50 48 51 68 52 49 53 52 54 67 55 87 56 50 57
REMARK SMILES IDX 51 58 66 60 88 61 53 62 36 63 37 64 46 65 38 66 39 67 45 68
REMARK SMILES IDX 47 69 40 70 41 71 42 72 43 73 44 74 70 75 71 76 80 77 72 78
REMARK SMILES IDX 73 79 79 80 81 81 74 82 75 83 76 84 77 85 78 86 54 87 55 88
REMARK SMILES IDX 64 89 56 90 57 91 63 92 65 93 58 94 59 95 60 96 61 97 62 98
REMARK H PARENT 3 11 10 21 12 24 12 25 86 48 52 59
REMARK Flexibility Score: inf
ROOT
ATOM      1  O   UNL A   1      40.820  22.523  26.191  1.00  0.00    -0.374 OA
ENDROOT
BRANCH   1   2
ATOM      2  C   UNL A   1      39.495  22.207  26.604  1.00  0.00     0.202 C 
BRANCH   2   3
ATOM      3  C   UNL A   1      38.469  21.907  25.505  1.00  0.00     0.261 C 
BRANCH   3   4
ATOM      4  O   UNL A   1      37.114  21.927  25.977  1.00  0.00    -0.462 OA
BRANCH   4   5
ATOM      5  C   UNL A   1      36.332  20.917  25.503  1.00  0.00     0.328 C 
ATOM      6  O   UNL A   1      36.734  19.957  24.852  1.00  0.00    -0.250 OA
BRANCH   5   7
ATOM      7  C   UNL A   1      34.844  21.138  25.785  1.00  0.00     0.189 C 
ATOM      8  C   UNL A   1      34.735  21.942  27.075  1.00  0.00     0.043 C 
BRANCH   7   9
ATOM      9  N   UNL A   1      34.005  19.929  25.845  1.00  0.00    -0.339 N 
ATOM     10  C   UNL A   1      32.763  19.744  25.274  1.00  0.00     0.251 C 
ATOM     11  H   UNL A   1      34.371  19.169  26.351  1.00  0.00     0.164 HD
ATOM     12  O   UNL A   1      32.133  18.704  25.411  1.00  0.00    -0.269 OA
BRANCH  10  13
ATOM     13  C   UNL A   1      32.187  20.865  24.502  1.00  0.00     0.039 A 
ATOM     14  C   UNL A   1      31.591  21.922  25.189  1.00  0.00     0.016 A 
ATOM     15  C   UNL A   1      32.394  20.942  23.123  1.00  0.00     0.016 A 
ATOM     16  C   UNL A   1      31.331  23.120  24.517  1.00  0.00     0.027 A 
ATOM     17  C   UNL A   1      32.141  22.144  22.462  1.00  0.00     0.027 A 
ATOM     18  C   UNL A   1      31.657  23.257  23.163  1.00  0.00     0.042 A 
BRANCH  18  19
ATOM     19  N   UNL A   1      31.602  24.478  22.464  1.00  0.00    -0.308 N 
ATOM     20  C   UNL A   1      32.647  25.195  21.944  1.00  0.00     0.316 C 
ATOM     21  H   UNL A   1      30.704  24.863  22.332  1.00  0.00     0.171 HD
ATOM     22  N   UNL A   1      32.226  26.237  21.176  1.00  0.00    -0.351 N 
ATOM     23  O   UNL A   1      33.844  25.000  22.090  1.00  0.00    -0.249 OA
ATOM     24  H   UNL A   1      31.263  26.401  21.053  1.00  0.00     0.161 HD
ATOM     25  H   UNL A   1      32.884  26.826  20.743  1.00  0.00     0.161 HD
ENDBRANCH  18  19
ENDBRANCH  10  13
ENDBRANCH   7   9
ENDBRANCH   5   7
ENDBRANCH   4   5
ENDBRANCH   3   4
ENDBRANCH   2   3
ENDBRANCH   1   2
BRANCH   1  26
ATOM     26  C   UNL A   1      41.906  21.972  26.939  1.00  0.00     0.202 C 
BRANCH  26  27
ATOM     27  C   UNL A   1      43.316  22.518  26.669  1.00  0.00     0.261 C 
BRANCH  27  28
ATOM     28  O   UNL A   1      43.547  23.800  27.284  1.00  0.00    -0.460 OA
BRANCH  28  29
ATOM     29  C   UNL A   1      43.093  24.858  26.565  1.00  0.00     0.338 C 
ATOM     30  O   UNL A   1      43.046  24.953  25.346  1.00  0.00    -0.246 OA
BRANCH  29  31
ATOM     31  C   UNL A   1      42.462  25.854  27.448  1.00  0.00     0.060 A 
ATOM     32  C   UNL A   1      43.067  27.114  27.540  1.00  0.00     0.016 A 
ATOM     33  C   UNL A   1      41.381  25.526  28.265  1.00  0.00     0.016 A 
ATOM     34  C   UNL A   1      42.622  28.035  28.485  1.00  0.00     0.010 A 
ATOM     35  C   UNL A   1      40.939  26.450  29.222  1.00  0.00     0.010 A 
ATOM     36  C   UNL A   1      41.582  27.694  29.361  1.00  0.00    -0.014 A 
BRANCH  36  37
ATOM     37  C   UNL A   1      41.282  28.591  30.505  1.00  0.00     0.031 A 
ATOM     38  C   UNL A   1      42.122  28.500  31.752  1.00  0.00     0.074 A 
ATOM     39  C   UNL A   1      40.314  29.521  30.409  1.00  0.00     0.049 A 
ATOM     40  N   UNL A   1      42.052  29.207  32.851  1.00  0.00    -0.248 NA
ATOM     41  C   UNL A   1      43.183  27.482  31.758  1.00  0.00     0.031 C 
ATOM     42  C   UNL A   1      39.452  29.725  29.246  1.00  0.00     0.029 A 
ATOM     43  N   UNL A   1      39.895  30.470  31.309  1.00  0.00    -0.354 N 
ATOM     44  C   UNL A   1      43.066  28.729  33.674  1.00  0.00     0.074 A 
ATOM     45  C   UNL A   1      43.709  27.644  32.964  1.00  0.00     0.031 C 
ATOM     46  C   UNL A   1      38.599  30.731  29.505  1.00  0.00     0.029 A 
ATOM     47  C   UNL A   1      38.841  31.229  30.858  1.00  0.00     0.049 A 
ATOM     48  H   UNL A   1      40.309  30.594  32.192  1.00  0.00     0.167 HD
ATOM     49  C   UNL A   1      43.439  29.164  34.901  1.00  0.00     0.037 A 
ATOM     50  C   UNL A   1      38.144  32.205  31.473  1.00  0.00     0.037 A 
ATOM     51  C   UNL A   1      42.791  30.235  35.612  1.00  0.00     0.049 A 
ATOM     52  C   UNL A   1      38.541  32.634  32.862  1.00  0.00     0.074 A 
ATOM     53  C   UNL A   1      43.086  30.741  36.867  1.00  0.00     0.029 A 
ATOM     54  N   UNL A   1      41.715  30.967  35.132  1.00  0.00    -0.354 N 
ATOM     55  N   UNL A   1      39.512  32.181  33.620  1.00  0.00    -0.248 NA
ATOM     56  C   UNL A   1      37.755  33.714  33.474  1.00  0.00     0.031 C 
ATOM     57  C   UNL A   1      42.167  31.755  37.158  1.00  0.00     0.029 A 
ATOM     58  C   UNL A   1      41.327  31.911  36.068  1.00  0.00     0.049 A 
ATOM     59  H   UNL A   1      41.290  30.834  34.253  1.00  0.00     0.167 HD
ATOM     60  C   UNL A   1      39.468  32.937  34.787  1.00  0.00     0.074 A 
ATOM     61  C   UNL A   1      38.385  33.886  34.628  1.00  0.00     0.031 C 
ATOM     62  C   UNL A   1      40.250  32.854  35.892  1.00  0.00     0.037 A 
BRANCH  49  63
ATOM     63  C   UNL A   1      44.602  28.473  35.557  1.00  0.00     0.058 A 
ATOM     64  C   UNL A   1      44.415  27.364  36.399  1.00  0.00     0.135 A 
ATOM     65  C   UNL A   1      45.918  28.898  35.318  1.00  0.00     0.135 A 
ATOM     66  F   UNL A   1      43.175  26.927  36.675  1.00  0.00    -0.206 F 
ATOM     67  C   UNL A   1      45.490  26.715  36.998  1.00  0.00     0.059 A 
ATOM     68  C   UNL A   1      47.011  28.249  35.888  1.00  0.00     0.059 A 
ATOM     69  F   UNL A   1      46.153  29.954  34.524  1.00  0.00    -0.206 F 
ATOM     70  C   UNL A   1      46.785  27.166  36.737  1.00  0.00     0.060 A 
BRANCH  70  71
ATOM     71  S   UNL A   1      48.171  26.309  37.515  1.00  0.00     0.124 S 
ATOM     72  O   UNL A   1      47.676  24.936  37.557  1.00  0.00    -0.237 OA
ATOM     73  O   UNL A   1      49.261  26.561  36.577  1.00  0.00    -0.237 OA
ATOM     74  O   UNL A   1      48.297  26.970  38.810  1.00  0.00    -0.744 OA
ENDBRANCH  70  71
ENDBRANCH  49  63
BRANCH  50  75
ATOM     75  C   UNL A   1      36.987  32.839  30.786  1.00  0.00     0.058 A 
ATOM     76  C   UNL A   1      37.172  33.789  29.771  1.00  0.00     0.135 A 
ATOM     77  C   UNL A   1      35.671  32.516  31.148  1.00  0.00     0.135 A 
ATOM     78  F   UNL A   1      38.411  34.138  29.395  1.00  0.00    -0.206 F 
ATOM     79  C   UNL A   1      36.092  34.414  29.154  1.00  0.00     0.059 A 
ATOM     80  C   UNL A   1      34.575  33.108  30.529  1.00  0.00     0.059 A 
ATOM     81  F   UNL A   1      35.440  31.604  32.105  1.00  0.00    -0.206 F 
ATOM     82  C   UNL A   1      34.796  34.068  29.542  1.00  0.00     0.060 A 
BRANCH  82  83
ATOM     83  S   UNL A   1      33.399  34.856  28.713  1.00  0.00     0.124 S 
ATOM     84  O   UNL A   1      33.086  33.880  27.675  1.00  0.00    -0.237 OA
ATOM     85  O   UNL A   1      32.425  34.973  29.794  1.00  0.00    -0.237 OA
ATOM     86  O   UNL A   1      33.958  36.120  28.246  1.00  0.00    -0.744 OA
ENDBRANCH  82  83
ENDBRANCH  50  75
BRANCH  62  87
ATOM     87  C   UNL A   1      39.986  33.834  37.001  1.00  0.00     0.058 A 
ATOM     88  C   UNL A   1      40.600  35.097  37.032  1.00  0.00     0.135 A 
ATOM     89  C   UNL A   1      39.085  33.518  38.031  1.00  0.00     0.135 A 
ATOM     90  F   UNL A   1      41.472  35.446  36.073  1.00  0.00    -0.206 F 
ATOM     91  C   UNL A   1      40.354  35.998  38.062  1.00  0.00     0.059 A 
ATOM     92  C   UNL A   1      38.806  34.415  39.057  1.00  0.00     0.059 A 
ATOM     93  F   UNL A   1      38.462  32.329  38.043  1.00  0.00    -0.206 F 
ATOM     94  C   UNL A   1      39.458  35.647  39.074  1.00  0.00     0.060 A 
BRANCH  94  95
ATOM     95  S   UNL A   1      39.138  36.829  40.401  1.00  0.00     0.124 S 
ATOM     96  O   UNL A   1      38.442  37.893  39.685  1.00  0.00    -0.237 OA
ATOM     97  O   UNL A   1      38.321  36.048  41.326  1.00  0.00    -0.237 OA
ATOM     98  O   UNL A   1      40.473  37.165  40.885  1.00  0.00    -0.744 OA
ENDBRANCH  94  95
ENDBRANCH  62  87
ENDBRANCH  36  37
ENDBRANCH  29  31
ENDBRANCH  28  29
ENDBRANCH  27  28
ENDBRANCH  26  27
ENDBRANCH   1  26
TORSDOF 20
ENDMDL
MODEL 2
REMARK VINA RESULT:     -10.7      1.683      2.399
REMARK SMILES C[C@H](NC(=O)c1ccc(NC(N)=O)cc1)C(=O)OCCOCCOC(=O)c1ccc(-c2c3nc(c(-c4c(F)cc(S(=O)(=O)[O-])cc4F)c4ccc([nH]4)c(-c4c(F)cc(S(=O)(=O)[O-])cc4F)c4nc(c(-c5c(F)cc(S(=O)(=O)[O-])cc5F)c5ccc2[nH]5)C=C4)C=C3)cc1
REMARK SMILES IDX 21 1 20 2 19 3 18 4 16 5 17 6 2 7 1 8 3 9 4 10 5 12 6 13
REMARK SMILES IDX 7 14 15 15 8 16 14 17 9 18 10 19 11 20 12 22 13 23 22 26
REMARK SMILES IDX 23 27 24 28 25 29 26 30 27 31 28 32 92 33 29 34 91 35 30 36
REMARK SMILES IDX 31 37 32 38 85 39 33 40 90 41 84 42 86 43 34 44 89 45 83 46
REMARK SMILES IDX 82 47 35 49 69 50 48 51 68 52 49 53 52 54 67 55 87 56 50 57
REMARK SMILES IDX 51 58 66 60 88 61 53 62 36 63 37 64 46 65 38 66 39 67 45 68
REMARK SMILES IDX 47 69 40 70 41 71 42 72 43 73 44 74 70 75 71 76 80 77 72 78
REMARK SMILES IDX 73 79 79 80 81 81 74 82 75 83 76 84 77 85 78 86 54 87 55 88
REMARK SMILES IDX 64 89 56 90 57 91 63 92 65 93 58 94 59 95 60 96 61 97 62 98
REMARK H PARENT 3 11 10 21 12 24 12 25 86 48 52 59
REMARK Flexibility Score: inf
ROOT
ATOM      1  O   UNL A   1      38.378  21.330  25.465  1.00  0.00    -0.374 OA
ENDROOT
BRANCH   1   2
ATOM      2  C   UNL A   1      37.156  21.581  24.779  1.00  0.00     0.202 C 
BRANCH   2   3
ATOM      3  C   UNL A   1      35.996  20.613  25.032  1.00  0.00     0.261 C 
BRANCH   3   4
ATOM      4  O   UNL A   1      34.996  21.147  25.911  1.00  0.00    -0.462 OA
BRANCH   4   5
ATOM      5  C   UNL A   1      33.847  21.541  25.293  1.00  0.00     0.328 C 
ATOM      6  O   UNL A   1      33.206  20.866  24.494  1.00  0.00    -0.250 OA
BRANCH   5   7
ATOM      7  C   UNL A   1      33.461  22.985  25.624  1.00  0.00     0.189 C 
ATOM      8  C   UNL A   1      34.609  23.596  26.420  1.00  0.00     0.043 C 
BRANCH   7   9
ATOM      9  N   UNL A   1      32.178  23.175  26.320  1.00  0.00    -0.339 N 
ATOM     10  C   UNL A   1      31.251  24.175  26.109  1.00  0.00     0.251 C 
ATOM     11  H   UNL A   1      31.957  22.514  27.015  1.00  0.00     0.164 HD
ATOM     12  O   UNL A   1      30.224  24.258  26.767  1.00  0.00    -0.269 OA
BRANCH  10  13
ATOM     13  C   UNL A   1      31.550  25.180  25.067  1.00  0.00     0.039 A 
ATOM     14  C   UNL A   1      31.147  24.932  23.755  1.00  0.00     0.016 A 
ATOM     15  C   UNL A   1      32.069  26.425  25.428  1.00  0.00     0.016 A 
ATOM     16  C   UNL A   1      31.131  25.982  22.831  1.00  0.00     0.027 A 
ATOM     17  C   UNL A   1      32.040  27.469  24.503  1.00  0.00     0.027 A 
ATOM     18  C   UNL A   1      31.523  27.269  23.215  1.00  0.00     0.042 A 
BRANCH  18  19
ATOM     19  N   UNL A   1      31.361  28.411  22.408  1.00  0.00    -0.308 N 
ATOM     20  C   UNL A   1      30.217  29.134  22.197  1.00  0.00     0.316 C 
ATOM     21  H   UNL A   1      32.167  28.729  21.939  1.00  0.00     0.171 HD
ATOM     22  N   UNL A   1      30.452  30.281  21.503  1.00  0.00    -0.351 N 
ATOM     23  O   UNL A   1      29.078  28.869  22.553  1.00  0.00    -0.249 OA
ATOM     24  H   UNL A   1      31.367  30.502  21.212  1.00  0.00     0.161 HD
ATOM     25  H   UNL A   1      29.708  30.889  21.291  1.00  0.00     0.161 HD
ENDBRANCH  18  19
ENDBRANCH  10  13
ENDBRANCH   7   9
ENDBRANCH   5   7
ENDBRANCH   4   5
ENDBRANCH   3   4
ENDBRANCH   2   3
ENDBRANCH   1   2
BRANCH   1  26
ATOM     26  C   UNL A   1      38.977  22.408  26.187  1.00  0.00     0.202 C 
BRANCH  26  27
ATOM     27  C   UNL A   1      40.440  22.255  26.628  1.00  0.00     0.261 C 
BRANCH  27  28
ATOM     28  O   UNL A   1      40.834  23.231  27.611  1.00  0.00    -0.460 OA
BRANCH  28  29
ATOM     29  C   UNL A   1      41.358  24.371  27.094  1.00  0.00     0.338 C 
ATOM     30  O   UNL A   1      41.954  24.490  26.031  1.00  0.00    -0.246 OA
BRANCH  29  31
ATOM     31  C   UNL A   1      40.956  25.540  27.895  1.00  0.00     0.060 A 
ATOM     32  C   UNL A   1      41.894  26.565  28.061  1.00  0.00     0.016 A 
ATOM     33  C   UNL A   1      39.738  25.576  28.574  1.00  0.00     0.016 A 
ATOM     34  C   UNL A   1      41.638  27.609  28.947  1.00  0.00     0.010 A 
ATOM     35  C   UNL A   1      39.485  26.622  29.472  1.00  0.00     0.010 A 
ATOM     36  C   UNL A   1      40.449  27.623  29.690  1.00  0.00    -0.014 A 
BRANCH  36  37
ATOM     37  C   UNL A   1      40.299  28.608  30.790  1.00  0.00     0.031 A 
ATOM     38  C   UNL A   1      41.183  28.494  32.005  1.00  0.00     0.074 A 
ATOM     39  C   UNL A   1      39.432  29.631  30.679  1.00  0.00     0.049 A 
ATOM     40  N   UNL A   1      41.240  29.263  33.063  1.00  0.00    -0.248 NA
ATOM     41  C   UNL A   1      42.129  27.368  32.027  1.00  0.00     0.031 C 
ATOM     42  C   UNL A   1      38.542  29.863  29.542  1.00  0.00     0.029 A 
ATOM     43  N   UNL A   1      39.158  30.667  31.538  1.00  0.00    -0.354 N 
ATOM     44  C   UNL A   1      42.235  28.723  33.870  1.00  0.00     0.074 A 
ATOM     45  C   UNL A   1      42.726  27.537  33.199  1.00  0.00     0.031 C 
ATOM     46  C   UNL A   1      37.815  30.969  29.777  1.00  0.00     0.029 A 
ATOM     47  C   UNL A   1      38.171  31.510  31.087  1.00  0.00     0.049 A 
ATOM     48  H   UNL A   1      39.624  30.792  32.394  1.00  0.00     0.167 HD
ATOM     49  C   UNL A   1      42.709  29.181  35.053  1.00  0.00     0.037 A 
ATOM     50  C   UNL A   1      37.610  32.587  31.671  1.00  0.00     0.037 A 
ATOM     51  C   UNL A   1      42.213  30.353  35.726  1.00  0.00     0.049 A 
ATOM     52  C   UNL A   1      38.116  33.046  33.015  1.00  0.00     0.074 A 
ATOM     53  C   UNL A   1      42.618  30.891  36.935  1.00  0.00     0.029 A 
ATOM     54  N   UNL A   1      41.198  31.169  35.247  1.00  0.00    -0.354 N 
ATOM     55  N   UNL A   1      39.068  32.532  33.758  1.00  0.00    -0.248 NA
ATOM     56  C   UNL A   1      37.478  34.236  33.594  1.00  0.00     0.031 C 
ATOM     57  C   UNL A   1      41.826  32.013  37.204  1.00  0.00     0.029 A 
ATOM     58  C   UNL A   1      40.958  32.200  36.141  1.00  0.00     0.049 A 
ATOM     59  H   UNL A   1      40.721  31.036  34.396  1.00  0.00     0.167 HD
ATOM     60  C   UNL A   1      39.159  33.350  34.880  1.00  0.00     0.074 A 
ATOM     61  C   UNL A   1      38.177  34.401  34.709  1.00  0.00     0.031 C 
ATOM     62  C   UNL A   1      39.979  33.242  35.954  1.00  0.00     0.037 A 
BRANCH  49  63
ATOM     63  C   UNL A   1      43.822  28.404  35.701  1.00  0.00     0.058 A 
ATOM     64  C   UNL A   1      43.559  27.392  36.638  1.00  0.00     0.135 A 
ATOM     65  C   UNL A   1      45.162  28.648  35.358  1.00  0.00     0.135 A 
ATOM     66  F   UNL A   1      42.297  27.130  37.015  1.00  0.00    -0.206 F 
ATOM     67  C   UNL A   1      44.586  26.663  37.230  1.00  0.00     0.059 A 
ATOM     68  C   UNL A   1      46.204  27.914  35.920  1.00  0.00     0.059 A 
ATOM     69  F   UNL A   1      45.468  29.605  34.470  1.00  0.00    -0.206 F 
ATOM     70  C   UNL A   1      45.906  26.933  36.865  1.00  0.00     0.060 A 
BRANCH  70  71
ATOM     71  S   UNL A   1      47.228  25.974  37.636  1.00  0.00     0.124 S 
ATOM     72  O   UNL A   1      46.571  24.687  37.840  1.00  0.00    -0.237 OA
ATOM     73  O   UNL A   1      48.269  25.998  36.613  1.00  0.00    -0.237 OA
ATOM     74  O   UNL A   1      47.529  26.724  38.851  1.00  0.00    -0.744 OA
ENDBRANCH  70  71
ENDBRANCH  49  63
BRANCH  50  75
ATOM     75  C   UNL A   1      36.496  33.305  30.996  1.00  0.00     0.058 A 
ATOM     76  C   UNL A   1      35.174  33.194  31.452  1.00  0.00     0.135 A 
ATOM     77  C   UNL A   1      36.735  34.102  29.866  1.00  0.00     0.135 A 
ATOM     78  F   UNL A   1      34.895  32.437  32.522  1.00  0.00    -0.206 F 
ATOM     79  C   UNL A   1      34.124  33.832  30.798  1.00  0.00     0.059 A 
ATOM     80  C   UNL A   1      35.705  34.769  29.210  1.00  0.00     0.059 A 
ATOM     81  F   UNL A   1      37.984  34.249  29.398  1.00  0.00    -0.206 F 
ATOM     82  C   UNL A   1      34.400  34.616  29.676  1.00  0.00     0.060 A 
BRANCH  82  83
ATOM     83  S   UNL A   1      33.038  35.470  28.853  1.00  0.00     0.124 S 
ATOM     84  O   UNL A   1      33.751  36.478  28.077  1.00  0.00    -0.237 OA
ATOM     85  O   UNL A   1      32.418  34.393  28.087  1.00  0.00    -0.237 OA
ATOM     86  O   UNL A   1      32.240  35.975  29.965  1.00  0.00    -0.744 OA
ENDBRANCH  82  83
ENDBRANCH  50  75
BRANCH  62  87
ATOM     87  C   UNL A   1      39.873  34.305  37.013  1.00  0.00     0.058 A 
ATOM     88  C   UNL A   1      40.556  35.526  36.905  1.00  0.00     0.135 A 
ATOM     89  C   UNL A   1      39.053  34.109  38.138  1.00  0.00     0.135 A 
ATOM     90  F   UNL A   1      41.355  35.761  35.853  1.00  0.00    -0.206 F 
ATOM     91  C   UNL A   1      40.457  36.504  37.890  1.00  0.00     0.059 A 
ATOM     92  C   UNL A   1      38.920  35.084  39.122  1.00  0.00     0.059 A 
ATOM     93  F   UNL A   1      38.368  32.964  38.284  1.00  0.00    -0.206 F 
ATOM     94  C   UNL A   1      39.638  36.272  38.998  1.00  0.00     0.060 A 
BRANCH  94  95
ATOM     95  S   UNL A   1      39.508  37.551  40.265  1.00  0.00     0.124 S 
ATOM     96  O   UNL A   1      40.891  38.000  40.372  1.00  0.00    -0.237 OA
ATOM     97  O   UNL A   1      38.578  38.501  39.658  1.00  0.00    -0.237 OA
ATOM     98  O   UNL A   1      38.989  36.830  41.422  1.00  0.00    -0.744 OA
ENDBRANCH  94  95
ENDBRANCH  62  87
ENDBRANCH  36  37
ENDBRANCH  29  31
ENDBRANCH  28  29
ENDBRANCH  27  28
ENDBRANCH  26  27
ENDBRANCH   1  26
TORSDOF 20
ENDMDL
MODEL 3
REMARK VINA RESULT:     -10.7      6.442     12.118
REMARK SMILES C[C@H](NC(=O)c1ccc(NC(N)=O)cc1)C(=O)OCCOCCOC(=O)c1ccc(-c2c3nc(c(-c4c(F)cc(S(=O)(=O)[O-])cc4F)c4ccc([nH]4)c(-c4c(F)cc(S(=O)(=O)[O-])cc4F)c4nc(c(-c5c(F)cc(S(=O)(=O)[O-])cc5F)c5ccc2[nH]5)C=C4)C=C3)cc1
REMARK SMILES IDX 21 1 20 2 19 3 18 4 16 5 17 6 2 7 1 8 3 9 4 10 5 12 6 13
REMARK SMILES IDX 7 14 15 15 8 16 14 17 9 18 10 19 11 20 12 22 13 23 22 26
REMARK SMILES IDX 23 27 24 28 25 29 26 30 27 31 28 32 92 33 29 34 91 35 30 36
REMARK SMILES IDX 31 37 32 38 85 39 33 40 90 41 84 42 86 43 34 44 89 45 83 46
REMARK SMILES IDX 82 47 35 49 69 50 48 51 68 52 49 53 52 54 67 55 87 56 50 57
REMARK SMILES IDX 51 58 66 60 88 61 53 62 36 63 37 64 46 65 38 66 39 67 45 68
REMARK SMILES IDX 47 69 40 70 41 71 42 72 43 73 44 74 70 75 71 76 80 77 72 78
REMARK SMILES IDX 73 79 79 80 81 81 74 82 75 83 76 84 77 85 78 86 54 87 55 88
REMARK SMILES IDX 64 89 56 90 57 91 63 92 65 93 58 94 59 95 60 96 61 97 62 98
REMARK H PARENT 3 11 10 21 12 24 12 25 86 48 52 59
REMARK Flexibility Score: inf
ROOT
ATOM      1  O   UNL A   1      32.754  30.055  27.230  1.00  0.00    -0.374 OA
ENDROOT
BRANCH   1   2
ATOM      2  C   UNL A   1      31.906  30.253  26.104  1.00  0.00     0.202 C 
BRANCH   2   3
ATOM      3  C   UNL A   1      32.150  29.370  24.876  1.00  0.00     0.261 C 
BRANCH   3   4
ATOM      4  O   UNL A   1      32.656  28.069  25.208  1.00  0.00    -0.462 OA
BRANCH   4   5
ATOM      5  C   UNL A   1      31.952  27.032  24.675  1.00  0.00     0.328 C 
ATOM      6  O   UNL A   1      30.768  27.071  24.355  1.00  0.00    -0.250 OA
BRANCH   5   7
ATOM      7  C   UNL A   1      32.771  25.741  24.590  1.00  0.00     0.189 C 
ATOM      8  C   UNL A   1      34.035  25.944  25.417  1.00  0.00     0.043 C 
BRANCH   7   9
ATOM      9  N   UNL A   1      33.098  25.262  23.237  1.00  0.00    -0.339 N 
ATOM     10  C   UNL A   1      33.360  23.965  22.849  1.00  0.00     0.251 C 
ATOM     11  H   UNL A   1      33.133  25.945  22.530  1.00  0.00     0.164 HD
ATOM     12  O   UNL A   1      33.653  23.677  21.697  1.00  0.00    -0.269 OA
BRANCH  10  13
ATOM     13  C   UNL A   1      33.308  22.913  23.887  1.00  0.00     0.039 A 
ATOM     14  C   UNL A   1      32.076  22.349  24.215  1.00  0.00     0.016 A 
ATOM     15  C   UNL A   1      34.493  22.379  24.398  1.00  0.00     0.016 A 
ATOM     16  C   UNL A   1      32.038  21.156  24.944  1.00  0.00     0.027 A 
ATOM     17  C   UNL A   1      34.447  21.183  25.116  1.00  0.00     0.027 A 
ATOM     18  C   UNL A   1      33.225  20.537  25.350  1.00  0.00     0.042 A 
BRANCH  18  19
ATOM     19  N   UNL A   1      33.282  19.250  25.919  1.00  0.00    -0.308 N 
ATOM     20  C   UNL A   1      32.806  18.079  25.395  1.00  0.00     0.316 C 
ATOM     21  H   UNL A   1      33.718  19.185  26.801  1.00  0.00     0.171 HD
ATOM     22  N   UNL A   1      33.186  16.994  26.126  1.00  0.00    -0.351 N 
ATOM     23  O   UNL A   1      32.120  17.921  24.396  1.00  0.00    -0.249 OA
ATOM     24  H   UNL A   1      33.738  17.113  26.931  1.00  0.00     0.161 HD
ATOM     25  H   UNL A   1      32.908  16.092  25.847  1.00  0.00     0.161 HD
ENDBRANCH  18  19
ENDBRANCH  10  13
ENDBRANCH   7   9
ENDBRANCH   5   7
ENDBRANCH   4   5
ENDBRANCH   3   4
ENDBRANCH   2   3
ENDBRANCH   1   2
BRANCH   1  26
ATOM     26  C   UNL A   1      34.035  30.689  27.226  1.00  0.00     0.202 C 
BRANCH  26  27
ATOM     27  C   UNL A   1      34.515  31.351  28.527  1.00  0.00     0.261 C 
BRANCH  27  28
ATOM     28  O   UNL A   1      35.923  31.654  28.514  1.00  0.00    -0.460 OA
BRANCH  28  29
ATOM     29  C   UNL A   1      36.589  31.281  29.637  1.00  0.00     0.338 C 
ATOM     30  O   UNL A   1      36.224  31.438  30.795  1.00  0.00    -0.246 OA
BRANCH  29  31
ATOM     31  C   UNL A   1      37.767  30.465  29.297  1.00  0.00     0.060 A 
ATOM     32  C   UNL A   1      38.773  30.346  30.263  1.00  0.00     0.016 A 
ATOM     33  C   UNL A   1      37.945  29.935  28.019  1.00  0.00     0.016 A 
ATOM     34  C   UNL A   1      39.984  29.736  29.940  1.00  0.00     0.010 A 
ATOM     35  C   UNL A   1      39.166  29.330  27.691  1.00  0.00     0.010 A 
ATOM     36  C   UNL A   1      40.204  29.262  28.638  1.00  0.00    -0.014 A 
BRANCH  36  37
ATOM     37  C   UNL A   1      41.571  28.832  28.252  1.00  0.00     0.031 A 
ATOM     38  C   UNL A   1      42.679  29.851  28.213  1.00  0.00     0.074 A 
ATOM     39  C   UNL A   1      41.836  27.536  28.001  1.00  0.00     0.049 A 
ATOM     40  N   UNL A   1      43.947  29.686  27.933  1.00  0.00    -0.248 NA
ATOM     41  C   UNL A   1      42.310  31.238  28.537  1.00  0.00     0.031 C 
ATOM     42  C   UNL A   1      40.854  26.453  28.033  1.00  0.00     0.029 A 
ATOM     43  N   UNL A   1      43.014  26.913  27.671  1.00  0.00    -0.354 N 
ATOM     44  C   UNL A   1      44.529  30.943  28.059  1.00  0.00     0.074 A 
ATOM     45  C   UNL A   1      43.469  31.867  28.400  1.00  0.00     0.031 C 
ATOM     46  C   UNL A   1      41.469  25.298  27.727  1.00  0.00     0.029 A 
ATOM     47  C   UNL A   1      42.881  25.562  27.457  1.00  0.00     0.049 A 
ATOM     48  H   UNL A   1      43.871  27.389  27.595  1.00  0.00     0.167 HD
ATOM     49  C   UNL A   1      45.831  31.292  27.921  1.00  0.00     0.037 A 
ATOM     50  C   UNL A   1      43.793  24.646  27.075  1.00  0.00     0.037 A 
ATOM     51  C   UNL A   1      46.883  30.374  27.571  1.00  0.00     0.049 A 
ATOM     52  C   UNL A   1      45.225  25.069  26.872  1.00  0.00     0.074 A 
ATOM     53  C   UNL A   1      48.232  30.634  27.393  1.00  0.00     0.029 A 
ATOM     54  N   UNL A   1      46.707  29.018  27.342  1.00  0.00    -0.354 N 
ATOM     55  N   UNL A   1      45.762  26.259  27.010  1.00  0.00    -0.248 NA
ATOM     56  C   UNL A   1      46.177  24.024  26.472  1.00  0.00     0.031 C 
ATOM     57  C   UNL A   1      48.864  29.442  27.025  1.00  0.00     0.029 A 
ATOM     58  C   UNL A   1      47.917  28.430  27.015  1.00  0.00     0.049 A 
ATOM     59  H   UNL A   1      45.846  28.542  27.404  1.00  0.00     0.167 HD
ATOM     60  C   UNL A   1      47.117  26.100  26.737  1.00  0.00     0.074 A 
ATOM     61  C   UNL A   1      47.319  24.696  26.442  1.00  0.00     0.031 C 
ATOM     62  C   UNL A   1      48.104  27.029  26.730  1.00  0.00     0.037 A 
BRANCH  49  63
ATOM     63  C   UNL A   1      46.188  32.735  28.145  1.00  0.00     0.058 A 
ATOM     64  C   UNL A   1      46.626  33.196  29.397  1.00  0.00     0.135 A 
ATOM     65  C   UNL A   1      46.125  33.662  27.092  1.00  0.00     0.135 A 
ATOM     66  F   UNL A   1      46.687  32.356  30.443  1.00  0.00    -0.206 F 
ATOM     67  C   UNL A   1      46.969  34.529  29.603  1.00  0.00     0.059 A 
ATOM     68  C   UNL A   1      46.486  34.995  27.269  1.00  0.00     0.059 A 
ATOM     69  F   UNL A   1      45.711  33.275  25.876  1.00  0.00    -0.206 F 
ATOM     70  C   UNL A   1      46.894  35.422  28.533  1.00  0.00     0.060 A 
BRANCH  70  71
ATOM     71  S   UNL A   1      47.349  37.146  28.814  1.00  0.00     0.124 S 
ATOM     72  O   UNL A   1      48.715  37.173  28.299  1.00  0.00    -0.237 OA
ATOM     73  O   UNL A   1      46.358  37.865  28.018  1.00  0.00    -0.237 OA
ATOM     74  O   UNL A   1      47.220  37.301  30.259  1.00  0.00    -0.744 OA
ENDBRANCH  70  71
ENDBRANCH  49  63
BRANCH  50  75
ATOM     75  C   UNL A   1      43.380  23.236  26.845  1.00  0.00     0.058 A 
ATOM     76  C   UNL A   1      43.069  22.383  27.915  1.00  0.00     0.135 A 
ATOM     77  C   UNL A   1      43.308  22.710  25.547  1.00  0.00     0.135 A 
ATOM     78  F   UNL A   1      43.133  22.836  29.175  1.00  0.00    -0.206 F 
ATOM     79  C   UNL A   1      42.722  21.052  27.706  1.00  0.00     0.059 A 
ATOM     80  C   UNL A   1      42.939  21.390  25.311  1.00  0.00     0.059 A 
ATOM     81  F   UNL A   1      43.584  23.489  24.489  1.00  0.00    -0.206 F 
ATOM     82  C   UNL A   1      42.661  20.563  26.399  1.00  0.00     0.060 A 
BRANCH  82  83
ATOM     83  S   UNL A   1      42.175  18.845  26.132  1.00  0.00     0.124 S 
ATOM     84  O   UNL A   1      42.432  18.262  27.445  1.00  0.00    -0.237 OA
ATOM     85  O   UNL A   1      40.772  18.976  25.755  1.00  0.00    -0.237 OA
ATOM     86  O   UNL A   1      43.065  18.409  25.061  1.00  0.00    -0.744 OA
ENDBRANCH  82  83
ENDBRANCH  50  75
BRANCH  62  87
ATOM     87  C   UNL A   1      49.498  26.553  26.425  1.00  0.00     0.058 A 
ATOM     88  C   UNL A   1      50.330  26.017  27.421  1.00  0.00     0.135 A 
ATOM     89  C   UNL A   1      49.997  26.608  25.113  1.00  0.00     0.135 A 
ATOM     90  F   UNL A   1      49.902  25.947  28.691  1.00  0.00    -0.206 F 
ATOM     91  C   UNL A   1      51.619  25.583  27.133  1.00  0.00     0.059 A 
ATOM     92  C   UNL A   1      51.275  26.155  24.798  1.00  0.00     0.059 A 
ATOM     93  F   UNL A   1      49.238  27.100  24.120  1.00  0.00    -0.206 F 
ATOM     94  C   UNL A   1      52.085  25.659  25.819  1.00  0.00     0.060 A 
BRANCH  94  95
ATOM     95  S   UNL A   1      53.757  25.081  25.454  1.00  0.00     0.124 S 
ATOM     96  O   UNL A   1      53.558  23.638  25.378  1.00  0.00    -0.237 OA
ATOM     97  O   UNL A   1      54.050  25.749  24.188  1.00  0.00    -0.237 OA
ATOM     98  O   UNL A   1      54.534  25.550  26.597  1.00  0.00    -0.744 OA
ENDBRANCH  94  95
ENDBRANCH  62  87
ENDBRANCH  36  37
ENDBRANCH  29  31
ENDBRANCH  28  29
ENDBRANCH  27  28
ENDBRANCH  26  27
ENDBRANCH   1  26
TORSDOF 20
ENDMDL
