MODEL 1
REMARK VINA RESULT:      -8.0      0.000      0.000
REMARK SMILES C[C@H](Oc1ccc(/C=C2/SC(=S)N(c3ccc(F)cc3)C2=O)cc1)C(=O)OCCOCCOC(=O)c1ccc(-c2c3nc(c(-c4c(F)cc(S(=O)(=O)[O-])cc4F)c4ccc([nH]4)c(-c4c(F)cc(S(=O)(=O)[O-])cc4F)c4nc(c(-c5c(F)cc(S(=O)(=O)[O-])cc5F)c5ccc2[nH]5)C=C4)C=C3)cc1
REMARK SMILES IDX 29 1 28 2 27 3 25 4 26 5 2 6 1 7 3 8 4 9 5 10 24 11 6 12
REMARK SMILES IDX 23 13 7 14 8 15 9 16 10 17 21 18 11 19 13 20 22 21 12 22
REMARK SMILES IDX 14 23 15 24 20 25 16 26 19 27 17 28 18 29 30 30 31 31 32 32
REMARK SMILES IDX 33 33 34 34 35 35 36 36 37 37 101 38 38 39 100 40 39 41
REMARK SMILES IDX 40 42 41 43 94 44 42 45 99 46 93 47 95 48 43 49 98 50 92 51
REMARK SMILES IDX 91 52 44 54 78 55 57 56 77 57 58 58 61 59 76 60 96 61 59 62
REMARK SMILES IDX 60 63 75 65 97 66 62 67 45 68 46 69 55 70 47 71 48 72 54 73
REMARK SMILES IDX 56 74 49 75 50 76 51 77 52 78 53 79 79 80 80 81 89 82 81 83
REMARK SMILES IDX 82 84 88 85 90 86 83 87 84 88 85 89 86 90 87 91 63 92 64 93
REMARK SMILES IDX 73 94 65 95 66 96 72 97 74 98 67 99 68 100 69 101 70 102
REMARK SMILES IDX 71 103
REMARK H PARENT 95 53 61 64
REMARK Flexibility Score: inf
ROOT
ATOM      1  C   UNL A   1      37.140  34.187  31.937  1.00  0.00     0.202 C 
ENDROOT
BRANCH   1   2
ATOM      2  C   UNL A   1      38.253  33.165  31.707  1.00  0.00     0.261 C 
BRANCH   2   3
ATOM      3  O   UNL A   1      37.784  31.992  31.027  1.00  0.00    -0.461 OA
BRANCH   3   4
ATOM      4  C   UNL A   1      38.623  31.455  30.093  1.00  0.00     0.347 C 
ATOM      5  O   UNL A   1      39.528  32.057  29.525  1.00  0.00    -0.248 OA
BRANCH   4   6
ATOM      6  C   UNL A   1      38.240  30.010  29.767  1.00  0.00     0.279 C 
ATOM      7  C   UNL A   1      37.359  29.541  30.927  1.00  0.00     0.066 C 
BRANCH   6   8
ATOM      8  O   UNL A   1      39.438  29.258  29.544  1.00  0.00    -0.479 OA
BRANCH   8   9
ATOM      9  C   UNL A   1      39.387  28.024  28.963  1.00  0.00     0.120 A 
ATOM     10  C   UNL A   1      39.041  26.831  29.589  1.00  0.00     0.047 A 
ATOM     11  C   UNL A   1      39.773  27.989  27.622  1.00  0.00     0.047 A 
ATOM     12  C   UNL A   1      39.249  25.607  28.942  1.00  0.00     0.012 A 
ATOM     13  C   UNL A   1      39.932  26.770  26.954  1.00  0.00     0.012 A 
ATOM     14  C   UNL A   1      39.755  25.566  27.639  1.00  0.00    -0.024 A 
BRANCH  14  15
ATOM     15  C   UNL A   1      40.075  24.262  27.045  1.00  0.00     0.029 C 
ATOM     16  C   UNL A   1      41.298  23.745  26.838  1.00  0.00     0.081 C 
ATOM     17  S   UNL A   1      41.513  22.191  26.120  1.00  0.00    -0.054 SA
ATOM     18  C   UNL A   1      42.634  24.355  27.124  1.00  0.00     0.270 C 
ATOM     19  C   UNL A   1      43.267  22.347  26.054  1.00  0.00     0.152 C 
ATOM     20  N   UNL A   1      43.649  23.578  26.565  1.00  0.00    -0.261 N 
ATOM     21  O   UNL A   1      42.772  25.412  27.724  1.00  0.00    -0.268 OA
ATOM     22  S   UNL A   1      44.204  21.070  25.511  1.00  0.00    -0.051 S 
BRANCH  20  23
ATOM     23  C   UNL A   1      44.979  24.100  26.507  1.00  0.00     0.051 A 
ATOM     24  C   UNL A   1      45.509  24.601  25.306  1.00  0.00     0.030 A 
ATOM     25  C   UNL A   1      45.817  24.029  27.632  1.00  0.00     0.030 A 
ATOM     26  C   UNL A   1      46.834  25.042  25.239  1.00  0.00     0.041 A 
ATOM     27  C   UNL A   1      47.146  24.454  27.560  1.00  0.00     0.041 A 
ATOM     28  C   UNL A   1      47.641  24.960  26.365  1.00  0.00     0.123 A 
ATOM     29  F   UNL A   1      48.916  25.357  26.300  1.00  0.00    -0.207 F 
ENDBRANCH  20  23
ENDBRANCH  14  15
ENDBRANCH   8   9
ENDBRANCH   6   8
ENDBRANCH   4   6
ENDBRANCH   3   4
ENDBRANCH   2   3
ENDBRANCH   1   2
BRANCH   1  30
ATOM     30  O   UNL A   1      37.007  34.679  33.267  1.00  0.00    -0.374 OA
BRANCH  30  31
ATOM     31  C   UNL A   1      38.001  34.269  34.209  1.00  0.00     0.202 C 
BRANCH  31  32
ATOM     32  C   UNL A   1      37.491  33.859  35.595  1.00  0.00     0.261 C 
BRANCH  32  33
ATOM     33  O   UNL A   1      37.049  32.489  35.629  1.00  0.00    -0.460 OA
BRANCH  33  34
ATOM     34  C   UNL A   1      37.808  31.658  36.378  1.00  0.00     0.338 C 
ATOM     35  O   UNL A   1      37.574  31.273  37.520  1.00  0.00    -0.246 OA
BRANCH  34  36
ATOM     36  C   UNL A   1      38.908  31.110  35.567  1.00  0.00     0.060 A 
ATOM     37  C   UNL A   1      40.221  31.377  35.980  1.00  0.00     0.016 A 
ATOM     38  C   UNL A   1      38.666  30.405  34.386  1.00  0.00     0.016 A 
ATOM     39  C   UNL A   1      41.297  30.980  35.188  1.00  0.00     0.010 A 
ATOM     40  C   UNL A   1      39.747  30.016  33.589  1.00  0.00     0.010 A 
ATOM     41  C   UNL A   1      41.064  30.333  33.969  1.00  0.00    -0.014 A 
BRANCH  41  42
ATOM     42  C   UNL A   1      42.178  30.110  33.017  1.00  0.00     0.031 A 
ATOM     43  C   UNL A   1      42.951  28.824  33.097  1.00  0.00     0.074 A 
ATOM     44  C   UNL A   1      42.507  31.046  32.110  1.00  0.00     0.049 A 
ATOM     45  N   UNL A   1      44.023  28.459  32.444  1.00  0.00    -0.248 NA
ATOM     46  C   UNL A   1      42.453  27.819  34.050  1.00  0.00     0.031 C 
ATOM     47  C   UNL A   1      41.811  32.317  31.920  1.00  0.00     0.029 A 
ATOM     48  N   UNL A   1      43.532  31.082  31.199  1.00  0.00    -0.354 N 
ATOM     49  C   UNL A   1      44.342  27.192  32.921  1.00  0.00     0.074 A 
ATOM     50  C   UNL A   1      43.359  26.860  33.930  1.00  0.00     0.031 C 
ATOM     51  C   UNL A   1      42.449  33.024  30.973  1.00  0.00     0.029 A 
ATOM     52  C   UNL A   1      43.618  32.272  30.518  1.00  0.00     0.049 A 
ATOM     53  H   UNL A   1      44.147  30.328  31.047  1.00  0.00     0.167 HD
ATOM     54  C   UNL A   1      45.364  26.383  32.551  1.00  0.00     0.037 A 
ATOM     55  C   UNL A   1      44.555  32.720  29.658  1.00  0.00     0.037 A 
ATOM     56  C   UNL A   1      46.334  26.724  31.545  1.00  0.00     0.049 A 
ATOM     57  C   UNL A   1      45.710  31.825  29.291  1.00  0.00     0.074 A 
ATOM     58  C   UNL A   1      47.382  25.958  31.066  1.00  0.00     0.029 A 
ATOM     59  N   UNL A   1      46.387  27.938  30.874  1.00  0.00    -0.354 N 
ATOM     60  N   UNL A   1      45.979  30.613  29.717  1.00  0.00    -0.248 NA
ATOM     61  C   UNL A   1      46.686  32.353  28.328  1.00  0.00     0.031 C 
ATOM     62  C   UNL A   1      48.099  26.728  30.144  1.00  0.00     0.029 A 
ATOM     63  C   UNL A   1      47.465  27.953  30.006  1.00  0.00     0.049 A 
ATOM     64  H   UNL A   1      45.749  28.678  30.998  1.00  0.00     0.167 HD
ATOM     65  C   UNL A   1      47.141  30.225  29.058  1.00  0.00     0.074 A 
ATOM     66  C   UNL A   1      47.521  31.329  28.200  1.00  0.00     0.031 C 
ATOM     67  C   UNL A   1      47.826  29.058  29.152  1.00  0.00     0.037 A 
BRANCH  54  68
ATOM     68  C   UNL A   1      45.502  25.069  33.269  1.00  0.00     0.058 A 
ATOM     69  C   UNL A   1      46.331  24.917  34.392  1.00  0.00     0.135 A 
ATOM     70  C   UNL A   1      44.786  23.943  32.828  1.00  0.00     0.135 A 
ATOM     71  F   UNL A   1      47.050  25.956  34.847  1.00  0.00    -0.206 F 
ATOM     72  C   UNL A   1      46.476  23.688  35.028  1.00  0.00     0.059 A 
ATOM     73  C   UNL A   1      44.894  22.712  33.466  1.00  0.00     0.059 A 
ATOM     74  F   UNL A   1      43.978  24.032  31.760  1.00  0.00    -0.206 F 
ATOM     75  C   UNL A   1      45.758  22.590  34.554  1.00  0.00     0.060 A 
BRANCH  75  76
ATOM     76  S   UNL A   1      45.973  20.995  35.374  1.00  0.00     0.124 S 
ATOM     77  O   UNL A   1      45.770  21.360  36.774  1.00  0.00    -0.237 OA
ATOM     78  O   UNL A   1      44.919  20.187  34.771  1.00  0.00    -0.237 OA
ATOM     79  O   UNL A   1      47.336  20.611  35.018  1.00  0.00    -0.744 OA
ENDBRANCH  75  76
ENDBRANCH  54  68
BRANCH  55  80
ATOM     80  C   UNL A   1      44.444  34.097  29.112  1.00  0.00     0.058 A 
ATOM     81  C   UNL A   1      44.932  35.204  29.821  1.00  0.00     0.135 A 
ATOM     82  C   UNL A   1      43.885  34.327  27.845  1.00  0.00     0.135 A 
ATOM     83  F   UNL A   1      45.464  35.036  31.042  1.00  0.00    -0.206 F 
ATOM     84  C   UNL A   1      44.873  36.490  29.294  1.00  0.00     0.059 A 
ATOM     85  C   UNL A   1      43.836  35.600  27.286  1.00  0.00     0.059 A 
ATOM     86  F   UNL A   1      43.413  33.300  27.121  1.00  0.00    -0.206 F 
ATOM     87  C   UNL A   1      44.331  36.676  28.020  1.00  0.00     0.060 A 
BRANCH  87  88
ATOM     88  S   UNL A   1      44.339  38.337  27.309  1.00  0.00     0.124 S 
ATOM     89  O   UNL A   1      43.085  38.345  26.564  1.00  0.00    -0.237 OA
ATOM     90  O   UNL A   1      44.380  39.180  28.501  1.00  0.00    -0.237 OA
ATOM     91  O   UNL A   1      45.554  38.351  26.502  1.00  0.00    -0.744 OA
ENDBRANCH  87  88
ENDBRANCH  55  80
BRANCH  67  92
ATOM     92  C   UNL A   1      49.044  28.887  28.284  1.00  0.00     0.058 A 
ATOM     93  C   UNL A   1      50.342  29.028  28.798  1.00  0.00     0.135 A 
ATOM     94  C   UNL A   1      48.907  28.479  26.947  1.00  0.00     0.135 A 
ATOM     95  F   UNL A   1      50.528  29.424  30.067  1.00  0.00    -0.206 F 
ATOM     96  C   UNL A   1      51.464  28.773  28.014  1.00  0.00     0.059 A 
ATOM     97  C   UNL A   1      50.014  28.196  26.153  1.00  0.00     0.059 A 
ATOM     98  F   UNL A   1      47.687  28.321  26.410  1.00  0.00    -0.206 F 
ATOM     99  C   UNL A   1      51.289  28.348  26.695  1.00  0.00     0.060 A 
BRANCH  99 100
ATOM    100  S   UNL A   1      52.751  27.954  25.711  1.00  0.00     0.124 S 
ATOM    101  O   UNL A   1      53.129  26.653  26.252  1.00  0.00    -0.237 OA
ATOM    102  O   UNL A   1      52.220  27.946  24.351  1.00  0.00    -0.237 OA
ATOM    103  O   UNL A   1      53.669  29.050  26.011  1.00  0.00    -0.744 OA
ENDBRANCH  99 100
ENDBRANCH  67  92
ENDBRANCH  41  42
ENDBRANCH  34  36
ENDBRANCH  33  34
ENDBRANCH  32  33
ENDBRANCH  31  32
ENDBRANCH  30  31
ENDBRANCH   1  30
TORSDOF 21
ENDMDL
MODEL 2
REMARK VINA RESULT:      -8.0      5.015     11.961
REMARK SMILES C[C@H](Oc1ccc(/C=C2/SC(=S)N(c3ccc(F)cc3)C2=O)cc1)C(=O)OCCOCCOC(=O)c1ccc(-c2c3nc(c(-c4c(F)cc(S(=O)(=O)[O-])cc4F)c4ccc([nH]4)c(-c4c(F)cc(S(=O)(=O)[O-])cc4F)c4nc(c(-c5c(F)cc(S(=O)(=O)[O-])cc5F)c5ccc2[nH]5)C=C4)C=C3)cc1
REMARK SMILES IDX 29 1 28 2 27 3 25 4 26 5 2 6 1 7 3 8 4 9 5 10 24 11 6 12
REMARK SMILES IDX 23 13 7 14 8 15 9 16 10 17 21 18 11 19 13 20 22 21 12 22
REMARK SMILES IDX 14 23 15 24 20 25 16 26 19 27 17 28 18 29 30 30 31 31 32 32
REMARK SMILES IDX 33 33 34 34 35 35 36 36 37 37 101 38 38 39 100 40 39 41
REMARK SMILES IDX 40 42 41 43 94 44 42 45 99 46 93 47 95 48 43 49 98 50 92 51
REMARK SMILES IDX 91 52 44 54 78 55 57 56 77 57 58 58 61 59 76 60 96 61 59 62
REMARK SMILES IDX 60 63 75 65 97 66 62 67 45 68 46 69 55 70 47 71 48 72 54 73
REMARK SMILES IDX 56 74 49 75 50 76 51 77 52 78 53 79 79 80 80 81 89 82 81 83
REMARK SMILES IDX 82 84 88 85 90 86 83 87 84 88 85 89 86 90 87 91 63 92 64 93
REMARK SMILES IDX 73 94 65 95 66 96 72 97 74 98 67 99 68 100 69 101 70 102
REMARK SMILES IDX 71 103
REMARK H PARENT 95 53 61 64
REMARK Flexibility Score: inf
ROOT
ATOM      1  C   UNL A   1      43.758  25.016  25.000  1.00  0.00     0.202 C 
ENDROOT
BRANCH   1   2
ATOM      2  C   UNL A   1      42.527  25.712  25.579  1.00  0.00     0.261 C 
BRANCH   2   3
ATOM      3  O   UNL A   1      41.765  24.847  26.434  1.00  0.00    -0.461 OA
BRANCH   3   4
ATOM      4  C   UNL A   1      41.905  25.044  27.778  1.00  0.00     0.347 C 
ATOM      5  O   UNL A   1      42.270  24.193  28.583  1.00  0.00    -0.248 OA
BRANCH   4   6
ATOM      6  C   UNL A   1      41.462  26.450  28.184  1.00  0.00     0.279 C 
ATOM      7  C   UNL A   1      42.439  26.897  29.274  1.00  0.00     0.066 C 
BRANCH   6   8
ATOM      8  O   UNL A   1      40.081  26.405  28.559  1.00  0.00    -0.479 OA
BRANCH   8   9
ATOM      9  C   UNL A   1      39.375  27.556  28.756  1.00  0.00     0.120 A 
ATOM     10  C   UNL A   1      38.528  27.832  29.824  1.00  0.00     0.047 A 
ATOM     11  C   UNL A   1      39.505  28.506  27.741  1.00  0.00     0.047 A 
ATOM     12  C   UNL A   1      37.689  28.953  29.790  1.00  0.00     0.012 A 
ATOM     13  C   UNL A   1      38.706  29.655  27.729  1.00  0.00     0.012 A 
ATOM     14  C   UNL A   1      37.730  29.841  28.710  1.00  0.00    -0.024 A 
BRANCH  14  15
ATOM     15  C   UNL A   1      36.749  30.933  28.655  1.00  0.00     0.029 C 
ATOM     16  C   UNL A   1      35.511  30.883  28.136  1.00  0.00     0.081 C 
ATOM     17  S   UNL A   1      34.472  32.260  28.141  1.00  0.00    -0.054 SA
ATOM     18  C   UNL A   1      34.822  29.736  27.464  1.00  0.00     0.270 C 
ATOM     19  C   UNL A   1      33.223  31.453  27.194  1.00  0.00     0.152 C 
ATOM     20  N   UNL A   1      33.628  30.165  26.884  1.00  0.00    -0.261 N 
ATOM     21  O   UNL A   1      35.294  28.610  27.413  1.00  0.00    -0.268 OA
ATOM     22  S   UNL A   1      31.777  32.234  26.874  1.00  0.00    -0.051 S 
BRANCH  20  23
ATOM     23  C   UNL A   1      32.933  29.293  25.987  1.00  0.00     0.051 A 
ATOM     24  C   UNL A   1      32.001  28.356  26.465  1.00  0.00     0.030 A 
ATOM     25  C   UNL A   1      33.245  29.292  24.617  1.00  0.00     0.030 A 
ATOM     26  C   UNL A   1      31.380  27.459  25.591  1.00  0.00     0.041 A 
ATOM     27  C   UNL A   1      32.636  28.383  23.748  1.00  0.00     0.041 A 
ATOM     28  C   UNL A   1      31.707  27.478  24.242  1.00  0.00     0.123 A 
ATOM     29  F   UNL A   1      31.134  26.605  23.407  1.00  0.00    -0.207 F 
ENDBRANCH  20  23
ENDBRANCH  14  15
ENDBRANCH   8   9
ENDBRANCH   6   8
ENDBRANCH   4   6
ENDBRANCH   3   4
ENDBRANCH   2   3
ENDBRANCH   1   2
BRANCH   1  30
ATOM     30  O   UNL A   1      43.987  23.680  25.441  1.00  0.00    -0.374 OA
BRANCH  30  31
ATOM     31  C   UNL A   1      45.148  23.457  26.245  1.00  0.00     0.202 C 
BRANCH  31  32
ATOM     32  C   UNL A   1      45.598  24.629  27.124  1.00  0.00     0.261 C 
BRANCH  32  33
ATOM     33  O   UNL A   1      46.975  24.983  26.895  1.00  0.00    -0.460 OA
BRANCH  33  34
ATOM     34  C   UNL A   1      47.198  25.754  25.807  1.00  0.00     0.338 C 
ATOM     35  O   UNL A   1      47.370  25.371  24.653  1.00  0.00    -0.246 OA
BRANCH  34  36
ATOM     36  C   UNL A   1      47.036  27.176  26.154  1.00  0.00     0.060 A 
ATOM     37  C   UNL A   1      47.561  27.615  27.378  1.00  0.00     0.016 A 
ATOM     38  C   UNL A   1      46.325  28.053  25.332  1.00  0.00     0.016 A 
ATOM     39  C   UNL A   1      47.336  28.922  27.807  1.00  0.00     0.010 A 
ATOM     40  C   UNL A   1      46.092  29.361  25.769  1.00  0.00     0.010 A 
ATOM     41  C   UNL A   1      46.567  29.790  27.023  1.00  0.00    -0.014 A 
BRANCH  41  42
ATOM     42  C   UNL A   1      46.131  31.098  27.566  1.00  0.00     0.031 A 
ATOM     43  C   UNL A   1      47.014  32.297  27.358  1.00  0.00     0.074 A 
ATOM     44  C   UNL A   1      44.979  31.212  28.249  1.00  0.00     0.049 A 
ATOM     45  N   UNL A   1      46.890  33.509  27.830  1.00  0.00    -0.248 NA
ATOM     46  C   UNL A   1      48.201  32.097  26.512  1.00  0.00     0.031 C 
ATOM     47  C   UNL A   1      44.029  30.127  28.486  1.00  0.00     0.029 A 
ATOM     48  N   UNL A   1      44.428  32.291  28.893  1.00  0.00    -0.354 N 
ATOM     49  C   UNL A   1      47.993  34.213  27.359  1.00  0.00     0.074 A 
ATOM     50  C   UNL A   1      48.783  33.285  26.577  1.00  0.00     0.031 C 
ATOM     51  C   UNL A   1      43.027  30.587  29.252  1.00  0.00     0.029 A 
ATOM     52  C   UNL A   1      43.284  31.987  29.590  1.00  0.00     0.049 A 
ATOM     53  H   UNL A   1      44.816  33.196  28.860  1.00  0.00     0.167 HD
ATOM     54  C   UNL A   1      48.316  35.512  27.563  1.00  0.00     0.037 A 
ATOM     55  C   UNL A   1      42.551  32.739  30.435  1.00  0.00     0.037 A 
ATOM     56  C   UNL A   1      47.522  36.424  28.341  1.00  0.00     0.049 A 
ATOM     57  C   UNL A   1      42.950  34.170  30.686  1.00  0.00     0.074 A 
ATOM     58  C   UNL A   1      47.739  37.771  28.573  1.00  0.00     0.029 A 
ATOM     59  N   UNL A   1      46.367  36.081  29.029  1.00  0.00    -0.354 N 
ATOM     60  N   UNL A   1      43.971  34.836  30.202  1.00  0.00    -0.248 NA
ATOM     61  C   UNL A   1      42.099  34.952  31.594  1.00  0.00     0.031 C 
ATOM     62  C   UNL A   1      46.743  38.229  29.444  1.00  0.00     0.029 A 
ATOM     63  C   UNL A   1      45.874  37.182  29.709  1.00  0.00     0.049 A 
ATOM     64  H   UNL A   1      45.957  35.185  29.032  1.00  0.00     0.167 HD
ATOM     65  C   UNL A   1      43.874  36.121  30.728  1.00  0.00     0.074 A 
ATOM     66  C   UNL A   1      42.691  36.140  31.563  1.00  0.00     0.031 C 
ATOM     67  C   UNL A   1      44.689  37.187  30.531  1.00  0.00     0.037 A 
BRANCH  54  68
ATOM     68  C   UNL A   1      49.604  36.007  26.965  1.00  0.00     0.058 A 
ATOM     69  C   UNL A   1      50.824  35.931  27.655  1.00  0.00     0.135 A 
ATOM     70  C   UNL A   1      49.617  36.563  25.675  1.00  0.00     0.135 A 
ATOM     71  F   UNL A   1      50.867  35.423  28.897  1.00  0.00    -0.206 F 
ATOM     72  C   UNL A   1      52.004  36.423  27.105  1.00  0.00     0.059 A 
ATOM     73  C   UNL A   1      50.790  37.036  25.093  1.00  0.00     0.059 A 
ATOM     74  F   UNL A   1      48.480  36.661  24.970  1.00  0.00    -0.206 F 
ATOM     75  C   UNL A   1      51.975  36.979  25.825  1.00  0.00     0.060 A 
BRANCH  75  76
ATOM     76  S   UNL A   1      53.508  37.634  25.132  1.00  0.00     0.124 S 
ATOM     77  O   UNL A   1      53.387  39.054  25.452  1.00  0.00    -0.237 OA
ATOM     78  O   UNL A   1      54.527  36.902  25.877  1.00  0.00    -0.237 OA
ATOM     79  O   UNL A   1      53.411  37.301  23.714  1.00  0.00    -0.744 OA
ENDBRANCH  75  76
ENDBRANCH  54  68
BRANCH  55  80
ATOM     80  C   UNL A   1      41.381  32.133  31.122  1.00  0.00     0.058 A 
ATOM     81  C   UNL A   1      41.544  31.301  32.239  1.00  0.00     0.135 A 
ATOM     82  C   UNL A   1      40.072  32.413  30.700  1.00  0.00     0.135 A 
ATOM     83  F   UNL A   1      42.776  30.993  32.673  1.00  0.00    -0.206 F 
ATOM     84  C   UNL A   1      40.450  30.768  32.915  1.00  0.00     0.059 A 
ATOM     85  C   UNL A   1      38.962  31.912  31.373  1.00  0.00     0.059 A 
ATOM     86  F   UNL A   1      39.863  33.213  29.643  1.00  0.00    -0.206 F 
ATOM     87  C   UNL A   1      39.163  31.088  32.480  1.00  0.00     0.060 A 
BRANCH  87  88
ATOM     88  S   UNL A   1      37.750  30.463  33.416  1.00  0.00     0.124 S 
ATOM     89  O   UNL A   1      38.108  29.061  33.591  1.00  0.00    -0.237 OA
ATOM     90  O   UNL A   1      37.791  31.289  34.620  1.00  0.00    -0.237 OA
ATOM     91  O   UNL A   1      36.619  30.721  32.530  1.00  0.00    -0.744 OA
ENDBRANCH  87  88
ENDBRANCH  55  80
BRANCH  67  92
ATOM     92  C   UNL A   1      44.322  38.484  31.199  1.00  0.00     0.058 A 
ATOM     93  C   UNL A   1      44.828  38.834  32.460  1.00  0.00     0.135 A 
ATOM     94  C   UNL A   1      43.533  39.429  30.523  1.00  0.00     0.135 A 
ATOM     95  F   UNL A   1      45.580  37.965  33.152  1.00  0.00    -0.206 F 
ATOM     96  C   UNL A   1      44.562  40.077  33.029  1.00  0.00     0.059 A 
ATOM     97  C   UNL A   1      43.274  40.686  31.062  1.00  0.00     0.059 A 
ATOM     98  F   UNL A   1      43.031  39.147  29.310  1.00  0.00    -0.206 F 
ATOM     99  C   UNL A   1      43.792  40.999  32.318  1.00  0.00     0.060 A 
BRANCH  99 100
ATOM    100  S   UNL A   1      43.512  42.633  33.036  1.00  0.00     0.124 S 
ATOM    101  O   UNL A   1      44.849  43.213  32.979  1.00  0.00    -0.237 OA
ATOM    102  O   UNL A   1      42.530  43.211  32.125  1.00  0.00    -0.237 OA
ATOM    103  O   UNL A   1      43.014  42.334  34.376  1.00  0.00    -0.744 OA
ENDBRANCH  99 100
ENDBRANCH  67  92
ENDBRANCH  41  42
ENDBRANCH  34  36
ENDBRANCH  33  34
ENDBRANCH  32  33
ENDBRANCH  31  32
ENDBRANCH  30  31
ENDBRANCH   1  30
TORSDOF 21
ENDMDL
MODEL 3
REMARK VINA RESULT:      -7.9      4.712      6.814
REMARK SMILES C[C@H](Oc1ccc(/C=C2/SC(=S)N(c3ccc(F)cc3)C2=O)cc1)C(=O)OCCOCCOC(=O)c1ccc(-c2c3nc(c(-c4c(F)cc(S(=O)(=O)[O-])cc4F)c4ccc([nH]4)c(-c4c(F)cc(S(=O)(=O)[O-])cc4F)c4nc(c(-c5c(F)cc(S(=O)(=O)[O-])cc5F)c5ccc2[nH]5)C=C4)C=C3)cc1
REMARK SMILES IDX 29 1 28 2 27 3 25 4 26 5 2 6 1 7 3 8 4 9 5 10 24 11 6 12
REMARK SMILES IDX 23 13 7 14 8 15 9 16 10 17 21 18 11 19 13 20 22 21 12 22
REMARK SMILES IDX 14 23 15 24 20 25 16 26 19 27 17 28 18 29 30 30 31 31 32 32
REMARK SMILES IDX 33 33 34 34 35 35 36 36 37 37 101 38 38 39 100 40 39 41
REMARK SMILES IDX 40 42 41 43 94 44 42 45 99 46 93 47 95 48 43 49 98 50 92 51
REMARK SMILES IDX 91 52 44 54 78 55 57 56 77 57 58 58 61 59 76 60 96 61 59 62
REMARK SMILES IDX 60 63 75 65 97 66 62 67 45 68 46 69 55 70 47 71 48 72 54 73
REMARK SMILES IDX 56 74 49 75 50 76 51 77 52 78 53 79 79 80 80 81 89 82 81 83
REMARK SMILES IDX 82 84 88 85 90 86 83 87 84 88 85 89 86 90 87 91 63 92 64 93
REMARK SMILES IDX 73 94 65 95 66 96 72 97 74 98 67 99 68 100 69 101 70 102
REMARK SMILES IDX 71 103
REMARK H PARENT 95 53 61 64
REMARK Flexibility Score: inf
ROOT
ATOM      1  C   UNL A   1      34.561  34.182  31.264  1.00  0.00     0.202 C 
ENDROOT
BRANCH   1   2
ATOM      2  C   UNL A   1      34.881  33.021  30.323  1.00  0.00     0.261 C 
BRANCH   2   3
ATOM      3  O   UNL A   1      33.929  32.910  29.254  1.00  0.00    -0.461 OA
BRANCH   3   4
ATOM      4  C   UNL A   1      34.439  32.680  28.008  1.00  0.00     0.347 C 
ATOM      5  O   UNL A   1      35.516  33.097  27.597  1.00  0.00    -0.248 OA
BRANCH   4   6
ATOM      6  C   UNL A   1      33.452  31.900  27.139  1.00  0.00     0.279 C 
ATOM      7  C   UNL A   1      32.120  32.647  27.248  1.00  0.00     0.066 C 
BRANCH   6   8
ATOM      8  O   UNL A   1      33.443  30.534  27.567  1.00  0.00    -0.479 OA
BRANCH   8   9
ATOM      9  C   UNL A   1      32.657  29.612  26.938  1.00  0.00     0.120 A 
ATOM     10  C   UNL A   1      31.932  28.593  27.547  1.00  0.00     0.047 A 
ATOM     11  C   UNL A   1      32.645  29.704  25.545  1.00  0.00     0.047 A 
ATOM     12  C   UNL A   1      31.353  27.579  26.775  1.00  0.00     0.012 A 
ATOM     13  C   UNL A   1      32.022  28.720  24.769  1.00  0.00     0.012 A 
ATOM     14  C   UNL A   1      31.447  27.603  25.380  1.00  0.00    -0.024 A 
BRANCH  14  15
ATOM     15  C   UNL A   1      30.935  26.458  24.616  1.00  0.00     0.029 C 
ATOM     16  C   UNL A   1      31.530  25.266  24.448  1.00  0.00     0.081 C 
ATOM     17  S   UNL A   1      30.800  24.014  23.512  1.00  0.00    -0.054 SA
ATOM     18  C   UNL A   1      32.859  24.802  24.957  1.00  0.00     0.270 C 
ATOM     19  C   UNL A   1      32.202  22.953  23.644  1.00  0.00     0.152 C 
ATOM     20  N   UNL A   1      33.196  23.577  24.382  1.00  0.00    -0.261 N 
ATOM     21  O   UNL A   1      33.544  25.456  25.731  1.00  0.00    -0.268 OA
ATOM     22  S   UNL A   1      32.151  21.410  22.995  1.00  0.00    -0.051 S 
BRANCH  20  23
ATOM     23  C   UNL A   1      34.524  23.070  24.538  1.00  0.00     0.051 A 
ATOM     24  C   UNL A   1      35.026  22.734  25.807  1.00  0.00     0.030 A 
ATOM     25  C   UNL A   1      35.387  22.993  23.432  1.00  0.00     0.030 A 
ATOM     26  C   UNL A   1      36.349  22.309  25.961  1.00  0.00     0.041 A 
ATOM     27  C   UNL A   1      36.714  22.584  23.591  1.00  0.00     0.041 A 
ATOM     28  C   UNL A   1      37.181  22.242  24.853  1.00  0.00     0.123 A 
ATOM     29  F   UNL A   1      38.454  21.860  24.999  1.00  0.00    -0.207 F 
ENDBRANCH  20  23
ENDBRANCH  14  15
ENDBRANCH   8   9
ENDBRANCH   6   8
ENDBRANCH   4   6
ENDBRANCH   3   4
ENDBRANCH   2   3
ENDBRANCH   1   2
BRANCH   1  30
ATOM     30  O   UNL A   1      35.386  34.295  32.421  1.00  0.00    -0.374 OA
BRANCH  30  31
ATOM     31  C   UNL A   1      36.492  33.394  32.515  1.00  0.00     0.202 C 
BRANCH  31  32
ATOM     32  C   UNL A   1      36.276  32.148  33.381  1.00  0.00     0.261 C 
BRANCH  32  33
ATOM     33  O   UNL A   1      36.078  30.962  32.589  1.00  0.00    -0.460 OA
BRANCH  33  34
ATOM     34  C   UNL A   1      36.946  29.955  32.832  1.00  0.00     0.338 C 
ATOM     35  O   UNL A   1      36.752  28.963  33.528  1.00  0.00    -0.246 OA
BRANCH  34  36
ATOM     36  C   UNL A   1      38.145  30.109  31.990  1.00  0.00     0.060 A 
ATOM     37  C   UNL A   1      39.387  29.780  32.554  1.00  0.00     0.016 A 
ATOM     38  C   UNL A   1      38.070  30.628  30.696  1.00  0.00     0.016 A 
ATOM     39  C   UNL A   1      40.562  30.015  31.843  1.00  0.00     0.010 A 
ATOM     40  C   UNL A   1      39.251  30.871  29.988  1.00  0.00     0.010 A 
ATOM     41  C   UNL A   1      40.502  30.598  30.571  1.00  0.00    -0.014 A 
BRANCH  41  42
ATOM     42  C   UNL A   1      41.742  31.059  29.902  1.00  0.00     0.031 A 
ATOM     43  C   UNL A   1      42.523  30.079  29.073  1.00  0.00     0.074 A 
ATOM     44  C   UNL A   1      42.173  32.324  30.048  1.00  0.00     0.049 A 
ATOM     45  N   UNL A   1      43.682  30.228  28.487  1.00  0.00    -0.248 NA
ATOM     46  C   UNL A   1      41.919  28.750  28.888  1.00  0.00     0.031 C 
ATOM     47  C   UNL A   1      41.484  33.368  30.802  1.00  0.00     0.029 A 
ATOM     48  N   UNL A   1      43.314  32.934  29.589  1.00  0.00    -0.354 N 
ATOM     49  C   UNL A   1      43.959  29.006  27.884  1.00  0.00     0.074 A 
ATOM     50  C   UNL A   1      42.852  28.123  28.188  1.00  0.00     0.031 C 
ATOM     51  C   UNL A   1      42.232  34.484  30.782  1.00  0.00     0.029 A 
ATOM     52  C   UNL A   1      43.469  34.220  30.047  1.00  0.00     0.049 A 
ATOM     53  H   UNL A   1      43.959  32.492  28.991  1.00  0.00     0.167 HD
ATOM     54  C   UNL A   1      45.038  28.654  27.145  1.00  0.00     0.037 A 
ATOM     55  C   UNL A   1      44.506  35.072  29.921  1.00  0.00     0.037 A 
ATOM     56  C   UNL A   1      46.131  29.541  26.848  1.00  0.00     0.049 A 
ATOM     57  C   UNL A   1      45.719  34.649  29.134  1.00  0.00     0.074 A 
ATOM     58  C   UNL A   1      47.251  29.296  26.073  1.00  0.00     0.029 A 
ATOM     59  N   UNL A   1      46.251  30.838  27.326  1.00  0.00    -0.354 N 
ATOM     60  N   UNL A   1      45.952  33.506  28.533  1.00  0.00    -0.248 NA
ATOM     61  C   UNL A   1      46.808  35.627  29.006  1.00  0.00     0.031 C 
ATOM     62  C   UNL A   1      48.073  30.428  26.125  1.00  0.00     0.029 A 
ATOM     63  C   UNL A   1      47.439  31.398  26.886  1.00  0.00     0.049 A 
ATOM     64  H   UNL A   1      45.587  31.294  27.894  1.00  0.00     0.167 HD
ATOM     65  C   UNL A   1      47.202  33.636  27.936  1.00  0.00     0.074 A 
ATOM     66  C   UNL A   1      47.674  34.969  28.245  1.00  0.00     0.031 C 
ATOM     67  C   UNL A   1      47.892  32.732  27.196  1.00  0.00     0.037 A 
BRANCH  54  68
ATOM     68  C   UNL A   1      45.103  27.238  26.643  1.00  0.00     0.058 A 
ATOM     69  C   UNL A   1      45.896  26.262  27.267  1.00  0.00     0.135 A 
ATOM     70  C   UNL A   1      44.351  26.850  25.521  1.00  0.00     0.135 A 
ATOM     71  F   UNL A   1      46.646  26.581  28.334  1.00  0.00    -0.206 F 
ATOM     72  C   UNL A   1      45.974  24.963  26.774  1.00  0.00     0.059 A 
ATOM     73  C   UNL A   1      44.391  25.550  25.028  1.00  0.00     0.059 A 
ATOM     74  F   UNL A   1      43.575  27.742  24.887  1.00  0.00    -0.206 F 
ATOM     75  C   UNL A   1      45.222  24.618  25.650  1.00  0.00     0.060 A 
BRANCH  75  76
ATOM     76  S   UNL A   1      45.349  22.936  25.006  1.00  0.00     0.124 S 
ATOM     77  O   UNL A   1      46.218  23.133  23.849  1.00  0.00    -0.237 OA
ATOM     78  O   UNL A   1      45.942  22.215  26.128  1.00  0.00    -0.237 OA
ATOM     79  O   UNL A   1      43.966  22.584  24.699  1.00  0.00    -0.744 OA
ENDBRANCH  75  76
ENDBRANCH  54  68
BRANCH  55  80
ATOM     80  C   UNL A   1      44.443  36.399  30.586  1.00  0.00     0.058 A 
ATOM     81  C   UNL A   1      43.921  37.520  29.925  1.00  0.00     0.135 A 
ATOM     82  C   UNL A   1      44.863  36.560  31.915  1.00  0.00     0.135 A 
ATOM     83  F   UNL A   1      43.518  37.420  28.649  1.00  0.00    -0.206 F 
ATOM     84  C   UNL A   1      43.815  38.755  30.559  1.00  0.00     0.059 A 
ATOM     85  C   UNL A   1      44.745  37.778  32.578  1.00  0.00     0.059 A 
ATOM     86  F   UNL A   1      45.359  35.515  32.595  1.00  0.00    -0.206 F 
ATOM     87  C   UNL A   1      44.222  38.871  31.890  1.00  0.00     0.060 A 
BRANCH  87  88
ATOM     88  S   UNL A   1      44.000  40.455  32.730  1.00  0.00     0.124 S 
ATOM     89  O   UNL A   1      44.911  40.319  33.860  1.00  0.00    -0.237 OA
ATOM     90  O   UNL A   1      44.400  41.407  31.698  1.00  0.00    -0.237 OA
ATOM     91  O   UNL A   1      42.579  40.463  33.060  1.00  0.00    -0.744 OA
ENDBRANCH  87  88
ENDBRANCH  55  80
BRANCH  67  92
ATOM     92  C   UNL A   1      49.221  33.155  26.632  1.00  0.00     0.058 A 
ATOM     93  C   UNL A   1      49.318  34.101  25.601  1.00  0.00     0.135 A 
ATOM     94  C   UNL A   1      50.414  32.678  27.200  1.00  0.00     0.135 A 
ATOM     95  F   UNL A   1      48.209  34.582  25.018  1.00  0.00    -0.206 F 
ATOM     96  C   UNL A   1      50.553  34.560  25.151  1.00  0.00     0.059 A 
ATOM     97  C   UNL A   1      51.658  33.140  26.782  1.00  0.00     0.059 A 
ATOM     98  F   UNL A   1      50.376  31.777  28.195  1.00  0.00    -0.206 F 
ATOM     99  C   UNL A   1      51.717  34.079  25.754  1.00  0.00     0.060 A 
BRANCH  99 100
ATOM    100  S   UNL A   1      53.310  34.734  25.209  1.00  0.00     0.124 S 
ATOM    101  O   UNL A   1      52.897  35.777  24.277  1.00  0.00    -0.237 OA
ATOM    102  O   UNL A   1      53.903  35.197  26.459  1.00  0.00    -0.237 OA
ATOM    103  O   UNL A   1      53.965  33.576  24.605  1.00  0.00    -0.744 OA
ENDBRANCH  99 100
ENDBRANCH  67  92
ENDBRANCH  41  42
ENDBRANCH  34  36
ENDBRANCH  33  34
ENDBRANCH  32  33
ENDBRANCH  31  32
ENDBRANCH  30  31
ENDBRANCH   1  30
TORSDOF 21
ENDMDL
