MODEL 1
REMARK VINA RESULT:     -10.9      0.000      0.000
REMARK SMILES CC(C)Nc1cc2ccccc2cc1C(=O)OCCOCCOC(=O)c1ccc(-c2c3nc(c(-c4c(F)cc(S(=O)(=O)[O-])cc4F)c4ccc([nH]4)c(-c4c(F)cc(S(=O)(=O)[O-])cc4F)c4nc(c(-c5c(F)cc(S(=O)(=O)[O-])cc5F)c5ccc2[nH]5)C=C4)C=C3)cc1
REMARK SMILES IDX 21 1 20 2 19 3 18 4 17 5 15 6 16 7 14 8 5 9 6 10 7 11 13 12
REMARK SMILES IDX 8 13 12 14 9 15 11 16 10 17 4 18 2 20 1 21 3 22 22 23 23 24
REMARK SMILES IDX 24 25 25 26 26 27 27 28 91 29 28 30 90 31 29 32 30 33 31 34
REMARK SMILES IDX 84 35 32 36 89 37 83 38 85 39 33 40 88 41 82 42 81 43 34 45
REMARK SMILES IDX 68 46 47 47 67 48 48 49 51 50 66 51 86 52 49 53 50 54 65 56
REMARK SMILES IDX 87 57 52 58 35 59 36 60 45 61 37 62 38 63 44 64 46 65 39 66
REMARK SMILES IDX 40 67 41 68 42 69 43 70 69 71 70 72 79 73 71 74 72 75 78 76
REMARK SMILES IDX 80 77 73 78 74 79 75 80 76 81 77 82 53 83 54 84 63 85 55 86
REMARK SMILES IDX 56 87 62 88 64 89 57 90 58 91 59 92 60 93 61 94
REMARK H PARENT 4 19 85 44 51 55
REMARK Flexibility Score: inf
ROOT
ATOM      1  C   UNL A   1      33.639  28.855  25.559  1.00  0.00     0.202 C 
ENDROOT
BRANCH   1   2
ATOM      2  O   UNL A   1      33.474  27.585  26.192  1.00  0.00    -0.374 OA
BRANCH   2   3
ATOM      3  C   UNL A   1      32.712  26.600  25.489  1.00  0.00     0.202 C 
BRANCH   3   4
ATOM      4  C   UNL A   1      32.772  25.196  26.088  1.00  0.00     0.261 C 
BRANCH   4   5
ATOM      5  O   UNL A   1      33.136  24.265  25.057  1.00  0.00    -0.460 OA
BRANCH   5   6
ATOM      6  C   UNL A   1      32.360  23.166  24.956  1.00  0.00     0.340 C 
ATOM      7  O   UNL A   1      31.147  23.150  24.803  1.00  0.00    -0.246 OA
BRANCH   6   8
ATOM      8  C   UNL A   1      33.196  21.949  24.832  1.00  0.00     0.083 A 
ATOM      9  C   UNL A   1      34.539  21.810  25.222  1.00  0.00     0.050 A 
ATOM     10  C   UNL A   1      35.095  20.515  25.080  1.00  0.00     0.035 A 
ATOM     11  C   UNL A   1      34.394  19.416  24.543  1.00  0.00    -0.016 A 
ATOM     12  C   UNL A   1      32.503  20.873  24.228  1.00  0.00     0.026 A 
ATOM     13  C   UNL A   1      34.959  18.131  24.476  1.00  0.00     0.009 A 
ATOM     14  C   UNL A   1      33.087  19.612  24.073  1.00  0.00    -0.017 A 
ATOM     15  C   UNL A   1      34.246  17.063  23.927  1.00  0.00     0.001 A 
ATOM     16  C   UNL A   1      32.391  18.539  23.487  1.00  0.00     0.009 A 
ATOM     17  C   UNL A   1      32.969  17.272  23.416  1.00  0.00     0.001 A 
BRANCH   9  18
ATOM     18  N   UNL A   1      35.379  22.744  25.798  1.00  0.00    -0.382 N 
ATOM     19  H   UNL A   1      35.313  22.821  26.777  1.00  0.00     0.160 HD
BRANCH  18  20
ATOM     20  C   UNL A   1      36.347  23.630  25.170  1.00  0.00     0.073 C 
ATOM     21  C   UNL A   1      37.645  23.566  25.976  1.00  0.00     0.030 C 
ATOM     22  C   UNL A   1      36.598  23.161  23.736  1.00  0.00     0.030 C 
ENDBRANCH  18  20
ENDBRANCH   9  18
ENDBRANCH   6   8
ENDBRANCH   5   6
ENDBRANCH   4   5
ENDBRANCH   3   4
ENDBRANCH   2   3
ENDBRANCH   1   2
BRANCH   1  23
ATOM     23  C   UNL A   1      33.147  30.072  26.351  1.00  0.00     0.261 C 
BRANCH  23  24
ATOM     24  O   UNL A   1      33.549  30.048  27.729  1.00  0.00    -0.460 OA
BRANCH  24  25
ATOM     25  C   UNL A   1      34.544  30.908  28.048  1.00  0.00     0.338 C 
ATOM     26  O   UNL A   1      34.438  32.100  28.305  1.00  0.00    -0.246 OA
BRANCH  25  27
ATOM     27  C   UNL A   1      35.814  30.175  28.195  1.00  0.00     0.060 A 
ATOM     28  C   UNL A   1      36.128  29.636  29.450  1.00  0.00     0.016 A 
ATOM     29  C   UNL A   1      36.723  30.095  27.139  1.00  0.00     0.016 A 
ATOM     30  C   UNL A   1      37.379  29.062  29.670  1.00  0.00     0.010 A 
ATOM     31  C   UNL A   1      37.978  29.527  27.364  1.00  0.00     0.010 A 
ATOM     32  C   UNL A   1      38.325  29.044  28.639  1.00  0.00    -0.014 A 
BRANCH  32  33
ATOM     33  C   UNL A   1      39.737  28.688  28.916  1.00  0.00     0.031 A 
ATOM     34  C   UNL A   1      40.641  29.740  29.499  1.00  0.00     0.074 A 
ATOM     35  C   UNL A   1      40.215  27.467  28.629  1.00  0.00     0.049 A 
ATOM     36  N   UNL A   1      41.933  29.715  29.688  1.00  0.00    -0.248 NA
ATOM     37  C   UNL A   1      39.993  30.995  29.914  1.00  0.00     0.031 C 
ATOM     38  C   UNL A   1      39.424  26.347  28.123  1.00  0.00     0.029 A 
ATOM     39  N   UNL A   1      41.492  26.971  28.710  1.00  0.00    -0.354 N 
ATOM     40  C   UNL A   1      42.259  30.955  30.225  1.00  0.00     0.074 A 
ATOM     41  C   UNL A   1      41.032  31.717  30.309  1.00  0.00     0.031 C 
ATOM     42  C   UNL A   1      40.239  25.295  27.925  1.00  0.00     0.029 A 
ATOM     43  C   UNL A   1      41.612  25.685  28.245  1.00  0.00     0.049 A 
ATOM     44  H   UNL A   1      42.250  27.489  29.067  1.00  0.00     0.167 HD
ATOM     45  C   UNL A   1      43.472  31.416  30.614  1.00  0.00     0.037 A 
ATOM     46  C   UNL A   1      42.709  24.921  28.072  1.00  0.00     0.037 A 
ATOM     47  C   UNL A   1      44.688  30.653  30.519  1.00  0.00     0.049 A 
ATOM     48  C   UNL A   1      44.064  25.481  28.425  1.00  0.00     0.074 A 
ATOM     49  C   UNL A   1      45.971  31.024  30.881  1.00  0.00     0.029 A 
ATOM     50  N   UNL A   1      44.772  29.361  30.016  1.00  0.00    -0.354 N 
ATOM     51  N   UNL A   1      44.365  26.658  28.921  1.00  0.00    -0.248 NA
ATOM     52  C   UNL A   1      45.227  24.615  28.187  1.00  0.00     0.031 C 
ATOM     53  C   UNL A   1      46.837  29.975  30.555  1.00  0.00     0.029 A 
ATOM     54  C   UNL A   1      46.087  28.928  30.040  1.00  0.00     0.049 A 
ATOM     55  H   UNL A   1      44.010  28.832  29.691  1.00  0.00     0.167 HD
ATOM     56  C   UNL A   1      45.746  26.656  29.097  1.00  0.00     0.074 A 
ATOM     57  C   UNL A   1      46.222  25.367  28.639  1.00  0.00     0.031 C 
ATOM     58  C   UNL A   1      46.542  27.631  29.603  1.00  0.00     0.037 A 
BRANCH  45  59
ATOM     59  C   UNL A   1      43.537  32.827  31.132  1.00  0.00     0.058 A 
ATOM     60  C   UNL A   1      43.661  33.928  30.270  1.00  0.00     0.135 A 
ATOM     61  C   UNL A   1      43.500  33.079  32.513  1.00  0.00     0.135 A 
ATOM     62  F   UNL A   1      43.717  33.743  28.941  1.00  0.00    -0.206 F 
ATOM     63  C   UNL A   1      43.801  35.223  30.758  1.00  0.00     0.059 A 
ATOM     64  C   UNL A   1      43.607  34.370  33.023  1.00  0.00     0.059 A 
ATOM     65  F   UNL A   1      43.379  32.064  33.383  1.00  0.00    -0.206 F 
ATOM     66  C   UNL A   1      43.784  35.432  32.138  1.00  0.00     0.060 A 
BRANCH  66  67
ATOM     67  S   UNL A   1      44.018  37.109  32.763  1.00  0.00     0.124 S 
ATOM     68  O   UNL A   1      43.922  37.892  31.534  1.00  0.00    -0.237 OA
ATOM     69  O   UNL A   1      42.905  37.256  33.696  1.00  0.00    -0.237 OA
ATOM     70  O   UNL A   1      45.342  37.062  33.375  1.00  0.00    -0.744 OA
ENDBRANCH  66  67
ENDBRANCH  45  59
BRANCH  46  71
ATOM     71  C   UNL A   1      42.567  23.540  27.545  1.00  0.00     0.058 A 
ATOM     72  C   UNL A   1      42.658  23.286  26.169  1.00  0.00     0.135 A 
ATOM     73  C   UNL A   1      42.382  22.443  28.402  1.00  0.00     0.135 A 
ATOM     74  F   UNL A   1      42.821  24.303  25.309  1.00  0.00    -0.206 F 
ATOM     75  C   UNL A   1      42.573  21.995  25.659  1.00  0.00     0.059 A 
ATOM     76  C   UNL A   1      42.317  21.141  27.919  1.00  0.00     0.059 A 
ATOM     77  F   UNL A   1      42.299  22.633  29.728  1.00  0.00    -0.206 F 
ATOM     78  C   UNL A   1      42.412  20.927  26.544  1.00  0.00     0.060 A 
BRANCH  78  79
ATOM     79  S   UNL A   1      42.390  19.249  25.876  1.00  0.00     0.124 S 
ATOM     80  O   UNL A   1      40.963  19.035  25.664  1.00  0.00    -0.237 OA
ATOM     81  O   UNL A   1      43.202  19.389  24.672  1.00  0.00    -0.237 OA
ATOM     82  O   UNL A   1      42.996  18.456  26.941  1.00  0.00    -0.744 OA
ENDBRANCH  78  79
ENDBRANCH  46  71
BRANCH  58  83
ATOM     83  C   UNL A   1      48.009  27.333  29.756  1.00  0.00     0.058 A 
ATOM     84  C   UNL A   1      48.935  27.613  28.740  1.00  0.00     0.135 A 
ATOM     85  C   UNL A   1      48.503  26.853  30.981  1.00  0.00     0.135 A 
ATOM     86  F   UNL A   1      48.514  28.066  27.548  1.00  0.00    -0.206 F 
ATOM     87  C   UNL A   1      50.301  27.429  28.933  1.00  0.00     0.059 A 
ATOM     88  C   UNL A   1      49.865  26.684  31.204  1.00  0.00     0.059 A 
ATOM     89  F   UNL A   1      47.658  26.575  31.986  1.00  0.00    -0.206 F 
ATOM     90  C   UNL A   1      50.757  26.973  30.172  1.00  0.00     0.060 A 
BRANCH  90  91
ATOM     91  S   UNL A   1      52.537  26.813  30.437  1.00  0.00     0.124 S 
ATOM     92  O   UNL A   1      52.604  25.622  31.277  1.00  0.00    -0.237 OA
ATOM     93  O   UNL A   1      53.041  26.655  29.075  1.00  0.00    -0.237 OA
ATOM     94  O   UNL A   1      52.897  28.066  31.091  1.00  0.00    -0.744 OA
ENDBRANCH  90  91
ENDBRANCH  58  83
ENDBRANCH  32  33
ENDBRANCH  25  27
ENDBRANCH  24  25
ENDBRANCH  23  24
ENDBRANCH   1  23
TORSDOF 19
ENDMDL
MODEL 2
REMARK VINA RESULT:     -10.6      2.493      3.691
REMARK SMILES CC(C)Nc1cc2ccccc2cc1C(=O)OCCOCCOC(=O)c1ccc(-c2c3nc(c(-c4c(F)cc(S(=O)(=O)[O-])cc4F)c4ccc([nH]4)c(-c4c(F)cc(S(=O)(=O)[O-])cc4F)c4nc(c(-c5c(F)cc(S(=O)(=O)[O-])cc5F)c5ccc2[nH]5)C=C4)C=C3)cc1
REMARK SMILES IDX 21 1 20 2 19 3 18 4 17 5 15 6 16 7 14 8 5 9 6 10 7 11 13 12
REMARK SMILES IDX 8 13 12 14 9 15 11 16 10 17 4 18 2 20 1 21 3 22 22 23 23 24
REMARK SMILES IDX 24 25 25 26 26 27 27 28 91 29 28 30 90 31 29 32 30 33 31 34
REMARK SMILES IDX 84 35 32 36 89 37 83 38 85 39 33 40 88 41 82 42 81 43 34 45
REMARK SMILES IDX 68 46 47 47 67 48 48 49 51 50 66 51 86 52 49 53 50 54 65 56
REMARK SMILES IDX 87 57 52 58 35 59 36 60 45 61 37 62 38 63 44 64 46 65 39 66
REMARK SMILES IDX 40 67 41 68 42 69 43 70 69 71 70 72 79 73 71 74 72 75 78 76
REMARK SMILES IDX 80 77 73 78 74 79 75 80 76 81 77 82 53 83 54 84 63 85 55 86
REMARK SMILES IDX 56 87 62 88 64 89 57 90 58 91 59 92 60 93 61 94
REMARK H PARENT 4 19 85 44 51 55
REMARK Flexibility Score: inf
ROOT
ATOM      1  C   UNL A   1      34.139  29.420  26.949  1.00  0.00     0.202 C 
ENDROOT
BRANCH   1   2
ATOM      2  O   UNL A   1      33.446  28.261  27.417  1.00  0.00    -0.374 OA
BRANCH   2   3
ATOM      3  C   UNL A   1      32.129  28.038  26.904  1.00  0.00     0.202 C 
BRANCH   3   4
ATOM      4  C   UNL A   1      31.936  26.699  26.195  1.00  0.00     0.261 C 
BRANCH   4   5
ATOM      5  O   UNL A   1      33.165  25.958  26.258  1.00  0.00    -0.460 OA
BRANCH   5   6
ATOM      6  C   UNL A   1      33.753  25.692  25.073  1.00  0.00     0.340 C 
ATOM      7  O   UNL A   1      33.839  26.456  24.123  1.00  0.00    -0.246 OA
BRANCH   6   8
ATOM      8  C   UNL A   1      34.494  24.411  25.137  1.00  0.00     0.083 A 
ATOM      9  C   UNL A   1      33.999  23.137  24.807  1.00  0.00     0.050 A 
ATOM     10  C   UNL A   1      34.932  22.074  24.867  1.00  0.00     0.035 A 
ATOM     11  C   UNL A   1      36.274  22.232  25.269  1.00  0.00    -0.016 A 
ATOM     12  C   UNL A   1      35.819  24.572  25.608  1.00  0.00     0.026 A 
ATOM     13  C   UNL A   1      37.187  21.163  25.255  1.00  0.00     0.009 A 
ATOM     14  C   UNL A   1      36.712  23.498  25.685  1.00  0.00    -0.017 A 
ATOM     15  C   UNL A   1      38.507  21.345  25.673  1.00  0.00     0.001 A 
ATOM     16  C   UNL A   1      38.032  23.662  26.139  1.00  0.00     0.009 A 
ATOM     17  C   UNL A   1      38.925  22.590  26.131  1.00  0.00     0.001 A 
BRANCH   9  18
ATOM     18  N   UNL A   1      32.740  22.783  24.359  1.00  0.00    -0.382 N 
ATOM     19  H   UNL A   1      32.077  22.608  25.066  1.00  0.00     0.160 HD
BRANCH  18  20
ATOM     20  C   UNL A   1      32.251  22.630  22.998  1.00  0.00     0.073 C 
ATOM     21  C   UNL A   1      33.242  23.315  22.056  1.00  0.00     0.030 C 
ATOM     22  C   UNL A   1      32.155  21.141  22.664  1.00  0.00     0.030 C 
ENDBRANCH  18  20
ENDBRANCH   9  18
ENDBRANCH   6   8
ENDBRANCH   5   6
ENDBRANCH   4   5
ENDBRANCH   3   4
ENDBRANCH   2   3
ENDBRANCH   1   2
BRANCH   1  23
ATOM     23  C   UNL A   1      34.171  30.617  27.905  1.00  0.00     0.261 C 
BRANCH  23  24
ATOM     24  O   UNL A   1      35.448  31.271  27.948  1.00  0.00    -0.460 OA
BRANCH  24  25
ATOM     25  C   UNL A   1      36.113  31.151  29.121  1.00  0.00     0.338 C 
ATOM     26  O   UNL A   1      35.743  31.534  30.223  1.00  0.00    -0.246 OA
BRANCH  25  27
ATOM     27  C   UNL A   1      37.328  30.341  28.929  1.00  0.00     0.060 A 
ATOM     28  C   UNL A   1      38.100  30.025  30.056  1.00  0.00     0.016 A 
ATOM     29  C   UNL A   1      37.752  29.973  27.651  1.00  0.00     0.016 A 
ATOM     30  C   UNL A   1      39.329  29.386  29.903  1.00  0.00     0.010 A 
ATOM     31  C   UNL A   1      38.987  29.341  27.499  1.00  0.00     0.010 A 
ATOM     32  C   UNL A   1      39.797  29.080  28.620  1.00  0.00    -0.014 A 
BRANCH  32  33
ATOM     33  C   UNL A   1      41.201  28.650  28.411  1.00  0.00     0.031 A 
ATOM     34  C   UNL A   1      42.283  29.694  28.446  1.00  0.00     0.074 A 
ATOM     35  C   UNL A   1      41.505  27.366  28.165  1.00  0.00     0.049 A 
ATOM     36  N   UNL A   1      43.551  29.588  28.148  1.00  0.00    -0.248 NA
ATOM     37  C   UNL A   1      41.871  31.043  28.868  1.00  0.00     0.031 C 
ATOM     38  C   UNL A   1      40.553  26.256  28.168  1.00  0.00     0.029 A 
ATOM     39  N   UNL A   1      42.705  26.782  27.847  1.00  0.00    -0.354 N 
ATOM     40  C   UNL A   1      44.086  30.859  28.325  1.00  0.00     0.074 A 
ATOM     41  C   UNL A   1      43.001  31.723  28.733  1.00  0.00     0.031 C 
ATOM     42  C   UNL A   1      41.207  25.124  27.853  1.00  0.00     0.029 A 
ATOM     43  C   UNL A   1      42.609  25.439  27.580  1.00  0.00     0.049 A 
ATOM     44  H   UNL A   1      43.555  27.280  27.814  1.00  0.00     0.167 HD
ATOM     45  C   UNL A   1      45.368  31.267  28.164  1.00  0.00     0.037 A 
ATOM     46  C   UNL A   1      43.541  24.571  27.138  1.00  0.00     0.037 A 
ATOM     47  C   UNL A   1      46.439  30.400  27.749  1.00  0.00     0.049 A 
ATOM     48  C   UNL A   1      44.942  25.060  26.875  1.00  0.00     0.074 A 
ATOM     49  C   UNL A   1      47.773  30.710  27.550  1.00  0.00     0.029 A 
ATOM     50  N   UNL A   1      46.295  29.049  27.461  1.00  0.00    -0.354 N 
ATOM     51  N   UNL A   1      45.437  26.264  27.034  1.00  0.00    -0.248 NA
ATOM     52  C   UNL A   1      45.908  24.076  26.367  1.00  0.00     0.031 C 
ATOM     53  C   UNL A   1      48.426  29.558  27.099  1.00  0.00     0.029 A 
ATOM     54  C   UNL A   1      47.511  28.517  27.068  1.00  0.00     0.049 A 
ATOM     55  H   UNL A   1      45.453  28.545  27.527  1.00  0.00     0.167 HD
ATOM     56  C   UNL A   1      46.783  26.173  26.687  1.00  0.00     0.074 A 
ATOM     57  C   UNL A   1      47.019  24.798  26.296  1.00  0.00     0.031 C 
ATOM     58  C   UNL A   1      47.736  27.138  26.705  1.00  0.00     0.037 A 
BRANCH  45  59
ATOM     59  C   UNL A   1      45.659  32.725  28.391  1.00  0.00     0.058 A 
ATOM     60  C   UNL A   1      46.040  33.217  29.650  1.00  0.00     0.135 A 
ATOM     61  C   UNL A   1      45.530  33.648  27.340  1.00  0.00     0.135 A 
ATOM     62  F   UNL A   1      46.164  32.381  30.694  1.00  0.00    -0.206 F 
ATOM     63  C   UNL A   1      46.231  34.577  29.872  1.00  0.00     0.059 A 
ATOM     64  C   UNL A   1      45.746  35.009  27.533  1.00  0.00     0.059 A 
ATOM     65  F   UNL A   1      45.171  33.232  26.116  1.00  0.00    -0.206 F 
ATOM     66  C   UNL A   1      46.070  35.467  28.809  1.00  0.00     0.060 A 
BRANCH  66  67
ATOM     67  S   UNL A   1      46.268  37.234  29.120  1.00  0.00     0.124 S 
ATOM     68  O   UNL A   1      45.413  37.420  30.288  1.00  0.00    -0.237 OA
ATOM     69  O   UNL A   1      47.703  37.352  29.361  1.00  0.00    -0.237 OA
ATOM     70  O   UNL A   1      45.790  37.852  27.888  1.00  0.00    -0.744 OA
ENDBRANCH  66  67
ENDBRANCH  45  59
BRANCH  46  71
ATOM     71  C   UNL A   1      43.176  23.146  26.925  1.00  0.00     0.058 A 
ATOM     72  C   UNL A   1      42.958  22.649  25.633  1.00  0.00     0.135 A 
ATOM     73  C   UNL A   1      43.079  22.246  27.998  1.00  0.00     0.135 A 
ATOM     74  F   UNL A   1      43.026  23.474  24.577  1.00  0.00    -0.206 F 
ATOM     75  C   UNL A   1      42.660  21.309  25.408  1.00  0.00     0.059 A 
ATOM     76  C   UNL A   1      42.804  20.897  27.798  1.00  0.00     0.059 A 
ATOM     77  F   UNL A   1      43.288  22.672  29.254  1.00  0.00    -0.206 F 
ATOM     78  C   UNL A   1      42.595  20.439  26.498  1.00  0.00     0.060 A 
BRANCH  78  79
ATOM     79  S   UNL A   1      42.293  18.686  26.184  1.00  0.00     0.124 S 
ATOM     80  O   UNL A   1      43.287  18.394  25.157  1.00  0.00    -0.237 OA
ATOM     81  O   UNL A   1      42.537  18.095  27.496  1.00  0.00    -0.237 OA
ATOM     82  O   UNL A   1      40.902  18.660  25.743  1.00  0.00    -0.744 OA
ENDBRANCH  78  79
ENDBRANCH  46  71
BRANCH  58  83
ATOM     83  C   UNL A   1      49.144  26.744  26.352  1.00  0.00     0.058 A 
ATOM     84  C   UNL A   1      49.995  26.121  27.276  1.00  0.00     0.135 A 
ATOM     85  C   UNL A   1      49.607  26.903  25.035  1.00  0.00     0.135 A 
ATOM     86  F   UNL A   1      49.604  25.952  28.549  1.00  0.00    -0.206 F 
ATOM     87  C   UNL A   1      51.259  25.668  26.907  1.00  0.00     0.059 A 
ATOM     88  C   UNL A   1      50.856  26.437  24.639  1.00  0.00     0.059 A 
ATOM     89  F   UNL A   1      48.828  27.487  24.112  1.00  0.00    -0.206 F 
ATOM     90  C   UNL A   1      51.677  25.823  25.583  1.00  0.00     0.060 A 
BRANCH  90  91
ATOM     91  S   UNL A   1      53.286  25.161  25.097  1.00  0.00     0.124 S 
ATOM     92  O   UNL A   1      53.337  25.520  23.684  1.00  0.00    -0.237 OA
ATOM     93  O   UNL A   1      54.200  25.894  25.970  1.00  0.00    -0.237 OA
ATOM     94  O   UNL A   1      53.167  23.735  25.381  1.00  0.00    -0.744 OA
ENDBRANCH  90  91
ENDBRANCH  58  83
ENDBRANCH  32  33
ENDBRANCH  25  27
ENDBRANCH  24  25
ENDBRANCH  23  24
ENDBRANCH   1  23
TORSDOF 19
ENDMDL
MODEL 3
REMARK VINA RESULT:     -10.6      5.422     10.714
REMARK SMILES CC(C)Nc1cc2ccccc2cc1C(=O)OCCOCCOC(=O)c1ccc(-c2c3nc(c(-c4c(F)cc(S(=O)(=O)[O-])cc4F)c4ccc([nH]4)c(-c4c(F)cc(S(=O)(=O)[O-])cc4F)c4nc(c(-c5c(F)cc(S(=O)(=O)[O-])cc5F)c5ccc2[nH]5)C=C4)C=C3)cc1
REMARK SMILES IDX 21 1 20 2 19 3 18 4 17 5 15 6 16 7 14 8 5 9 6 10 7 11 13 12
REMARK SMILES IDX 8 13 12 14 9 15 11 16 10 17 4 18 2 20 1 21 3 22 22 23 23 24
REMARK SMILES IDX 24 25 25 26 26 27 27 28 91 29 28 30 90 31 29 32 30 33 31 34
REMARK SMILES IDX 84 35 32 36 89 37 83 38 85 39 33 40 88 41 82 42 81 43 34 45
REMARK SMILES IDX 68 46 47 47 67 48 48 49 51 50 66 51 86 52 49 53 50 54 65 56
REMARK SMILES IDX 87 57 52 58 35 59 36 60 45 61 37 62 38 63 44 64 46 65 39 66
REMARK SMILES IDX 40 67 41 68 42 69 43 70 69 71 70 72 79 73 71 74 72 75 78 76
REMARK SMILES IDX 80 77 73 78 74 79 75 80 76 81 77 82 53 83 54 84 63 85 55 86
REMARK SMILES IDX 56 87 62 88 64 89 57 90 58 91 59 92 60 93 61 94
REMARK H PARENT 4 19 85 44 51 55
REMARK Flexibility Score: inf
ROOT
ATOM      1  C   UNL A   1      45.127  24.145  24.921  1.00  0.00     0.202 C 
ENDROOT
BRANCH   1   2
ATOM      2  O   UNL A   1      45.584  23.368  26.030  1.00  0.00    -0.374 OA
BRANCH   2   3
ATOM      3  C   UNL A   1      45.936  24.077  27.221  1.00  0.00     0.202 C 
BRANCH   3   4
ATOM      4  C   UNL A   1      45.078  23.745  28.441  1.00  0.00     0.261 C 
BRANCH   4   5
ATOM      5  O   UNL A   1      44.125  22.734  28.078  1.00  0.00    -0.460 OA
BRANCH   5   6
ATOM      6  C   UNL A   1      42.922  22.814  28.684  1.00  0.00     0.340 C 
ATOM      7  O   UNL A   1      42.692  23.336  29.765  1.00  0.00    -0.246 OA
BRANCH   6   8
ATOM      8  C   UNL A   1      41.847  22.376  27.763  1.00  0.00     0.083 A 
ATOM      9  C   UNL A   1      41.800  21.172  27.040  1.00  0.00     0.050 A 
ATOM     10  C   UNL A   1      40.619  20.944  26.292  1.00  0.00     0.035 A 
ATOM     11  C   UNL A   1      39.551  21.860  26.216  1.00  0.00    -0.016 A 
ATOM     12  C   UNL A   1      40.813  23.335  27.641  1.00  0.00     0.026 A 
ATOM     13  C   UNL A   1      38.368  21.571  25.514  1.00  0.00     0.009 A 
ATOM     14  C   UNL A   1      39.670  23.095  26.871  1.00  0.00    -0.017 A 
ATOM     15  C   UNL A   1      37.331  22.504  25.443  1.00  0.00     0.001 A 
ATOM     16  C   UNL A   1      38.637  24.042  26.763  1.00  0.00     0.009 A 
ATOM     17  C   UNL A   1      37.473  23.746  26.053  1.00  0.00     0.001 A 
BRANCH   9  18
ATOM     18  N   UNL A   1      42.716  20.138  27.011  1.00  0.00    -0.382 N 
ATOM     19  H   UNL A   1      43.444  20.204  27.671  1.00  0.00     0.160 HD
BRANCH  18  20
ATOM     20  C   UNL A   1      42.763  18.966  26.151  1.00  0.00     0.073 C 
ATOM     21  C   UNL A   1      43.884  19.168  25.130  1.00  0.00     0.030 C 
ATOM     22  C   UNL A   1      43.048  17.729  27.004  1.00  0.00     0.030 C 
ENDBRANCH  18  20
ENDBRANCH   9  18
ENDBRANCH   6   8
ENDBRANCH   5   6
ENDBRANCH   4   5
ENDBRANCH   3   4
ENDBRANCH   2   3
ENDBRANCH   1   2
BRANCH   1  23
ATOM     23  C   UNL A   1      43.672  24.624  24.987  1.00  0.00     0.261 C 
BRANCH  23  24
ATOM     24  O   UNL A   1      43.547  25.988  25.417  1.00  0.00    -0.460 OA
BRANCH  24  25
ATOM     25  C   UNL A   1      42.292  26.365  25.758  1.00  0.00     0.338 C 
ATOM     26  O   UNL A   1      41.273  26.227  25.095  1.00  0.00    -0.246 OA
BRANCH  25  27
ATOM     27  C   UNL A   1      42.276  26.859  27.146  1.00  0.00     0.060 A 
ATOM     28  C   UNL A   1      41.370  26.281  28.046  1.00  0.00     0.016 A 
ATOM     29  C   UNL A   1      43.076  27.935  27.535  1.00  0.00     0.016 A 
ATOM     30  C   UNL A   1      41.220  26.813  29.325  1.00  0.00     0.010 A 
ATOM     31  C   UNL A   1      42.918  28.472  28.814  1.00  0.00     0.010 A 
ATOM     32  C   UNL A   1      41.964  27.938  29.699  1.00  0.00    -0.014 A 
BRANCH  32  33
ATOM     33  C   UNL A   1      41.638  28.681  30.940  1.00  0.00     0.031 A 
ATOM     34  C   UNL A   1      40.479  29.640  30.918  1.00  0.00     0.074 A 
ATOM     35  C   UNL A   1      42.371  28.529  32.055  1.00  0.00     0.049 A 
ATOM     36  N   UNL A   1      40.095  30.502  31.821  1.00  0.00    -0.248 NA
ATOM     37  C   UNL A   1      39.649  29.628  29.702  1.00  0.00     0.031 C 
ATOM     38  C   UNL A   1      43.475  27.585  32.218  1.00  0.00     0.029 A 
ATOM     39  N   UNL A   1      42.304  29.184  33.258  1.00  0.00    -0.354 N 
ATOM     40  C   UNL A   1      38.992  31.151  31.279  1.00  0.00     0.074 A 
ATOM     41  C   UNL A   1      38.784  30.599  29.958  1.00  0.00     0.031 C 
ATOM     42  C   UNL A   1      43.992  27.732  33.451  1.00  0.00     0.029 A 
ATOM     43  C   UNL A   1      43.286  28.811  34.142  1.00  0.00     0.049 A 
ATOM     44  H   UNL A   1      41.617  29.859  33.468  1.00  0.00     0.167 HD
ATOM     45  C   UNL A   1      38.222  32.118  31.832  1.00  0.00     0.037 A 
ATOM     46  C   UNL A   1      43.596  29.304  35.357  1.00  0.00     0.037 A 
ATOM     47  C   UNL A   1      38.444  32.666  33.144  1.00  0.00     0.049 A 
ATOM     48  C   UNL A   1      42.786  30.443  35.922  1.00  0.00     0.074 A 
ATOM     49  C   UNL A   1      37.727  33.651  33.800  1.00  0.00     0.029 A 
ATOM     50  N   UNL A   1      39.468  32.280  33.999  1.00  0.00    -0.354 N 
ATOM     51  N   UNL A   1      41.752  31.058  35.398  1.00  0.00    -0.248 NA
ATOM     52  C   UNL A   1      43.188  30.960  37.238  1.00  0.00     0.031 C 
ATOM     53  C   UNL A   1      38.344  33.893  35.032  1.00  0.00     0.029 A 
ATOM     54  C   UNL A   1      39.413  33.020  35.168  1.00  0.00     0.049 A 
ATOM     55  H   UNL A   1      40.133  31.583  33.802  1.00  0.00     0.167 HD
ATOM     56  C   UNL A   1      41.353  32.004  36.339  1.00  0.00     0.074 A 
ATOM     57  C   UNL A   1      42.267  31.889  37.457  1.00  0.00     0.031 C 
ATOM     58  C   UNL A   1      40.317  32.877  36.284  1.00  0.00     0.037 A 
BRANCH  45  59
ATOM     59  C   UNL A   1      37.103  32.670  30.993  1.00  0.00     0.058 A 
ATOM     60  C   UNL A   1      37.309  33.713  30.075  1.00  0.00     0.135 A 
ATOM     61  C   UNL A   1      35.799  32.165  31.126  1.00  0.00     0.135 A 
ATOM     62  F   UNL A   1      38.532  34.244  29.919  1.00  0.00    -0.206 F 
ATOM     63  C   UNL A   1      36.255  34.272  29.360  1.00  0.00     0.059 A 
ATOM     64  C   UNL A   1      34.735  32.688  30.397  1.00  0.00     0.059 A 
ATOM     65  F   UNL A   1      35.545  31.166  31.985  1.00  0.00    -0.206 F 
ATOM     66  C   UNL A   1      34.969  33.759  29.537  1.00  0.00     0.060 A 
BRANCH  66  67
ATOM     67  S   UNL A   1      33.600  34.526  28.643  1.00  0.00     0.124 S 
ATOM     68  O   UNL A   1      32.687  34.850  29.735  1.00  0.00    -0.237 OA
ATOM     69  O   UNL A   1      34.245  35.665  27.997  1.00  0.00    -0.237 OA
ATOM     70  O   UNL A   1      33.149  33.470  27.742  1.00  0.00    -0.744 OA
ENDBRANCH  66  67
ENDBRANCH  45  59
BRANCH  46  71
ATOM     71  C   UNL A   1      44.724  28.715  36.124  1.00  0.00     0.058 A 
ATOM     72  C   UNL A   1      46.024  29.221  35.987  1.00  0.00     0.135 A 
ATOM     73  C   UNL A   1      44.522  27.666  37.036  1.00  0.00     0.135 A 
ATOM     74  F   UNL A   1      46.269  30.213  35.118  1.00  0.00    -0.206 F 
ATOM     75  C   UNL A   1      47.086  28.713  36.729  1.00  0.00     0.059 A 
ATOM     76  C   UNL A   1      45.562  27.157  37.806  1.00  0.00     0.059 A 
ATOM     77  F   UNL A   1      43.294  27.154  37.210  1.00  0.00    -0.206 F 
ATOM     78  C   UNL A   1      46.842  27.687  37.644  1.00  0.00     0.060 A 
BRANCH  78  79
ATOM     79  S   UNL A   1      48.212  27.096  38.663  1.00  0.00     0.124 S 
ATOM     80  O   UNL A   1      48.274  25.689  38.285  1.00  0.00    -0.237 OA
ATOM     81  O   UNL A   1      49.316  27.932  38.202  1.00  0.00    -0.237 OA
ATOM     82  O   UNL A   1      47.758  27.366  40.023  1.00  0.00    -0.744 OA
ENDBRANCH  78  79
ENDBRANCH  46  71
BRANCH  58  83
ATOM     83  C   UNL A   1      40.061  33.743  37.487  1.00  0.00     0.058 A 
ATOM     84  C   UNL A   1      40.665  35.000  37.640  1.00  0.00     0.135 A 
ATOM     85  C   UNL A   1      39.116  33.346  38.448  1.00  0.00     0.135 A 
ATOM     86  F   UNL A   1      41.581  35.422  36.754  1.00  0.00    -0.206 F 
ATOM     87  C   UNL A   1      40.340  35.835  38.706  1.00  0.00     0.059 A 
ATOM     88  C   UNL A   1      38.759  34.174  39.507  1.00  0.00     0.059 A 
ATOM     89  F   UNL A   1      38.505  32.156  38.342  1.00  0.00    -0.206 F 
ATOM     90  C   UNL A   1      39.379  35.417  39.629  1.00  0.00     0.060 A 
BRANCH  90  91
ATOM     91  S   UNL A   1      38.909  36.541  40.962  1.00  0.00     0.124 S 
ATOM     92  O   UNL A   1      38.404  37.688  40.216  1.00  0.00    -0.237 OA
ATOM     93  O   UNL A   1      37.905  35.765  41.685  1.00  0.00    -0.237 OA
ATOM     94  O   UNL A   1      40.160  36.759  41.681  1.00  0.00    -0.744 OA
ENDBRANCH  90  91
ENDBRANCH  58  83
ENDBRANCH  32  33
ENDBRANCH  25  27
ENDBRANCH  24  25
ENDBRANCH  23  24
ENDBRANCH   1  23
TORSDOF 19
ENDMDL
