MODEL 1
REMARK VINA RESULT:      -8.2      0.000      0.000
REMARK SMILES C[C@@H](C(=O)OCCOCCOC(=O)c1ccc(-c2c3nc(c(-c4c(F)cc(S(=O)(=O)[O-])cc4F)c4ccc([nH]4)c(-c4c(F)cc(S(=O)(=O)[O-])cc4F)c4nc(c(-c5c(F)cc(S(=O)(=O)[O-])cc5F)c5ccc2[nH]5)C=C4)C=C3)cc1)c1ccc(C[C@H]2CCCC2=O)cc1[N+](=O)[O-]
REMARK SMILES IDX 8 1 7 2 6 3 5 4 3 5 4 6 2 7 1 8 80 9 81 10 92 11 82 12 91 13
REMARK SMILES IDX 83 14 93 15 94 16 95 17 84 18 85 19 86 20 89 21 87 22 88 23
REMARK SMILES IDX 90 24 9 25 10 26 11 27 12 28 13 29 14 30 15 31 79 32 16 33
REMARK SMILES IDX 78 34 17 35 18 36 19 37 72 38 20 39 77 40 71 41 73 42 21 43
REMARK SMILES IDX 76 44 70 45 69 46 22 48 56 49 35 50 55 51 36 52 39 53 54 54
REMARK SMILES IDX 74 55 37 56 38 57 53 59 75 60 40 61 23 62 24 63 33 64 25 65
REMARK SMILES IDX 26 66 32 67 34 68 27 69 28 70 29 71 30 72 31 73 57 74 58 75
REMARK SMILES IDX 67 76 59 77 60 78 66 79 68 80 61 81 62 82 63 83 64 84 65 85
REMARK SMILES IDX 41 86 42 87 51 88 43 89 44 90 50 91 52 92 45 93 46 94 47 95
REMARK SMILES IDX 48 96 49 97
REMARK H PARENT 73 47 39 58
REMARK Flexibility Score: inf
ROOT
ATOM      1  O   UNL A   1      44.804  23.381  27.291  1.00  0.00    -0.374 OA
ENDROOT
BRANCH   1   2
ATOM      2  C   UNL A   1      45.883  23.798  26.451  1.00  0.00     0.202 C 
BRANCH   2   3
ATOM      3  C   UNL A   1      46.132  25.309  26.395  1.00  0.00     0.261 C 
BRANCH   3   4
ATOM      4  O   UNL A   1      47.068  25.686  27.420  1.00  0.00    -0.463 OA
BRANCH   4   5
ATOM      5  C   UNL A   1      46.595  26.524  28.380  1.00  0.00     0.313 C 
ATOM      6  O   UNL A   1      45.915  26.167  29.336  1.00  0.00    -0.252 OA
BRANCH   5   7
ATOM      7  C   UNL A   1      47.139  27.953  28.226  1.00  0.00     0.133 C 
ATOM      8  C   UNL A   1      48.428  28.215  29.017  1.00  0.00     0.025 C 
BRANCH   7   9
ATOM      9  C   UNL A   1      46.074  29.027  28.502  1.00  0.00     0.044 A 
ATOM     10  C   UNL A   1      45.675  29.316  29.823  1.00  0.00     0.012 A 
ATOM     11  C   UNL A   1      45.445  29.779  27.490  1.00  0.00     0.273 A 
ATOM     12  C   UNL A   1      44.672  30.250  30.110  1.00  0.00     0.004 A 
ATOM     13  C   UNL A   1      44.423  30.708  27.768  1.00  0.00     0.089 A 
ATOM     14  C   UNL A   1      44.002  30.921  29.084  1.00  0.00    -0.040 A 
BRANCH  11  15
ATOM     15  N   UNL A   1      45.813  29.643  26.088  1.00  0.00     0.063 N 
ATOM     16  O   UNL A   1      46.312  30.637  25.542  1.00  0.00    -0.258 OA
ATOM     17  O   UNL A   1      45.575  28.563  25.535  1.00  0.00    -0.258 OA
ENDBRANCH  11  15
BRANCH  14  18
ATOM     18  C   UNL A   1      42.823  31.816  29.387  1.00  0.00     0.047 C 
BRANCH  18  19
ATOM     19  C   UNL A   1      43.145  33.119  30.133  1.00  0.00     0.060 C 
ATOM     20  C   UNL A   1      42.935  34.425  29.359  1.00  0.00     0.012 C 
ATOM     21  C   UNL A   1      42.263  33.327  31.343  1.00  0.00     0.136 C 
ATOM     22  C   UNL A   1      41.562  34.947  29.769  1.00  0.00     0.009 C 
ATOM     23  C   UNL A   1      41.399  34.556  31.230  1.00  0.00     0.076 C 
ATOM     24  O   UNL A   1      42.267  32.586  32.319  1.00  0.00    -0.299 OA
ENDBRANCH  18  19
ENDBRANCH  14  18
ENDBRANCH   7   9
ENDBRANCH   5   7
ENDBRANCH   4   5
ENDBRANCH   3   4
ENDBRANCH   2   3
ENDBRANCH   1   2
BRANCH   1  25
ATOM     25  C   UNL A   1      43.773  22.592  26.696  1.00  0.00     0.202 C 
BRANCH  25  26
ATOM     26  C   UNL A   1      42.829  23.300  25.718  1.00  0.00     0.261 C 
BRANCH  26  27
ATOM     27  O   UNL A   1      41.736  23.950  26.390  1.00  0.00    -0.460 OA
BRANCH  27  28
ATOM     28  C   UNL A   1      41.654  25.283  26.170  1.00  0.00     0.338 C 
ATOM     29  O   UNL A   1      41.451  25.840  25.096  1.00  0.00    -0.246 OA
BRANCH  28  30
ATOM     30  C   UNL A   1      41.660  26.019  27.445  1.00  0.00     0.060 A 
ATOM     31  C   UNL A   1      40.499  25.954  28.226  1.00  0.00     0.016 A 
ATOM     32  C   UNL A   1      42.732  26.828  27.831  1.00  0.00     0.016 A 
ATOM     33  C   UNL A   1      40.381  26.741  29.368  1.00  0.00     0.010 A 
ATOM     34  C   UNL A   1      42.607  27.625  28.976  1.00  0.00     0.010 A 
ATOM     35  C   UNL A   1      41.417  27.614  29.726  1.00  0.00    -0.014 A 
BRANCH  35  36
ATOM     36  C   UNL A   1      41.179  28.617  30.793  1.00  0.00     0.031 A 
ATOM     37  C   UNL A   1      42.050  28.596  32.021  1.00  0.00     0.074 A 
ATOM     38  C   UNL A   1      40.236  29.565  30.649  1.00  0.00     0.049 A 
ATOM     39  N   UNL A   1      42.021  29.373  33.072  1.00  0.00    -0.248 NA
ATOM     40  C   UNL A   1      43.098  27.562  32.068  1.00  0.00     0.031 C 
ATOM     41  C   UNL A   1      39.358  29.711  29.489  1.00  0.00     0.029 A 
ATOM     42  N   UNL A   1      39.860  30.585  31.487  1.00  0.00    -0.354 N 
ATOM     43  C   UNL A   1      43.040  28.925  33.905  1.00  0.00     0.074 A 
ATOM     44  C   UNL A   1      43.650  27.788  33.251  1.00  0.00     0.031 C 
ATOM     45  C   UNL A   1      38.537  30.756  29.693  1.00  0.00     0.029 A 
ATOM     46  C   UNL A   1      38.814  31.335  31.006  1.00  0.00     0.049 A 
ATOM     47  H   UNL A   1      40.299  30.762  32.349  1.00  0.00     0.167 HD
ATOM     48  C   UNL A   1      43.436  29.421  35.101  1.00  0.00     0.037 A 
ATOM     49  C   UNL A   1      38.146  32.361  31.571  1.00  0.00     0.037 A 
ATOM     50  C   UNL A   1      42.828  30.554  35.748  1.00  0.00     0.049 A 
ATOM     51  C   UNL A   1      38.566  32.856  32.930  1.00  0.00     0.074 A 
ATOM     52  C   UNL A   1      43.167  31.141  36.954  1.00  0.00     0.029 A 
ATOM     53  N   UNL A   1      41.751  31.268  35.244  1.00  0.00    -0.354 N 
ATOM     54  N   UNL A   1      39.543  32.434  33.697  1.00  0.00    -0.248 NA
ATOM     55  C   UNL A   1      37.795  33.971  33.500  1.00  0.00     0.031 C 
ATOM     56  C   UNL A   1      42.267  32.184  37.199  1.00  0.00     0.029 A 
ATOM     57  C   UNL A   1      41.398  32.277  36.125  1.00  0.00     0.049 A 
ATOM     58  H   UNL A   1      41.304  31.086  34.386  1.00  0.00     0.167 HD
ATOM     59  C   UNL A   1      39.519  33.247  34.827  1.00  0.00     0.074 A 
ATOM     60  C   UNL A   1      38.439  34.191  34.639  1.00  0.00     0.031 C 
ATOM     61  C   UNL A   1      40.323  33.214  35.920  1.00  0.00     0.037 A 
BRANCH  48  62
ATOM     62  C   UNL A   1      44.569  28.724  35.801  1.00  0.00     0.058 A 
ATOM     63  C   UNL A   1      44.344  27.682  36.714  1.00  0.00     0.135 A 
ATOM     64  C   UNL A   1      45.900  29.082  35.530  1.00  0.00     0.135 A 
ATOM     65  F   UNL A   1      43.090  27.312  37.022  1.00  0.00    -0.206 F 
ATOM     66  C   UNL A   1      45.397  27.034  37.352  1.00  0.00     0.059 A 
ATOM     67  C   UNL A   1      46.970  28.431  36.138  1.00  0.00     0.059 A 
ATOM     68  F   UNL A   1      46.170  30.073  34.667  1.00  0.00    -0.206 F 
ATOM     69  C   UNL A   1      46.707  27.417  37.058  1.00  0.00     0.060 A 
BRANCH  69  70
ATOM     70  S   UNL A   1      48.065  26.565  37.890  1.00  0.00     0.124 S 
ATOM     71  O   UNL A   1      48.983  27.669  38.151  1.00  0.00    -0.237 OA
ATOM     72  O   UNL A   1      47.405  25.999  39.063  1.00  0.00    -0.237 OA
ATOM     73  O   UNL A   1      48.515  25.595  36.899  1.00  0.00    -0.744 OA
ENDBRANCH  69  70
ENDBRANCH  48  62
BRANCH  49  74
ATOM     74  C   UNL A   1      36.998  32.980  30.858  1.00  0.00     0.058 A 
ATOM     75  C   UNL A   1      35.678  32.768  31.281  1.00  0.00     0.135 A 
ATOM     76  C   UNL A   1      37.201  33.797  29.734  1.00  0.00     0.135 A 
ATOM     77  F   UNL A   1      35.432  31.986  32.342  1.00  0.00    -0.206 F 
ATOM     78  C   UNL A   1      34.598  33.332  30.609  1.00  0.00     0.059 A 
ATOM     79  C   UNL A   1      36.139  34.392  29.061  1.00  0.00     0.059 A 
ATOM     80  F   UNL A   1      38.446  34.040  29.295  1.00  0.00    -0.206 F 
ATOM     81  C   UNL A   1      34.840  34.145  29.500  1.00  0.00     0.060 A 
BRANCH  81  82
ATOM     82  S   UNL A   1      33.436  34.914  28.664  1.00  0.00     0.124 S 
ATOM     83  O   UNL A   1      33.158  33.947  27.609  1.00  0.00    -0.237 OA
ATOM     84  O   UNL A   1      32.447  34.996  29.734  1.00  0.00    -0.237 OA
ATOM     85  O   UNL A   1      33.973  36.198  28.221  1.00  0.00    -0.744 OA
ENDBRANCH  81  82
ENDBRANCH  49  74
BRANCH  61  86
ATOM     86  C   UNL A   1      40.086  34.248  36.985  1.00  0.00     0.058 A 
ATOM     87  C   UNL A   1      40.755  35.482  36.977  1.00  0.00     0.135 A 
ATOM     88  C   UNL A   1      39.138  34.023  37.997  1.00  0.00     0.135 A 
ATOM     89  F   UNL A   1      41.675  35.747  36.036  1.00  0.00    -0.206 F 
ATOM     90  C   UNL A   1      40.506  36.449  37.947  1.00  0.00     0.059 A 
ATOM     91  C   UNL A   1      38.855  34.985  38.961  1.00  0.00     0.059 A 
ATOM     92  F   UNL A   1      38.463  32.864  38.043  1.00  0.00    -0.206 F 
ATOM     93  C   UNL A   1      39.554  36.191  38.934  1.00  0.00     0.060 A 
BRANCH  93  94
ATOM     94  S   UNL A   1      39.214  37.467  40.167  1.00  0.00     0.124 S 
ATOM     95  O   UNL A   1      40.536  38.056  40.351  1.00  0.00    -0.237 OA
ATOM     96  O   UNL A   1      38.235  38.309  39.486  1.00  0.00    -0.237 OA
ATOM     97  O   UNL A   1      38.699  36.711  41.305  1.00  0.00    -0.744 OA
ENDBRANCH  93  94
ENDBRANCH  61  86
ENDBRANCH  35  36
ENDBRANCH  28  30
ENDBRANCH  27  28
ENDBRANCH  26  27
ENDBRANCH  25  26
ENDBRANCH   1  25
TORSDOF 21
ENDMDL
MODEL 2
REMARK VINA RESULT:      -8.1      5.348     12.349
REMARK SMILES C[C@@H](C(=O)OCCOCCOC(=O)c1ccc(-c2c3nc(c(-c4c(F)cc(S(=O)(=O)[O-])cc4F)c4ccc([nH]4)c(-c4c(F)cc(S(=O)(=O)[O-])cc4F)c4nc(c(-c5c(F)cc(S(=O)(=O)[O-])cc5F)c5ccc2[nH]5)C=C4)C=C3)cc1)c1ccc(C[C@H]2CCCC2=O)cc1[N+](=O)[O-]
REMARK SMILES IDX 8 1 7 2 6 3 5 4 3 5 4 6 2 7 1 8 80 9 81 10 92 11 82 12 91 13
REMARK SMILES IDX 83 14 93 15 94 16 95 17 84 18 85 19 86 20 89 21 87 22 88 23
REMARK SMILES IDX 90 24 9 25 10 26 11 27 12 28 13 29 14 30 15 31 79 32 16 33
REMARK SMILES IDX 78 34 17 35 18 36 19 37 72 38 20 39 77 40 71 41 73 42 21 43
REMARK SMILES IDX 76 44 70 45 69 46 22 48 56 49 35 50 55 51 36 52 39 53 54 54
REMARK SMILES IDX 74 55 37 56 38 57 53 59 75 60 40 61 23 62 24 63 33 64 25 65
REMARK SMILES IDX 26 66 32 67 34 68 27 69 28 70 29 71 30 72 31 73 57 74 58 75
REMARK SMILES IDX 67 76 59 77 60 78 66 79 68 80 61 81 62 82 63 83 64 84 65 85
REMARK SMILES IDX 41 86 42 87 51 88 43 89 44 90 50 91 52 92 45 93 46 94 47 95
REMARK SMILES IDX 48 96 49 97
REMARK H PARENT 73 47 39 58
REMARK Flexibility Score: inf
ROOT
ATOM      1  O   UNL A   1      33.943  33.768  31.806  1.00  0.00    -0.374 OA
ENDROOT
BRANCH   1   2
ATOM      2  C   UNL A   1      34.754  34.233  32.888  1.00  0.00     0.202 C 
BRANCH   2   3
ATOM      3  C   UNL A   1      35.440  33.142  33.716  1.00  0.00     0.261 C 
BRANCH   3   4
ATOM      4  O   UNL A   1      36.712  32.814  33.132  1.00  0.00    -0.463 OA
BRANCH   4   5
ATOM      5  C   UNL A   1      37.666  32.371  33.992  1.00  0.00     0.313 C 
ATOM      6  O   UNL A   1      37.685  31.249  34.488  1.00  0.00    -0.252 OA
BRANCH   5   7
ATOM      7  C   UNL A   1      38.816  33.377  34.156  1.00  0.00     0.133 C 
ATOM      8  C   UNL A   1      38.450  34.605  35.002  1.00  0.00     0.025 C 
BRANCH   7   9
ATOM      9  C   UNL A   1      39.448  33.780  32.814  1.00  0.00     0.044 A 
ATOM     10  C   UNL A   1      38.659  34.347  31.792  1.00  0.00     0.012 A 
ATOM     11  C   UNL A   1      40.818  33.622  32.519  1.00  0.00     0.273 A 
ATOM     12  C   UNL A   1      39.190  34.678  30.539  1.00  0.00     0.004 A 
ATOM     13  C   UNL A   1      41.356  33.936  31.255  1.00  0.00     0.089 A 
ATOM     14  C   UNL A   1      40.532  34.433  30.241  1.00  0.00    -0.040 A 
BRANCH  11  15
ATOM     15  N   UNL A   1      41.765  33.122  33.505  1.00  0.00     0.063 N 
ATOM     16  O   UNL A   1      42.133  33.918  34.381  1.00  0.00    -0.258 OA
ATOM     17  O   UNL A   1      42.159  31.956  33.382  1.00  0.00    -0.258 OA
ENDBRANCH  11  15
BRANCH  14  18
ATOM     18  C   UNL A   1      41.066  34.652  28.845  1.00  0.00     0.047 C 
BRANCH  18  19
ATOM     19  C   UNL A   1      41.887  35.934  28.636  1.00  0.00     0.060 C 
ATOM     20  C   UNL A   1      42.866  36.314  29.753  1.00  0.00     0.012 C 
ATOM     21  C   UNL A   1      42.801  35.848  27.435  1.00  0.00     0.136 C 
ATOM     22  C   UNL A   1      44.231  35.793  29.319  1.00  0.00     0.009 C 
ATOM     23  C   UNL A   1      44.259  35.941  27.804  1.00  0.00     0.076 C 
ATOM     24  O   UNL A   1      42.397  35.733  26.284  1.00  0.00    -0.299 OA
ENDBRANCH  18  19
ENDBRANCH  14  18
ENDBRANCH   7   9
ENDBRANCH   5   7
ENDBRANCH   4   5
ENDBRANCH   3   4
ENDBRANCH   2   3
ENDBRANCH   1   2
BRANCH   1  25
ATOM     25  C   UNL A   1      34.594  33.502  30.563  1.00  0.00     0.202 C 
BRANCH  25  26
ATOM     26  C   UNL A   1      34.900  32.037  30.234  1.00  0.00     0.261 C 
BRANCH  26  27
ATOM     27  O   UNL A   1      36.289  31.827  29.927  1.00  0.00    -0.460 OA
BRANCH  27  28
ATOM     28  C   UNL A   1      36.852  30.773  30.564  1.00  0.00     0.338 C 
ATOM     29  O   UNL A   1      36.276  29.934  31.248  1.00  0.00    -0.246 OA
BRANCH  28  30
ATOM     30  C   UNL A   1      38.269  30.636  30.186  1.00  0.00     0.060 A 
ATOM     31  C   UNL A   1      38.555  30.491  28.823  1.00  0.00     0.016 A 
ATOM     32  C   UNL A   1      39.287  30.560  31.138  1.00  0.00     0.016 A 
ATOM     33  C   UNL A   1      39.854  30.212  28.408  1.00  0.00     0.010 A 
ATOM     34  C   UNL A   1      40.592  30.269  30.719  1.00  0.00     0.010 A 
ATOM     35  C   UNL A   1      40.873  30.056  29.357  1.00  0.00    -0.014 A 
BRANCH  35  36
ATOM     36  C   UNL A   1      42.186  29.519  28.925  1.00  0.00     0.031 A 
ATOM     37  C   UNL A   1      43.377  30.440  28.898  1.00  0.00     0.074 A 
ATOM     38  C   UNL A   1      42.329  28.219  28.610  1.00  0.00     0.049 A 
ATOM     39  N   UNL A   1      44.613  30.187  28.556  1.00  0.00    -0.248 NA
ATOM     40  C   UNL A   1      43.143  31.832  29.316  1.00  0.00     0.031 C 
ATOM     41  C   UNL A   1      41.259  27.223  28.637  1.00  0.00     0.029 A 
ATOM     42  N   UNL A   1      43.435  27.515  28.206  1.00  0.00    -0.354 N 
ATOM     43  C   UNL A   1      45.304  31.383  28.714  1.00  0.00     0.074 A 
ATOM     44  C   UNL A   1      44.343  32.370  29.154  1.00  0.00     0.031 C 
ATOM     45  C   UNL A   1      41.761  26.035  28.256  1.00  0.00     0.029 A 
ATOM     46  C   UNL A   1      43.178  26.193  27.933  1.00  0.00     0.049 A 
ATOM     47  H   UNL A   1      44.328  27.919  28.121  1.00  0.00     0.167 HD
ATOM     48  C   UNL A   1      46.621  31.633  28.519  1.00  0.00     0.037 A 
ATOM     49  C   UNL A   1      43.990  25.226  27.461  1.00  0.00     0.037 A 
ATOM     50  C   UNL A   1      47.575  30.648  28.083  1.00  0.00     0.049 A 
ATOM     51  C   UNL A   1      45.438  25.544  27.193  1.00  0.00     0.074 A 
ATOM     52  C   UNL A   1      48.933  30.800  27.870  1.00  0.00     0.029 A 
ATOM     53  N   UNL A   1      47.269  29.327  27.787  1.00  0.00    -0.354 N 
ATOM     54  N   UNL A   1      46.080  26.675  27.365  1.00  0.00    -0.248 NA
ATOM     55  C   UNL A   1      46.273  24.453  26.670  1.00  0.00     0.031 C 
ATOM     56  C   UNL A   1      49.442  29.582  27.405  1.00  0.00     0.029 A 
ATOM     57  C   UNL A   1      48.410  28.659  27.373  1.00  0.00     0.049 A 
ATOM     58  H   UNL A   1      46.374  28.924  27.862  1.00  0.00     0.167 HD
ATOM     59  C   UNL A   1      47.398  26.425  26.996  1.00  0.00     0.074 A 
ATOM     60  C   UNL A   1      47.464  25.034  26.601  1.00  0.00     0.031 C 
ATOM     61  C   UNL A   1      48.459  27.271  26.988  1.00  0.00     0.037 A 
BRANCH  48  62
ATOM     62  C   UNL A   1      47.103  33.037  28.755  1.00  0.00     0.058 A 
ATOM     63  C   UNL A   1      47.430  33.499  30.039  1.00  0.00     0.135 A 
ATOM     64  C   UNL A   1      47.271  33.922  27.677  1.00  0.00     0.135 A 
ATOM     65  F   UNL A   1      47.270  32.700  31.106  1.00  0.00    -0.206 F 
ATOM     66  C   UNL A   1      47.885  34.798  30.251  1.00  0.00     0.059 A 
ATOM     67  C   UNL A   1      47.747  35.217  27.863  1.00  0.00     0.059 A 
ATOM     68  F   UNL A   1      46.971  33.532  26.429  1.00  0.00    -0.206 F 
ATOM     69  C   UNL A   1      48.039  35.649  29.156  1.00  0.00     0.060 A 
BRANCH  69  70
ATOM     70  S   UNL A   1      48.633  37.330  29.444  1.00  0.00     0.124 S 
ATOM     71  O   UNL A   1      47.574  38.122  28.829  1.00  0.00    -0.237 OA
ATOM     72  O   UNL A   1      48.704  37.390  30.902  1.00  0.00    -0.237 OA
ATOM     73  O   UNL A   1      49.919  37.358  28.756  1.00  0.00    -0.744 OA
ENDBRANCH  69  70
ENDBRANCH  48  62
BRANCH  49  74
ATOM     74  C   UNL A   1      43.449  23.868  27.195  1.00  0.00     0.058 A 
ATOM     75  C   UNL A   1      43.281  22.936  28.229  1.00  0.00     0.135 A 
ATOM     76  C   UNL A   1      43.089  23.474  25.896  1.00  0.00     0.135 A 
ATOM     77  F   UNL A   1      43.621  23.261  29.485  1.00  0.00    -0.206 F 
ATOM     78  C   UNL A   1      42.788  21.658  27.985  1.00  0.00     0.059 A 
ATOM     79  C   UNL A   1      42.571  22.211  25.631  1.00  0.00     0.059 A 
ATOM     80  F   UNL A   1      43.220  24.333  24.873  1.00  0.00    -0.206 F 
ATOM     81  C   UNL A   1      42.434  21.306  26.682  1.00  0.00     0.060 A 
BRANCH  81  82
ATOM     82  S   UNL A   1      41.748  19.662  26.382  1.00  0.00     0.124 S 
ATOM     83  O   UNL A   1      42.437  19.277  25.157  1.00  0.00    -0.237 OA
ATOM     84  O   UNL A   1      42.139  18.940  27.589  1.00  0.00    -0.237 OA
ATOM     85  O   UNL A   1      40.316  19.916  26.251  1.00  0.00    -0.744 OA
ENDBRANCH  81  82
ENDBRANCH  49  74
BRANCH  61  86
ATOM     86  C   UNL A   1      49.790  26.711  26.568  1.00  0.00     0.058 A 
ATOM     87  C   UNL A   1      50.600  25.987  27.457  1.00  0.00     0.135 A 
ATOM     88  C   UNL A   1      50.235  26.855  25.244  1.00  0.00     0.135 A 
ATOM     89  F   UNL A   1      50.223  25.825  28.735  1.00  0.00    -0.206 F 
ATOM     90  C   UNL A   1      51.814  25.442  27.052  1.00  0.00     0.059 A 
ATOM     91  C   UNL A   1      51.433  26.297  24.811  1.00  0.00     0.059 A 
ATOM     92  F   UNL A   1      49.493  27.528  24.351  1.00  0.00    -0.206 F 
ATOM     93  C   UNL A   1      52.223  25.601  25.727  1.00  0.00     0.060 A 
BRANCH  93  94
ATOM     94  S   UNL A   1      53.784  24.860  25.205  1.00  0.00     0.124 S 
ATOM     95  O   UNL A   1      53.409  23.457  25.059  1.00  0.00    -0.237 OA
ATOM     96  O   UNL A   1      54.069  25.571  23.962  1.00  0.00    -0.237 OA
ATOM     97  O   UNL A   1      54.688  25.157  26.312  1.00  0.00    -0.744 OA
ENDBRANCH  93  94
ENDBRANCH  61  86
ENDBRANCH  35  36
ENDBRANCH  28  30
ENDBRANCH  27  28
ENDBRANCH  26  27
ENDBRANCH  25  26
ENDBRANCH   1  25
TORSDOF 21
ENDMDL
MODEL 3
REMARK VINA RESULT:      -7.6      4.155     11.500
REMARK SMILES C[C@@H](C(=O)OCCOCCOC(=O)c1ccc(-c2c3nc(c(-c4c(F)cc(S(=O)(=O)[O-])cc4F)c4ccc([nH]4)c(-c4c(F)cc(S(=O)(=O)[O-])cc4F)c4nc(c(-c5c(F)cc(S(=O)(=O)[O-])cc5F)c5ccc2[nH]5)C=C4)C=C3)cc1)c1ccc(C[C@H]2CCCC2=O)cc1[N+](=O)[O-]
REMARK SMILES IDX 8 1 7 2 6 3 5 4 3 5 4 6 2 7 1 8 80 9 81 10 92 11 82 12 91 13
REMARK SMILES IDX 83 14 93 15 94 16 95 17 84 18 85 19 86 20 89 21 87 22 88 23
REMARK SMILES IDX 90 24 9 25 10 26 11 27 12 28 13 29 14 30 15 31 79 32 16 33
REMARK SMILES IDX 78 34 17 35 18 36 19 37 72 38 20 39 77 40 71 41 73 42 21 43
REMARK SMILES IDX 76 44 70 45 69 46 22 48 56 49 35 50 55 51 36 52 39 53 54 54
REMARK SMILES IDX 74 55 37 56 38 57 53 59 75 60 40 61 23 62 24 63 33 64 25 65
REMARK SMILES IDX 26 66 32 67 34 68 27 69 28 70 29 71 30 72 31 73 57 74 58 75
REMARK SMILES IDX 67 76 59 77 60 78 66 79 68 80 61 81 62 82 63 83 64 84 65 85
REMARK SMILES IDX 41 86 42 87 51 88 43 89 44 90 50 91 52 92 45 93 46 94 47 95
REMARK SMILES IDX 48 96 49 97
REMARK H PARENT 73 47 39 58
REMARK Flexibility Score: inf
ROOT
ATOM      1  O   UNL A   1      37.145  34.064  34.343  1.00  0.00    -0.374 OA
ENDROOT
BRANCH   1   2
ATOM      2  C   UNL A   1      37.950  33.401  35.322  1.00  0.00     0.202 C 
BRANCH   2   3
ATOM      3  C   UNL A   1      37.979  31.872  35.229  1.00  0.00     0.261 C 
BRANCH   3   4
ATOM      4  O   UNL A   1      39.314  31.394  35.467  1.00  0.00    -0.463 OA
BRANCH   4   5
ATOM      5  C   UNL A   1      40.251  31.763  34.555  1.00  0.00     0.313 C 
ATOM      6  O   UNL A   1      40.021  32.451  33.566  1.00  0.00    -0.252 OA
BRANCH   5   7
ATOM      7  C   UNL A   1      41.671  31.358  34.981  1.00  0.00     0.133 C 
ATOM      8  C   UNL A   1      42.675  32.519  34.982  1.00  0.00     0.025 C 
BRANCH   7   9
ATOM      9  C   UNL A   1      42.203  30.147  34.198  1.00  0.00     0.044 A 
ATOM     10  C   UNL A   1      42.644  30.293  32.867  1.00  0.00     0.012 A 
ATOM     11  C   UNL A   1      42.291  28.847  34.737  1.00  0.00     0.273 A 
ATOM     12  C   UNL A   1      43.086  29.204  32.106  1.00  0.00     0.004 A 
ATOM     13  C   UNL A   1      42.718  27.743  33.973  1.00  0.00     0.089 A 
ATOM     14  C   UNL A   1      43.083  27.911  32.634  1.00  0.00    -0.040 A 
BRANCH  11  15
ATOM     15  N   UNL A   1      41.945  28.563  36.122  1.00  0.00     0.063 N 
ATOM     16  O   UNL A   1      40.777  28.214  36.346  1.00  0.00    -0.258 OA
ATOM     17  O   UNL A   1      42.824  28.719  36.977  1.00  0.00    -0.258 OA
ENDBRANCH  11  15
BRANCH  14  18
ATOM     18  C   UNL A   1      43.419  26.721  31.767  1.00  0.00     0.047 C 
BRANCH  18  19
ATOM     19  C   UNL A   1      44.915  26.418  31.595  1.00  0.00     0.060 C 
ATOM     20  C   UNL A   1      45.881  27.595  31.775  1.00  0.00     0.012 C 
ATOM     21  C   UNL A   1      45.430  25.433  32.620  1.00  0.00     0.136 C 
ATOM     22  C   UNL A   1      46.392  27.511  33.208  1.00  0.00     0.009 C 
ATOM     23  C   UNL A   1      46.481  26.025  33.521  1.00  0.00     0.076 C 
ATOM     24  O   UNL A   1      45.045  24.271  32.695  1.00  0.00    -0.299 OA
ENDBRANCH  18  19
ENDBRANCH  14  18
ENDBRANCH   7   9
ENDBRANCH   5   7
ENDBRANCH   4   5
ENDBRANCH   3   4
ENDBRANCH   2   3
ENDBRANCH   1   2
BRANCH   1  25
ATOM     25  C   UNL A   1      35.747  34.178  34.610  1.00  0.00     0.202 C 
BRANCH  25  26
ATOM     26  C   UNL A   1      34.787  33.730  33.503  1.00  0.00     0.261 C 
BRANCH  26  27
ATOM     27  O   UNL A   1      35.147  32.450  32.954  1.00  0.00    -0.460 OA
BRANCH  27  28
ATOM     28  C   UNL A   1      35.054  32.371  31.606  1.00  0.00     0.338 C 
ATOM     29  O   UNL A   1      34.212  32.907  30.893  1.00  0.00    -0.246 OA
BRANCH  28  30
ATOM     30  C   UNL A   1      36.231  31.684  31.046  1.00  0.00     0.060 A 
ATOM     31  C   UNL A   1      37.067  31.013  31.946  1.00  0.00     0.016 A 
ATOM     32  C   UNL A   1      36.563  31.765  29.691  1.00  0.00     0.016 A 
ATOM     33  C   UNL A   1      38.271  30.468  31.507  1.00  0.00     0.010 A 
ATOM     34  C   UNL A   1      37.779  31.224  29.254  1.00  0.00     0.010 A 
ATOM     35  C   UNL A   1      38.654  30.608  30.167  1.00  0.00    -0.014 A 
BRANCH  35  36
ATOM     36  C   UNL A   1      40.037  30.244  29.770  1.00  0.00     0.031 A 
ATOM     37  C   UNL A   1      41.117  31.289  29.849  1.00  0.00     0.074 A 
ATOM     38  C   UNL A   1      40.338  28.987  29.395  1.00  0.00     0.049 A 
ATOM     39  N   UNL A   1      42.387  31.194  29.554  1.00  0.00    -0.248 NA
ATOM     40  C   UNL A   1      40.710  32.621  30.328  1.00  0.00     0.031 C 
ATOM     41  C   UNL A   1      39.386  27.880  29.319  1.00  0.00     0.029 A 
ATOM     42  N   UNL A   1      41.532  28.433  29.009  1.00  0.00    -0.354 N 
ATOM     43  C   UNL A   1      42.932  32.447  29.808  1.00  0.00     0.074 A 
ATOM     44  C   UNL A   1      41.848  33.296  30.252  1.00  0.00     0.031 C 
ATOM     45  C   UNL A   1      40.033  26.778  28.900  1.00  0.00     0.029 A 
ATOM     46  C   UNL A   1      41.436  27.109  28.655  1.00  0.00     0.049 A 
ATOM     47  H   UNL A   1      42.377  28.937  28.988  1.00  0.00     0.167 HD
ATOM     48  C   UNL A   1      44.219  32.851  29.690  1.00  0.00     0.037 A 
ATOM     49  C   UNL A   1      42.371  26.266  28.172  1.00  0.00     0.037 A 
ATOM     50  C   UNL A   1      45.295  32.003  29.249  1.00  0.00     0.049 A 
ATOM     51  C   UNL A   1      43.784  26.755  27.992  1.00  0.00     0.074 A 
ATOM     52  C   UNL A   1      46.636  32.315  29.110  1.00  0.00     0.029 A 
ATOM     53  N   UNL A   1      45.153  30.676  28.871  1.00  0.00    -0.354 N 
ATOM     54  N   UNL A   1      44.287  27.938  28.254  1.00  0.00    -0.248 NA
ATOM     55  C   UNL A   1      44.757  25.794  27.453  1.00  0.00     0.031 C 
ATOM     56  C   UNL A   1      47.297  31.189  28.607  1.00  0.00     0.029 A 
ATOM     57  C   UNL A   1      46.377  30.162  28.478  1.00  0.00     0.049 A 
ATOM     58  H   UNL A   1      44.306  30.174  28.881  1.00  0.00     0.167 HD
ATOM     59  C   UNL A   1      45.640  27.855  27.936  1.00  0.00     0.074 A 
ATOM     60  C   UNL A   1      45.878  26.505  27.472  1.00  0.00     0.031 C 
ATOM     61  C   UNL A   1      46.598  28.812  28.024  1.00  0.00     0.037 A 
BRANCH  48  62
ATOM     62  C   UNL A   1      44.530  34.284  30.022  1.00  0.00     0.058 A 
ATOM     63  C   UNL A   1      44.914  34.675  31.314  1.00  0.00     0.135 A 
ATOM     64  C   UNL A   1      44.476  35.273  29.026  1.00  0.00     0.135 A 
ATOM     65  F   UNL A   1      44.965  33.773  32.306  1.00  0.00    -0.206 F 
ATOM     66  C   UNL A   1      45.210  36.002  31.614  1.00  0.00     0.059 A 
ATOM     67  C   UNL A   1      44.791  36.601  29.298  1.00  0.00     0.059 A 
ATOM     68  F   UNL A   1      44.112  34.952  27.775  1.00  0.00    -0.206 F 
ATOM     69  C   UNL A   1      45.144  36.957  30.598  1.00  0.00     0.060 A 
BRANCH  69  70
ATOM     70  S   UNL A   1      45.534  38.674  31.001  1.00  0.00     0.124 S 
ATOM     71  O   UNL A   1      44.242  39.164  31.469  1.00  0.00    -0.237 OA
ATOM     72  O   UNL A   1      46.566  38.529  32.024  1.00  0.00    -0.237 OA
ATOM     73  O   UNL A   1      45.991  39.225  29.730  1.00  0.00    -0.744 OA
ENDBRANCH  69  70
ENDBRANCH  48  62
BRANCH  49  74
ATOM     74  C   UNL A   1      41.997  24.874  27.810  1.00  0.00     0.058 A 
ATOM     75  C   UNL A   1      42.333  23.791  28.636  1.00  0.00     0.135 A 
ATOM     76  C   UNL A   1      41.294  24.599  26.626  1.00  0.00     0.135 A 
ATOM     77  F   UNL A   1      43.014  24.002  29.772  1.00  0.00    -0.206 F 
ATOM     78  C   UNL A   1      41.999  22.484  28.296  1.00  0.00     0.059 A 
ATOM     79  C   UNL A   1      40.927  23.303  26.277  1.00  0.00     0.059 A 
ATOM     80  F   UNL A   1      40.939  25.601  25.807  1.00  0.00    -0.206 F 
ATOM     81  C   UNL A   1      41.293  22.251  27.114  1.00  0.00     0.060 A 
BRANCH  81  82
ATOM     82  S   UNL A   1      40.819  20.557  26.705  1.00  0.00     0.124 S 
ATOM     83  O   UNL A   1      41.907  20.153  25.823  1.00  0.00    -0.237 OA
ATOM     84  O   UNL A   1      40.791  19.919  28.018  1.00  0.00    -0.237 OA
ATOM     85  O   UNL A   1      39.515  20.719  26.069  1.00  0.00    -0.744 OA
ENDBRANCH  81  82
ENDBRANCH  49  74
BRANCH  61  86
ATOM     86  C   UNL A   1      48.000  28.426  27.640  1.00  0.00     0.058 A 
ATOM     87  C   UNL A   1      48.951  28.048  28.600  1.00  0.00     0.135 A 
ATOM     88  C   UNL A   1      48.380  28.383  26.288  1.00  0.00     0.135 A 
ATOM     89  F   UNL A   1      48.640  28.076  29.906  1.00  0.00    -0.206 F 
ATOM     90  C   UNL A   1      50.236  27.658  28.235  1.00  0.00     0.059 A 
ATOM     91  C   UNL A   1      49.651  27.973  25.899  1.00  0.00     0.059 A 
ATOM     92  F   UNL A   1      47.505  28.725  25.329  1.00  0.00    -0.206 F 
ATOM     93  C   UNL A   1      50.577  27.624  26.882  1.00  0.00     0.060 A 
BRANCH  93  94
ATOM     94  S   UNL A   1      52.236  27.085  26.418  1.00  0.00     0.124 S 
ATOM     95  O   UNL A   1      52.508  26.068  27.429  1.00  0.00    -0.237 OA
ATOM     96  O   UNL A   1      52.038  26.589  25.060  1.00  0.00    -0.237 OA
ATOM     97  O   UNL A   1      53.032  28.304  26.524  1.00  0.00    -0.744 OA
ENDBRANCH  93  94
ENDBRANCH  61  86
ENDBRANCH  35  36
ENDBRANCH  28  30
ENDBRANCH  27  28
ENDBRANCH  26  27
ENDBRANCH  25  26
ENDBRANCH   1  25
TORSDOF 21
ENDMDL
