MODEL 1
REMARK VINA RESULT:     -11.5      0.000      0.000
REMARK SMILES O=C(OCCOCCOC(=O)[C@H]1C[C@H](O)CN1S(=O)(=O)c1ccc2c(c1)OCCO2)c1ccc(-c2c3nc(c(-c4c(F)cc(S(=O)(=O)[O-])cc4F)c4ccc([nH]4)c(-c4c(F)cc(S(=O)(=O)[O-])cc4F)c4nc(c(-c5c(F)cc(S(=O)(=O)[O-])cc5F)c5ccc2[nH]5)C=C4)C=C3)cc1
REMARK SMILES IDX 5 1 4 2 3 3 2 4 1 5 31 6 32 7 96 8 33 9 95 10 34 11 35 12
REMARK SMILES IDX 36 13 89 14 37 15 94 16 88 17 90 18 38 19 93 20 87 21 86 22
REMARK SMILES IDX 39 24 73 25 52 26 72 27 53 28 56 29 71 30 91 31 54 32 55 33
REMARK SMILES IDX 70 35 92 36 57 37 40 38 41 39 50 40 42 41 43 42 49 43 51 44
REMARK SMILES IDX 44 45 45 46 46 47 47 48 48 49 74 50 75 51 84 52 76 53 77 54
REMARK SMILES IDX 83 55 85 56 78 57 79 58 80 59 81 60 82 61 58 62 59 63 68 64
REMARK SMILES IDX 60 65 61 66 67 67 69 68 62 69 63 70 64 71 65 72 66 73 6 74
REMARK SMILES IDX 7 75 8 76 9 77 10 78 11 79 12 80 13 81 17 82 14 83 16 84
REMARK SMILES IDX 18 85 19 86 20 87 21 88 22 89 26 90 23 91 25 92 24 93 27 94
REMARK SMILES IDX 30 95 28 96 29 97 15 98
REMARK H PARENT 90 23 56 34 15 99
REMARK Flexibility Score: inf
ROOT
ATOM      1  C   UNL A   1      32.039  30.077  25.523  1.00  0.00     0.202 C 
ENDROOT
BRANCH   1   2
ATOM      2  C   UNL A   1      32.400  30.683  26.879  1.00  0.00     0.261 C 
BRANCH   2   3
ATOM      3  O   UNL A   1      33.613  30.103  27.382  1.00  0.00    -0.460 OA
BRANCH   3   4
ATOM      4  C   UNL A   1      34.522  30.751  28.155  1.00  0.00     0.338 C 
ATOM      5  O   UNL A   1      34.167  31.754  28.772  1.00  0.00    -0.246 OA
BRANCH   4   6
ATOM      6  C   UNL A   1      35.906  30.227  28.393  1.00  0.00     0.060 A 
ATOM      7  C   UNL A   1      36.391  29.691  29.592  1.00  0.00     0.016 A 
ATOM      8  C   UNL A   1      36.750  30.202  27.271  1.00  0.00     0.016 A 
ATOM      9  C   UNL A   1      37.666  29.166  29.692  1.00  0.00     0.010 A 
ATOM     10  C   UNL A   1      38.042  29.684  27.362  1.00  0.00     0.010 A 
ATOM     11  C   UNL A   1      38.500  29.181  28.584  1.00  0.00    -0.014 A 
BRANCH  11  12
ATOM     12  C   UNL A   1      39.911  28.853  28.810  1.00  0.00     0.031 A 
ATOM     13  C   UNL A   1      40.752  29.891  29.482  1.00  0.00     0.074 A 
ATOM     14  C   UNL A   1      40.355  27.609  28.561  1.00  0.00     0.049 A 
ATOM     15  N   UNL A   1      42.030  29.889  29.728  1.00  0.00    -0.248 NA
ATOM     16  C   UNL A   1      40.047  31.099  29.953  1.00  0.00     0.031 C 
ATOM     17  C   UNL A   1      39.531  26.504  28.063  1.00  0.00     0.029 A 
ATOM     18  N   UNL A   1      41.595  27.058  28.720  1.00  0.00    -0.354 N 
ATOM     19  C   UNL A   1      42.291  31.108  30.343  1.00  0.00     0.074 A 
ATOM     20  C   UNL A   1      41.042  31.824  30.439  1.00  0.00     0.031 C 
ATOM     21  C   UNL A   1      40.294  25.403  27.960  1.00  0.00     0.029 A 
ATOM     22  C   UNL A   1      41.665  25.747  28.313  1.00  0.00     0.049 A 
ATOM     23  H   UNL A   1      42.363  27.551  29.090  1.00  0.00     0.167 HD
ATOM     24  C   UNL A   1      43.483  31.576  30.772  1.00  0.00     0.037 A 
ATOM     25  C   UNL A   1      42.740  24.945  28.199  1.00  0.00     0.037 A 
ATOM     26  C   UNL A   1      44.696  30.815  30.652  1.00  0.00     0.049 A 
ATOM     27  C   UNL A   1      44.075  25.527  28.585  1.00  0.00     0.074 A 
ATOM     28  C   UNL A   1      45.986  31.183  30.974  1.00  0.00     0.029 A 
ATOM     29  N   UNL A   1      44.753  29.513  30.165  1.00  0.00    -0.354 N 
ATOM     30  N   UNL A   1      44.343  26.716  29.079  1.00  0.00    -0.248 NA
ATOM     31  C   UNL A   1      45.254  24.678  28.384  1.00  0.00     0.031 C 
ATOM     32  C   UNL A   1      46.830  30.120  30.633  1.00  0.00     0.029 A 
ATOM     33  C   UNL A   1      46.060  29.067  30.159  1.00  0.00     0.049 A 
ATOM     34  H   UNL A   1      43.977  28.986  29.867  1.00  0.00     0.167 HD
ATOM     35  C   UNL A   1      45.718  26.752  29.267  1.00  0.00     0.074 A 
ATOM     36  C   UNL A   1      46.222  25.457  28.847  1.00  0.00     0.031 C 
ATOM     37  C   UNL A   1      46.500  27.757  29.738  1.00  0.00     0.037 A 
BRANCH  24  38
ATOM     38  C   UNL A   1      43.518  32.980  31.306  1.00  0.00     0.058 A 
ATOM     39  C   UNL A   1      43.771  34.091  30.485  1.00  0.00     0.135 A 
ATOM     40  C   UNL A   1      43.344  33.211  32.680  1.00  0.00     0.135 A 
ATOM     41  F   UNL A   1      43.985  33.926  29.170  1.00  0.00    -0.206 F 
ATOM     42  C   UNL A   1      43.878  35.376  31.011  1.00  0.00     0.059 A 
ATOM     43  C   UNL A   1      43.419  34.489  33.225  1.00  0.00     0.059 A 
ATOM     44  F   UNL A   1      43.120  32.183  33.514  1.00  0.00    -0.206 F 
ATOM     45  C   UNL A   1      43.704  35.564  32.384  1.00  0.00     0.060 A 
BRANCH  45  46
ATOM     46  S   UNL A   1      43.857  37.233  33.055  1.00  0.00     0.124 S 
ATOM     47  O   UNL A   1      43.728  38.045  31.848  1.00  0.00    -0.237 OA
ATOM     48  O   UNL A   1      42.734  37.299  33.985  1.00  0.00    -0.237 OA
ATOM     49  O   UNL A   1      45.180  37.233  33.670  1.00  0.00    -0.744 OA
ENDBRANCH  45  46
ENDBRANCH  24  38
BRANCH  25  50
ATOM     50  C   UNL A   1      42.604  23.568  27.650  1.00  0.00     0.058 A 
ATOM     51  C   UNL A   1      42.608  23.324  26.269  1.00  0.00     0.135 A 
ATOM     52  C   UNL A   1      42.469  22.458  28.503  1.00  0.00     0.135 A 
ATOM     53  F   UNL A   1      42.726  24.346  25.409  1.00  0.00    -0.206 F 
ATOM     54  C   UNL A   1      42.470  22.038  25.753  1.00  0.00     0.059 A 
ATOM     55  C   UNL A   1      42.361  21.160  28.011  1.00  0.00     0.059 A 
ATOM     56  F   UNL A   1      42.465  22.627  29.834  1.00  0.00    -0.206 F 
ATOM     57  C   UNL A   1      42.347  20.961  26.633  1.00  0.00     0.060 A 
BRANCH  57  58
ATOM     58  S   UNL A   1      42.192  19.294  25.954  1.00  0.00     0.124 S 
ATOM     59  O   UNL A   1      40.760  19.216  25.692  1.00  0.00    -0.237 OA
ATOM     60  O   UNL A   1      43.053  19.361  24.777  1.00  0.00    -0.237 OA
ATOM     61  O   UNL A   1      42.683  18.443  27.033  1.00  0.00    -0.744 OA
ENDBRANCH  57  58
ENDBRANCH  25  50
BRANCH  37  62
ATOM     62  C   UNL A   1      47.967  27.471  29.862  1.00  0.00     0.058 A 
ATOM     63  C   UNL A   1      48.855  27.703  28.800  1.00  0.00     0.135 A 
ATOM     64  C   UNL A   1      48.495  27.029  31.085  1.00  0.00     0.135 A 
ATOM     65  F   UNL A   1      48.394  28.119  27.610  1.00  0.00    -0.206 F 
ATOM     66  C   UNL A   1      50.219  27.486  28.943  1.00  0.00     0.059 A 
ATOM     67  C   UNL A   1      49.859  26.838  31.259  1.00  0.00     0.059 A 
ATOM     68  F   UNL A   1      47.684  26.807  32.132  1.00  0.00    -0.206 F 
ATOM     69  C   UNL A   1      50.712  27.060  30.179  1.00  0.00     0.060 A 
BRANCH  69  70
ATOM     70  S   UNL A   1      52.491  26.832  30.366  1.00  0.00     0.124 S 
ATOM     71  O   UNL A   1      52.546  25.650  31.219  1.00  0.00    -0.237 OA
ATOM     72  O   UNL A   1      52.927  26.641  28.986  1.00  0.00    -0.237 OA
ATOM     73  O   UNL A   1      52.929  28.078  30.989  1.00  0.00    -0.744 OA
ENDBRANCH  69  70
ENDBRANCH  37  62
ENDBRANCH  11  12
ENDBRANCH   4   6
ENDBRANCH   3   4
ENDBRANCH   2   3
ENDBRANCH   1   2
BRANCH   1  74
ATOM     74  O   UNL A   1      33.156  29.383  24.985  1.00  0.00    -0.374 OA
BRANCH  74  75
ATOM     75  C   UNL A   1      33.085  28.907  23.648  1.00  0.00     0.202 C 
BRANCH  75  76
ATOM     76  C   UNL A   1      31.903  27.957  23.539  1.00  0.00     0.261 C 
BRANCH  76  77
ATOM     77  O   UNL A   1      32.086  26.905  24.493  1.00  0.00    -0.462 OA
BRANCH  77  78
ATOM     78  C   UNL A   1      30.983  26.136  24.718  1.00  0.00     0.324 C 
ATOM     79  O   UNL A   1      29.912  26.175  24.123  1.00  0.00    -0.250 OA
BRANCH  78  80
ATOM     80  C   UNL A   1      31.203  25.238  25.902  1.00  0.00     0.185 C 
ATOM     81  C   UNL A   1      29.947  24.643  26.558  1.00  0.00     0.065 C 
ATOM     82  N   UNL A   1      32.148  24.107  25.664  1.00  0.00    -0.181 NA
ATOM     83  C   UNL A   1      30.244  23.159  26.720  1.00  0.00     0.131 C 
ATOM     84  C   UNL A   1      31.772  23.088  26.677  1.00  0.00     0.135 C 
BRANCH  82  85
ATOM     85  S   UNL A   1      32.301  23.526  24.051  1.00  0.00     0.244 S 
ATOM     86  O   UNL A   1      30.961  23.306  23.534  1.00  0.00    -0.207 OA
ATOM     87  O   UNL A   1      33.260  24.281  23.296  1.00  0.00    -0.207 OA
BRANCH  85  88
ATOM     88  C   UNL A   1      33.054  21.961  24.344  1.00  0.00     0.086 A 
ATOM     89  C   UNL A   1      34.434  21.893  24.589  1.00  0.00     0.026 A 
ATOM     90  C   UNL A   1      32.271  20.816  24.268  1.00  0.00     0.072 A 
ATOM     91  C   UNL A   1      35.041  20.650  24.739  1.00  0.00     0.052 A 
ATOM     92  C   UNL A   1      32.874  19.588  24.461  1.00  0.00     0.162 A 
ATOM     93  C   UNL A   1      34.261  19.499  24.653  1.00  0.00     0.161 A 
ATOM     94  O   UNL A   1      32.038  18.502  24.430  1.00  0.00    -0.486 OA
ATOM     95  O   UNL A   1      34.916  18.297  24.750  1.00  0.00    -0.486 OA
ATOM     96  C   UNL A   1      32.711  17.327  24.888  1.00  0.00     0.271 C 
ATOM     97  C   UNL A   1      34.088  17.237  24.254  1.00  0.00     0.271 C 
ENDBRANCH  85  88
ENDBRANCH  82  85
BRANCH  83  98
ATOM     98  O   UNL A   1      29.696  22.647  27.925  1.00  0.00    -0.392 OA
ATOM     99  H   UNL A   1      28.790  22.976  28.034  1.00  0.00     0.211 HD
ENDBRANCH  83  98
ENDBRANCH  78  80
ENDBRANCH  77  78
ENDBRANCH  76  77
ENDBRANCH  75  76
ENDBRANCH  74  75
ENDBRANCH   1  74
TORSDOF 20
ENDMDL
MODEL 2
REMARK VINA RESULT:     -11.2      2.622      3.464
REMARK SMILES O=C(OCCOCCOC(=O)[C@H]1C[C@H](O)CN1S(=O)(=O)c1ccc2c(c1)OCCO2)c1ccc(-c2c3nc(c(-c4c(F)cc(S(=O)(=O)[O-])cc4F)c4ccc([nH]4)c(-c4c(F)cc(S(=O)(=O)[O-])cc4F)c4nc(c(-c5c(F)cc(S(=O)(=O)[O-])cc5F)c5ccc2[nH]5)C=C4)C=C3)cc1
REMARK SMILES IDX 5 1 4 2 3 3 2 4 1 5 31 6 32 7 96 8 33 9 95 10 34 11 35 12
REMARK SMILES IDX 36 13 89 14 37 15 94 16 88 17 90 18 38 19 93 20 87 21 86 22
REMARK SMILES IDX 39 24 73 25 52 26 72 27 53 28 56 29 71 30 91 31 54 32 55 33
REMARK SMILES IDX 70 35 92 36 57 37 40 38 41 39 50 40 42 41 43 42 49 43 51 44
REMARK SMILES IDX 44 45 45 46 46 47 47 48 48 49 74 50 75 51 84 52 76 53 77 54
REMARK SMILES IDX 83 55 85 56 78 57 79 58 80 59 81 60 82 61 58 62 59 63 68 64
REMARK SMILES IDX 60 65 61 66 67 67 69 68 62 69 63 70 64 71 65 72 66 73 6 74
REMARK SMILES IDX 7 75 8 76 9 77 10 78 11 79 12 80 13 81 17 82 14 83 16 84
REMARK SMILES IDX 18 85 19 86 20 87 21 88 22 89 26 90 23 91 25 92 24 93 27 94
REMARK SMILES IDX 30 95 28 96 29 97 15 98
REMARK H PARENT 90 23 56 34 15 99
REMARK Flexibility Score: inf
ROOT
ATOM      1  C   UNL A   1      34.021  29.425  26.509  1.00  0.00     0.202 C 
ENDROOT
BRANCH   1   2
ATOM      2  C   UNL A   1      34.634  30.334  27.574  1.00  0.00     0.261 C 
BRANCH   2   3
ATOM      3  O   UNL A   1      35.336  29.556  28.555  1.00  0.00    -0.460 OA
BRANCH   3   4
ATOM      4  C   UNL A   1      36.389  29.999  29.290  1.00  0.00     0.338 C 
ATOM      5  O   UNL A   1      36.167  30.567  30.359  1.00  0.00    -0.246 OA
BRANCH   4   6
ATOM      6  C   UNL A   1      37.813  29.715  28.921  1.00  0.00     0.060 A 
ATOM      7  C   UNL A   1      38.332  29.644  27.622  1.00  0.00     0.016 A 
ATOM      8  C   UNL A   1      38.709  29.598  29.996  1.00  0.00     0.016 A 
ATOM      9  C   UNL A   1      39.680  29.447  27.386  1.00  0.00     0.010 A 
ATOM     10  C   UNL A   1      40.070  29.389  29.771  1.00  0.00     0.010 A 
ATOM     11  C   UNL A   1      40.547  29.297  28.459  1.00  0.00    -0.014 A 
BRANCH  11  12
ATOM     12  C   UNL A   1      41.906  28.838  28.156  1.00  0.00     0.031 A 
ATOM     13  C   UNL A   1      43.005  29.845  28.269  1.00  0.00     0.074 A 
ATOM     14  C   UNL A   1      42.137  27.531  27.947  1.00  0.00     0.049 A 
ATOM     15  N   UNL A   1      44.270  29.725  27.986  1.00  0.00    -0.248 NA
ATOM     16  C   UNL A   1      42.625  31.173  28.788  1.00  0.00     0.031 C 
ATOM     17  C   UNL A   1      41.120  26.476  27.994  1.00  0.00     0.029 A 
ATOM     18  N   UNL A   1      43.300  26.863  27.685  1.00  0.00    -0.354 N 
ATOM     19  C   UNL A   1      44.828  30.970  28.250  1.00  0.00     0.074 A 
ATOM     20  C   UNL A   1      43.771  31.831  28.721  1.00  0.00     0.031 C 
ATOM     21  C   UNL A   1      41.710  25.291  27.769  1.00  0.00     0.029 A 
ATOM     22  C   UNL A   1      43.123  25.514  27.492  1.00  0.00     0.049 A 
ATOM     23  H   UNL A   1      44.179  27.305  27.639  1.00  0.00     0.167 HD
ATOM     24  C   UNL A   1      46.116  31.346  28.094  1.00  0.00     0.037 A 
ATOM     25  C   UNL A   1      44.010  24.586  27.087  1.00  0.00     0.037 A 
ATOM     26  C   UNL A   1      47.129  30.441  27.623  1.00  0.00     0.049 A 
ATOM     27  C   UNL A   1      45.417  25.052  26.817  1.00  0.00     0.074 A 
ATOM     28  C   UNL A   1      48.456  30.694  27.345  1.00  0.00     0.029 A 
ATOM     29  N   UNL A   1      46.907  29.092  27.360  1.00  0.00    -0.354 N 
ATOM     30  N   UNL A   1      45.931  26.252  26.974  1.00  0.00    -0.248 NA
ATOM     31  C   UNL A   1      46.360  24.055  26.299  1.00  0.00     0.031 C 
ATOM     32  C   UNL A   1      49.026  29.508  26.867  1.00  0.00     0.029 A 
ATOM     33  C   UNL A   1      48.070  28.502  26.906  1.00  0.00     0.049 A 
ATOM     34  H   UNL A   1      46.049  28.627  27.481  1.00  0.00     0.167 HD
ATOM     35  C   UNL A   1      47.262  26.153  26.594  1.00  0.00     0.074 A 
ATOM     36  C   UNL A   1      47.476  24.768  26.215  1.00  0.00     0.031 C 
ATOM     37  C   UNL A   1      48.224  27.109  26.554  1.00  0.00     0.037 A 
BRANCH  24  38
ATOM     38  C   UNL A   1      46.447  32.790  28.345  1.00  0.00     0.058 A 
ATOM     39  C   UNL A   1      46.367  33.766  27.339  1.00  0.00     0.135 A 
ATOM     40  C   UNL A   1      46.902  33.193  29.611  1.00  0.00     0.135 A 
ATOM     41  F   UNL A   1      45.976  33.430  26.099  1.00  0.00    -0.206 F 
ATOM     42  C   UNL A   1      46.753  35.084  27.571  1.00  0.00     0.059 A 
ATOM     43  C   UNL A   1      47.267  34.510  29.874  1.00  0.00     0.059 A 
ATOM     44  F   UNL A   1      47.018  32.297  30.603  1.00  0.00    -0.206 F 
ATOM     45  C   UNL A   1      47.205  35.445  28.842  1.00  0.00     0.060 A 
BRANCH  45  46
ATOM     46  S   UNL A   1      47.714  37.154  29.125  1.00  0.00     0.124 S 
ATOM     47  O   UNL A   1      48.971  37.211  28.384  1.00  0.00    -0.237 OA
ATOM     48  O   UNL A   1      46.605  37.908  28.550  1.00  0.00    -0.237 OA
ATOM     49  O   UNL A   1      47.839  37.236  30.577  1.00  0.00    -0.744 OA
ENDBRANCH  45  46
ENDBRANCH  24  38
BRANCH  25  50
ATOM     50  C   UNL A   1      43.582  23.179  26.858  1.00  0.00     0.058 A 
ATOM     51  C   UNL A   1      43.456  22.650  25.565  1.00  0.00     0.135 A 
ATOM     52  C   UNL A   1      43.294  22.324  27.937  1.00  0.00     0.135 A 
ATOM     53  F   UNL A   1      43.711  23.423  24.498  1.00  0.00    -0.206 F 
ATOM     54  C   UNL A   1      43.046  21.337  25.348  1.00  0.00     0.059 A 
ATOM     55  C   UNL A   1      42.913  20.999  27.746  1.00  0.00     0.059 A 
ATOM     56  F   UNL A   1      43.404  22.770  29.197  1.00  0.00    -0.206 F 
ATOM     57  C   UNL A   1      42.777  20.518  26.446  1.00  0.00     0.060 A 
BRANCH  57  58
ATOM     58  S   UNL A   1      42.268  18.810  26.154  1.00  0.00     0.124 S 
ATOM     59  O   UNL A   1      43.233  18.385  25.146  1.00  0.00    -0.237 OA
ATOM     60  O   UNL A   1      42.424  18.212  27.477  1.00  0.00    -0.237 OA
ATOM     61  O   UNL A   1      40.890  18.941  25.692  1.00  0.00    -0.744 OA
ENDBRANCH  57  58
ENDBRANCH  25  50
BRANCH  37  62
ATOM     62  C   UNL A   1      49.595  26.673  26.129  1.00  0.00     0.058 A 
ATOM     63  C   UNL A   1      50.058  26.871  24.819  1.00  0.00     0.135 A 
ATOM     64  C   UNL A   1      50.477  26.117  27.069  1.00  0.00     0.135 A 
ATOM     65  F   UNL A   1      49.247  27.393  23.886  1.00  0.00    -0.206 F 
ATOM     66  C   UNL A   1      51.348  26.513  24.450  1.00  0.00     0.059 A 
ATOM     67  C   UNL A   1      51.781  25.784  26.729  1.00  0.00     0.059 A 
ATOM     68  F   UNL A   1      50.081  25.922  28.337  1.00  0.00    -0.206 F 
ATOM     69  C   UNL A   1      52.205  25.976  25.415  1.00  0.00     0.060 A 
BRANCH  69  70
ATOM     70  S   UNL A   1      53.892  25.564  24.936  1.00  0.00     0.124 S 
ATOM     71  O   UNL A   1      53.928  26.036  23.555  1.00  0.00    -0.237 OA
ATOM     72  O   UNL A   1      54.684  26.332  25.891  1.00  0.00    -0.237 OA
ATOM     73  O   UNL A   1      53.950  24.115  25.105  1.00  0.00    -0.744 OA
ENDBRANCH  69  70
ENDBRANCH  37  62
ENDBRANCH  11  12
ENDBRANCH   4   6
ENDBRANCH   3   4
ENDBRANCH   2   3
ENDBRANCH   1   2
BRANCH   1  74
ATOM     74  O   UNL A   1      32.624  29.663  26.408  1.00  0.00    -0.374 OA
BRANCH  74  75
ATOM     75  C   UNL A   1      31.748  28.970  27.288  1.00  0.00     0.202 C 
BRANCH  75  76
ATOM     76  C   UNL A   1      31.855  27.483  26.996  1.00  0.00     0.261 C 
BRANCH  76  77
ATOM     77  O   UNL A   1      31.493  27.268  25.628  1.00  0.00    -0.462 OA
BRANCH  77  78
ATOM     78  C   UNL A   1      30.719  26.169  25.404  1.00  0.00     0.324 C 
ATOM     79  O   UNL A   1      29.859  25.699  26.141  1.00  0.00    -0.250 OA
BRANCH  78  80
ATOM     80  C   UNL A   1      31.112  25.502  24.117  1.00  0.00     0.185 C 
ATOM     81  C   UNL A   1      31.934  26.344  23.127  1.00  0.00     0.065 C 
ATOM     82  N   UNL A   1      31.823  24.199  24.276  1.00  0.00    -0.181 NA
ATOM     83  C   UNL A   1      33.094  25.451  22.709  1.00  0.00     0.131 C 
ATOM     84  C   UNL A   1      32.594  24.038  23.017  1.00  0.00     0.135 C 
BRANCH  82  85
ATOM     85  S   UNL A   1      32.717  23.956  25.727  1.00  0.00     0.244 S 
ATOM     86  O   UNL A   1      33.828  24.892  25.722  1.00  0.00    -0.207 OA
ATOM     87  O   UNL A   1      31.860  23.847  26.874  1.00  0.00    -0.207 OA
BRANCH  85  88
ATOM     88  C   UNL A   1      33.345  22.334  25.448  1.00  0.00     0.086 A 
ATOM     89  C   UNL A   1      34.717  22.156  25.209  1.00  0.00     0.026 A 
ATOM     90  C   UNL A   1      32.456  21.269  25.414  1.00  0.00     0.072 A 
ATOM     91  C   UNL A   1      35.197  20.885  24.909  1.00  0.00     0.052 A 
ATOM     92  C   UNL A   1      32.948  20.003  25.157  1.00  0.00     0.162 A 
ATOM     93  C   UNL A   1      34.307  19.815  24.862  1.00  0.00     0.161 A 
ATOM     94  O   UNL A   1      32.029  18.987  25.193  1.00  0.00    -0.486 OA
ATOM     95  O   UNL A   1      34.822  18.595  24.505  1.00  0.00    -0.486 OA
ATOM     96  C   UNL A   1      32.676  17.713  25.169  1.00  0.00     0.271 C 
ATOM     97  C   UNL A   1      33.768  17.705  24.113  1.00  0.00     0.271 C 
ENDBRANCH  85  88
ENDBRANCH  82  85
BRANCH  83  98
ATOM     98  O   UNL A   1      33.427  25.639  21.342  1.00  0.00    -0.392 OA
ATOM     99  H   UNL A   1      32.615  25.682  20.814  1.00  0.00     0.211 HD
ENDBRANCH  83  98
ENDBRANCH  78  80
ENDBRANCH  77  78
ENDBRANCH  76  77
ENDBRANCH  75  76
ENDBRANCH  74  75
ENDBRANCH   1  74
TORSDOF 20
ENDMDL
MODEL 3
REMARK VINA RESULT:     -11.1      4.623     10.687
REMARK SMILES O=C(OCCOCCOC(=O)[C@H]1C[C@H](O)CN1S(=O)(=O)c1ccc2c(c1)OCCO2)c1ccc(-c2c3nc(c(-c4c(F)cc(S(=O)(=O)[O-])cc4F)c4ccc([nH]4)c(-c4c(F)cc(S(=O)(=O)[O-])cc4F)c4nc(c(-c5c(F)cc(S(=O)(=O)[O-])cc5F)c5ccc2[nH]5)C=C4)C=C3)cc1
REMARK SMILES IDX 5 1 4 2 3 3 2 4 1 5 31 6 32 7 96 8 33 9 95 10 34 11 35 12
REMARK SMILES IDX 36 13 89 14 37 15 94 16 88 17 90 18 38 19 93 20 87 21 86 22
REMARK SMILES IDX 39 24 73 25 52 26 72 27 53 28 56 29 71 30 91 31 54 32 55 33
REMARK SMILES IDX 70 35 92 36 57 37 40 38 41 39 50 40 42 41 43 42 49 43 51 44
REMARK SMILES IDX 44 45 45 46 46 47 47 48 48 49 74 50 75 51 84 52 76 53 77 54
REMARK SMILES IDX 83 55 85 56 78 57 79 58 80 59 81 60 82 61 58 62 59 63 68 64
REMARK SMILES IDX 60 65 61 66 67 67 69 68 62 69 63 70 64 71 65 72 66 73 6 74
REMARK SMILES IDX 7 75 8 76 9 77 10 78 11 79 12 80 13 81 17 82 14 83 16 84
REMARK SMILES IDX 18 85 19 86 20 87 21 88 22 89 26 90 23 91 25 92 24 93 27 94
REMARK SMILES IDX 30 95 28 96 29 97 15 98
REMARK H PARENT 90 23 56 34 15 99
REMARK Flexibility Score: inf
ROOT
ATOM      1  C   UNL A   1      38.270  22.471  25.762  1.00  0.00     0.202 C 
ENDROOT
BRANCH   1   2
ATOM      2  C   UNL A   1      39.645  22.104  26.319  1.00  0.00     0.261 C 
BRANCH   2   3
ATOM      3  O   UNL A   1      40.030  23.022  27.353  1.00  0.00    -0.460 OA
BRANCH   3   4
ATOM      4  C   UNL A   1      40.766  24.147  27.161  1.00  0.00     0.338 C 
ATOM      5  O   UNL A   1      41.453  24.237  26.144  1.00  0.00    -0.246 OA
BRANCH   4   6
ATOM      6  C   UNL A   1      40.682  25.338  28.066  1.00  0.00     0.060 A 
ATOM      7  C   UNL A   1      41.646  26.346  28.195  1.00  0.00     0.016 A 
ATOM      8  C   UNL A   1      39.480  25.480  28.777  1.00  0.00     0.016 A 
ATOM      9  C   UNL A   1      41.443  27.446  29.008  1.00  0.00     0.010 A 
ATOM     10  C   UNL A   1      39.268  26.581  29.608  1.00  0.00     0.010 A 
ATOM     11  C   UNL A   1      40.265  27.554  29.731  1.00  0.00    -0.014 A 
BRANCH  11  12
ATOM     12  C   UNL A   1      40.211  28.596  30.762  1.00  0.00     0.031 A 
ATOM     13  C   UNL A   1      41.233  28.528  31.852  1.00  0.00     0.074 A 
ATOM     14  C   UNL A   1      39.375  29.637  30.616  1.00  0.00     0.049 A 
ATOM     15  N   UNL A   1      41.361  29.268  32.914  1.00  0.00    -0.248 NA
ATOM     16  C   UNL A   1      42.267  27.483  31.714  1.00  0.00     0.031 C 
ATOM     17  C   UNL A   1      38.472  29.840  29.479  1.00  0.00     0.029 A 
ATOM     18  N   UNL A   1      39.168  30.732  31.407  1.00  0.00    -0.354 N 
ATOM     19  C   UNL A   1      42.459  28.754  33.594  1.00  0.00     0.074 A 
ATOM     20  C   UNL A   1      42.967  27.644  32.825  1.00  0.00     0.031 C 
ATOM     21  C   UNL A   1      37.809  30.995  29.649  1.00  0.00     0.029 A 
ATOM     22  C   UNL A   1      38.187  31.569  30.934  1.00  0.00     0.049 A 
ATOM     23  H   UNL A   1      39.672  30.903  32.235  1.00  0.00     0.167 HD
ATOM     24  C   UNL A   1      42.974  29.180  34.768  1.00  0.00     0.037 A 
ATOM     25  C   UNL A   1      37.634  32.649  31.516  1.00  0.00     0.037 A 
ATOM     26  C   UNL A   1      42.426  30.295  35.488  1.00  0.00     0.049 A 
ATOM     27  C   UNL A   1      38.155  33.042  32.874  1.00  0.00     0.074 A 
ATOM     28  C   UNL A   1      42.793  30.797  36.720  1.00  0.00     0.029 A 
ATOM     29  N   UNL A   1      41.379  31.085  35.023  1.00  0.00    -0.354 N 
ATOM     30  N   UNL A   1      39.132  32.501  33.568  1.00  0.00    -0.248 NA
ATOM     31  C   UNL A   1      37.496  34.170  33.539  1.00  0.00     0.031 C 
ATOM     32  C   UNL A   1      41.934  31.859  37.022  1.00  0.00     0.029 A 
ATOM     33  C   UNL A   1      41.073  32.060  35.952  1.00  0.00     0.049 A 
ATOM     34  H   UNL A   1      40.922  30.965  34.159  1.00  0.00     0.167 HD
ATOM     35  C   UNL A   1      39.220  33.234  34.743  1.00  0.00     0.074 A 
ATOM     36  C   UNL A   1      38.205  34.267  34.656  1.00  0.00     0.031 C 
ATOM     37  C   UNL A   1      40.054  33.074  35.802  1.00  0.00     0.037 A 
BRANCH  24  38
ATOM     38  C   UNL A   1      44.104  28.380  35.353  1.00  0.00     0.058 A 
ATOM     39  C   UNL A   1      45.444  28.597  34.995  1.00  0.00     0.135 A 
ATOM     40  C   UNL A   1      43.830  27.338  36.254  1.00  0.00     0.135 A 
ATOM     41  F   UNL A   1      45.761  29.553  34.106  1.00  0.00    -0.206 F 
ATOM     42  C   UNL A   1      46.469  27.793  35.488  1.00  0.00     0.059 A 
ATOM     43  C   UNL A   1      44.840  26.540  36.781  1.00  0.00     0.059 A 
ATOM     44  F   UNL A   1      42.565  27.073  36.615  1.00  0.00    -0.206 F 
ATOM     45  C   UNL A   1      46.156  26.764  36.379  1.00  0.00     0.060 A 
BRANCH  45  46
ATOM     46  S   UNL A   1      47.492  25.722  37.001  1.00  0.00     0.124 S 
ATOM     47  O   UNL A   1      46.837  24.419  37.071  1.00  0.00    -0.237 OA
ATOM     48  O   UNL A   1      48.508  25.865  35.963  1.00  0.00    -0.237 OA
ATOM     49  O   UNL A   1      47.824  26.326  38.287  1.00  0.00    -0.744 OA
ENDBRANCH  45  46
ENDBRANCH  24  38
BRANCH  25  50
ATOM     50  C   UNL A   1      36.510  33.372  30.859  1.00  0.00     0.058 A 
ATOM     51  C   UNL A   1      36.720  34.207  29.752  1.00  0.00     0.135 A 
ATOM     52  C   UNL A   1      35.190  33.237  31.325  1.00  0.00     0.135 A 
ATOM     53  F   UNL A   1      37.960  34.379  29.269  1.00  0.00    -0.206 F 
ATOM     54  C   UNL A   1      35.672  34.892  29.143  1.00  0.00     0.059 A 
ATOM     55  C   UNL A   1      34.122  33.887  30.713  1.00  0.00     0.059 A 
ATOM     56  F   UNL A   1      34.924  32.446  32.376  1.00  0.00    -0.206 F 
ATOM     57  C   UNL A   1      34.375  34.725  29.630  1.00  0.00     0.060 A 
BRANCH  57  58
ATOM     58  S   UNL A   1      33.020  35.600  28.818  1.00  0.00     0.124 S 
ATOM     59  O   UNL A   1      33.740  36.605  28.045  1.00  0.00    -0.237 OA
ATOM     60  O   UNL A   1      32.386  34.535  28.046  1.00  0.00    -0.237 OA
ATOM     61  O   UNL A   1      32.229  36.110  29.934  1.00  0.00    -0.744 OA
ENDBRANCH  57  58
ENDBRANCH  25  50
BRANCH  37  62
ATOM     62  C   UNL A   1      39.926  34.065  36.920  1.00  0.00     0.058 A 
ATOM     63  C   UNL A   1      40.548  35.322  36.865  1.00  0.00     0.135 A 
ATOM     64  C   UNL A   1      39.108  33.776  38.024  1.00  0.00     0.135 A 
ATOM     65  F   UNL A   1      41.344  35.639  35.832  1.00  0.00    -0.206 F 
ATOM     66  C   UNL A   1      40.379  36.254  37.880  1.00  0.00     0.059 A 
ATOM     67  C   UNL A   1      38.899  34.706  39.033  1.00  0.00     0.059 A 
ATOM     68  F   UNL A   1      38.483  32.591  38.111  1.00  0.00    -0.206 F 
ATOM     69  C   UNL A   1      39.546  35.938  38.958  1.00  0.00     0.060 A 
BRANCH  69  70
ATOM     70  S   UNL A   1      39.295  37.176  40.244  1.00  0.00     0.124 S 
ATOM     71  O   UNL A   1      38.548  38.201  39.520  1.00  0.00    -0.237 OA
ATOM     72  O   UNL A   1      38.542  36.433  41.249  1.00  0.00    -0.237 OA
ATOM     73  O   UNL A   1      40.653  37.545  40.632  1.00  0.00    -0.744 OA
ENDBRANCH  69  70
ENDBRANCH  37  62
ENDBRANCH  11  12
ENDBRANCH   4   6
ENDBRANCH   3   4
ENDBRANCH   2   3
ENDBRANCH   1   2
BRANCH   1  74
ATOM     74  O   UNL A   1      37.648  21.323  25.201  1.00  0.00    -0.374 OA
BRANCH  74  75
ATOM     75  C   UNL A   1      36.284  21.409  24.810  1.00  0.00     0.202 C 
BRANCH  75  76
ATOM     76  C   UNL A   1      35.997  22.839  24.382  1.00  0.00     0.261 C 
BRANCH  76  77
ATOM     77  O   UNL A   1      34.592  23.075  24.526  1.00  0.00    -0.462 OA
BRANCH  77  78
ATOM     78  C   UNL A   1      33.921  23.278  23.357  1.00  0.00     0.324 C 
ATOM     79  O   UNL A   1      34.389  23.310  22.224  1.00  0.00    -0.250 OA
BRANCH  78  80
ATOM     80  C   UNL A   1      32.471  23.561  23.626  1.00  0.00     0.185 C 
ATOM     81  C   UNL A   1      31.982  23.346  25.067  1.00  0.00     0.065 C 
ATOM     82  N   UNL A   1      32.008  24.918  23.206  1.00  0.00    -0.181 NA
ATOM     83  C   UNL A   1      31.195  24.603  25.415  1.00  0.00     0.131 C 
ATOM     84  C   UNL A   1      30.816  25.183  24.051  1.00  0.00     0.135 C 
BRANCH  82  85
ATOM     85  S   UNL A   1      33.180  26.178  23.164  1.00  0.00     0.244 S 
ATOM     86  O   UNL A   1      34.016  26.041  24.343  1.00  0.00    -0.207 OA
ATOM     87  O   UNL A   1      33.771  26.318  21.863  1.00  0.00    -0.207 OA
BRANCH  85  88
ATOM     88  C   UNL A   1      32.143  27.587  23.368  1.00  0.00     0.086 A 
ATOM     89  C   UNL A   1      32.179  28.302  24.575  1.00  0.00     0.026 A 
ATOM     90  C   UNL A   1      31.266  27.926  22.346  1.00  0.00     0.072 A 
ATOM     91  C   UNL A   1      31.301  29.365  24.765  1.00  0.00     0.052 A 
ATOM     92  C   UNL A   1      30.428  29.010  22.526  1.00  0.00     0.162 A 
ATOM     93  C   UNL A   1      30.412  29.702  23.747  1.00  0.00     0.161 A 
ATOM     94  O   UNL A   1      29.628  29.329  21.459  1.00  0.00    -0.486 OA
ATOM     95  O   UNL A   1      29.529  30.720  24.006  1.00  0.00    -0.486 OA
ATOM     96  C   UNL A   1      28.998  30.597  21.655  1.00  0.00     0.271 C 
ATOM     97  C   UNL A   1      28.447  30.690  23.067  1.00  0.00     0.271 C 
ENDBRANCH  85  88
ENDBRANCH  82  85
BRANCH  83  98
ATOM     98  O   UNL A   1      30.070  24.304  26.226  1.00  0.00    -0.392 OA
ATOM     99  H   UNL A   1      29.267  24.649  25.806  1.00  0.00     0.211 HD
ENDBRANCH  83  98
ENDBRANCH  78  80
ENDBRANCH  77  78
ENDBRANCH  76  77
ENDBRANCH  75  76
ENDBRANCH  74  75
ENDBRANCH   1  74
TORSDOF 20
ENDMDL
