MODEL 1
REMARK VINA RESULT:     -12.2      0.000      0.000
REMARK SMILES O=C(C[C@H](NC(=O)[C@]12C[C@H]3C[C@H](C[C@H](C3)C1)C2)c1ccc(Cl)cc1Cl)OCCOCCOC(=O)c1ccc(-c2c3nc(c(-c4c(F)cc(S(=O)(=O)[O-])cc4F)c4ccc([nH]4)c(-c4c(F)cc(S(=O)(=O)[O-])cc4F)c4nc(c(-c5c(F)cc(S(=O)(=O)[O-])cc5F)c5ccc2[nH]5)C=C4)C=C3)cc1
REMARK SMILES IDX 29 1 28 2 27 3 26 4 2 5 1 6 3 7 4 8 18 9 19 10 24 11 20 12
REMARK SMILES IDX 23 13 25 14 21 15 22 16 5 17 6 18 7 20 8 21 9 22 16 23 17 24
REMARK SMILES IDX 10 25 14 26 12 27 11 28 15 29 13 30 30 31 31 32 32 33 33 34
REMARK SMILES IDX 34 35 35 36 36 37 100 38 37 39 99 40 38 41 39 42 40 43 93 44
REMARK SMILES IDX 41 45 98 46 92 47 94 48 42 49 97 50 91 51 90 52 43 54 77 55
REMARK SMILES IDX 56 56 76 57 57 58 60 59 75 60 95 61 58 62 59 63 74 65 96 66
REMARK SMILES IDX 61 67 44 68 45 69 54 70 46 71 47 72 53 73 55 74 48 75 49 76
REMARK SMILES IDX 50 77 51 78 52 79 78 80 79 81 88 82 80 83 81 84 87 85 89 86
REMARK SMILES IDX 82 87 83 88 84 89 85 90 86 91 62 92 63 93 72 94 64 95 65 96
REMARK SMILES IDX 71 97 73 98 66 99 67 100 68 101 69 102 70 103
REMARK H PARENT 5 19 94 53 60 64
REMARK Flexibility Score: inf
ROOT
ATOM      1  O   UNL A   1      41.607  21.182  27.145  1.00  0.00    -0.374 OA
ENDROOT
BRANCH   1   2
ATOM      2  C   UNL A   1      40.048  21.378  26.816  1.00  0.00     0.202 C 
BRANCH   2   3
ATOM      3  C   UNL A   1      38.881  23.142  26.263  1.00  0.00     0.261 C 
BRANCH   3   4
ATOM      4  O   UNL A   1      37.623  23.260  25.127  1.00  0.00    -0.463 OA
BRANCH   4   5
ATOM      5  C   UNL A   1      36.352  23.727  25.042  1.00  0.00     0.308 C 
ATOM      6  O   UNL A   1      35.908  24.471  25.918  1.00  0.00    -0.252 OA
BRANCH   5   7
ATOM      7  C   UNL A   1      35.402  23.232  23.954  1.00  0.00     0.152 C 
BRANCH   7   8
ATOM      8  C   UNL A   1      33.955  23.191  24.401  1.00  0.00     0.125 C 
BRANCH   8   9
ATOM      9  C   UNL A   1      33.708  21.734  24.681  1.00  0.00    -0.006 A 
ATOM     10  C   UNL A   1      35.018  20.621  25.384  1.00  0.00     0.009 A 
ATOM     11  C   UNL A   1      32.410  21.048  23.643  1.00  0.00     0.047 A 
ATOM     12  C   UNL A   1      35.049  18.898  24.867  1.00  0.00     0.021 A 
ATOM     13  C   UNL A   1      32.484  19.348  23.176  1.00  0.00     0.041 A 
ATOM     14  Cl  UNL A   1      31.328  22.055  22.747  1.00  0.00    -0.084 Cl
ATOM     15  C   UNL A   1      33.738  18.284  23.806  1.00  0.00     0.042 A 
ATOM     16  Cl  UNL A   1      33.809  16.731  23.079  1.00  0.00    -0.084 Cl
ENDBRANCH   8   9
BRANCH   8  17
ATOM     17  N   UNL A   1      33.180  23.922  25.428  1.00  0.00    -0.348 N 
ATOM     18  C   UNL A   1      32.479  25.023  25.759  1.00  0.00     0.226 C 
ATOM     19  H   UNL A   1      33.175  23.346  26.226  1.00  0.00     0.164 HD
ATOM     20  O   UNL A   1      31.901  24.983  26.852  1.00  0.00    -0.274 OA
BRANCH  18  21
ATOM     21  C   UNL A   1      32.349  26.245  24.887  1.00  0.00     0.050 C 
ATOM     22  C   UNL A   1      31.387  27.279  25.512  1.00  0.00     0.020 C 
ATOM     23  C   UNL A   1      31.793  25.861  23.499  1.00  0.00     0.020 C 
ATOM     24  C   UNL A   1      33.707  26.885  24.717  1.00  0.00     0.020 C 
ATOM     25  C   UNL A   1      31.357  28.548  24.635  1.00  0.00    -0.010 C 
ATOM     26  C   UNL A   1      31.777  27.109  22.592  1.00  0.00    -0.010 C 
ATOM     27  C   UNL A   1      33.701  28.122  23.859  1.00  0.00    -0.010 C 
ATOM     28  C   UNL A   1      32.776  29.134  24.531  1.00  0.00     0.007 C 
ATOM     29  C   UNL A   1      30.867  28.181  23.222  1.00  0.00     0.007 C 
ATOM     30  C   UNL A   1      33.197  27.691  22.474  1.00  0.00     0.007 C 
ENDBRANCH  18  21
ENDBRANCH   8  17
ENDBRANCH   7   8
ENDBRANCH   5   7
ENDBRANCH   4   5
ENDBRANCH   3   4
ENDBRANCH   2   3
ENDBRANCH   1   2
BRANCH   1  31
ATOM     31  C   UNL A   1      42.706  22.028  26.737  1.00  0.00     0.202 C 
BRANCH  31  32
ATOM     32  C   UNL A   1      42.582  23.309  25.879  1.00  0.00     0.261 C 
BRANCH  32  33
ATOM     33  O   UNL A   1      43.043  24.513  26.482  1.00  0.00    -0.460 OA
BRANCH  33  34
ATOM     34  C   UNL A   1      42.330  25.610  26.130  1.00  0.00     0.338 C 
ATOM     35  O   UNL A   1      41.844  25.860  25.042  1.00  0.00    -0.246 OA
BRANCH  34  36
ATOM     36  C   UNL A   1      42.028  26.358  27.356  1.00  0.00     0.060 A 
ATOM     37  C   UNL A   1      42.773  27.519  27.555  1.00  0.00     0.016 A 
ATOM     38  C   UNL A   1      40.987  26.008  28.227  1.00  0.00     0.016 A 
ATOM     39  C   UNL A   1      42.440  28.367  28.599  1.00  0.00     0.010 A 
ATOM     40  C   UNL A   1      40.666  26.860  29.291  1.00  0.00     0.010 A 
ATOM     41  C   UNL A   1      41.380  28.057  29.464  1.00  0.00    -0.014 A 
BRANCH  41  42
ATOM     42  C   UNL A   1      41.267  28.883  30.684  1.00  0.00     0.031 A 
ATOM     43  C   UNL A   1      40.155  29.890  30.687  1.00  0.00     0.074 A 
ATOM     44  C   UNL A   1      41.992  28.644  31.793  1.00  0.00     0.049 A 
ATOM     45  N   UNL A   1      39.751  30.678  31.642  1.00  0.00    -0.248 NA
ATOM     46  C   UNL A   1      39.366  29.986  29.445  1.00  0.00     0.031 C 
ATOM     47  C   UNL A   1      43.010  27.604  31.938  1.00  0.00     0.029 A 
ATOM     48  N   UNL A   1      41.956  29.245  33.028  1.00  0.00    -0.354 N 
ATOM     49  C   UNL A   1      38.653  31.350  31.121  1.00  0.00     0.074 A 
ATOM     50  C   UNL A   1      38.456  30.884  29.770  1.00  0.00     0.031 C 
ATOM     51  C   UNL A   1      43.495  27.635  33.194  1.00  0.00     0.029 A 
ATOM     52  C   UNL A   1      42.863  28.731  33.927  1.00  0.00     0.049 A 
ATOM     53  H   UNL A   1      41.337  29.978  33.249  1.00  0.00     0.167 HD
ATOM     54  C   UNL A   1      37.884  32.287  31.716  1.00  0.00     0.037 A 
ATOM     55  C   UNL A   1      43.163  29.128  35.182  1.00  0.00     0.037 A 
ATOM     56  C   UNL A   1      38.132  32.784  33.039  1.00  0.00     0.049 A 
ATOM     57  C   UNL A   1      42.392  30.290  35.768  1.00  0.00     0.074 A 
ATOM     58  C   UNL A   1      37.470  33.789  33.715  1.00  0.00     0.029 A 
ATOM     59  N   UNL A   1      39.139  32.325  33.877  1.00  0.00    -0.354 N 
ATOM     60  N   UNL A   1      41.379  30.951  35.257  1.00  0.00    -0.248 NA
ATOM     61  C   UNL A   1      42.808  30.768  37.094  1.00  0.00     0.031 C 
ATOM     62  C   UNL A   1      38.126  33.990  34.933  1.00  0.00     0.029 A 
ATOM     63  C   UNL A   1      39.141  33.053  35.051  1.00  0.00     0.049 A 
ATOM     64  H   UNL A   1      39.760  31.592  33.664  1.00  0.00     0.167 HD
ATOM     65  C   UNL A   1      41.021  31.902  36.207  1.00  0.00     0.074 A 
ATOM     66  C   UNL A   1      41.916  31.720  37.331  1.00  0.00     0.031 C 
ATOM     67  C   UNL A   1      40.042  32.843  36.159  1.00  0.00     0.037 A 
BRANCH  54  68
ATOM     68  C   UNL A   1      36.790  32.891  30.888  1.00  0.00     0.058 A 
ATOM     69  C   UNL A   1      37.032  33.920  29.963  1.00  0.00     0.135 A 
ATOM     70  C   UNL A   1      35.466  32.459  31.059  1.00  0.00     0.135 A 
ATOM     71  F   UNL A   1      38.274  34.403  29.795  1.00  0.00    -0.206 F 
ATOM     72  C   UNL A   1      35.994  34.514  29.252  1.00  0.00     0.059 A 
ATOM     73  C   UNL A   1      34.418  33.015  30.335  1.00  0.00     0.059 A 
ATOM     74  F   UNL A   1      35.178  31.499  31.951  1.00  0.00    -0.206 F 
ATOM     75  C   UNL A   1      34.691  34.051  29.444  1.00  0.00     0.060 A 
BRANCH  75  76
ATOM     76  S   UNL A   1      33.355  34.824  28.510  1.00  0.00     0.124 S 
ATOM     77  O   UNL A   1      32.541  35.392  29.581  1.00  0.00    -0.237 OA
ATOM     78  O   UNL A   1      34.076  35.786  27.683  1.00  0.00    -0.237 OA
ATOM     79  O   UNL A   1      32.752  33.708  27.789  1.00  0.00    -0.744 OA
ENDBRANCH  75  76
ENDBRANCH  54  68
BRANCH  55  80
ATOM     80  C   UNL A   1      44.272  28.483  35.949  1.00  0.00     0.058 A 
ATOM     81  C   UNL A   1      45.612  28.871  35.785  1.00  0.00     0.135 A 
ATOM     82  C   UNL A   1      44.015  27.422  36.834  1.00  0.00     0.135 A 
ATOM     83  F   UNL A   1      45.925  29.860  34.935  1.00  0.00    -0.206 F 
ATOM     84  C   UNL A   1      46.651  28.228  36.459  1.00  0.00     0.059 A 
ATOM     85  C   UNL A   1      45.031  26.786  37.542  1.00  0.00     0.059 A 
ATOM     86  F   UNL A   1      42.756  26.997  37.027  1.00  0.00    -0.206 F 
ATOM     87  C   UNL A   1      46.349  27.190  37.341  1.00  0.00     0.060 A 
BRANCH  87  88
ATOM     88  S   UNL A   1      47.698  26.395  38.245  1.00  0.00     0.124 S 
ATOM     89  O   UNL A   1      47.661  27.104  39.518  1.00  0.00    -0.237 OA
ATOM     90  O   UNL A   1      47.261  25.002  38.276  1.00  0.00    -0.237 OA
ATOM     91  O   UNL A   1      48.865  26.660  37.409  1.00  0.00    -0.744 OA
ENDBRANCH  87  88
ENDBRANCH  55  80
BRANCH  67  92
ATOM     92  C   UNL A   1      39.854  33.720  37.367  1.00  0.00     0.058 A 
ATOM     93  C   UNL A   1      40.455  34.984  37.470  1.00  0.00     0.135 A 
ATOM     94  C   UNL A   1      38.987  33.320  38.398  1.00  0.00     0.135 A 
ATOM     95  F   UNL A   1      41.291  35.415  36.513  1.00  0.00    -0.206 F 
ATOM     96  C   UNL A   1      40.222  35.810  38.565  1.00  0.00     0.059 A 
ATOM     97  C   UNL A   1      38.710  34.145  39.483  1.00  0.00     0.059 A 
ATOM     98  F   UNL A   1      38.372  32.127  38.342  1.00  0.00    -0.206 F 
ATOM     99  C   UNL A   1      39.342  35.384  39.563  1.00  0.00     0.060 A 
BRANCH  99 100
ATOM    100  S   UNL A   1      39.019  36.485  40.954  1.00  0.00     0.124 S 
ATOM    101  O   UNL A   1      37.939  35.783  41.641  1.00  0.00    -0.237 OA
ATOM    102  O   UNL A   1      40.306  36.500  41.643  1.00  0.00    -0.237 OA
ATOM    103  O   UNL A   1      38.642  37.742  40.313  1.00  0.00    -0.744 OA
ENDBRANCH  99 100
ENDBRANCH  67  92
ENDBRANCH  41  42
ENDBRANCH  34  36
ENDBRANCH  33  34
ENDBRANCH  32  33
ENDBRANCH  31  32
ENDBRANCH   1  31
TORSDOF 21
ENDMDL
MODEL 2
REMARK VINA RESULT:     -12.1      0.807      8.043
REMARK SMILES O=C(C[C@H](NC(=O)[C@]12C[C@H]3C[C@H](C[C@H](C3)C1)C2)c1ccc(Cl)cc1Cl)OCCOCCOC(=O)c1ccc(-c2c3nc(c(-c4c(F)cc(S(=O)(=O)[O-])cc4F)c4ccc([nH]4)c(-c4c(F)cc(S(=O)(=O)[O-])cc4F)c4nc(c(-c5c(F)cc(S(=O)(=O)[O-])cc5F)c5ccc2[nH]5)C=C4)C=C3)cc1
REMARK SMILES IDX 29 1 28 2 27 3 26 4 2 5 1 6 3 7 4 8 18 9 19 10 24 11 20 12
REMARK SMILES IDX 23 13 25 14 21 15 22 16 5 17 6 18 7 20 8 21 9 22 16 23 17 24
REMARK SMILES IDX 10 25 14 26 12 27 11 28 15 29 13 30 30 31 31 32 32 33 33 34
REMARK SMILES IDX 34 35 35 36 36 37 100 38 37 39 99 40 38 41 39 42 40 43 93 44
REMARK SMILES IDX 41 45 98 46 92 47 94 48 42 49 97 50 91 51 90 52 43 54 77 55
REMARK SMILES IDX 56 56 76 57 57 58 60 59 75 60 95 61 58 62 59 63 74 65 96 66
REMARK SMILES IDX 61 67 44 68 45 69 54 70 46 71 47 72 53 73 55 74 48 75 49 76
REMARK SMILES IDX 50 77 51 78 52 79 78 80 79 81 88 82 80 83 81 84 87 85 89 86
REMARK SMILES IDX 82 87 83 88 84 89 85 90 86 91 62 92 63 93 72 94 64 95 65 96
REMARK SMILES IDX 71 97 73 98 66 99 67 100 68 101 69 102 70 103
REMARK H PARENT 5 19 94 53 60 64
REMARK Flexibility Score: inf
ROOT
ATOM      1  O   UNL A   1      40.275  20.482  27.060  1.00  0.00    -0.374 OA
ENDROOT
BRANCH   1   2
ATOM      2  C   UNL A   1      39.492  20.099  25.712  1.00  0.00     0.202 C 
BRANCH   2   3
ATOM      3  C   UNL A   1      37.479  20.573  25.004  1.00  0.00     0.261 C 
BRANCH   3   4
ATOM      4  O   UNL A   1      36.355  21.656  25.674  1.00  0.00    -0.463 OA
BRANCH   4   5
ATOM      5  C   UNL A   1      35.577  22.702  25.293  1.00  0.00     0.308 C 
ATOM      6  O   UNL A   1      35.557  23.733  25.967  1.00  0.00    -0.252 OA
BRANCH   5   7
ATOM      7  C   UNL A   1      34.605  22.575  24.123  1.00  0.00     0.152 C 
BRANCH   7   8
ATOM      8  C   UNL A   1      33.159  22.774  24.527  1.00  0.00     0.125 C 
BRANCH   8   9
ATOM      9  C   UNL A   1      32.639  21.373  24.700  1.00  0.00    -0.006 A 
ATOM     10  C   UNL A   1      33.084  20.323  26.167  1.00  0.00     0.009 A 
ATOM     11  C   UNL A   1      32.228  20.595  23.132  1.00  0.00     0.047 A 
ATOM     12  C   UNL A   1      33.255  18.547  25.932  1.00  0.00     0.021 A 
ATOM     13  C   UNL A   1      32.404  18.848  22.961  1.00  0.00     0.041 A 
ATOM     14  Cl  UNL A   1      32.070  21.508  21.673  1.00  0.00    -0.084 Cl
ATOM     15  C   UNL A   1      32.857  17.838  24.332  1.00  0.00     0.042 A 
ATOM     16  Cl  UNL A   1      33.209  16.203  23.948  1.00  0.00    -0.084 Cl
ENDBRANCH   8   9
BRANCH   8  17
ATOM     17  N   UNL A   1      32.489  23.570  25.580  1.00  0.00    -0.348 N 
ATOM     18  C   UNL A   1      32.005  24.763  25.973  1.00  0.00     0.226 C 
ATOM     19  H   UNL A   1      32.325  22.950  26.327  1.00  0.00     0.164 HD
ATOM     20  O   UNL A   1      31.372  24.761  27.036  1.00  0.00    -0.274 OA
BRANCH  18  21
ATOM     21  C   UNL A   1      32.171  26.047  25.202  1.00  0.00     0.050 C 
ATOM     22  C   UNL A   1      31.712  25.882  23.737  1.00  0.00     0.020 C 
ATOM     23  C   UNL A   1      33.652  26.479  25.187  1.00  0.00     0.020 C 
ATOM     24  C   UNL A   1      31.345  27.131  25.853  1.00  0.00     0.020 C 
ATOM     25  C   UNL A   1      31.811  27.241  23.012  1.00  0.00    -0.010 C 
ATOM     26  C   UNL A   1      33.777  27.850  24.489  1.00  0.00    -0.010 C 
ATOM     27  C   UNL A   1      31.433  28.468  25.164  1.00  0.00    -0.010 C 
ATOM     28  C   UNL A   1      30.929  28.274  23.736  1.00  0.00     0.007 C 
ATOM     29  C   UNL A   1      33.272  27.729  23.040  1.00  0.00     0.007 C 
ATOM     30  C   UNL A   1      32.908  28.891  25.218  1.00  0.00     0.007 C 
ENDBRANCH  18  21
ENDBRANCH   8  17
ENDBRANCH   7   8
ENDBRANCH   5   7
ENDBRANCH   4   5
ENDBRANCH   3   4
ENDBRANCH   2   3
ENDBRANCH   1   2
BRANCH   1  31
ATOM     31  C   UNL A   1      40.785  21.779  27.442  1.00  0.00     0.202 C 
BRANCH  31  32
ATOM     32  C   UNL A   1      40.866  23.019  26.522  1.00  0.00     0.261 C 
BRANCH  32  33
ATOM     33  O   UNL A   1      41.710  24.075  26.966  1.00  0.00    -0.460 OA
BRANCH  33  34
ATOM     34  C   UNL A   1      41.429  25.275  26.404  1.00  0.00     0.338 C 
ATOM     35  O   UNL A   1      41.135  25.498  25.243  1.00  0.00    -0.246 OA
BRANCH  34  36
ATOM     36  C   UNL A   1      41.302  26.257  27.487  1.00  0.00     0.060 A 
ATOM     37  C   UNL A   1      40.228  26.066  28.355  1.00  0.00     0.016 A 
ATOM     38  C   UNL A   1      42.249  27.264  27.718  1.00  0.00     0.016 A 
ATOM     39  C   UNL A   1      40.130  26.849  29.493  1.00  0.00     0.010 A 
ATOM     40  C   UNL A   1      42.135  28.064  28.863  1.00  0.00     0.010 A 
ATOM     41  C   UNL A   1      41.084  27.840  29.767  1.00  0.00    -0.014 A 
BRANCH  41  42
ATOM     42  C   UNL A   1      40.757  28.781  30.858  1.00  0.00     0.031 A 
ATOM     43  C   UNL A   1      41.649  28.717  32.062  1.00  0.00     0.074 A 
ATOM     44  C   UNL A   1      39.837  29.754  30.725  1.00  0.00     0.049 A 
ATOM     45  N   UNL A   1      41.671  29.475  33.121  1.00  0.00    -0.248 NA
ATOM     46  C   UNL A   1      42.689  27.670  32.042  1.00  0.00     0.031 C 
ATOM     47  C   UNL A   1      39.003  29.986  29.546  1.00  0.00     0.029 A 
ATOM     48  N   UNL A   1      39.470  30.758  31.590  1.00  0.00    -0.354 N 
ATOM     49  C   UNL A   1      42.734  29.007  33.884  1.00  0.00     0.074 A 
ATOM     50  C   UNL A   1      43.328  27.901  33.173  1.00  0.00     0.031 C 
ATOM     51  C   UNL A   1      38.231  31.068  29.758  1.00  0.00     0.029 A 
ATOM     52  C   UNL A   1      38.472  31.575  31.108  1.00  0.00     0.049 A 
ATOM     53  H   UNL A   1      39.884  30.881  32.475  1.00  0.00     0.167 HD
ATOM     54  C   UNL A   1      43.166  29.453  35.082  1.00  0.00     0.037 A 
ATOM     55  C   UNL A   1      37.814  32.590  31.708  1.00  0.00     0.037 A 
ATOM     56  C   UNL A   1      42.525  30.515  35.804  1.00  0.00     0.049 A 
ATOM     57  C   UNL A   1      38.213  32.966  33.118  1.00  0.00     0.074 A 
ATOM     58  C   UNL A   1      42.823  30.998  37.062  1.00  0.00     0.029 A 
ATOM     59  N   UNL A   1      41.436  31.239  35.338  1.00  0.00    -0.354 N 
ATOM     60  N   UNL A   1      39.193  32.494  33.853  1.00  0.00    -0.248 NA
ATOM     61  C   UNL A   1      37.413  34.003  33.784  1.00  0.00     0.031 C 
ATOM     62  C   UNL A   1      41.868  31.966  37.387  1.00  0.00     0.029 A 
ATOM     63  C   UNL A   1      41.027  32.143  36.299  1.00  0.00     0.049 A 
ATOM     64  H   UNL A   1      41.018  31.124  34.454  1.00  0.00     0.167 HD
ATOM     65  C   UNL A   1      39.145  33.193  35.055  1.00  0.00     0.074 A 
ATOM     66  C   UNL A   1      38.048  34.132  34.942  1.00  0.00     0.031 C 
ATOM     67  C   UNL A   1      39.933  33.074  36.155  1.00  0.00     0.037 A 
BRANCH  54  68
ATOM     68  C   UNL A   1      44.310  28.713  35.708  1.00  0.00     0.058 A 
ATOM     69  C   UNL A   1      45.649  29.013  35.408  1.00  0.00     0.135 A 
ATOM     70  C   UNL A   1      44.055  27.653  36.592  1.00  0.00     0.135 A 
ATOM     71  F   UNL A   1      45.946  29.986  34.531  1.00  0.00    -0.206 F 
ATOM     72  C   UNL A   1      46.695  28.271  35.946  1.00  0.00     0.059 A 
ATOM     73  C   UNL A   1      45.086  26.921  37.168  1.00  0.00     0.059 A 
ATOM     74  F   UNL A   1      42.793  27.309  36.888  1.00  0.00    -0.206 F 
ATOM     75  C   UNL A   1      46.402  27.229  36.828  1.00  0.00     0.060 A 
BRANCH  75  76
ATOM     76  S   UNL A   1      47.769  26.281  37.527  1.00  0.00     0.124 S 
ATOM     77  O   UNL A   1      47.749  25.082  36.693  1.00  0.00    -0.237 OA
ATOM     78  O   UNL A   1      48.901  27.177  37.321  1.00  0.00    -0.237 OA
ATOM     79  O   UNL A   1      47.372  26.084  38.917  1.00  0.00    -0.744 OA
ENDBRANCH  75  76
ENDBRANCH  54  68
BRANCH  55  80
ATOM     80  C   UNL A   1      36.678  33.280  31.026  1.00  0.00     0.058 A 
ATOM     81  C   UNL A   1      35.341  33.036  31.380  1.00  0.00     0.135 A 
ATOM     82  C   UNL A   1      36.908  34.170  29.963  1.00  0.00     0.135 A 
ATOM     83  F   UNL A   1      35.054  32.178  32.370  1.00  0.00    -0.206 F 
ATOM     84  C   UNL A   1      34.279  33.638  30.703  1.00  0.00     0.059 A 
ATOM     85  C   UNL A   1      35.867  34.807  29.292  1.00  0.00     0.059 A 
ATOM     86  F   UNL A   1      38.163  34.437  29.569  1.00  0.00    -0.206 F 
ATOM     87  C   UNL A   1      34.553  34.528  29.663  1.00  0.00     0.060 A 
BRANCH  87  88
ATOM     88  S   UNL A   1      33.173  35.338  28.824  1.00  0.00     0.124 S 
ATOM     89  O   UNL A   1      32.578  34.228  28.091  1.00  0.00    -0.237 OA
ATOM     90  O   UNL A   1      32.396  35.853  29.947  1.00  0.00    -0.237 OA
ATOM     91  O   UNL A   1      33.828  36.355  28.005  1.00  0.00    -0.744 OA
ENDBRANCH  87  88
ENDBRANCH  55  80
BRANCH  67  92
ATOM     92  C   UNL A   1      39.672  34.004  37.308  1.00  0.00     0.058 A 
ATOM     93  C   UNL A   1      38.882  33.626  38.404  1.00  0.00     0.135 A 
ATOM     94  C   UNL A   1      40.297  35.262  37.351  1.00  0.00     0.135 A 
ATOM     95  F   UNL A   1      38.263  32.436  38.414  1.00  0.00    -0.206 F 
ATOM     96  C   UNL A   1      38.701  34.474  39.492  1.00  0.00     0.059 A 
ATOM     97  C   UNL A   1      40.160  36.109  38.446  1.00  0.00     0.059 A 
ATOM     98  F   UNL A   1      41.077  35.667  36.336  1.00  0.00    -0.206 F 
ATOM     99  C   UNL A   1      39.350  35.711  39.506  1.00  0.00     0.060 A 
BRANCH  99 100
ATOM    100  S   UNL A   1      39.137  36.780  40.944  1.00  0.00     0.124 S 
ATOM    101  O   UNL A   1      38.454  37.929  40.358  1.00  0.00    -0.237 OA
ATOM    102  O   UNL A   1      38.333  35.948  41.832  1.00  0.00    -0.237 OA
ATOM    103  O   UNL A   1      40.506  37.025  41.390  1.00  0.00    -0.744 OA
ENDBRANCH  99 100
ENDBRANCH  67  92
ENDBRANCH  41  42
ENDBRANCH  34  36
ENDBRANCH  33  34
ENDBRANCH  32  33
ENDBRANCH  31  32
ENDBRANCH   1  31
TORSDOF 21
ENDMDL
MODEL 3
REMARK VINA RESULT:     -12.0      6.156     11.995
REMARK SMILES O=C(C[C@H](NC(=O)[C@]12C[C@H]3C[C@H](C[C@H](C3)C1)C2)c1ccc(Cl)cc1Cl)OCCOCCOC(=O)c1ccc(-c2c3nc(c(-c4c(F)cc(S(=O)(=O)[O-])cc4F)c4ccc([nH]4)c(-c4c(F)cc(S(=O)(=O)[O-])cc4F)c4nc(c(-c5c(F)cc(S(=O)(=O)[O-])cc5F)c5ccc2[nH]5)C=C4)C=C3)cc1
REMARK SMILES IDX 29 1 28 2 27 3 26 4 2 5 1 6 3 7 4 8 18 9 19 10 24 11 20 12
REMARK SMILES IDX 23 13 25 14 21 15 22 16 5 17 6 18 7 20 8 21 9 22 16 23 17 24
REMARK SMILES IDX 10 25 14 26 12 27 11 28 15 29 13 30 30 31 31 32 32 33 33 34
REMARK SMILES IDX 34 35 35 36 36 37 100 38 37 39 99 40 38 41 39 42 40 43 93 44
REMARK SMILES IDX 41 45 98 46 92 47 94 48 42 49 97 50 91 51 90 52 43 54 77 55
REMARK SMILES IDX 56 56 76 57 57 58 60 59 75 60 95 61 58 62 59 63 74 65 96 66
REMARK SMILES IDX 61 67 44 68 45 69 54 70 46 71 47 72 53 73 55 74 48 75 49 76
REMARK SMILES IDX 50 77 51 78 52 79 78 80 79 81 88 82 80 83 81 84 87 85 89 86
REMARK SMILES IDX 82 87 83 88 84 89 85 90 86 91 62 92 63 93 72 94 64 95 65 96
REMARK SMILES IDX 71 97 73 98 66 99 67 100 68 101 69 102 70 103
REMARK H PARENT 5 19 94 53 60 64
REMARK Flexibility Score: inf
ROOT
ATOM      1  O   UNL A   1      34.039  33.652  30.461  1.00  0.00    -0.374 OA
ENDROOT
BRANCH   1   2
ATOM      2  C   UNL A   1      34.051  33.390  28.877  1.00  0.00     0.202 C 
BRANCH   2   3
ATOM      3  C   UNL A   1      34.517  31.614  27.693  1.00  0.00     0.261 C 
BRANCH   3   4
ATOM      4  O   UNL A   1      33.765  30.091  27.735  1.00  0.00    -0.463 OA
BRANCH   4   5
ATOM      5  C   UNL A   1      33.772  28.918  27.052  1.00  0.00     0.308 C 
ATOM      6  O   UNL A   1      34.791  28.555  26.463  1.00  0.00    -0.252 OA
BRANCH   5   7
ATOM      7  C   UNL A   1      32.494  28.103  26.873  1.00  0.00     0.152 C 
BRANCH   7   8
ATOM      8  C   UNL A   1      32.711  26.820  26.097  1.00  0.00     0.125 C 
BRANCH   8   9
ATOM      9  C   UNL A   1      31.983  27.058  24.802  1.00  0.00    -0.006 A 
ATOM     10  C   UNL A   1      32.396  28.477  23.677  1.00  0.00     0.009 A 
ATOM     11  C   UNL A   1      30.318  26.380  24.817  1.00  0.00     0.047 A 
ATOM     12  C   UNL A   1      31.064  29.251  22.746  1.00  0.00     0.021 A 
ATOM     13  C   UNL A   1      29.053  27.172  23.877  1.00  0.00     0.041 A 
ATOM     14  Cl  UNL A   1      29.802  25.250  26.020  1.00  0.00    -0.084 Cl
ATOM     15  C   UNL A   1      29.418  28.540  22.829  1.00  0.00     0.042 A 
ATOM     16  Cl  UNL A   1      28.049  29.337  22.168  1.00  0.00    -0.084 Cl
ENDBRANCH   8   9
BRANCH   8  17
ATOM     17  N   UNL A   1      33.911  26.035  25.730  1.00  0.00    -0.348 N 
ATOM     18  C   UNL A   1      34.428  24.849  25.356  1.00  0.00     0.226 C 
ATOM     19  H   UNL A   1      34.671  26.658  25.786  1.00  0.00     0.164 HD
ATOM     20  O   UNL A   1      35.623  24.861  25.038  1.00  0.00    -0.274 OA
BRANCH  18  21
ATOM     21  C   UNL A   1      33.647  23.562  25.287  1.00  0.00     0.050 C 
ATOM     22  C   UNL A   1      32.573  23.619  24.179  1.00  0.00     0.020 C 
ATOM     23  C   UNL A   1      32.930  23.294  26.627  1.00  0.00     0.020 C 
ATOM     24  C   UNL A   1      34.591  22.420  24.993  1.00  0.00     0.020 C 
ATOM     25  C   UNL A   1      31.864  22.251  24.081  1.00  0.00    -0.010 C 
ATOM     26  C   UNL A   1      32.231  21.920  26.566  1.00  0.00    -0.010 C 
ATOM     27  C   UNL A   1      33.918  21.075  24.901  1.00  0.00    -0.010 C 
ATOM     28  C   UNL A   1      32.898  21.157  23.768  1.00  0.00     0.007 C 
ATOM     29  C   UNL A   1      31.193  21.928  25.430  1.00  0.00     0.007 C 
ATOM     30  C   UNL A   1      33.265  20.819  26.266  1.00  0.00     0.007 C 
ENDBRANCH  18  21
ENDBRANCH   8  17
ENDBRANCH   7   8
ENDBRANCH   5   7
ENDBRANCH   4   5
ENDBRANCH   3   4
ENDBRANCH   2   3
ENDBRANCH   1   2
BRANCH   1  31
ATOM     31  C   UNL A   1      34.439  32.738  31.507  1.00  0.00     0.202 C 
BRANCH  31  32
ATOM     32  C   UNL A   1      35.894  32.321  31.827  1.00  0.00     0.261 C 
BRANCH  32  33
ATOM     33  O   UNL A   1      36.674  31.875  30.724  1.00  0.00    -0.460 OA
BRANCH  33  34
ATOM     34  C   UNL A   1      36.783  30.527  30.639  1.00  0.00     0.338 C 
ATOM     35  O   UNL A   1      35.898  29.702  30.779  1.00  0.00    -0.246 OA
BRANCH  34  36
ATOM     36  C   UNL A   1      38.116  30.220  30.109  1.00  0.00     0.060 A 
ATOM     37  C   UNL A   1      39.102  29.963  31.060  1.00  0.00     0.016 A 
ATOM     38  C   UNL A   1      38.379  30.079  28.739  1.00  0.00     0.016 A 
ATOM     39  C   UNL A   1      40.342  29.507  30.644  1.00  0.00     0.010 A 
ATOM     40  C   UNL A   1      39.641  29.634  28.324  1.00  0.00     0.010 A 
ATOM     41  C   UNL A   1      40.619  29.324  29.282  1.00  0.00    -0.014 A 
BRANCH  41  42
ATOM     42  C   UNL A   1      42.033  29.082  28.927  1.00  0.00     0.031 A 
ATOM     43  C   UNL A   1      42.360  27.693  28.465  1.00  0.00     0.074 A 
ATOM     44  C   UNL A   1      42.942  30.073  28.851  1.00  0.00     0.049 A 
ATOM     45  N   UNL A   1      43.478  27.214  27.999  1.00  0.00    -0.248 NA
ATOM     46  C   UNL A   1      41.250  26.723  28.499  1.00  0.00     0.031 C 
ATOM     47  C   UNL A   1      42.695  31.482  29.154  1.00  0.00     0.029 A 
ATOM     48  N   UNL A   1      44.259  30.045  28.458  1.00  0.00    -0.354 N 
ATOM     49  C   UNL A   1      43.201  25.893  27.670  1.00  0.00     0.074 A 
ATOM     50  C   UNL A   1      41.817  25.644  27.993  1.00  0.00     0.031 C 
ATOM     51  C   UNL A   1      43.821  32.185  28.928  1.00  0.00     0.029 A 
ATOM     52  C   UNL A   1      44.885  31.270  28.517  1.00  0.00     0.049 A 
ATOM     53  H   UNL A   1      44.713  29.224  28.163  1.00  0.00     0.167 HD
ATOM     54  C   UNL A   1      44.036  24.964  27.158  1.00  0.00     0.037 A 
ATOM     55  C   UNL A   1      46.176  31.598  28.294  1.00  0.00     0.037 A 
ATOM     56  C   UNL A   1      45.426  25.212  26.900  1.00  0.00     0.049 A 
ATOM     57  C   UNL A   1      47.129  30.501  27.873  1.00  0.00     0.074 A 
ATOM     58  C   UNL A   1      46.387  24.326  26.458  1.00  0.00     0.029 A 
ATOM     59  N   UNL A   1      46.056  26.435  27.089  1.00  0.00    -0.354 N 
ATOM     60  N   UNL A   1      46.873  29.242  27.602  1.00  0.00    -0.248 NA
ATOM     61  C   UNL A   1      48.547  30.863  27.738  1.00  0.00     0.031 C 
ATOM     62  C   UNL A   1      47.615  24.993  26.450  1.00  0.00     0.029 A 
ATOM     63  C   UNL A   1      47.403  26.317  26.806  1.00  0.00     0.049 A 
ATOM     64  H   UNL A   1      45.608  27.261  27.381  1.00  0.00     0.167 HD
ATOM     65  C   UNL A   1      48.088  28.670  27.238  1.00  0.00     0.074 A 
ATOM     66  C   UNL A   1      49.078  29.725  27.310  1.00  0.00     0.031 C 
ATOM     67  C   UNL A   1      48.366  27.390  26.878  1.00  0.00     0.037 A 
BRANCH  54  68
ATOM     68  C   UNL A   1      43.476  23.589  26.956  1.00  0.00     0.058 A 
ATOM     69  C   UNL A   1      43.287  22.693  28.021  1.00  0.00     0.135 A 
ATOM     70  C   UNL A   1      43.166  23.145  25.661  1.00  0.00     0.135 A 
ATOM     71  F   UNL A   1      43.613  23.051  29.273  1.00  0.00    -0.206 F 
ATOM     72  C   UNL A   1      42.830  21.397  27.805  1.00  0.00     0.059 A 
ATOM     73  C   UNL A   1      42.675  21.866  25.426  1.00  0.00     0.059 A 
ATOM     74  F   UNL A   1      43.356  23.952  24.606  1.00  0.00    -0.206 F 
ATOM     75  C   UNL A   1      42.524  20.995  26.504  1.00  0.00     0.060 A 
BRANCH  75  76
ATOM     76  S   UNL A   1      41.923  19.315  26.240  1.00  0.00     0.124 S 
ATOM     77  O   UNL A   1      40.492  19.542  26.056  1.00  0.00    -0.237 OA
ATOM     78  O   UNL A   1      42.658  18.910  25.046  1.00  0.00    -0.237 OA
ATOM     79  O   UNL A   1      42.294  18.622  27.468  1.00  0.00    -0.744 OA
ENDBRANCH  75  76
ENDBRANCH  54  68
BRANCH  55  80
ATOM     80  C   UNL A   1      46.667  32.990  28.521  1.00  0.00     0.058 A 
ATOM     81  C   UNL A   1      47.126  33.421  29.776  1.00  0.00     0.135 A 
ATOM     82  C   UNL A   1      46.641  33.942  27.487  1.00  0.00     0.135 A 
ATOM     83  F   UNL A   1      47.152  32.567  30.810  1.00  0.00    -0.206 F 
ATOM     84  C   UNL A   1      47.529  34.737  30.000  1.00  0.00     0.059 A 
ATOM     85  C   UNL A   1      47.068  35.254  27.677  1.00  0.00     0.059 A 
ATOM     86  F   UNL A   1      46.203  33.596  26.266  1.00  0.00    -0.206 F 
ATOM     87  C   UNL A   1      47.503  35.646  28.941  1.00  0.00     0.060 A 
BRANCH  87  88
ATOM     88  S   UNL A   1      48.071  37.337  29.229  1.00  0.00     0.124 S 
ATOM     89  O   UNL A   1      47.453  37.644  30.513  1.00  0.00    -0.237 OA
ATOM     90  O   UNL A   1      49.522  37.171  29.241  1.00  0.00    -0.237 OA
ATOM     91  O   UNL A   1      47.541  38.070  28.083  1.00  0.00    -0.744 OA
ENDBRANCH  87  88
ENDBRANCH  55  80
BRANCH  67  92
ATOM     92  C   UNL A   1      49.782  27.063  26.492  1.00  0.00     0.058 A 
ATOM     93  C   UNL A   1      50.722  26.605  27.427  1.00  0.00     0.135 A 
ATOM     94  C   UNL A   1      50.176  27.129  25.144  1.00  0.00     0.135 A 
ATOM     95  F   UNL A   1      50.399  26.523  28.727  1.00  0.00    -0.206 F 
ATOM     96  C   UNL A   1      52.011  26.247  27.044  1.00  0.00     0.059 A 
ATOM     97  C   UNL A   1      51.447  26.740  24.734  1.00  0.00     0.059 A 
ATOM     98  F   UNL A   1      49.311  27.544  24.205  1.00  0.00    -0.206 F 
ATOM     99  C   UNL A   1      52.361  26.312  25.693  1.00  0.00     0.060 A 
BRANCH  99 100
ATOM    100  S   UNL A   1      54.022  25.804  25.208  1.00  0.00     0.124 S 
ATOM    101  O   UNL A   1      53.790  25.277  23.867  1.00  0.00    -0.237 OA
ATOM    102  O   UNL A   1      54.763  27.059  25.277  1.00  0.00    -0.237 OA
ATOM    103  O   UNL A   1      54.383  24.812  26.218  1.00  0.00    -0.744 OA
ENDBRANCH  99 100
ENDBRANCH  67  92
ENDBRANCH  41  42
ENDBRANCH  34  36
ENDBRANCH  33  34
ENDBRANCH  32  33
ENDBRANCH  31  32
ENDBRANCH   1  31
TORSDOF 21
ENDMDL
