MODEL 1
REMARK VINA RESULT:     -11.1      0.000      0.000
REMARK SMILES [NH3+][C@]1(C(=O)OCCOCCOC(=O)c2ccc(-c3c4nc(c(-c5c(F)cc(S(=O)(=O)[O-])cc5F)c5ccc([nH]5)c(-c5c(F)cc(S(=O)(=O)[O-])cc5F)c5nc(c(-c6c(F)cc(S(=O)(=O)[O-])cc6F)c6ccc3[nH]6)C=C5)C=C4)cc2)CC[C@@H](Sc2cc3ccccc3[nH]2)C1
REMARK SMILES IDX 9 1 8 2 7 3 6 4 5 5 3 6 4 7 2 8 80 9 93 10 81 11 82 12 1 13
REMARK SMILES IDX 83 17 84 18 85 19 92 20 86 21 91 22 87 24 90 25 88 26 89 27
REMARK SMILES IDX 10 28 11 29 12 30 13 31 14 32 15 33 79 34 16 35 78 36 17 37
REMARK SMILES IDX 18 38 19 39 72 40 20 41 77 42 71 43 73 44 21 45 76 46 70 47
REMARK SMILES IDX 69 48 22 50 56 51 35 52 55 53 36 54 39 55 54 56 74 57 37 58
REMARK SMILES IDX 38 59 53 61 75 62 40 63 23 64 24 65 33 66 25 67 26 68 32 69
REMARK SMILES IDX 34 70 27 71 28 72 29 73 30 74 31 75 57 76 58 77 67 78 59 79
REMARK SMILES IDX 60 80 66 81 68 82 61 83 62 84 63 85 64 86 65 87 41 88 42 89
REMARK SMILES IDX 51 90 43 91 44 92 50 93 52 94 45 95 46 96 47 97 48 98 49 99
REMARK H PARENT 1 14 1 15 1 16 92 23 73 49 39 60
REMARK Flexibility Score: inf
ROOT
ATOM      1  C   UNL A   1      35.120  34.223  30.793  1.00  0.00     0.202 C 
ENDROOT
BRANCH   1   2
ATOM      2  O   UNL A   1      34.093  33.427  30.200  1.00  0.00    -0.374 OA
BRANCH   2   3
ATOM      3  C   UNL A   1      33.683  33.760  28.874  1.00  0.00     0.202 C 
BRANCH   3   4
ATOM      4  C   UNL A   1      34.242  32.895  27.742  1.00  0.00     0.261 C 
BRANCH   4   5
ATOM      5  O   UNL A   1      33.884  31.511  27.894  1.00  0.00    -0.459 OA
BRANCH   5   6
ATOM      6  C   UNL A   1      32.807  31.100  27.173  1.00  0.00     0.368 C 
ATOM      7  O   UNL A   1      31.856  31.812  26.860  1.00  0.00    -0.245 OA
BRANCH   6   8
ATOM      8  C   UNL A   1      32.875  29.609  26.773  1.00  0.00     0.193 C 
ATOM      9  C   UNL A   1      31.473  29.198  26.286  1.00  0.00     0.082 C 
ATOM     10  C   UNL A   1      33.760  29.259  25.571  1.00  0.00     0.096 C 
ATOM     11  C   UNL A   1      31.681  27.937  25.468  1.00  0.00     0.022 C 
ATOM     12  C   UNL A   1      33.050  28.112  24.818  1.00  0.00     0.060 C 
BRANCH   8  13
ATOM     13  N   UNL A   1      33.306  28.816  27.943  1.00  0.00    -0.343 N 
ATOM     14  H   UNL A   1      33.096  27.830  27.781  1.00  0.00     0.345 HD
ATOM     15  H   UNL A   1      32.809  29.138  28.773  1.00  0.00     0.345 HD
ATOM     16  H   UNL A   1      34.310  28.931  28.080  1.00  0.00     0.345 HD
ENDBRANCH   8  13
BRANCH  12  17
ATOM     17  S   UNL A   1      33.205  28.446  23.052  1.00  0.00    -0.105 SA
BRANCH  17  18
ATOM     18  C   UNL A   1      31.669  28.640  22.288  1.00  0.00     0.073 A 
ATOM     19  C   UNL A   1      30.586  27.790  22.364  1.00  0.00     0.043 A 
ATOM     20  N   UNL A   1      31.199  29.883  21.962  1.00  0.00    -0.350 N 
ATOM     21  C   UNL A   1      29.452  28.635  22.559  1.00  0.00     0.001 A 
ATOM     22  C   UNL A   1      29.861  29.944  22.302  1.00  0.00     0.046 A 
ATOM     23  H   UNL A   1      31.723  30.610  21.556  1.00  0.00     0.167 HD
ATOM     24  C   UNL A   1      28.158  28.413  23.070  1.00  0.00     0.010 A 
ATOM     25  C   UNL A   1      29.029  31.051  22.500  1.00  0.00     0.027 A 
ATOM     26  C   UNL A   1      27.349  29.517  23.364  1.00  0.00     0.001 A 
ATOM     27  C   UNL A   1      27.777  30.812  23.077  1.00  0.00     0.002 A 
ENDBRANCH  17  18
ENDBRANCH  12  17
ENDBRANCH   6   8
ENDBRANCH   5   6
ENDBRANCH   4   5
ENDBRANCH   3   4
ENDBRANCH   2   3
ENDBRANCH   1   2
BRANCH   1  28
ATOM     28  C   UNL A   1      36.309  33.479  31.421  1.00  0.00     0.261 C 
BRANCH  28  29
ATOM     29  O   UNL A   1      36.916  32.525  30.531  1.00  0.00    -0.460 OA
BRANCH  29  30
ATOM     30  C   UNL A   1      36.841  31.237  30.953  1.00  0.00     0.338 C 
ATOM     31  O   UNL A   1      35.945  30.729  31.605  1.00  0.00    -0.246 OA
BRANCH  30  32
ATOM     32  C   UNL A   1      37.928  30.434  30.359  1.00  0.00     0.060 A 
ATOM     33  C   UNL A   1      38.847  29.848  31.240  1.00  0.00     0.016 A 
ATOM     34  C   UNL A   1      38.114  30.352  28.979  1.00  0.00     0.016 A 
ATOM     35  C   UNL A   1      39.992  29.230  30.743  1.00  0.00     0.010 A 
ATOM     36  C   UNL A   1      39.269  29.736  28.482  1.00  0.00     0.010 A 
ATOM     37  C   UNL A   1      40.234  29.211  29.363  1.00  0.00    -0.014 A 
BRANCH  37  38
ATOM     38  C   UNL A   1      41.572  28.802  28.868  1.00  0.00     0.031 A 
ATOM     39  C   UNL A   1      42.679  29.822  28.835  1.00  0.00     0.074 A 
ATOM     40  C   UNL A   1      41.815  27.531  28.499  1.00  0.00     0.049 A 
ATOM     41  N   UNL A   1      43.921  29.689  28.446  1.00  0.00    -0.248 NA
ATOM     42  C   UNL A   1      42.338  31.175  29.304  1.00  0.00     0.031 C 
ATOM     43  C   UNL A   1      40.840  26.444  28.529  1.00  0.00     0.029 A 
ATOM     44  N   UNL A   1      42.962  26.944  28.030  1.00  0.00    -0.354 N 
ATOM     45  C   UNL A   1      44.507  30.940  28.613  1.00  0.00     0.074 A 
ATOM     46  C   UNL A   1      43.476  31.825  29.109  1.00  0.00     0.031 C 
ATOM     47  C   UNL A   1      41.431  25.317  28.096  1.00  0.00     0.029 A 
ATOM     48  C   UNL A   1      42.816  25.610  27.730  1.00  0.00     0.049 A 
ATOM     49  H   UNL A   1      43.811  27.431  27.918  1.00  0.00     0.167 HD
ATOM     50  C   UNL A   1      45.788  31.314  28.381  1.00  0.00     0.037 A 
ATOM     51  C   UNL A   1      43.696  24.732  27.211  1.00  0.00     0.037 A 
ATOM     52  C   UNL A   1      46.811  30.429  27.889  1.00  0.00     0.049 A 
ATOM     53  C   UNL A   1      45.100  25.183  26.903  1.00  0.00     0.074 A 
ATOM     54  C   UNL A   1      48.145  30.707  27.640  1.00  0.00     0.029 A 
ATOM     55  N   UNL A   1      46.613  29.095  27.561  1.00  0.00    -0.354 N 
ATOM     56  N   UNL A   1      45.646  26.364  27.083  1.00  0.00    -0.248 NA
ATOM     57  C   UNL A   1      46.009  24.184  26.324  1.00  0.00     0.031 C 
ATOM     58  C   UNL A   1      48.741  29.554  27.117  1.00  0.00     0.029 A 
ATOM     59  C   UNL A   1      47.793  28.542  27.089  1.00  0.00     0.049 A 
ATOM     60  H   UNL A   1      45.761  28.613  27.652  1.00  0.00     0.167 HD
ATOM     61  C   UNL A   1      46.969  26.240  26.670  1.00  0.00     0.074 A 
ATOM     62  C   UNL A   1      47.141  24.869  26.233  1.00  0.00     0.031 C 
ATOM     63  C   UNL A   1      47.952  27.173  26.662  1.00  0.00     0.037 A 
BRANCH  50  64
ATOM     64  C   UNL A   1      46.137  32.758  28.620  1.00  0.00     0.058 A 
ATOM     65  C   UNL A   1      46.604  33.214  29.864  1.00  0.00     0.135 A 
ATOM     66  C   UNL A   1      45.998  33.701  27.589  1.00  0.00     0.135 A 
ATOM     67  F   UNL A   1      46.740  32.358  30.889  1.00  0.00    -0.206 F 
ATOM     68  C   UNL A   1      46.878  34.559  30.090  1.00  0.00     0.059 A 
ATOM     69  C   UNL A   1      46.293  35.047  27.784  1.00  0.00     0.059 A 
ATOM     70  F   UNL A   1      45.558  33.321  26.378  1.00  0.00    -0.206 F 
ATOM     71  C   UNL A   1      46.712  35.470  29.045  1.00  0.00     0.060 A 
BRANCH  71  72
ATOM     72  S   UNL A   1      47.042  37.217  29.357  1.00  0.00     0.124 S 
ATOM     73  O   UNL A   1      48.084  37.496  28.372  1.00  0.00    -0.237 OA
ATOM     74  O   UNL A   1      45.746  37.834  29.099  1.00  0.00    -0.237 OA
ATOM     75  O   UNL A   1      47.477  37.238  30.750  1.00  0.00    -0.744 OA
ENDBRANCH  71  72
ENDBRANCH  50  64
BRANCH  51  76
ATOM     76  C   UNL A   1      43.274  23.328  26.961  1.00  0.00     0.058 A 
ATOM     77  C   UNL A   1      43.045  22.864  25.658  1.00  0.00     0.135 A 
ATOM     78  C   UNL A   1      43.116  22.418  28.017  1.00  0.00     0.135 A 
ATOM     79  F   UNL A   1      43.170  23.699  24.616  1.00  0.00    -0.206 F 
ATOM     80  C   UNL A   1      42.677  21.545  25.410  1.00  0.00     0.059 A 
ATOM     81  C   UNL A   1      42.770  21.089  27.793  1.00  0.00     0.059 A 
ATOM     82  F   UNL A   1      43.330  22.813  29.283  1.00  0.00    -0.206 F 
ATOM     83  C   UNL A   1      42.549  20.663  26.484  1.00  0.00     0.060 A 
BRANCH  83  84
ATOM     84  S   UNL A   1      42.145  18.936  26.144  1.00  0.00     0.124 S 
ATOM     85  O   UNL A   1      43.076  18.623  25.066  1.00  0.00    -0.237 OA
ATOM     86  O   UNL A   1      42.418  18.300  27.428  1.00  0.00    -0.237 OA
ATOM     87  O   UNL A   1      40.735  18.989  25.767  1.00  0.00    -0.744 OA
ENDBRANCH  83  84
ENDBRANCH  51  76
BRANCH  63  88
ATOM     88  C   UNL A   1      49.320  26.740  26.204  1.00  0.00     0.058 A 
ATOM     89  C   UNL A   1      49.759  26.943  24.887  1.00  0.00     0.135 A 
ATOM     90  C   UNL A   1      50.220  26.162  27.114  1.00  0.00     0.135 A 
ATOM     91  F   UNL A   1      48.935  27.486  23.976  1.00  0.00    -0.206 F 
ATOM     92  C   UNL A   1      51.035  26.566  24.481  1.00  0.00     0.059 A 
ATOM     93  C   UNL A   1      51.511  25.803  26.737  1.00  0.00     0.059 A 
ATOM     94  F   UNL A   1      49.856  25.957  28.389  1.00  0.00    -0.206 F 
ATOM     95  C   UNL A   1      51.905  25.998  25.413  1.00  0.00     0.060 A 
BRANCH  95  96
ATOM     96  S   UNL A   1      53.570  25.542  24.883  1.00  0.00     0.124 S 
ATOM     97  O   UNL A   1      53.568  24.102  25.115  1.00  0.00    -0.237 OA
ATOM     98  O   UNL A   1      53.580  25.959  23.485  1.00  0.00    -0.237 OA
ATOM     99  O   UNL A   1      54.433  26.318  25.768  1.00  0.00    -0.744 OA
ENDBRANCH  95  96
ENDBRANCH  63  88
ENDBRANCH  37  38
ENDBRANCH  30  32
ENDBRANCH  29  30
ENDBRANCH  28  29
ENDBRANCH   1  28
TORSDOF 20
ENDMDL
MODEL 2
REMARK VINA RESULT:     -11.0      5.367      7.715
REMARK SMILES [NH3+][C@]1(C(=O)OCCOCCOC(=O)c2ccc(-c3c4nc(c(-c5c(F)cc(S(=O)(=O)[O-])cc5F)c5ccc([nH]5)c(-c5c(F)cc(S(=O)(=O)[O-])cc5F)c5nc(c(-c6c(F)cc(S(=O)(=O)[O-])cc6F)c6ccc3[nH]6)C=C5)C=C4)cc2)CC[C@@H](Sc2cc3ccccc3[nH]2)C1
REMARK SMILES IDX 9 1 8 2 7 3 6 4 5 5 3 6 4 7 2 8 80 9 93 10 81 11 82 12 1 13
REMARK SMILES IDX 83 17 84 18 85 19 92 20 86 21 91 22 87 24 90 25 88 26 89 27
REMARK SMILES IDX 10 28 11 29 12 30 13 31 14 32 15 33 79 34 16 35 78 36 17 37
REMARK SMILES IDX 18 38 19 39 72 40 20 41 77 42 71 43 73 44 21 45 76 46 70 47
REMARK SMILES IDX 69 48 22 50 56 51 35 52 55 53 36 54 39 55 54 56 74 57 37 58
REMARK SMILES IDX 38 59 53 61 75 62 40 63 23 64 24 65 33 66 25 67 26 68 32 69
REMARK SMILES IDX 34 70 27 71 28 72 29 73 30 74 31 75 57 76 58 77 67 78 59 79
REMARK SMILES IDX 60 80 66 81 68 82 61 83 62 84 63 85 64 86 65 87 41 88 42 89
REMARK SMILES IDX 51 90 43 91 44 92 50 93 52 94 45 95 46 96 47 97 48 98 49 99
REMARK H PARENT 1 14 1 15 1 16 92 23 73 49 39 60
REMARK Flexibility Score: inf
ROOT
ATOM      1  C   UNL A   1      32.040  29.571  25.581  1.00  0.00     0.202 C 
ENDROOT
BRANCH   1   2
ATOM      2  O   UNL A   1      30.971  29.842  24.675  1.00  0.00    -0.374 OA
BRANCH   2   3
ATOM      3  C   UNL A   1      30.797  28.952  23.573  1.00  0.00     0.202 C 
BRANCH   3   4
ATOM      4  C   UNL A   1      31.706  27.721  23.531  1.00  0.00     0.261 C 
BRANCH   4   5
ATOM      5  O   UNL A   1      30.960  26.496  23.638  1.00  0.00    -0.459 OA
BRANCH   5   6
ATOM      6  C   UNL A   1      31.487  25.557  24.467  1.00  0.00     0.368 C 
ATOM      7  O   UNL A   1      31.889  25.772  25.609  1.00  0.00    -0.245 OA
BRANCH   6   8
ATOM      8  C   UNL A   1      31.550  24.150  23.833  1.00  0.00     0.193 C 
ATOM      9  C   UNL A   1      32.754  24.130  22.874  1.00  0.00     0.082 C 
ATOM     10  C   UNL A   1      31.856  22.982  24.777  1.00  0.00     0.096 C 
ATOM     11  C   UNL A   1      33.076  22.662  22.659  1.00  0.00     0.022 C 
ATOM     12  C   UNL A   1      32.726  21.985  23.980  1.00  0.00     0.060 C 
BRANCH   8  13
ATOM     13  N   UNL A   1      30.279  23.884  23.126  1.00  0.00    -0.343 N 
ATOM     14  H   UNL A   1      30.477  23.607  22.164  1.00  0.00     0.345 HD
ATOM     15  H   UNL A   1      29.707  24.729  23.126  1.00  0.00     0.345 HD
ATOM     16  H   UNL A   1      29.777  23.133  23.599  1.00  0.00     0.345 HD
ENDBRANCH   8  13
BRANCH  12  17
ATOM     17  S   UNL A   1      34.017  21.385  25.089  1.00  0.00    -0.105 SA
BRANCH  17  18
ATOM     18  C   UNL A   1      35.556  22.080  24.732  1.00  0.00     0.073 A 
ATOM     19  C   UNL A   1      35.974  23.366  24.998  1.00  0.00     0.043 A 
ATOM     20  N   UNL A   1      36.674  21.295  24.626  1.00  0.00    -0.350 N 
ATOM     21  C   UNL A   1      37.294  23.238  25.524  1.00  0.00     0.001 A 
ATOM     22  C   UNL A   1      37.712  21.930  25.280  1.00  0.00     0.046 A 
ATOM     23  H   UNL A   1      36.727  20.428  24.164  1.00  0.00     0.167 HD
ATOM     24  C   UNL A   1      38.107  24.078  26.310  1.00  0.00     0.010 A 
ATOM     25  C   UNL A   1      38.925  21.419  25.757  1.00  0.00     0.027 A 
ATOM     26  C   UNL A   1      39.276  23.552  26.875  1.00  0.00     0.001 A 
ATOM     27  C   UNL A   1      39.678  22.247  26.596  1.00  0.00     0.002 A 
ENDBRANCH  17  18
ENDBRANCH  12  17
ENDBRANCH   6   8
ENDBRANCH   5   6
ENDBRANCH   4   5
ENDBRANCH   3   4
ENDBRANCH   2   3
ENDBRANCH   1   2
BRANCH   1  28
ATOM     28  C   UNL A   1      32.216  30.533  26.767  1.00  0.00     0.261 C 
BRANCH  28  29
ATOM     29  O   UNL A   1      33.392  30.262  27.549  1.00  0.00    -0.460 OA
BRANCH  29  30
ATOM     30  C   UNL A   1      34.197  31.338  27.743  1.00  0.00     0.338 C 
ATOM     31  O   UNL A   1      33.858  32.505  27.824  1.00  0.00    -0.246 OA
BRANCH  30  32
ATOM     32  C   UNL A   1      35.578  30.903  28.034  1.00  0.00     0.060 A 
ATOM     33  C   UNL A   1      35.797  29.530  28.201  1.00  0.00     0.016 A 
ATOM     34  C   UNL A   1      36.608  31.819  28.256  1.00  0.00     0.016 A 
ATOM     35  C   UNL A   1      37.032  29.069  28.652  1.00  0.00     0.010 A 
ATOM     36  C   UNL A   1      37.846  31.355  28.715  1.00  0.00     0.010 A 
ATOM     37  C   UNL A   1      38.050  29.983  28.957  1.00  0.00    -0.014 A 
BRANCH  37  38
ATOM     38  C   UNL A   1      39.251  29.511  29.689  1.00  0.00     0.031 A 
ATOM     39  C   UNL A   1      39.605  30.159  31.001  1.00  0.00     0.074 A 
ATOM     40  C   UNL A   1      39.989  28.488  29.222  1.00  0.00     0.049 A 
ATOM     41  N   UNL A   1      40.601  29.908  31.811  1.00  0.00    -0.248 NA
ATOM     42  C   UNL A   1      38.714  31.236  31.462  1.00  0.00     0.031 C 
ATOM     43  C   UNL A   1      39.723  27.750  27.990  1.00  0.00     0.029 A 
ATOM     44  N   UNL A   1      41.114  27.893  29.736  1.00  0.00    -0.354 N 
ATOM     45  C   UNL A   1      40.464  30.801  32.869  1.00  0.00     0.074 A 
ATOM     46  C   UNL A   1      39.306  31.618  32.583  1.00  0.00     0.031 C 
ATOM     47  C   UNL A   1      40.660  26.797  27.842  1.00  0.00     0.029 A 
ATOM     48  C   UNL A   1      41.608  26.879  28.952  1.00  0.00     0.049 A 
ATOM     49  H   UNL A   1      41.528  28.167  30.587  1.00  0.00     0.167 HD
ATOM     50  C   UNL A   1      41.229  30.924  33.980  1.00  0.00     0.037 A 
ATOM     51  C   UNL A   1      42.706  26.112  29.107  1.00  0.00     0.037 A 
ATOM     52  C   UNL A   1      42.381  30.105  34.262  1.00  0.00     0.049 A 
ATOM     53  C   UNL A   1      43.578  26.304  30.321  1.00  0.00     0.074 A 
ATOM     54  C   UNL A   1      43.210  30.137  35.370  1.00  0.00     0.029 A 
ATOM     55  N   UNL A   1      42.871  29.114  33.424  1.00  0.00    -0.354 N 
ATOM     56  N   UNL A   1      43.426  27.138  31.323  1.00  0.00    -0.248 NA
ATOM     57  C   UNL A   1      44.768  25.449  30.427  1.00  0.00     0.031 C 
ATOM     58  C   UNL A   1      44.229  29.197  35.179  1.00  0.00     0.029 A 
ATOM     59  C   UNL A   1      44.006  28.544  33.977  1.00  0.00     0.049 A 
ATOM     60  H   UNL A   1      42.472  28.855  32.563  1.00  0.00     0.167 HD
ATOM     61  C   UNL A   1      44.482  26.887  32.193  1.00  0.00     0.074 A 
ATOM     62  C   UNL A   1      45.264  25.821  31.600  1.00  0.00     0.031 C 
ATOM     63  C   UNL A   1      44.773  27.479  33.378  1.00  0.00     0.037 A 
BRANCH  50  64
ATOM     64  C   UNL A   1      40.863  32.011  34.952  1.00  0.00     0.058 A 
ATOM     65  C   UNL A   1      41.466  33.280  34.911  1.00  0.00     0.135 A 
ATOM     66  C   UNL A   1      39.896  31.780  35.944  1.00  0.00     0.135 A 
ATOM     67  F   UNL A   1      42.407  33.551  33.993  1.00  0.00    -0.206 F 
ATOM     68  C   UNL A   1      41.155  34.264  35.844  1.00  0.00     0.059 A 
ATOM     69  C   UNL A   1      39.550  32.759  36.871  1.00  0.00     0.059 A 
ATOM     70  F   UNL A   1      39.286  30.587  36.029  1.00  0.00    -0.206 F 
ATOM     71  C   UNL A   1      40.201  33.991  36.826  1.00  0.00     0.060 A 
BRANCH  71  72
ATOM     72  S   UNL A   1      39.828  35.264  38.050  1.00  0.00     0.124 S 
ATOM     73  O   UNL A   1      41.046  35.258  38.856  1.00  0.00    -0.237 OA
ATOM     74  O   UNL A   1      39.624  36.448  37.221  1.00  0.00    -0.237 OA
ATOM     75  O   UNL A   1      38.633  34.756  38.716  1.00  0.00    -0.744 OA
ENDBRANCH  71  72
ENDBRANCH  50  64
BRANCH  51  76
ATOM     76  C   UNL A   1      43.033  25.081  28.087  1.00  0.00     0.058 A 
ATOM     77  C   UNL A   1      43.713  25.420  26.910  1.00  0.00     0.135 A 
ATOM     78  C   UNL A   1      42.696  23.733  28.283  1.00  0.00     0.135 A 
ATOM     79  F   UNL A   1      44.046  26.698  26.671  1.00  0.00    -0.206 F 
ATOM     80  C   UNL A   1      44.051  24.459  25.961  1.00  0.00     0.059 A 
ATOM     81  C   UNL A   1      43.041  22.750  27.360  1.00  0.00     0.059 A 
ATOM     82  F   UNL A   1      42.050  23.357  29.398  1.00  0.00    -0.206 F 
ATOM     83  C   UNL A   1      43.716  23.125  26.199  1.00  0.00     0.060 A 
BRANCH  83  84
ATOM     84  S   UNL A   1      44.225  21.876  24.998  1.00  0.00     0.124 S 
ATOM     85  O   UNL A   1      45.621  21.669  25.363  1.00  0.00    -0.237 OA
ATOM     86  O   UNL A   1      43.316  20.775  25.298  1.00  0.00    -0.237 OA
ATOM     87  O   UNL A   1      43.997  22.533  23.714  1.00  0.00    -0.744 OA
ENDBRANCH  83  84
ENDBRANCH  51  76
BRANCH  63  88
ATOM     88  C   UNL A   1      45.965  26.963  34.140  1.00  0.00     0.058 A 
ATOM     89  C   UNL A   1      45.860  25.896  35.046  1.00  0.00     0.135 A 
ATOM     90  C   UNL A   1      47.238  27.511  33.918  1.00  0.00     0.135 A 
ATOM     91  F   UNL A   1      44.665  25.340  35.299  1.00  0.00    -0.206 F 
ATOM     92  C   UNL A   1      46.973  25.406  35.722  1.00  0.00     0.059 A 
ATOM     93  C   UNL A   1      48.369  27.020  34.563  1.00  0.00     0.059 A 
ATOM     94  F   UNL A   1      47.397  28.526  33.052  1.00  0.00    -0.206 F 
ATOM     95  C   UNL A   1      48.224  25.974  35.474  1.00  0.00     0.060 A 
BRANCH  95  96
ATOM     96  S   UNL A   1      49.667  25.310  36.334  1.00  0.00     0.124 S 
ATOM     97  O   UNL A   1      50.444  24.765  35.227  1.00  0.00    -0.237 OA
ATOM     98  O   UNL A   1      50.223  26.497  36.975  1.00  0.00    -0.237 OA
ATOM     99  O   UNL A   1      49.094  24.325  37.246  1.00  0.00    -0.744 OA
ENDBRANCH  95  96
ENDBRANCH  63  88
ENDBRANCH  37  38
ENDBRANCH  30  32
ENDBRANCH  29  30
ENDBRANCH  28  29
ENDBRANCH   1  28
TORSDOF 20
ENDMDL
MODEL 3
REMARK VINA RESULT:     -11.0      6.742     12.833
REMARK SMILES [NH3+][C@]1(C(=O)OCCOCCOC(=O)c2ccc(-c3c4nc(c(-c5c(F)cc(S(=O)(=O)[O-])cc5F)c5ccc([nH]5)c(-c5c(F)cc(S(=O)(=O)[O-])cc5F)c5nc(c(-c6c(F)cc(S(=O)(=O)[O-])cc6F)c6ccc3[nH]6)C=C5)C=C4)cc2)CC[C@@H](Sc2cc3ccccc3[nH]2)C1
REMARK SMILES IDX 9 1 8 2 7 3 6 4 5 5 3 6 4 7 2 8 80 9 93 10 81 11 82 12 1 13
REMARK SMILES IDX 83 17 84 18 85 19 92 20 86 21 91 22 87 24 90 25 88 26 89 27
REMARK SMILES IDX 10 28 11 29 12 30 13 31 14 32 15 33 79 34 16 35 78 36 17 37
REMARK SMILES IDX 18 38 19 39 72 40 20 41 77 42 71 43 73 44 21 45 76 46 70 47
REMARK SMILES IDX 69 48 22 50 56 51 35 52 55 53 36 54 39 55 54 56 74 57 37 58
REMARK SMILES IDX 38 59 53 61 75 62 40 63 23 64 24 65 33 66 25 67 26 68 32 69
REMARK SMILES IDX 34 70 27 71 28 72 29 73 30 74 31 75 57 76 58 77 67 78 59 79
REMARK SMILES IDX 60 80 66 81 68 82 61 83 62 84 63 85 64 86 65 87 41 88 42 89
REMARK SMILES IDX 51 90 43 91 44 92 50 93 52 94 45 95 46 96 47 97 48 98 49 99
REMARK H PARENT 1 14 1 15 1 16 92 23 73 49 39 60
REMARK Flexibility Score: inf
ROOT
ATOM      1  C   UNL A   1      42.899  21.317  26.285  1.00  0.00     0.202 C 
ENDROOT
BRANCH   1   2
ATOM      2  O   UNL A   1      42.155  20.880  27.423  1.00  0.00    -0.374 OA
BRANCH   2   3
ATOM      3  C   UNL A   1      40.962  20.132  27.185  1.00  0.00     0.202 C 
BRANCH   3   4
ATOM      4  C   UNL A   1      40.283  20.332  25.828  1.00  0.00     0.261 C 
BRANCH   4   5
ATOM      5  O   UNL A   1      38.917  20.761  25.968  1.00  0.00    -0.459 OA
BRANCH   5   6
ATOM      6  C   UNL A   1      38.727  22.104  26.042  1.00  0.00     0.368 C 
ATOM      7  O   UNL A   1      39.508  22.897  26.564  1.00  0.00    -0.245 OA
BRANCH   6   8
ATOM      8  C   UNL A   1      37.400  22.569  25.402  1.00  0.00     0.193 C 
ATOM      9  C   UNL A   1      36.858  21.398  24.562  1.00  0.00     0.082 C 
ATOM     10  C   UNL A   1      36.238  22.857  26.360  1.00  0.00     0.096 C 
ATOM     11  C   UNL A   1      35.382  21.691  24.364  1.00  0.00     0.022 C 
ATOM     12  C   UNL A   1      34.948  22.406  25.638  1.00  0.00     0.060 C 
BRANCH   8  13
ATOM     13  N   UNL A   1      37.659  23.767  24.575  1.00  0.00    -0.343 N 
ATOM     14  H   UNL A   1      37.423  23.565  23.603  1.00  0.00     0.345 HD
ATOM     15  H   UNL A   1      38.645  24.019  24.642  1.00  0.00     0.345 HD
ATOM     16  H   UNL A   1      37.086  24.541  24.910  1.00  0.00     0.345 HD
ENDBRANCH   8  13
BRANCH  12  17
ATOM     17  S   UNL A   1      33.905  21.583  26.858  1.00  0.00    -0.105 SA
BRANCH  17  18
ATOM     18  C   UNL A   1      32.913  20.362  26.149  1.00  0.00     0.073 A 
ATOM     19  C   UNL A   1      32.297  20.399  24.916  1.00  0.00     0.043 A 
ATOM     20  N   UNL A   1      33.057  19.047  26.500  1.00  0.00    -0.350 N 
ATOM     21  C   UNL A   1      32.522  19.113  24.338  1.00  0.00     0.001 A 
ATOM     22  C   UNL A   1      33.000  18.281  25.351  1.00  0.00     0.046 A 
ATOM     23  H   UNL A   1      33.182  18.705  27.414  1.00  0.00     0.167 HD
ATOM     24  C   UNL A   1      32.496  18.630  23.015  1.00  0.00     0.010 A 
ATOM     25  C   UNL A   1      33.429  16.970  25.117  1.00  0.00     0.027 A 
ATOM     26  C   UNL A   1      33.012  17.356  22.750  1.00  0.00     0.001 A 
ATOM     27  C   UNL A   1      33.463  16.539  23.786  1.00  0.00     0.002 A 
ENDBRANCH  17  18
ENDBRANCH  12  17
ENDBRANCH   6   8
ENDBRANCH   5   6
ENDBRANCH   4   5
ENDBRANCH   3   4
ENDBRANCH   2   3
ENDBRANCH   1   2
BRANCH   1  28
ATOM     28  C   UNL A   1      43.675  22.637  26.419  1.00  0.00     0.261 C 
BRANCH  28  29
ATOM     29  O   UNL A   1      42.948  23.654  27.131  1.00  0.00    -0.460 OA
BRANCH  29  30
ATOM     30  C   UNL A   1      42.794  24.816  26.447  1.00  0.00     0.338 C 
ATOM     31  O   UNL A   1      42.988  25.000  25.258  1.00  0.00    -0.246 OA
BRANCH  30  32
ATOM     32  C   UNL A   1      42.167  25.842  27.304  1.00  0.00     0.060 A 
ATOM     33  C   UNL A   1      42.798  27.090  27.378  1.00  0.00     0.016 A 
ATOM     34  C   UNL A   1      41.061  25.556  28.107  1.00  0.00     0.016 A 
ATOM     35  C   UNL A   1      42.363  28.039  28.300  1.00  0.00     0.010 A 
ATOM     36  C   UNL A   1      40.630  26.508  29.038  1.00  0.00     0.010 A 
ATOM     37  C   UNL A   1      41.307  27.737  29.169  1.00  0.00    -0.014 A 
BRANCH  37  38
ATOM     38  C   UNL A   1      41.035  28.634  30.319  1.00  0.00     0.031 A 
ATOM     39  C   UNL A   1      41.903  28.530  31.545  1.00  0.00     0.074 A 
ATOM     40  C   UNL A   1      40.063  29.563  30.258  1.00  0.00     0.049 A 
ATOM     41  N   UNL A   1      41.851  29.211  32.661  1.00  0.00    -0.248 NA
ATOM     42  C   UNL A   1      42.974  27.522  31.506  1.00  0.00     0.031 C 
ATOM     43  C   UNL A   1      39.187  29.792  29.111  1.00  0.00     0.029 A 
ATOM     44  N   UNL A   1      39.655  30.488  31.185  1.00  0.00    -0.354 N 
ATOM     45  C   UNL A   1      42.872  28.707  33.460  1.00  0.00     0.074 A 
ATOM     46  C   UNL A   1      43.508  27.645  32.712  1.00  0.00     0.031 C 
ATOM     47  C   UNL A   1      38.342  30.796  29.403  1.00  0.00     0.029 A 
ATOM     48  C   UNL A   1      38.598  31.260  30.766  1.00  0.00     0.049 A 
ATOM     49  H   UNL A   1      40.080  30.590  32.068  1.00  0.00     0.167 HD
ATOM     50  C   UNL A   1      43.251  29.100  34.700  1.00  0.00     0.037 A 
ATOM     51  C   UNL A   1      37.910  32.221  31.413  1.00  0.00     0.037 A 
ATOM     52  C   UNL A   1      42.617  30.161  35.440  1.00  0.00     0.049 A 
ATOM     53  C   UNL A   1      38.308  32.602  32.814  1.00  0.00     0.074 A 
ATOM     54  C   UNL A   1      42.940  30.648  36.695  1.00  0.00     0.029 A 
ATOM     55  N   UNL A   1      41.525  30.892  34.995  1.00  0.00    -0.354 N 
ATOM     56  N   UNL A   1      39.288  32.132  33.551  1.00  0.00    -0.248 NA
ATOM     57  C   UNL A   1      37.512  33.646  33.473  1.00  0.00     0.031 C 
ATOM     58  C   UNL A   1      42.013  31.642  37.029  1.00  0.00     0.029 A 
ATOM     59  C   UNL A   1      41.144  31.810  35.961  1.00  0.00     0.049 A 
ATOM     60  H   UNL A   1      41.086  30.776  34.123  1.00  0.00     0.167 HD
ATOM     61  C   UNL A   1      39.244  32.844  34.745  1.00  0.00     0.074 A 
ATOM     62  C   UNL A   1      38.143  33.779  34.632  1.00  0.00     0.031 C 
ATOM     63  C   UNL A   1      40.048  32.739  35.833  1.00  0.00     0.037 A 
BRANCH  50  64
ATOM     64  C   UNL A   1      44.381  28.346  35.346  1.00  0.00     0.058 A 
ATOM     65  C   UNL A   1      44.166  27.160  36.068  1.00  0.00     0.135 A 
ATOM     66  C   UNL A   1      45.699  28.819  35.245  1.00  0.00     0.135 A 
ATOM     67  F   UNL A   1      42.924  26.671  36.210  1.00  0.00    -0.206 F 
ATOM     68  C   UNL A   1      45.211  26.495  36.703  1.00  0.00     0.059 A 
ATOM     69  C   UNL A   1      46.763  28.155  35.848  1.00  0.00     0.059 A 
ATOM     70  F   UNL A   1      45.963  29.946  34.564  1.00  0.00    -0.206 F 
ATOM     71  C   UNL A   1      46.505  27.005  36.594  1.00  0.00     0.060 A 
BRANCH  71  72
ATOM     72  S   UNL A   1      47.849  26.152  37.446  1.00  0.00     0.124 S 
ATOM     73  O   UNL A   1      47.144  25.015  38.031  1.00  0.00    -0.237 OA
ATOM     74  O   UNL A   1      48.763  25.835  36.354  1.00  0.00    -0.237 OA
ATOM     75  O   UNL A   1      48.334  27.146  38.398  1.00  0.00    -0.744 OA
ENDBRANCH  71  72
ENDBRANCH  50  64
BRANCH  51  76
ATOM     76  C   UNL A   1      36.777  32.900  30.730  1.00  0.00     0.058 A 
ATOM     77  C   UNL A   1      35.448  32.577  31.040  1.00  0.00     0.135 A 
ATOM     78  C   UNL A   1      37.000  33.903  29.775  1.00  0.00     0.135 A 
ATOM     79  F   UNL A   1      35.183  31.615  31.938  1.00  0.00    -0.206 F 
ATOM     80  C   UNL A   1      34.380  33.225  30.429  1.00  0.00     0.059 A 
ATOM     81  C   UNL A   1      35.949  34.582  29.165  1.00  0.00     0.059 A 
ATOM     82  F   UNL A   1      38.255  34.254  29.448  1.00  0.00    -0.206 F 
ATOM     83  C   UNL A   1      34.641  34.232  29.497  1.00  0.00     0.060 A 
BRANCH  83  84
ATOM     84  S   UNL A   1      33.247  35.118  28.766  1.00  0.00     0.124 S 
ATOM     85  O   UNL A   1      33.924  36.214  28.080  1.00  0.00    -0.237 OA
ATOM     86  O   UNL A   1      32.652  34.099  27.909  1.00  0.00    -0.237 OA
ATOM     87  O   UNL A   1      32.445  35.498  29.925  1.00  0.00    -0.744 OA
ENDBRANCH  83  84
ENDBRANCH  51  76
BRANCH  63  88
ATOM     88  C   UNL A   1      39.798  33.686  36.977  1.00  0.00     0.058 A 
ATOM     89  C   UNL A   1      38.888  33.385  38.002  1.00  0.00     0.135 A 
ATOM     90  C   UNL A   1      40.521  34.886  37.073  1.00  0.00     0.135 A 
ATOM     91  F   UNL A   1      38.168  32.253  37.955  1.00  0.00    -0.206 F 
ATOM     92  C   UNL A   1      38.687  34.252  39.071  1.00  0.00     0.059 A 
ATOM     93  C   UNL A   1      40.355  35.755  38.147  1.00  0.00     0.059 A 
ATOM     94  F   UNL A   1      41.413  35.217  36.126  1.00  0.00    -0.206 F 
ATOM     95  C   UNL A   1      39.425  35.435  39.136  1.00  0.00     0.060 A 
BRANCH  95  96
ATOM     96  S   UNL A   1      39.178  36.538  40.544  1.00  0.00     0.124 S 
ATOM     97  O   UNL A   1      38.609  37.716  39.899  1.00  0.00    -0.237 OA
ATOM     98  O   UNL A   1      38.263  35.773  41.385  1.00  0.00    -0.237 OA
ATOM     99  O   UNL A   1      40.523  36.706  41.084  1.00  0.00    -0.744 OA
ENDBRANCH  95  96
ENDBRANCH  63  88
ENDBRANCH  37  38
ENDBRANCH  30  32
ENDBRANCH  29  30
ENDBRANCH  28  29
ENDBRANCH   1  28
TORSDOF 20
ENDMDL
