MODEL 1
REMARK VINA RESULT:     -10.9      0.000      0.000
REMARK SMILES Cc1nc(SCc2cccc(Cl)c2)[nH]c(=O)c1CC(=O)OCCOCCOC(=O)c1ccc(-c2c3nc(c(-c4c(F)cc(S(=O)(=O)[O-])cc4F)c4ccc([nH]4)c(-c4c(F)cc(S(=O)(=O)[O-])cc4F)c4nc(c(-c5c(F)cc(S(=O)(=O)[O-])cc5F)c5ccc2[nH]5)C=C4)C=C3)cc1
REMARK SMILES IDX 23 1 22 2 21 3 19 4 20 5 18 6 17 7 1 8 2 9 3 10 4 11 15 12
REMARK SMILES IDX 14 13 16 14 5 16 6 17 7 18 8 19 13 20 9 21 11 22 10 23 12 24
REMARK SMILES IDX 24 25 25 26 26 27 27 28 28 29 29 30 30 31 31 32 95 33 32 34
REMARK SMILES IDX 94 35 33 36 34 37 35 38 88 39 36 40 93 41 87 42 89 43 37 44
REMARK SMILES IDX 92 45 86 46 85 47 38 49 72 50 51 51 71 52 52 53 55 54 70 55
REMARK SMILES IDX 90 56 53 57 54 58 69 60 91 61 56 62 39 63 40 64 49 65 41 66
REMARK SMILES IDX 42 67 48 68 50 69 43 70 44 71 45 72 46 73 47 74 73 75 74 76
REMARK SMILES IDX 83 77 75 78 76 79 82 80 84 81 77 82 78 83 79 84 80 85 81 86
REMARK SMILES IDX 57 87 58 88 67 89 59 90 60 91 66 92 68 93 61 94 62 95 63 96
REMARK SMILES IDX 64 97 65 98
REMARK H PARENT 14 15 89 48 55 59
REMARK Flexibility Score: inf
ROOT
ATOM      1  C   UNL A   1      36.158  22.833  24.381  1.00  0.00     0.202 C 
ENDROOT
BRANCH   1   2
ATOM      2  C   UNL A   1      35.737  21.380  24.643  1.00  0.00     0.261 C 
BRANCH   2   3
ATOM      3  O   UNL A   1      34.464  21.247  25.309  1.00  0.00    -0.463 OA
BRANCH   3   4
ATOM      4  C   UNL A   1      33.627  20.318  24.774  1.00  0.00     0.310 C 
ATOM      5  O   UNL A   1      33.744  19.105  24.931  1.00  0.00    -0.252 OA
BRANCH   4   6
ATOM      6  C   UNL A   1      32.488  20.878  23.935  1.00  0.00     0.166 C 
BRANCH   6   7
ATOM      7  C   UNL A   1      32.086  22.316  24.090  1.00  0.00     0.050 A 
ATOM      8  C   UNL A   1      33.274  23.120  22.039  1.00  0.00     0.067 C 
ATOM      9  C   UNL A   1      32.367  23.310  23.226  1.00  0.00     0.050 A 
ATOM     10  N   UNL A   1      31.925  24.603  23.379  1.00  0.00    -0.229 NA
ATOM     11  C   UNL A   1      31.340  24.908  24.484  1.00  0.00     0.168 A 
ATOM     12  C   UNL A   1      31.197  22.670  25.226  1.00  0.00     0.255 A 
ATOM     13  N   UNL A   1      30.986  23.999  25.421  1.00  0.00    -0.301 N 
ATOM     14  O   UNL A   1      30.669  21.820  25.935  1.00  0.00    -0.269 OA
ATOM     15  H   UNL A   1      30.569  24.305  26.259  1.00  0.00     0.172 HD
BRANCH  11  16
ATOM     16  S   UNL A   1      30.934  26.535  24.925  1.00  0.00    -0.083 SA
BRANCH  16  17
ATOM     17  C   UNL A   1      31.959  26.781  26.404  1.00  0.00     0.113 C 
BRANCH  17  18
ATOM     18  C   UNL A   1      32.540  28.168  26.596  1.00  0.00    -0.036 A 
ATOM     19  C   UNL A   1      33.859  28.321  27.052  1.00  0.00     0.005 A 
ATOM     20  C   UNL A   1      31.769  29.331  26.444  1.00  0.00     0.025 A 
ATOM     21  C   UNL A   1      34.374  29.590  27.350  1.00  0.00     0.002 A 
ATOM     22  C   UNL A   1      32.282  30.593  26.739  1.00  0.00     0.041 A 
ATOM     23  C   UNL A   1      33.584  30.728  27.199  1.00  0.00     0.020 A 
ATOM     24  Cl  UNL A   1      31.276  31.976  26.548  1.00  0.00    -0.084 Cl
ENDBRANCH  17  18
ENDBRANCH  16  17
ENDBRANCH  11  16
ENDBRANCH   6   7
ENDBRANCH   4   6
ENDBRANCH   3   4
ENDBRANCH   2   3
ENDBRANCH   1   2
BRANCH   1  25
ATOM     25  O   UNL A   1      37.155  23.402  25.227  1.00  0.00    -0.374 OA
BRANCH  25  26
ATOM     26  C   UNL A   1      38.110  22.508  25.794  1.00  0.00     0.202 C 
BRANCH  26  27
ATOM     27  C   UNL A   1      39.365  23.121  26.433  1.00  0.00     0.261 C 
BRANCH  27  28
ATOM     28  O   UNL A   1      39.339  24.560  26.468  1.00  0.00    -0.460 OA
BRANCH  28  29
ATOM     29  C   UNL A   1      40.561  25.142  26.556  1.00  0.00     0.338 C 
ATOM     30  O   UNL A   1      41.440  25.136  25.703  1.00  0.00    -0.246 OA
BRANCH  29  31
ATOM     31  C   UNL A   1      40.664  25.965  27.773  1.00  0.00     0.060 A 
ATOM     32  C   UNL A   1      39.581  25.939  28.663  1.00  0.00     0.016 A 
ATOM     33  C   UNL A   1      41.748  26.816  28.003  1.00  0.00     0.016 A 
ATOM     34  C   UNL A   1      39.557  26.796  29.761  1.00  0.00     0.010 A 
ATOM     35  C   UNL A   1      41.717  27.684  29.101  1.00  0.00     0.010 A 
ATOM     36  C   UNL A   1      40.607  27.700  29.966  1.00  0.00    -0.014 A 
BRANCH  36  37
ATOM     37  C   UNL A   1      40.481  28.739  31.019  1.00  0.00     0.031 A 
ATOM     38  C   UNL A   1      41.361  28.660  32.237  1.00  0.00     0.074 A 
ATOM     39  C   UNL A   1      39.610  29.754  30.875  1.00  0.00     0.049 A 
ATOM     40  N   UNL A   1      41.392  29.440  33.287  1.00  0.00    -0.248 NA
ATOM     41  C   UNL A   1      42.332  27.556  32.279  1.00  0.00     0.031 C 
ATOM     42  C   UNL A   1      38.732  29.952  29.723  1.00  0.00     0.029 A 
ATOM     43  N   UNL A   1      39.318  30.805  31.707  1.00  0.00    -0.354 N 
ATOM     44  C   UNL A   1      42.378  28.918  34.117  1.00  0.00     0.074 A 
ATOM     45  C   UNL A   1      42.906  27.742  33.459  1.00  0.00     0.031 C 
ATOM     46  C   UNL A   1      37.987  31.051  29.928  1.00  0.00     0.029 A 
ATOM     47  C   UNL A   1      38.311  31.615  31.236  1.00  0.00     0.049 A 
ATOM     48  H   UNL A   1      39.784  30.964  32.559  1.00  0.00     0.167 HD
ATOM     49  C   UNL A   1      42.806  29.382  35.316  1.00  0.00     0.037 A 
ATOM     50  C   UNL A   1      37.705  32.674  31.808  1.00  0.00     0.037 A 
ATOM     51  C   UNL A   1      42.279  30.557  35.962  1.00  0.00     0.049 A 
ATOM     52  C   UNL A   1      38.158  33.137  33.169  1.00  0.00     0.074 A 
ATOM     53  C   UNL A   1      42.667  31.126  37.162  1.00  0.00     0.029 A 
ATOM     54  N   UNL A   1      41.244  31.336  35.466  1.00  0.00    -0.354 N 
ATOM     55  N   UNL A   1      39.111  32.652  33.928  1.00  0.00    -0.248 NA
ATOM     56  C   UNL A   1      37.453  34.288  33.752  1.00  0.00     0.031 C 
ATOM     57  C   UNL A   1      41.832  32.219  37.417  1.00  0.00     0.029 A 
ATOM     58  C   UNL A   1      40.958  32.362  36.351  1.00  0.00     0.049 A 
ATOM     59  H   UNL A   1      40.781  31.183  34.611  1.00  0.00     0.167 HD
ATOM     60  C   UNL A   1      39.134  33.450  35.069  1.00  0.00     0.074 A 
ATOM     61  C   UNL A   1      38.106  34.456  34.894  1.00  0.00     0.031 C 
ATOM     62  C   UNL A   1      39.931  33.358  36.161  1.00  0.00     0.037 A 
BRANCH  49  63
ATOM     63  C   UNL A   1      43.878  28.603  36.026  1.00  0.00     0.058 A 
ATOM     64  C   UNL A   1      43.579  27.494  36.833  1.00  0.00     0.135 A 
ATOM     65  C   UNL A   1      45.231  28.945  35.861  1.00  0.00     0.135 A 
ATOM     66  F   UNL A   1      42.302  27.133  37.038  1.00  0.00    -0.206 F 
ATOM     67  C   UNL A   1      44.580  26.767  37.470  1.00  0.00     0.059 A 
ATOM     68  C   UNL A   1      46.249  28.217  36.469  1.00  0.00     0.059 A 
ATOM     69  F   UNL A   1      45.575  29.997  35.101  1.00  0.00    -0.206 F 
ATOM     70  C   UNL A   1      45.913  27.136  37.282  1.00  0.00     0.060 A 
BRANCH  70  71
ATOM     71  S   UNL A   1      47.200  26.178  38.109  1.00  0.00     0.124 S 
ATOM     72  O   UNL A   1      48.112  27.231  38.545  1.00  0.00    -0.237 OA
ATOM     73  O   UNL A   1      46.458  25.504  39.169  1.00  0.00    -0.237 OA
ATOM     74  O   UNL A   1      47.708  25.308  37.053  1.00  0.00    -0.744 OA
ENDBRANCH  70  71
ENDBRANCH  49  63
BRANCH  50  75
ATOM     75  C   UNL A   1      36.585  33.353  31.105  1.00  0.00     0.058 A 
ATOM     76  C   UNL A   1      35.259  33.209  31.539  1.00  0.00     0.135 A 
ATOM     77  C   UNL A   1      36.822  34.168  29.987  1.00  0.00     0.135 A 
ATOM     78  F   UNL A   1      34.978  32.431  32.595  1.00  0.00    -0.206 F 
ATOM     79  C   UNL A   1      34.205  33.839  30.883  1.00  0.00     0.059 A 
ATOM     80  C   UNL A   1      35.788  34.829  29.330  1.00  0.00     0.059 A 
ATOM     81  F   UNL A   1      38.073  34.344  29.536  1.00  0.00    -0.206 F 
ATOM     82  C   UNL A   1      34.481  34.651  29.780  1.00  0.00     0.060 A 
BRANCH  82  83
ATOM     83  S   UNL A   1      33.113  35.505  28.966  1.00  0.00     0.124 S 
ATOM     84  O   UNL A   1      33.818  36.542  28.221  1.00  0.00    -0.237 OA
ATOM     85  O   UNL A   1      32.517  34.438  28.169  1.00  0.00    -0.237 OA
ATOM     86  O   UNL A   1      32.299  35.973  30.084  1.00  0.00    -0.744 OA
ENDBRANCH  82  83
ENDBRANCH  50  75
BRANCH  62  87
ATOM     87  C   UNL A   1      39.744  34.379  37.249  1.00  0.00     0.058 A 
ATOM     88  C   UNL A   1      38.959  34.113  38.381  1.00  0.00     0.135 A 
ATOM     89  C   UNL A   1      40.415  35.612  37.191  1.00  0.00     0.135 A 
ATOM     90  F   UNL A   1      38.291  32.953  38.481  1.00  0.00    -0.206 F 
ATOM     91  C   UNL A   1      38.832  35.039  39.411  1.00  0.00     0.059 A 
ATOM     92  C   UNL A   1      40.324  36.542  38.222  1.00  0.00     0.059 A 
ATOM     93  F   UNL A   1      41.188  35.913  36.135  1.00  0.00    -0.206 F 
ATOM     94  C   UNL A   1      39.523  36.249  39.325  1.00  0.00     0.060 A 
BRANCH  94  95
ATOM     95  S   UNL A   1      39.389  37.421  40.692  1.00  0.00     0.124 S 
ATOM     96  O   UNL A   1      38.436  38.387  40.160  1.00  0.00    -0.237 OA
ATOM     97  O   UNL A   1      38.899  36.579  41.779  1.00  0.00    -0.237 OA
ATOM     98  O   UNL A   1      40.755  37.912  40.855  1.00  0.00    -0.744 OA
ENDBRANCH  94  95
ENDBRANCH  62  87
ENDBRANCH  36  37
ENDBRANCH  29  31
ENDBRANCH  28  29
ENDBRANCH  27  28
ENDBRANCH  26  27
ENDBRANCH  25  26
ENDBRANCH   1  25
TORSDOF 21
ENDMDL
MODEL 2
REMARK VINA RESULT:     -10.7      6.791     12.660
REMARK SMILES Cc1nc(SCc2cccc(Cl)c2)[nH]c(=O)c1CC(=O)OCCOCCOC(=O)c1ccc(-c2c3nc(c(-c4c(F)cc(S(=O)(=O)[O-])cc4F)c4ccc([nH]4)c(-c4c(F)cc(S(=O)(=O)[O-])cc4F)c4nc(c(-c5c(F)cc(S(=O)(=O)[O-])cc5F)c5ccc2[nH]5)C=C4)C=C3)cc1
REMARK SMILES IDX 23 1 22 2 21 3 19 4 20 5 18 6 17 7 1 8 2 9 3 10 4 11 15 12
REMARK SMILES IDX 14 13 16 14 5 16 6 17 7 18 8 19 13 20 9 21 11 22 10 23 12 24
REMARK SMILES IDX 24 25 25 26 26 27 27 28 28 29 29 30 30 31 31 32 95 33 32 34
REMARK SMILES IDX 94 35 33 36 34 37 35 38 88 39 36 40 93 41 87 42 89 43 37 44
REMARK SMILES IDX 92 45 86 46 85 47 38 49 72 50 51 51 71 52 52 53 55 54 70 55
REMARK SMILES IDX 90 56 53 57 54 58 69 60 91 61 56 62 39 63 40 64 49 65 41 66
REMARK SMILES IDX 42 67 48 68 50 69 43 70 44 71 45 72 46 73 47 74 73 75 74 76
REMARK SMILES IDX 83 77 75 78 76 79 82 80 84 81 77 82 78 83 79 84 80 85 81 86
REMARK SMILES IDX 57 87 58 88 67 89 59 90 60 91 66 92 68 93 61 94 62 95 63 96
REMARK SMILES IDX 64 97 65 98
REMARK H PARENT 14 15 89 48 55 59
REMARK Flexibility Score: inf
ROOT
ATOM      1  C   UNL A   1      34.461  34.875  33.190  1.00  0.00     0.202 C 
ENDROOT
BRANCH   1   2
ATOM      2  C   UNL A   1      33.557  34.998  31.955  1.00  0.00     0.261 C 
BRANCH   2   3
ATOM      3  O   UNL A   1      34.030  35.942  30.971  1.00  0.00    -0.463 OA
BRANCH   3   4
ATOM      4  C   UNL A   1      33.353  35.931  29.791  1.00  0.00     0.310 C 
ATOM      5  O   UNL A   1      32.179  36.270  29.659  1.00  0.00    -0.252 OA
BRANCH   4   6
ATOM      6  C   UNL A   1      34.157  35.459  28.588  1.00  0.00     0.166 C 
BRANCH   6   7
ATOM      7  C   UNL A   1      34.363  33.990  28.360  1.00  0.00     0.050 A 
ATOM      8  C   UNL A   1      36.666  33.915  29.337  1.00  0.00     0.067 C 
ATOM      9  C   UNL A   1      35.437  33.275  28.745  1.00  0.00     0.050 A 
ATOM     10  N   UNL A   1      35.554  31.917  28.569  1.00  0.00    -0.229 NA
ATOM     11  C   UNL A   1      34.656  31.326  27.864  1.00  0.00     0.168 A 
ATOM     12  C   UNL A   1      33.241  33.216  27.768  1.00  0.00     0.255 A 
ATOM     13  N   UNL A   1      33.523  31.927  27.435  1.00  0.00    -0.301 N 
ATOM     14  O   UNL A   1      32.125  33.696  27.607  1.00  0.00    -0.269 OA
ATOM     15  H   UNL A   1      32.891  31.424  26.871  1.00  0.00     0.172 HD
BRANCH  11  16
ATOM     16  S   UNL A   1      34.783  29.672  27.357  1.00  0.00    -0.083 SA
BRANCH  16  17
ATOM     17  C   UNL A   1      33.037  29.180  27.270  1.00  0.00     0.113 C 
BRANCH  17  18
ATOM     18  C   UNL A   1      32.748  27.839  26.624  1.00  0.00    -0.036 A 
ATOM     19  C   UNL A   1      31.437  27.337  26.601  1.00  0.00     0.005 A 
ATOM     20  C   UNL A   1      33.768  27.006  26.138  1.00  0.00     0.025 A 
ATOM     21  C   UNL A   1      31.168  26.050  26.118  1.00  0.00     0.002 A 
ATOM     22  C   UNL A   1      33.500  25.726  25.656  1.00  0.00     0.041 A 
ATOM     23  C   UNL A   1      32.202  25.239  25.649  1.00  0.00     0.020 A 
ATOM     24  Cl  UNL A   1      34.801  24.750  25.093  1.00  0.00    -0.084 Cl
ENDBRANCH  17  18
ENDBRANCH  16  17
ENDBRANCH  11  16
ENDBRANCH   6   7
ENDBRANCH   4   6
ENDBRANCH   3   4
ENDBRANCH   2   3
ENDBRANCH   1   2
BRANCH   1  25
ATOM     25  O   UNL A   1      34.600  33.591  33.791  1.00  0.00    -0.374 OA
BRANCH  25  26
ATOM     26  C   UNL A   1      35.816  32.888  33.543  1.00  0.00     0.202 C 
BRANCH  26  27
ATOM     27  C   UNL A   1      35.852  31.932  32.342  1.00  0.00     0.261 C 
BRANCH  27  28
ATOM     28  O   UNL A   1      36.766  30.834  32.516  1.00  0.00    -0.460 OA
BRANCH  28  29
ATOM     29  C   UNL A   1      36.871  30.014  31.441  1.00  0.00     0.338 C 
ATOM     30  O   UNL A   1      35.954  29.461  30.846  1.00  0.00    -0.246 OA
BRANCH  29  31
ATOM     31  C   UNL A   1      38.253  29.991  30.931  1.00  0.00     0.060 A 
ATOM     32  C   UNL A   1      38.433  30.138  29.549  1.00  0.00     0.016 A 
ATOM     33  C   UNL A   1      39.346  29.739  31.764  1.00  0.00     0.016 A 
ATOM     34  C   UNL A   1      39.700  29.989  28.988  1.00  0.00     0.010 A 
ATOM     35  C   UNL A   1      40.617  29.580  31.198  1.00  0.00     0.010 A 
ATOM     36  C   UNL A   1      40.793  29.671  29.805  1.00  0.00    -0.014 A 
BRANCH  36  37
ATOM     37  C   UNL A   1      42.094  29.322  29.180  1.00  0.00     0.031 A 
ATOM     38  C   UNL A   1      42.308  27.927  28.660  1.00  0.00     0.074 A 
ATOM     39  C   UNL A   1      43.060  30.249  29.054  1.00  0.00     0.049 A 
ATOM     40  N   UNL A   1      43.373  27.403  28.111  1.00  0.00    -0.248 NA
ATOM     41  C   UNL A   1      41.173  26.998  28.777  1.00  0.00     0.031 C 
ATOM     42  C   UNL A   1      42.952  31.641  29.489  1.00  0.00     0.029 A 
ATOM     43  N   UNL A   1      44.324  30.157  28.529  1.00  0.00    -0.354 N 
ATOM     44  C   UNL A   1      43.042  26.083  27.824  1.00  0.00     0.074 A 
ATOM     45  C   UNL A   1      41.683  25.880  28.280  1.00  0.00     0.031 C 
ATOM     46  C   UNL A   1      44.110  32.270  29.226  1.00  0.00     0.029 A 
ATOM     47  C   UNL A   1      45.050  31.320  28.635  1.00  0.00     0.049 A 
ATOM     48  H   UNL A   1      44.678  29.336  28.116  1.00  0.00     0.167 HD
ATOM     49  C   UNL A   1      43.801  25.131  27.230  1.00  0.00     0.037 A 
ATOM     50  C   UNL A   1      46.333  31.578  28.315  1.00  0.00     0.037 A 
ATOM     51  C   UNL A   1      45.151  25.343  26.774  1.00  0.00     0.049 A 
ATOM     52  C   UNL A   1      47.177  30.487  27.709  1.00  0.00     0.074 A 
ATOM     53  C   UNL A   1      45.992  24.451  26.132  1.00  0.00     0.029 A 
ATOM     54  N   UNL A   1      45.860  26.527  26.921  1.00  0.00    -0.354 N 
ATOM     55  N   UNL A   1      46.841  29.254  27.416  1.00  0.00    -0.248 NA
ATOM     56  C   UNL A   1      48.574  30.820  27.393  1.00  0.00     0.031 C 
ATOM     57  C   UNL A   1      47.228  25.079  25.938  1.00  0.00     0.029 A 
ATOM     58  C   UNL A   1      47.139  26.378  26.412  1.00  0.00     0.049 A 
ATOM     59  H   UNL A   1      45.506  27.350  27.328  1.00  0.00     0.167 HD
ATOM     60  C   UNL A   1      47.977  28.669  26.863  1.00  0.00     0.074 A 
ATOM     61  C   UNL A   1      49.006  29.689  26.852  1.00  0.00     0.031 C 
ATOM     62  C   UNL A   1      48.152  27.405  26.407  1.00  0.00     0.037 A 
BRANCH  49  63
ATOM     63  C   UNL A   1      43.203  23.762  27.063  1.00  0.00     0.058 A 
ATOM     64  C   UNL A   1      43.151  22.841  28.122  1.00  0.00     0.135 A 
ATOM     65  C   UNL A   1      42.634  23.380  25.836  1.00  0.00     0.135 A 
ATOM     66  F   UNL A   1      43.693  23.148  29.311  1.00  0.00    -0.206 F 
ATOM     67  C   UNL A   1      42.577  21.583  27.964  1.00  0.00     0.059 A 
ATOM     68  C   UNL A   1      42.034  22.137  25.663  1.00  0.00     0.059 A 
ATOM     69  F   UNL A   1      42.658  24.221  24.790  1.00  0.00    -0.206 F 
ATOM     70  C   UNL A   1      42.021  21.240  26.730  1.00  0.00     0.060 A 
BRANCH  70  71
ATOM     71  S   UNL A   1      41.273  19.607  26.543  1.00  0.00     0.124 S 
ATOM     72  O   UNL A   1      41.300  19.116  27.917  1.00  0.00    -0.237 OA
ATOM     73  O   UNL A   1      39.952  19.926  26.011  1.00  0.00    -0.237 OA
ATOM     74  O   UNL A   1      42.171  18.926  25.616  1.00  0.00    -0.744 OA
ENDBRANCH  70  71
ENDBRANCH  49  63
BRANCH  50  75
ATOM     75  C   UNL A   1      46.906  32.924  28.587  1.00  0.00     0.058 A 
ATOM     76  C   UNL A   1      46.934  33.917  27.598  1.00  0.00     0.135 A 
ATOM     77  C   UNL A   1      47.432  33.243  29.849  1.00  0.00     0.135 A 
ATOM     78  F   UNL A   1      46.456  33.657  26.371  1.00  0.00    -0.206 F 
ATOM     79  C   UNL A   1      47.473  35.176  27.844  1.00  0.00     0.059 A 
ATOM     80  C   UNL A   1      47.953  34.503  30.128  1.00  0.00     0.059 A 
ATOM     81  F   UNL A   1      47.423  32.330  30.832  1.00  0.00    -0.206 F 
ATOM     82  C   UNL A   1      47.977  35.461  29.116  1.00  0.00     0.060 A 
BRANCH  82  83
ATOM     83  S   UNL A   1      48.627  37.114  29.442  1.00  0.00     0.124 S 
ATOM     84  O   UNL A   1      48.721  37.664  28.094  1.00  0.00    -0.237 OA
ATOM     85  O   UNL A   1      47.591  37.688  30.296  1.00  0.00    -0.237 OA
ATOM     86  O   UNL A   1      49.900  36.848  30.106  1.00  0.00    -0.744 OA
ENDBRANCH  82  83
ENDBRANCH  50  75
BRANCH  62  87
ATOM     87  C   UNL A   1      49.499  27.051  25.837  1.00  0.00     0.058 A 
ATOM     88  C   UNL A   1      49.784  27.208  24.472  1.00  0.00     0.135 A 
ATOM     89  C   UNL A   1      50.536  26.616  26.679  1.00  0.00     0.135 A 
ATOM     90  F   UNL A   1      48.826  27.614  23.624  1.00  0.00    -0.206 F 
ATOM     91  C   UNL A   1      51.047  26.932  23.958  1.00  0.00     0.059 A 
ATOM     92  C   UNL A   1      51.813  26.359  26.191  1.00  0.00     0.059 A 
ATOM     93  F   UNL A   1      50.319  26.459  27.995  1.00  0.00    -0.206 F 
ATOM     94  C   UNL A   1      52.057  26.513  24.827  1.00  0.00     0.060 A 
BRANCH  94  95
ATOM     95  S   UNL A   1      53.704  26.205  24.154  1.00  0.00     0.124 S 
ATOM     96  O   UNL A   1      54.018  24.902  24.727  1.00  0.00    -0.237 OA
ATOM     97  O   UNL A   1      53.462  26.222  22.714  1.00  0.00    -0.237 OA
ATOM     98  O   UNL A   1      54.494  27.323  24.663  1.00  0.00    -0.744 OA
ENDBRANCH  94  95
ENDBRANCH  62  87
ENDBRANCH  36  37
ENDBRANCH  29  31
ENDBRANCH  28  29
ENDBRANCH  27  28
ENDBRANCH  26  27
ENDBRANCH  25  26
ENDBRANCH   1  25
TORSDOF 21
ENDMDL
MODEL 3
REMARK VINA RESULT:     -10.5      1.134      8.295
REMARK SMILES Cc1nc(SCc2cccc(Cl)c2)[nH]c(=O)c1CC(=O)OCCOCCOC(=O)c1ccc(-c2c3nc(c(-c4c(F)cc(S(=O)(=O)[O-])cc4F)c4ccc([nH]4)c(-c4c(F)cc(S(=O)(=O)[O-])cc4F)c4nc(c(-c5c(F)cc(S(=O)(=O)[O-])cc5F)c5ccc2[nH]5)C=C4)C=C3)cc1
REMARK SMILES IDX 23 1 22 2 21 3 19 4 20 5 18 6 17 7 1 8 2 9 3 10 4 11 15 12
REMARK SMILES IDX 14 13 16 14 5 16 6 17 7 18 8 19 13 20 9 21 11 22 10 23 12 24
REMARK SMILES IDX 24 25 25 26 26 27 27 28 28 29 29 30 30 31 31 32 95 33 32 34
REMARK SMILES IDX 94 35 33 36 34 37 35 38 88 39 36 40 93 41 87 42 89 43 37 44
REMARK SMILES IDX 92 45 86 46 85 47 38 49 72 50 51 51 71 52 52 53 55 54 70 55
REMARK SMILES IDX 90 56 53 57 54 58 69 60 91 61 56 62 39 63 40 64 49 65 41 66
REMARK SMILES IDX 42 67 48 68 50 69 43 70 44 71 45 72 46 73 47 74 73 75 74 76
REMARK SMILES IDX 83 77 75 78 76 79 82 80 84 81 77 82 78 83 79 84 80 85 81 86
REMARK SMILES IDX 57 87 58 88 67 89 59 90 60 91 66 92 68 93 61 94 62 95 63 96
REMARK SMILES IDX 64 97 65 98
REMARK H PARENT 14 15 89 48 55 59
REMARK Flexibility Score: inf
ROOT
ATOM      1  C   UNL A   1      38.298  20.801  25.420  1.00  0.00     0.202 C 
ENDROOT
BRANCH   1   2
ATOM      2  C   UNL A   1      36.909  21.141  24.861  1.00  0.00     0.261 C 
BRANCH   2   3
ATOM      3  O   UNL A   1      36.070  21.876  25.777  1.00  0.00    -0.463 OA
BRANCH   3   4
ATOM      4  C   UNL A   1      34.774  21.467  25.825  1.00  0.00     0.310 C 
ATOM      5  O   UNL A   1      34.209  21.064  26.838  1.00  0.00    -0.252 OA
BRANCH   4   6
ATOM      6  C   UNL A   1      34.023  21.538  24.503  1.00  0.00     0.166 C 
BRANCH   6   7
ATOM      7  C   UNL A   1      33.360  22.819  24.091  1.00  0.00     0.050 A 
ATOM      8  C   UNL A   1      31.323  22.504  25.511  1.00  0.00     0.067 C 
ATOM      9  C   UNL A   1      32.198  23.297  24.576  1.00  0.00     0.050 A 
ATOM     10  N   UNL A   1      31.658  24.508  24.212  1.00  0.00    -0.229 NA
ATOM     11  C   UNL A   1      32.218  25.146  23.246  1.00  0.00     0.168 A 
ATOM     12  C   UNL A   1      34.093  23.712  23.157  1.00  0.00     0.255 A 
ATOM     13  N   UNL A   1      33.395  24.781  22.688  1.00  0.00    -0.301 N 
ATOM     14  O   UNL A   1      35.261  23.513  22.840  1.00  0.00    -0.269 OA
ATOM     15  H   UNL A   1      33.752  25.298  21.930  1.00  0.00     0.172 HD
BRANCH  11  16
ATOM     16  S   UNL A   1      31.530  26.563  22.519  1.00  0.00    -0.083 SA
BRANCH  16  17
ATOM     17  C   UNL A   1      32.615  27.870  23.163  1.00  0.00     0.113 C 
BRANCH  17  18
ATOM     18  C   UNL A   1      32.670  28.014  24.671  1.00  0.00    -0.036 A 
ATOM     19  C   UNL A   1      31.509  27.831  25.439  1.00  0.00     0.005 A 
ATOM     20  C   UNL A   1      33.827  28.442  25.341  1.00  0.00     0.025 A 
ATOM     21  C   UNL A   1      31.512  28.077  26.818  1.00  0.00     0.002 A 
ATOM     22  C   UNL A   1      33.831  28.686  26.713  1.00  0.00     0.041 A 
ATOM     23  C   UNL A   1      32.673  28.510  27.457  1.00  0.00     0.020 A 
ATOM     24  Cl  UNL A   1      35.280  29.227  27.468  1.00  0.00    -0.084 Cl
ENDBRANCH  17  18
ENDBRANCH  16  17
ENDBRANCH  11  16
ENDBRANCH   6   7
ENDBRANCH   4   6
ENDBRANCH   3   4
ENDBRANCH   2   3
ENDBRANCH   1   2
BRANCH   1  25
ATOM     25  O   UNL A   1      39.030  21.838  26.068  1.00  0.00    -0.374 OA
BRANCH  25  26
ATOM     26  C   UNL A   1      40.376  21.547  26.437  1.00  0.00     0.202 C 
BRANCH  26  27
ATOM     27  C   UNL A   1      41.356  22.726  26.537  1.00  0.00     0.261 C 
BRANCH  27  28
ATOM     28  O   UNL A   1      40.703  24.009  26.532  1.00  0.00    -0.460 OA
BRANCH  28  29
ATOM     29  C   UNL A   1      41.549  25.069  26.518  1.00  0.00     0.338 C 
ATOM     30  O   UNL A   1      42.440  25.289  25.707  1.00  0.00    -0.246 OA
BRANCH  29  31
ATOM     31  C   UNL A   1      41.156  26.066  27.530  1.00  0.00     0.060 A 
ATOM     32  C   UNL A   1      41.982  27.189  27.682  1.00  0.00     0.016 A 
ATOM     33  C   UNL A   1      40.062  25.872  28.377  1.00  0.00     0.016 A 
ATOM     34  C   UNL A   1      41.744  28.098  28.711  1.00  0.00     0.010 A 
ATOM     35  C   UNL A   1      39.831  26.782  29.416  1.00  0.00     0.010 A 
ATOM     36  C   UNL A   1      40.690  27.880  29.607  1.00  0.00    -0.014 A 
BRANCH  36  37
ATOM     37  C   UNL A   1      40.564  28.741  30.810  1.00  0.00     0.031 A 
ATOM     38  C   UNL A   1      39.524  29.828  30.830  1.00  0.00     0.074 A 
ATOM     39  C   UNL A   1      41.351  28.536  31.880  1.00  0.00     0.049 A 
ATOM     40  N   UNL A   1      39.266  30.710  31.760  1.00  0.00    -0.248 NA
ATOM     41  C   UNL A   1      38.660  29.936  29.643  1.00  0.00     0.031 C 
ATOM     42  C   UNL A   1      42.370  27.493  31.988  1.00  0.00     0.029 A 
ATOM     43  N   UNL A   1      41.422  29.201  33.079  1.00  0.00    -0.354 N 
ATOM     44  C   UNL A   1      38.219  31.484  31.270  1.00  0.00     0.074 A 
ATOM     45  C   UNL A   1      37.903  30.979  29.951  1.00  0.00     0.031 C 
ATOM     46  C   UNL A   1      42.975  27.597  33.184  1.00  0.00     0.029 A 
ATOM     47  C   UNL A   1      42.410  28.731  33.912  1.00  0.00     0.049 A 
ATOM     48  H   UNL A   1      40.821  29.943  33.320  1.00  0.00     0.167 HD
ATOM     49  C   UNL A   1      37.577  32.515  31.870  1.00  0.00     0.037 A 
ATOM     50  C   UNL A   1      42.826  29.182  35.111  1.00  0.00     0.037 A 
ATOM     51  C   UNL A   1      37.895  33.007  33.186  1.00  0.00     0.049 A 
ATOM     52  C   UNL A   1      42.137  30.369  35.733  1.00  0.00     0.074 A 
ATOM     53  C   UNL A   1      37.283  34.027  33.894  1.00  0.00     0.029 A 
ATOM     54  N   UNL A   1      38.918  32.522  33.988  1.00  0.00    -0.354 N 
ATOM     55  N   UNL A   1      41.128  31.070  35.273  1.00  0.00    -0.248 NA
ATOM     56  C   UNL A   1      42.641  30.827  37.036  1.00  0.00     0.031 C 
ATOM     57  C   UNL A   1      37.970  34.193  35.102  1.00  0.00     0.029 A 
ATOM     58  C   UNL A   1      38.976  33.243  35.169  1.00  0.00     0.049 A 
ATOM     59  H   UNL A   1      39.515  31.776  33.752  1.00  0.00     0.167 HD
ATOM     60  C   UNL A   1      40.865  32.039  36.236  1.00  0.00     0.074 A 
ATOM     61  C   UNL A   1      41.813  31.826  37.311  1.00  0.00     0.031 C 
ATOM     62  C   UNL A   1      39.926  33.016  36.231  1.00  0.00     0.037 A 
BRANCH  49  63
ATOM     63  C   UNL A   1      36.486  33.204  31.099  1.00  0.00     0.058 A 
ATOM     64  C   UNL A   1      35.132  33.057  31.438  1.00  0.00     0.135 A 
ATOM     65  C   UNL A   1      36.803  34.060  30.030  1.00  0.00     0.135 A 
ATOM     66  F   UNL A   1      34.771  32.239  32.440  1.00  0.00    -0.206 F 
ATOM     67  C   UNL A   1      34.130  33.714  30.730  1.00  0.00     0.059 A 
ATOM     68  C   UNL A   1      35.820  34.746  29.326  1.00  0.00     0.059 A 
ATOM     69  F   UNL A   1      38.083  34.236  29.663  1.00  0.00    -0.206 F 
ATOM     70  C   UNL A   1      34.484  34.557  29.675  1.00  0.00     0.060 A 
BRANCH  70  71
ATOM     71  S   UNL A   1      33.173  35.410  28.773  1.00  0.00     0.124 S 
ATOM     72  O   UNL A   1      32.552  34.305  28.050  1.00  0.00    -0.237 OA
ATOM     73  O   UNL A   1      32.377  35.990  29.849  1.00  0.00    -0.237 OA
ATOM     74  O   UNL A   1      33.898  36.370  27.946  1.00  0.00    -0.744 OA
ENDBRANCH  70  71
ENDBRANCH  49  63
BRANCH  50  75
ATOM     75  C   UNL A   1      43.974  28.524  35.791  1.00  0.00     0.058 A 
ATOM     76  C   UNL A   1      45.295  28.912  35.530  1.00  0.00     0.135 A 
ATOM     77  C   UNL A   1      43.767  27.494  36.722  1.00  0.00     0.135 A 
ATOM     78  F   UNL A   1      45.547  29.883  34.638  1.00  0.00    -0.206 F 
ATOM     79  C   UNL A   1      46.373  28.298  36.160  1.00  0.00     0.059 A 
ATOM     80  C   UNL A   1      44.826  26.881  37.385  1.00  0.00     0.059 A 
ATOM     81  F   UNL A   1      42.521  27.090  37.012  1.00  0.00    -0.206 F 
ATOM     82  C   UNL A   1      46.128  27.285  37.090  1.00  0.00     0.060 A 
BRANCH  82  83
ATOM     83  S   UNL A   1      47.530  26.527  37.940  1.00  0.00     0.124 S 
ATOM     84  O   UNL A   1      48.593  26.691  36.955  1.00  0.00    -0.237 OA
ATOM     85  O   UNL A   1      47.639  27.348  39.142  1.00  0.00    -0.237 OA
ATOM     86  O   UNL A   1      47.083  25.156  38.166  1.00  0.00    -0.744 OA
ENDBRANCH  82  83
ENDBRANCH  50  75
BRANCH  62  87
ATOM     87  C   UNL A   1      39.856  33.922  37.430  1.00  0.00     0.058 A 
ATOM     88  C   UNL A   1      40.603  35.108  37.500  1.00  0.00     0.135 A 
ATOM     89  C   UNL A   1      38.980  33.636  38.490  1.00  0.00     0.135 A 
ATOM     90  F   UNL A   1      41.461  35.425  36.517  1.00  0.00    -0.206 F 
ATOM     91  C   UNL A   1      40.496  35.972  38.585  1.00  0.00     0.059 A 
ATOM     92  C   UNL A   1      38.836  34.498  39.572  1.00  0.00     0.059 A 
ATOM     93  F   UNL A   1      38.234  32.519  38.467  1.00  0.00    -0.206 F 
ATOM     94  C   UNL A   1      39.605  35.660  39.614  1.00  0.00     0.060 A 
BRANCH  94  95
ATOM     95  S   UNL A   1      39.439  36.814  40.994  1.00  0.00     0.124 S 
ATOM     96  O   UNL A   1      38.569  36.070  41.897  1.00  0.00    -0.237 OA
ATOM     97  O   UNL A   1      40.821  36.975  41.435  1.00  0.00    -0.237 OA
ATOM     98  O   UNL A   1      38.842  37.996  40.378  1.00  0.00    -0.744 OA
ENDBRANCH  94  95
ENDBRANCH  62  87
ENDBRANCH  36  37
ENDBRANCH  29  31
ENDBRANCH  28  29
ENDBRANCH  27  28
ENDBRANCH  26  27
ENDBRANCH  25  26
ENDBRANCH   1  25
TORSDOF 21
ENDMDL
