MODEL 1
REMARK VINA RESULT:     -10.3      0.000      0.000
REMARK SMILES O=C(OCCOCCOC(=O)c1cc(SCCn2cccn2)cs1)c1ccc(-c2c3nc(c(-c4c(F)cc(S(=O)(=O)[O-])cc4F)c4ccc([nH]4)c(-c4c(F)cc(S(=O)(=O)[O-])cc4F)c4nc(c(-c5c(F)cc(S(=O)(=O)[O-])cc5F)c5ccc2[nH]5)C=C4)C=C3)cc1
REMARK SMILES IDX 7 1 6 2 5 3 4 4 3 5 2 6 1 7 25 8 26 9 90 10 27 11 89 12
REMARK SMILES IDX 28 13 29 14 30 15 83 16 31 17 88 18 82 19 84 20 32 21 87 22
REMARK SMILES IDX 81 23 80 24 33 26 67 27 46 28 66 29 47 30 50 31 65 32 85 33
REMARK SMILES IDX 48 34 49 35 64 37 86 38 51 39 34 40 35 41 44 42 36 43 37 44
REMARK SMILES IDX 43 45 45 46 38 47 39 48 40 49 41 50 42 51 68 52 69 53 78 54
REMARK SMILES IDX 70 55 71 56 77 57 79 58 72 59 73 60 74 61 75 62 76 63 52 64
REMARK SMILES IDX 53 65 62 66 54 67 55 68 61 69 63 70 56 71 57 72 58 73 59 74
REMARK SMILES IDX 60 75 8 76 9 77 10 78 11 79 12 80 13 81 24 82 14 83 23 84
REMARK SMILES IDX 15 85 16 86 17 87 18 88 19 89 22 90 20 91 21 92
REMARK H PARENT 84 25 50 36
REMARK Flexibility Score: inf
ROOT
ATOM      1  C   UNL A   1      31.290  29.968  25.291  1.00  0.00     0.202 C 
ENDROOT
BRANCH   1   2
ATOM      2  O   UNL A   1      31.650  29.230  26.466  1.00  0.00    -0.374 OA
BRANCH   2   3
ATOM      3  C   UNL A   1      32.931  29.545  27.008  1.00  0.00     0.202 C 
BRANCH   3   4
ATOM      4  C   UNL A   1      33.170  31.037  27.238  1.00  0.00     0.261 C 
BRANCH   4   5
ATOM      5  O   UNL A   1      34.155  31.331  28.251  1.00  0.00    -0.460 OA
BRANCH   5   6
ATOM      6  C   UNL A   1      35.359  31.885  27.974  1.00  0.00     0.338 C 
ATOM      7  O   UNL A   1      35.446  33.037  27.558  1.00  0.00    -0.246 OA
BRANCH   6   8
ATOM      8  C   UNL A   1      36.559  31.193  28.500  1.00  0.00     0.060 A 
ATOM      9  C   UNL A   1      37.579  31.822  29.210  1.00  0.00     0.016 A 
ATOM     10  C   UNL A   1      36.669  29.825  28.207  1.00  0.00     0.016 A 
ATOM     11  C   UNL A   1      38.776  31.165  29.431  1.00  0.00     0.010 A 
ATOM     12  C   UNL A   1      37.843  29.140  28.491  1.00  0.00     0.010 A 
ATOM     13  C   UNL A   1      38.925  29.840  29.021  1.00  0.00    -0.014 A 
BRANCH  13  14
ATOM     14  C   UNL A   1      40.244  29.245  29.192  1.00  0.00     0.031 A 
ATOM     15  C   UNL A   1      40.732  29.117  30.596  1.00  0.00     0.074 A 
ATOM     16  C   UNL A   1      40.972  28.782  28.158  1.00  0.00     0.049 A 
ATOM     17  N   UNL A   1      41.789  29.629  31.142  1.00  0.00    -0.248 NA
ATOM     18  C   UNL A   1      39.865  28.387  31.535  1.00  0.00     0.031 C 
ATOM     19  C   UNL A   1      40.557  28.579  26.767  1.00  0.00     0.029 A 
ATOM     20  N   UNL A   1      42.242  28.298  28.177  1.00  0.00    -0.354 N 
ATOM     21  C   UNL A   1      41.818  29.149  32.450  1.00  0.00     0.074 A 
ATOM     22  C   UNL A   1      40.557  28.484  32.670  1.00  0.00     0.031 C 
ATOM     23  C   UNL A   1      41.471  27.805  26.143  1.00  0.00     0.029 A 
ATOM     24  C   UNL A   1      42.591  27.587  27.042  1.00  0.00     0.049 A 
ATOM     25  H   UNL A   1      42.858  28.439  28.931  1.00  0.00     0.167 HD
ATOM     26  C   UNL A   1      42.934  29.183  33.232  1.00  0.00     0.037 A 
ATOM     27  C   UNL A   1      43.685  26.803  26.891  1.00  0.00     0.037 A 
ATOM     28  C   UNL A   1      43.900  30.135  32.758  1.00  0.00     0.049 A 
ATOM     29  C   UNL A   1      44.685  27.229  27.903  1.00  0.00     0.074 A 
ATOM     30  C   UNL A   1      43.904  31.507  32.597  1.00  0.00     0.029 A 
ATOM     31  N   UNL A   1      44.983  29.680  32.049  1.00  0.00    -0.354 N 
ATOM     32  N   UNL A   1      45.290  28.387  27.897  1.00  0.00    -0.248 NA
ATOM     33  C   UNL A   1      44.714  26.523  29.175  1.00  0.00     0.031 C 
ATOM     34  C   UNL A   1      44.671  31.742  31.418  1.00  0.00     0.029 A 
ATOM     35  C   UNL A   1      45.110  30.501  30.954  1.00  0.00     0.049 A 
ATOM     36  H   UNL A   1      45.558  28.916  32.280  1.00  0.00     0.167 HD
ATOM     37  C   UNL A   1      45.418  28.736  29.234  1.00  0.00     0.074 A 
ATOM     38  C   UNL A   1      45.137  27.507  29.972  1.00  0.00     0.031 C 
ATOM     39  C   UNL A   1      45.480  30.041  29.631  1.00  0.00     0.037 A 
BRANCH  26  40
ATOM     40  C   UNL A   1      43.243  28.152  34.288  1.00  0.00     0.058 A 
ATOM     41  C   UNL A   1      43.472  28.535  35.622  1.00  0.00     0.135 A 
ATOM     42  C   UNL A   1      43.563  26.812  33.972  1.00  0.00     0.135 A 
ATOM     43  F   UNL A   1      43.231  29.794  36.024  1.00  0.00    -0.206 F 
ATOM     44  C   UNL A   1      44.014  27.660  36.568  1.00  0.00     0.059 A 
ATOM     45  C   UNL A   1      44.052  25.908  34.908  1.00  0.00     0.059 A 
ATOM     46  F   UNL A   1      43.501  26.349  32.716  1.00  0.00    -0.206 F 
ATOM     47  C   UNL A   1      44.312  26.351  36.195  1.00  0.00     0.060 A 
BRANCH  47  48
ATOM     48  S   UNL A   1      45.109  25.246  37.376  1.00  0.00     0.124 S 
ATOM     49  O   UNL A   1      44.222  25.366  38.528  1.00  0.00    -0.237 OA
ATOM     50  O   UNL A   1      45.075  23.968  36.672  1.00  0.00    -0.237 OA
ATOM     51  O   UNL A   1      46.437  25.830  37.537  1.00  0.00    -0.744 OA
ENDBRANCH  47  48
ENDBRANCH  26  40
BRANCH  27  52
ATOM     52  C   UNL A   1      43.731  25.491  26.198  1.00  0.00     0.058 A 
ATOM     53  C   UNL A   1      44.699  25.220  25.217  1.00  0.00     0.135 A 
ATOM     54  C   UNL A   1      42.990  24.387  26.669  1.00  0.00     0.135 A 
ATOM     55  F   UNL A   1      45.471  26.207  24.739  1.00  0.00    -0.206 F 
ATOM     56  C   UNL A   1      44.940  23.921  24.755  1.00  0.00     0.059 A 
ATOM     57  C   UNL A   1      43.202  23.090  26.212  1.00  0.00     0.059 A 
ATOM     58  F   UNL A   1      42.095  24.521  27.660  1.00  0.00    -0.206 F 
ATOM     59  C   UNL A   1      44.196  22.860  25.271  1.00  0.00     0.060 A 
BRANCH  59  60
ATOM     60  S   UNL A   1      44.614  21.166  24.800  1.00  0.00     0.124 S 
ATOM     61  O   UNL A   1      44.687  21.268  23.347  1.00  0.00    -0.237 OA
ATOM     62  O   UNL A   1      45.882  20.960  25.491  1.00  0.00    -0.237 OA
ATOM     63  O   UNL A   1      43.493  20.384  25.316  1.00  0.00    -0.744 OA
ENDBRANCH  59  60
ENDBRANCH  27  52
BRANCH  39  64
ATOM     64  C   UNL A   1      45.670  31.100  28.573  1.00  0.00     0.058 A 
ATOM     65  C   UNL A   1      44.612  31.685  27.854  1.00  0.00     0.135 A 
ATOM     66  C   UNL A   1      46.945  31.658  28.392  1.00  0.00     0.135 A 
ATOM     67  F   UNL A   1      43.346  31.291  28.051  1.00  0.00    -0.206 F 
ATOM     68  C   UNL A   1      44.817  32.741  26.964  1.00  0.00     0.059 A 
ATOM     69  C   UNL A   1      47.168  32.734  27.533  1.00  0.00     0.059 A 
ATOM     70  F   UNL A   1      47.988  31.193  29.099  1.00  0.00    -0.206 F 
ATOM     71  C   UNL A   1      46.100  33.262  26.812  1.00  0.00     0.060 A 
BRANCH  71  72
ATOM     72  S   UNL A   1      46.343  34.688  25.730  1.00  0.00     0.124 S 
ATOM     73  O   UNL A   1      46.075  35.806  26.628  1.00  0.00    -0.237 OA
ATOM     74  O   UNL A   1      47.732  34.535  25.306  1.00  0.00    -0.237 OA
ATOM     75  O   UNL A   1      45.355  34.486  24.672  1.00  0.00    -0.744 OA
ENDBRANCH  71  72
ENDBRANCH  39  64
ENDBRANCH  13  14
ENDBRANCH   6   8
ENDBRANCH   5   6
ENDBRANCH   4   5
ENDBRANCH   3   4
ENDBRANCH   2   3
ENDBRANCH   1   2
BRANCH   1  76
ATOM     76  C   UNL A   1      31.199  29.154  23.997  1.00  0.00     0.261 C 
BRANCH  76  77
ATOM     77  O   UNL A   1      31.276  27.743  24.268  1.00  0.00    -0.459 OA
BRANCH  77  78
ATOM     78  C   UNL A   1      32.346  27.084  23.727  1.00  0.00     0.348 C 
ATOM     79  O   UNL A   1      32.973  27.455  22.760  1.00  0.00    -0.245 OA
BRANCH  78  80
ATOM     80  C   UNL A   1      32.674  25.958  24.584  1.00  0.00     0.113 A 
ATOM     81  C   UNL A   1      33.868  25.276  24.734  1.00  0.00     0.042 A 
ATOM     82  S   UNL A   1      31.437  25.269  25.547  1.00  0.00    -0.136 S 
ATOM     83  C   UNL A   1      33.754  24.157  25.607  1.00  0.00     0.019 A 
ATOM     84  C   UNL A   1      32.468  24.018  26.084  1.00  0.00     0.080 A 
BRANCH  83  85
ATOM     85  S   UNL A   1      35.031  23.049  26.089  1.00  0.00    -0.123 SA
BRANCH  85  86
ATOM     86  C   UNL A   1      34.695  21.502  25.196  1.00  0.00     0.098 C 
BRANCH  86  87
ATOM     87  C   UNL A   1      33.730  20.570  25.921  1.00  0.00     0.155 C 
BRANCH  87  88
ATOM     88  N   UNL A   1      33.474  19.327  25.229  1.00  0.00    -0.272 N 
ATOM     89  C   UNL A   1      34.358  18.613  24.475  1.00  0.00     0.108 A 
ATOM     90  N   UNL A   1      32.238  18.791  25.260  1.00  0.00    -0.182 NA
ATOM     91  C   UNL A   1      33.651  17.549  23.971  1.00  0.00     0.042 A 
ATOM     92  C   UNL A   1      32.348  17.715  24.473  1.00  0.00     0.135 A 
ENDBRANCH  87  88
ENDBRANCH  86  87
ENDBRANCH  85  86
ENDBRANCH  83  85
ENDBRANCH  78  80
ENDBRANCH  77  78
ENDBRANCH  76  77
ENDBRANCH   1  76
TORSDOF 21
ENDMDL
MODEL 2
REMARK VINA RESULT:      -9.7      2.250      3.091
REMARK SMILES O=C(OCCOCCOC(=O)c1cc(SCCn2cccn2)cs1)c1ccc(-c2c3nc(c(-c4c(F)cc(S(=O)(=O)[O-])cc4F)c4ccc([nH]4)c(-c4c(F)cc(S(=O)(=O)[O-])cc4F)c4nc(c(-c5c(F)cc(S(=O)(=O)[O-])cc5F)c5ccc2[nH]5)C=C4)C=C3)cc1
REMARK SMILES IDX 7 1 6 2 5 3 4 4 3 5 2 6 1 7 25 8 26 9 90 10 27 11 89 12
REMARK SMILES IDX 28 13 29 14 30 15 83 16 31 17 88 18 82 19 84 20 32 21 87 22
REMARK SMILES IDX 81 23 80 24 33 26 67 27 46 28 66 29 47 30 50 31 65 32 85 33
REMARK SMILES IDX 48 34 49 35 64 37 86 38 51 39 34 40 35 41 44 42 36 43 37 44
REMARK SMILES IDX 43 45 45 46 38 47 39 48 40 49 41 50 42 51 68 52 69 53 78 54
REMARK SMILES IDX 70 55 71 56 77 57 79 58 72 59 73 60 74 61 75 62 76 63 52 64
REMARK SMILES IDX 53 65 62 66 54 67 55 68 61 69 63 70 56 71 57 72 58 73 59 74
REMARK SMILES IDX 60 75 8 76 9 77 10 78 11 79 12 80 13 81 24 82 14 83 23 84
REMARK SMILES IDX 15 85 16 86 17 87 18 88 19 89 22 90 20 91 21 92
REMARK H PARENT 84 25 50 36
REMARK Flexibility Score: inf
ROOT
ATOM      1  C   UNL A   1      35.136  31.075  27.708  1.00  0.00     0.202 C 
ENDROOT
BRANCH   1   2
ATOM      2  O   UNL A   1      34.075  31.727  28.417  1.00  0.00    -0.374 OA
BRANCH   2   3
ATOM      3  C   UNL A   1      33.798  33.063  27.997  1.00  0.00     0.202 C 
BRANCH   3   4
ATOM      4  C   UNL A   1      34.935  34.053  28.253  1.00  0.00     0.261 C 
BRANCH   4   5
ATOM      5  O   UNL A   1      34.825  34.772  29.499  1.00  0.00    -0.460 OA
BRANCH   5   6
ATOM      6  C   UNL A   1      34.913  34.173  30.710  1.00  0.00     0.338 C 
ATOM      7  O   UNL A   1      33.930  34.071  31.439  1.00  0.00    -0.246 OA
BRANCH   6   8
ATOM      8  C   UNL A   1      36.122  33.359  30.975  1.00  0.00     0.060 A 
ATOM      9  C   UNL A   1      37.426  33.843  30.895  1.00  0.00     0.016 A 
ATOM     10  C   UNL A   1      35.909  32.005  31.278  1.00  0.00     0.016 A 
ATOM     11  C   UNL A   1      38.492  32.962  30.897  1.00  0.00     0.010 A 
ATOM     12  C   UNL A   1      36.982  31.128  31.352  1.00  0.00     0.010 A 
ATOM     13  C   UNL A   1      38.263  31.597  31.071  1.00  0.00    -0.014 A 
BRANCH  13  14
ATOM     14  C   UNL A   1      39.421  30.719  30.958  1.00  0.00     0.031 A 
ATOM     15  C   UNL A   1      40.222  30.521  32.201  1.00  0.00     0.074 A 
ATOM     16  C   UNL A   1      39.733  30.072  29.819  1.00  0.00     0.049 A 
ATOM     17  N   UNL A   1      41.469  30.790  32.418  1.00  0.00    -0.248 NA
ATOM     18  C   UNL A   1      39.496  30.037  33.386  1.00  0.00     0.031 C 
ATOM     19  C   UNL A   1      38.933  29.931  28.599  1.00  0.00     0.029 A 
ATOM     20  N   UNL A   1      40.828  29.308  29.562  1.00  0.00    -0.354 N 
ATOM     21  C   UNL A   1      41.738  30.353  33.714  1.00  0.00     0.074 A 
ATOM     22  C   UNL A   1      40.466  30.004  34.299  1.00  0.00     0.031 C 
ATOM     23  C   UNL A   1      39.461  28.950  27.836  1.00  0.00     0.029 A 
ATOM     24  C   UNL A   1      40.704  28.505  28.441  1.00  0.00     0.049 A 
ATOM     25  H   UNL A   1      41.637  29.325  30.122  1.00  0.00     0.167 HD
ATOM     26  C   UNL A   1      43.000  30.150  34.186  1.00  0.00     0.037 A 
ATOM     27  C   UNL A   1      41.524  27.485  28.091  1.00  0.00     0.037 A 
ATOM     28  C   UNL A   1      43.989  30.840  33.405  1.00  0.00     0.049 A 
ATOM     29  C   UNL A   1      42.823  27.697  28.780  1.00  0.00     0.074 A 
ATOM     30  C   UNL A   1      44.246  32.169  33.129  1.00  0.00     0.029 A 
ATOM     31  N   UNL A   1      44.723  30.128  32.489  1.00  0.00    -0.354 N 
ATOM     32  N   UNL A   1      43.639  28.684  28.522  1.00  0.00    -0.248 NA
ATOM     33  C   UNL A   1      43.032  27.040  30.060  1.00  0.00     0.031 C 
ATOM     34  C   UNL A   1      44.708  32.187  31.780  1.00  0.00     0.029 A 
ATOM     35  C   UNL A   1      44.731  30.866  31.331  1.00  0.00     0.049 A 
ATOM     36  H   UNL A   1      45.160  29.258  32.635  1.00  0.00     0.167 HD
ATOM     37  C   UNL A   1      44.187  29.030  29.749  1.00  0.00     0.074 A 
ATOM     38  C   UNL A   1      43.853  27.921  30.638  1.00  0.00     0.031 C 
ATOM     39  C   UNL A   1      44.631  30.297  30.003  1.00  0.00     0.037 A 
BRANCH  26  40
ATOM     40  C   UNL A   1      43.346  29.106  35.217  1.00  0.00     0.058 A 
ATOM     41  C   UNL A   1      43.973  29.466  36.424  1.00  0.00     0.135 A 
ATOM     42  C   UNL A   1      43.299  27.721  34.941  1.00  0.00     0.135 A 
ATOM     43  F   UNL A   1      44.100  30.758  36.771  1.00  0.00    -0.206 F 
ATOM     44  C   UNL A   1      44.544  28.520  37.281  1.00  0.00     0.059 A 
ATOM     45  C   UNL A   1      43.812  26.758  35.803  1.00  0.00     0.059 A 
ATOM     46  F   UNL A   1      42.835  27.248  33.777  1.00  0.00    -0.206 F 
ATOM     47  C   UNL A   1      44.468  27.168  36.953  1.00  0.00     0.060 A 
BRANCH  47  48
ATOM     48  S   UNL A   1      45.293  25.950  37.995  1.00  0.00     0.124 S 
ATOM     49  O   UNL A   1      45.292  24.779  37.126  1.00  0.00    -0.237 OA
ATOM     50  O   UNL A   1      46.592  26.574  38.227  1.00  0.00    -0.237 OA
ATOM     51  O   UNL A   1      44.426  25.870  39.166  1.00  0.00    -0.744 OA
ENDBRANCH  47  48
ENDBRANCH  26  40
BRANCH  27  52
ATOM     52  C   UNL A   1      41.103  26.180  27.525  1.00  0.00     0.058 A 
ATOM     53  C   UNL A   1      41.855  25.542  26.526  1.00  0.00     0.135 A 
ATOM     54  C   UNL A   1      40.092  25.408  28.137  1.00  0.00     0.135 A 
ATOM     55  F   UNL A   1      42.858  26.193  25.917  1.00  0.00    -0.206 F 
ATOM     56  C   UNL A   1      41.641  24.203  26.178  1.00  0.00     0.059 A 
ATOM     57  C   UNL A   1      39.851  24.081  27.796  1.00  0.00     0.059 A 
ATOM     58  F   UNL A   1      39.366  25.893  29.155  1.00  0.00    -0.206 F 
ATOM     59  C   UNL A   1      40.645  23.476  26.831  1.00  0.00     0.060 A 
BRANCH  59  60
ATOM     60  S   UNL A   1      40.473  21.708  26.503  1.00  0.00     0.124 S 
ATOM     61  O   UNL A   1      41.607  21.454  25.622  1.00  0.00    -0.237 OA
ATOM     62  O   UNL A   1      40.564  21.137  27.843  1.00  0.00    -0.237 OA
ATOM     63  O   UNL A   1      39.158  21.605  25.875  1.00  0.00    -0.744 OA
ENDBRANCH  59  60
ENDBRANCH  27  52
BRANCH  39  64
ATOM     64  C   UNL A   1      44.761  31.254  28.843  1.00  0.00     0.058 A 
ATOM     65  C   UNL A   1      43.779  32.202  28.500  1.00  0.00     0.135 A 
ATOM     66  C   UNL A   1      45.981  31.325  28.154  1.00  0.00     0.135 A 
ATOM     67  F   UNL A   1      42.629  32.279  29.183  1.00  0.00    -0.206 F 
ATOM     68  C   UNL A   1      43.983  33.145  27.490  1.00  0.00     0.059 A 
ATOM     69  C   UNL A   1      46.218  32.279  27.164  1.00  0.00     0.059 A 
ATOM     70  F   UNL A   1      46.985  30.495  28.478  1.00  0.00    -0.206 F 
ATOM     71  C   UNL A   1      45.208  33.178  26.829  1.00  0.00     0.060 A 
BRANCH  71  72
ATOM     72  S   UNL A   1      45.499  34.460  25.589  1.00  0.00     0.124 S 
ATOM     73  O   UNL A   1      45.021  35.659  26.267  1.00  0.00    -0.237 OA
ATOM     74  O   UNL A   1      46.943  34.382  25.382  1.00  0.00    -0.237 OA
ATOM     75  O   UNL A   1      44.695  34.022  24.451  1.00  0.00    -0.744 OA
ENDBRANCH  71  72
ENDBRANCH  39  64
ENDBRANCH  13  14
ENDBRANCH   6   8
ENDBRANCH   5   6
ENDBRANCH   4   5
ENDBRANCH   3   4
ENDBRANCH   2   3
ENDBRANCH   1   2
BRANCH   1  76
ATOM     76  C   UNL A   1      35.191  29.551  27.850  1.00  0.00     0.261 C 
BRANCH  76  77
ATOM     77  O   UNL A   1      34.880  28.904  26.603  1.00  0.00    -0.459 OA
BRANCH  77  78
ATOM     78  C   UNL A   1      33.730  28.163  26.580  1.00  0.00     0.348 C 
ATOM     79  O   UNL A   1      32.922  28.107  27.479  1.00  0.00    -0.245 OA
BRANCH  78  80
ATOM     80  C   UNL A   1      33.588  27.576  25.258  1.00  0.00     0.113 A 
ATOM     81  C   UNL A   1      33.604  26.249  24.872  1.00  0.00     0.042 A 
ATOM     82  S   UNL A   1      33.431  28.617  23.908  1.00  0.00    -0.136 S 
ATOM     83  C   UNL A   1      33.533  26.089  23.459  1.00  0.00     0.019 A 
ATOM     84  C   UNL A   1      33.478  27.306  22.815  1.00  0.00     0.080 A 
BRANCH  83  85
ATOM     85  S   UNL A   1      33.496  24.579  22.559  1.00  0.00    -0.123 SA
BRANCH  85  86
ATOM     86  C   UNL A   1      31.946  23.762  23.045  1.00  0.00     0.098 C 
BRANCH  86  87
ATOM     87  C   UNL A   1      32.086  22.845  24.255  1.00  0.00     0.155 C 
BRANCH  87  88
ATOM     88  N   UNL A   1      31.135  23.107  25.311  1.00  0.00    -0.272 N 
ATOM     89  C   UNL A   1      30.699  24.328  25.735  1.00  0.00     0.108 A 
ATOM     90  N   UNL A   1      30.622  22.079  26.014  1.00  0.00    -0.182 NA
ATOM     91  C   UNL A   1      29.858  24.081  26.793  1.00  0.00     0.042 A 
ATOM     92  C   UNL A   1      29.858  22.682  26.931  1.00  0.00     0.135 A 
ENDBRANCH  87  88
ENDBRANCH  86  87
ENDBRANCH  85  86
ENDBRANCH  83  85
ENDBRANCH  78  80
ENDBRANCH  77  78
ENDBRANCH  76  77
ENDBRANCH   1  76
TORSDOF 21
ENDMDL
MODEL 3
REMARK VINA RESULT:      -9.4      4.326     11.391
REMARK SMILES O=C(OCCOCCOC(=O)c1cc(SCCn2cccn2)cs1)c1ccc(-c2c3nc(c(-c4c(F)cc(S(=O)(=O)[O-])cc4F)c4ccc([nH]4)c(-c4c(F)cc(S(=O)(=O)[O-])cc4F)c4nc(c(-c5c(F)cc(S(=O)(=O)[O-])cc5F)c5ccc2[nH]5)C=C4)C=C3)cc1
REMARK SMILES IDX 7 1 6 2 5 3 4 4 3 5 2 6 1 7 25 8 26 9 90 10 27 11 89 12
REMARK SMILES IDX 28 13 29 14 30 15 83 16 31 17 88 18 82 19 84 20 32 21 87 22
REMARK SMILES IDX 81 23 80 24 33 26 67 27 46 28 66 29 47 30 50 31 65 32 85 33
REMARK SMILES IDX 48 34 49 35 64 37 86 38 51 39 34 40 35 41 44 42 36 43 37 44
REMARK SMILES IDX 43 45 45 46 38 47 39 48 40 49 41 50 42 51 68 52 69 53 78 54
REMARK SMILES IDX 70 55 71 56 77 57 79 58 72 59 73 60 74 61 75 62 76 63 52 64
REMARK SMILES IDX 53 65 62 66 54 67 55 68 61 69 63 70 56 71 57 72 58 73 59 74
REMARK SMILES IDX 60 75 8 76 9 77 10 78 11 79 12 80 13 81 24 82 14 83 23 84
REMARK SMILES IDX 15 85 16 86 17 87 18 88 19 89 22 90 20 91 21 92
REMARK H PARENT 84 25 50 36
REMARK Flexibility Score: inf
ROOT
ATOM      1  C   UNL A   1      43.287  19.219  25.724  1.00  0.00     0.202 C 
ENDROOT
BRANCH   1   2
ATOM      2  O   UNL A   1      41.913  18.810  25.737  1.00  0.00    -0.374 OA
BRANCH   2   3
ATOM      3  C   UNL A   1      41.064  19.569  26.596  1.00  0.00     0.202 C 
BRANCH   3   4
ATOM      4  C   UNL A   1      39.960  20.341  25.872  1.00  0.00     0.261 C 
BRANCH   4   5
ATOM      5  O   UNL A   1      40.139  21.773  25.875  1.00  0.00    -0.460 OA
BRANCH   5   6
ATOM      6  C   UNL A   1      39.136  22.643  26.140  1.00  0.00     0.338 C 
ATOM      7  O   UNL A   1      37.971  22.372  25.862  1.00  0.00    -0.246 OA
BRANCH   6   8
ATOM      8  C   UNL A   1      39.437  23.759  27.067  1.00  0.00     0.060 A 
ATOM      9  C   UNL A   1      38.594  24.847  27.284  1.00  0.00     0.016 A 
ATOM     10  C   UNL A   1      40.680  23.713  27.717  1.00  0.00     0.016 A 
ATOM     11  C   UNL A   1      39.064  25.963  27.953  1.00  0.00     0.010 A 
ATOM     12  C   UNL A   1      41.128  24.803  28.450  1.00  0.00     0.010 A 
ATOM     13  C   UNL A   1      40.352  25.959  28.489  1.00  0.00    -0.014 A 
BRANCH  13  14
ATOM     14  C   UNL A   1      40.816  27.204  29.088  1.00  0.00     0.031 A 
ATOM     15  C   UNL A   1      42.060  27.791  28.509  1.00  0.00     0.074 A 
ATOM     16  C   UNL A   1      40.144  27.831  30.072  1.00  0.00     0.049 A 
ATOM     17  N   UNL A   1      43.189  28.042  29.090  1.00  0.00    -0.248 NA
ATOM     18  C   UNL A   1      42.059  28.048  27.060  1.00  0.00     0.031 C 
ATOM     19  C   UNL A   1      38.795  27.558  30.575  1.00  0.00     0.029 A 
ATOM     20  N   UNL A   1      40.518  28.935  30.771  1.00  0.00    -0.354 N 
ATOM     21  C   UNL A   1      43.993  28.648  28.125  1.00  0.00     0.074 A 
ATOM     22  C   UNL A   1      43.289  28.524  26.871  1.00  0.00     0.031 C 
ATOM     23  C   UNL A   1      38.382  28.604  31.322  1.00  0.00     0.029 A 
ATOM     24  C   UNL A   1      39.484  29.539  31.466  1.00  0.00     0.049 A 
ATOM     25  H   UNL A   1      41.441  29.275  30.783  1.00  0.00     0.167 HD
ATOM     26  C   UNL A   1      45.116  29.357  28.428  1.00  0.00     0.037 A 
ATOM     27  C   UNL A   1      39.512  30.766  32.040  1.00  0.00     0.037 A 
ATOM     28  C   UNL A   1      45.620  29.043  29.736  1.00  0.00     0.049 A 
ATOM     29  C   UNL A   1      40.937  31.125  32.260  1.00  0.00     0.074 A 
ATOM     30  C   UNL A   1      46.115  27.899  30.331  1.00  0.00     0.029 A 
ATOM     31  N   UNL A   1      45.362  29.910  30.769  1.00  0.00    -0.354 N 
ATOM     32  N   UNL A   1      41.728  30.513  33.100  1.00  0.00    -0.248 NA
ATOM     33  C   UNL A   1      41.609  31.909  31.237  1.00  0.00     0.031 C 
ATOM     34  C   UNL A   1      45.662  27.955  31.683  1.00  0.00     0.029 A 
ATOM     35  C   UNL A   1      44.948  29.144  31.832  1.00  0.00     0.049 A 
ATOM     36  H   UNL A   1      45.457  30.889  30.752  1.00  0.00     0.167 HD
ATOM     37  C   UNL A   1      42.971  30.500  32.483  1.00  0.00     0.074 A 
ATOM     38  C   UNL A   1      42.857  31.460  31.389  1.00  0.00     0.031 C 
ATOM     39  C   UNL A   1      43.892  29.526  32.748  1.00  0.00     0.037 A 
BRANCH  26  40
ATOM     40  C   UNL A   1      45.604  30.530  27.618  1.00  0.00     0.058 A 
ATOM     41  C   UNL A   1      46.949  30.616  27.212  1.00  0.00     0.135 A 
ATOM     42  C   UNL A   1      44.835  31.702  27.436  1.00  0.00     0.135 A 
ATOM     43  F   UNL A   1      47.778  29.571  27.368  1.00  0.00    -0.206 F 
ATOM     44  C   UNL A   1      47.500  31.792  26.696  1.00  0.00     0.059 A 
ATOM     45  C   UNL A   1      45.346  32.866  26.874  1.00  0.00     0.059 A 
ATOM     46  F   UNL A   1      43.574  31.794  27.882  1.00  0.00    -0.206 F 
ATOM     47  C   UNL A   1      46.691  32.916  26.543  1.00  0.00     0.060 A 
BRANCH  47  48
ATOM     48  S   UNL A   1      47.415  34.467  25.979  1.00  0.00     0.124 S 
ATOM     49  O   UNL A   1      46.614  34.747  24.793  1.00  0.00    -0.237 OA
ATOM     50  O   UNL A   1      47.192  35.344  27.124  1.00  0.00    -0.237 OA
ATOM     51  O   UNL A   1      48.810  34.115  25.732  1.00  0.00    -0.744 OA
ENDBRANCH  47  48
ENDBRANCH  26  40
BRANCH  27  52
ATOM     52  C   UNL A   1      38.410  31.760  32.034  1.00  0.00     0.058 A 
ATOM     53  C   UNL A   1      37.943  32.322  30.835  1.00  0.00     0.135 A 
ATOM     54  C   UNL A   1      37.618  31.984  33.180  1.00  0.00     0.135 A 
ATOM     55  F   UNL A   1      38.617  32.129  29.692  1.00  0.00    -0.206 F 
ATOM     56  C   UNL A   1      36.742  33.037  30.771  1.00  0.00     0.059 A 
ATOM     57  C   UNL A   1      36.429  32.704  33.143  1.00  0.00     0.059 A 
ATOM     58  F   UNL A   1      37.931  31.427  34.361  1.00  0.00    -0.206 F 
ATOM     59  C   UNL A   1      35.984  33.209  31.929  1.00  0.00     0.060 A 
BRANCH  59  60
ATOM     60  S   UNL A   1      34.356  33.987  31.822  1.00  0.00     0.124 S 
ATOM     61  O   UNL A   1      34.052  33.852  30.402  1.00  0.00    -0.237 OA
ATOM     62  O   UNL A   1      33.562  33.164  32.727  1.00  0.00    -0.237 OA
ATOM     63  O   UNL A   1      34.601  35.352  32.281  1.00  0.00    -0.744 OA
ENDBRANCH  59  60
ENDBRANCH  27  52
BRANCH  39  64
ATOM     64  C   UNL A   1      43.642  28.606  33.917  1.00  0.00     0.058 A 
ATOM     65  C   UNL A   1      43.976  28.925  35.246  1.00  0.00     0.135 A 
ATOM     66  C   UNL A   1      42.897  27.435  33.713  1.00  0.00     0.135 A 
ATOM     67  F   UNL A   1      44.586  30.080  35.544  1.00  0.00    -0.206 F 
ATOM     68  C   UNL A   1      43.628  28.096  36.315  1.00  0.00     0.059 A 
ATOM     69  C   UNL A   1      42.510  26.609  34.768  1.00  0.00     0.059 A 
ATOM     70  F   UNL A   1      42.486  27.107  32.477  1.00  0.00    -0.206 F 
ATOM     71  C   UNL A   1      42.891  26.940  36.067  1.00  0.00     0.060 A 
BRANCH  71  72
ATOM     72  S   UNL A   1      42.363  25.922  37.463  1.00  0.00     0.124 S 
ATOM     73  O   UNL A   1      43.125  26.494  38.568  1.00  0.00    -0.237 OA
ATOM     74  O   UNL A   1      40.922  26.154  37.500  1.00  0.00    -0.237 OA
ATOM     75  O   UNL A   1      42.755  24.572  37.067  1.00  0.00    -0.744 OA
ENDBRANCH  71  72
ENDBRANCH  39  64
ENDBRANCH  13  14
ENDBRANCH   6   8
ENDBRANCH   5   6
ENDBRANCH   4   5
ENDBRANCH   3   4
ENDBRANCH   2   3
ENDBRANCH   1   2
BRANCH   1  76
ATOM     76  C   UNL A   1      43.576  20.593  26.336  1.00  0.00     0.261 C 
BRANCH  76  77
ATOM     77  O   UNL A   1      43.584  21.616  25.324  1.00  0.00    -0.459 OA
BRANCH  77  78
ATOM     78  C   UNL A   1      44.816  22.049  24.914  1.00  0.00     0.348 C 
ATOM     79  O   UNL A   1      45.372  21.695  23.899  1.00  0.00    -0.245 OA
BRANCH  78  80
ATOM     80  C   UNL A   1      45.265  23.088  25.824  1.00  0.00     0.113 A 
ATOM     81  C   UNL A   1      46.284  24.012  25.681  1.00  0.00     0.042 A 
ATOM     82  S   UNL A   1      44.512  23.223  27.356  1.00  0.00    -0.136 S 
ATOM     83  C   UNL A   1      46.476  24.801  26.850  1.00  0.00     0.019 A 
ATOM     84  C   UNL A   1      45.600  24.441  27.852  1.00  0.00     0.080 A 
BRANCH  83  85
ATOM     85  S   UNL A   1      47.637  26.101  27.077  1.00  0.00    -0.123 SA
BRANCH  85  86
ATOM     86  C   UNL A   1      48.385  26.376  25.443  1.00  0.00     0.098 C 
BRANCH  86  87
ATOM     87  C   UNL A   1      47.745  27.516  24.657  1.00  0.00     0.155 C 
BRANCH  87  88
ATOM     88  N   UNL A   1      48.154  27.585  23.273  1.00  0.00    -0.272 N 
ATOM     89  C   UNL A   1      49.315  27.108  22.738  1.00  0.00     0.108 A 
ATOM     90  N   UNL A   1      47.367  28.213  22.377  1.00  0.00    -0.182 NA
ATOM     91  C   UNL A   1      49.290  27.459  21.411  1.00  0.00     0.042 A 
ATOM     92  C   UNL A   1      48.076  28.150  21.245  1.00  0.00     0.135 A 
ENDBRANCH  87  88
ENDBRANCH  86  87
ENDBRANCH  85  86
ENDBRANCH  83  85
ENDBRANCH  78  80
ENDBRANCH  77  78
ENDBRANCH  76  77
ENDBRANCH   1  76
TORSDOF 21
ENDMDL
