MODEL 1
REMARK VINA RESULT:     -11.3      0.000      0.000
REMARK SMILES Cc1ccc(F)c(C(=O)N[C@@H]2C=C[C@@H](C(=O)OCCOCCOC(=O)c3ccc(-c4c5nc(c(-c6c(F)cc(S(=O)(=O)[O-])cc6F)c6ccc([nH]6)c(-c6c(F)cc(S(=O)(=O)[O-])cc6F)c6nc(c(-c7c(F)cc(S(=O)(=O)[O-])cc7F)c7ccc4[nH]7)C=C6)C=C5)cc3)C2)c1
REMARK SMILES IDX 21 1 20 2 19 3 18 4 17 5 15 6 16 7 14 8 11 9 12 10 92 11
REMARK SMILES IDX 13 12 10 13 8 14 9 15 7 17 1 18 2 19 3 20 93 21 4 22 5 23
REMARK SMILES IDX 6 24 22 25 23 26 24 27 25 28 26 29 27 30 91 31 28 32 90 33
REMARK SMILES IDX 29 34 30 35 31 36 84 37 32 38 89 39 83 40 85 41 33 42 88 43
REMARK SMILES IDX 82 44 81 45 34 47 68 48 47 49 67 50 48 51 51 52 66 53 86 54
REMARK SMILES IDX 49 55 50 56 65 58 87 59 52 60 35 61 36 62 45 63 37 64 38 65
REMARK SMILES IDX 44 66 46 67 39 68 40 69 41 70 42 71 43 72 69 73 70 74 79 75
REMARK SMILES IDX 71 76 72 77 78 78 80 79 73 80 74 81 75 82 76 83 77 84 53 85
REMARK SMILES IDX 54 86 63 87 55 88 56 89 62 90 64 91 57 92 58 93 59 94 60 95
REMARK SMILES IDX 61 96
REMARK H PARENT 10 16 85 46 51 57
REMARK Flexibility Score: inf
ROOT
ATOM      1  C   UNL A   1      35.152  32.610  28.106  1.00  0.00     0.202 C 
ENDROOT
BRANCH   1   2
ATOM      2  O   UNL A   1      33.934  31.867  28.015  1.00  0.00    -0.374 OA
BRANCH   2   3
ATOM      3  C   UNL A   1      34.016  30.529  27.521  1.00  0.00     0.202 C 
BRANCH   3   4
ATOM      4  C   UNL A   1      33.062  30.187  26.371  1.00  0.00     0.261 C 
BRANCH   4   5
ATOM      5  O   UNL A   1      31.793  29.713  26.854  1.00  0.00    -0.463 OA
BRANCH   5   6
ATOM      6  C   UNL A   1      31.678  28.365  26.983  1.00  0.00     0.312 C 
ATOM      7  O   UNL A   1      31.353  27.793  28.020  1.00  0.00    -0.252 OA
BRANCH   6   8
ATOM      8  C   UNL A   1      31.943  27.604  25.684  1.00  0.00     0.124 C 
ATOM      9  C   UNL A   1      32.367  25.274  24.966  1.00  0.00     0.106 C 
ATOM     10  C   UNL A   1      30.918  25.634  24.906  1.00  0.00    -0.006 C 
ATOM     11  C   UNL A   1      32.989  26.476  25.695  1.00  0.00     0.048 C 
ATOM     12  C   UNL A   1      30.688  26.900  25.266  1.00  0.00    -0.014 C 
BRANCH   9  13
ATOM     13  N   UNL A   1      32.799  25.059  23.597  1.00  0.00    -0.346 N 
ATOM     14  C   UNL A   1      33.324  23.979  22.936  1.00  0.00     0.254 C 
ATOM     15  O   UNL A   1      33.442  24.050  21.714  1.00  0.00    -0.269 OA
ATOM     16  H   UNL A   1      32.692  25.854  23.025  1.00  0.00     0.164 HD
BRANCH  14  17
ATOM     17  C   UNL A   1      33.785  22.765  23.638  1.00  0.00     0.075 A 
ATOM     18  C   UNL A   1      32.687  19.223  24.468  1.00  0.00     0.044 C 
ATOM     19  C   UNL A   1      33.510  20.472  24.396  1.00  0.00    -0.050 A 
ATOM     20  C   UNL A   1      34.762  20.526  25.019  1.00  0.00     0.006 A 
ATOM     21  C   UNL A   1      33.045  21.580  23.669  1.00  0.00     0.020 A 
ATOM     22  C   UNL A   1      35.526  21.687  24.947  1.00  0.00     0.040 A 
ATOM     23  C   UNL A   1      35.033  22.800  24.267  1.00  0.00     0.135 A 
ATOM     24  F   UNL A   1      35.785  23.909  24.261  1.00  0.00    -0.206 F 
ENDBRANCH  14  17
ENDBRANCH   9  13
ENDBRANCH   6   8
ENDBRANCH   5   6
ENDBRANCH   4   5
ENDBRANCH   3   4
ENDBRANCH   2   3
ENDBRANCH   1   2
BRANCH   1  25
ATOM     25  C   UNL A   1      35.453  33.241  29.470  1.00  0.00     0.261 C 
BRANCH  25  26
ATOM     26  O   UNL A   1      36.744  32.853  29.981  1.00  0.00    -0.460 OA
BRANCH  26  27
ATOM     27  C   UNL A   1      36.742  31.650  30.610  1.00  0.00     0.338 C 
ATOM     28  O   UNL A   1      35.885  31.219  31.361  1.00  0.00    -0.246 OA
BRANCH  27  29
ATOM     29  C   UNL A   1      37.916  30.852  30.217  1.00  0.00     0.060 A 
ATOM     30  C   UNL A   1      38.883  30.550  31.180  1.00  0.00     0.016 A 
ATOM     31  C   UNL A   1      38.145  30.560  28.871  1.00  0.00     0.016 A 
ATOM     32  C   UNL A   1      40.102  29.986  30.786  1.00  0.00     0.010 A 
ATOM     33  C   UNL A   1      39.357  29.984  28.482  1.00  0.00     0.010 A 
ATOM     34  C   UNL A   1      40.358  29.729  29.431  1.00  0.00    -0.014 A 
BRANCH  34  35
ATOM     35  C   UNL A   1      41.702  29.281  28.985  1.00  0.00     0.031 A 
ATOM     36  C   UNL A   1      42.827  30.277  28.881  1.00  0.00     0.074 A 
ATOM     37  C   UNL A   1      41.908  27.997  28.644  1.00  0.00     0.049 A 
ATOM     38  N   UNL A   1      44.064  30.089  28.497  1.00  0.00    -0.248 NA
ATOM     39  C   UNL A   1      42.517  31.670  29.248  1.00  0.00     0.031 C 
ATOM     40  C   UNL A   1      40.895  26.942  28.672  1.00  0.00     0.029 A 
ATOM     41  N   UNL A   1      43.039  27.365  28.192  1.00  0.00    -0.354 N 
ATOM     42  C   UNL A   1      44.678  31.335  28.566  1.00  0.00     0.074 A 
ATOM     43  C   UNL A   1      43.671  32.278  29.003  1.00  0.00     0.031 C 
ATOM     44  C   UNL A   1      41.447  25.796  28.242  1.00  0.00     0.029 A 
ATOM     45  C   UNL A   1      42.847  26.037  27.897  1.00  0.00     0.049 A 
ATOM     46  H   UNL A   1      43.906  27.820  28.087  1.00  0.00     0.167 HD
ATOM     47  C   UNL A   1      45.967  31.661  28.303  1.00  0.00     0.037 A 
ATOM     48  C   UNL A   1      43.699  25.121  27.395  1.00  0.00     0.037 A 
ATOM     49  C   UNL A   1      46.976  30.721  27.890  1.00  0.00     0.049 A 
ATOM     50  C   UNL A   1      45.125  25.506  27.114  1.00  0.00     0.074 A 
ATOM     51  C   UNL A   1      48.325  30.947  27.674  1.00  0.00     0.029 A 
ATOM     52  N   UNL A   1      46.748  29.380  27.623  1.00  0.00    -0.354 N 
ATOM     53  N   UNL A   1      45.709  26.673  27.262  1.00  0.00    -0.248 NA
ATOM     54  C   UNL A   1      46.013  24.450  26.607  1.00  0.00     0.031 C 
ATOM     55  C   UNL A   1      48.906  29.748  27.242  1.00  0.00     0.029 A 
ATOM     56  C   UNL A   1      47.924  28.771  27.222  1.00  0.00     0.049 A 
ATOM     57  H   UNL A   1      45.877  28.929  27.706  1.00  0.00     0.167 HD
ATOM     58  C   UNL A   1      47.034  26.484  26.886  1.00  0.00     0.074 A 
ATOM     59  C   UNL A   1      47.170  25.091  26.512  1.00  0.00     0.031 C 
ATOM     60  C   UNL A   1      48.048  27.383  26.855  1.00  0.00     0.037 A 
BRANCH  47  61
ATOM     61  C   UNL A   1      46.367  33.100  28.456  1.00  0.00     0.058 A 
ATOM     62  C   UNL A   1      46.861  33.599  29.672  1.00  0.00     0.135 A 
ATOM     63  C   UNL A   1      46.306  33.977  27.361  1.00  0.00     0.135 A 
ATOM     64  F   UNL A   1      46.926  32.804  30.752  1.00  0.00    -0.206 F 
ATOM     65  C   UNL A   1      47.264  34.924  29.802  1.00  0.00     0.059 A 
ATOM     66  C   UNL A   1      46.722  35.302  27.464  1.00  0.00     0.059 A 
ATOM     67  F   UNL A   1      45.840  33.549  26.178  1.00  0.00    -0.206 F 
ATOM     68  C   UNL A   1      47.189  35.768  28.693  1.00  0.00     0.060 A 
BRANCH  68  69
ATOM     69  S   UNL A   1      47.726  37.483  28.872  1.00  0.00     0.124 S 
ATOM     70  O   UNL A   1      47.930  37.573  30.315  1.00  0.00    -0.237 OA
ATOM     71  O   UNL A   1      48.937  37.521  28.058  1.00  0.00    -0.237 OA
ATOM     72  O   UNL A   1      46.599  38.248  28.347  1.00  0.00    -0.744 OA
ENDBRANCH  68  69
ENDBRANCH  47  61
BRANCH  48  73
ATOM     73  C   UNL A   1      43.224  23.740  27.131  1.00  0.00     0.058 A 
ATOM     74  C   UNL A   1      42.858  23.336  25.839  1.00  0.00     0.135 A 
ATOM     75  C   UNL A   1      43.134  22.797  28.166  1.00  0.00     0.135 A 
ATOM     76  F   UNL A   1      42.923  24.208  24.821  1.00  0.00    -0.206 F 
ATOM     77  C   UNL A   1      42.405  22.047  25.583  1.00  0.00     0.059 A 
ATOM     78  C   UNL A   1      42.702  21.497  27.931  1.00  0.00     0.059 A 
ATOM     79  F   UNL A   1      43.487  23.136  29.416  1.00  0.00    -0.206 F 
ATOM     80  C   UNL A   1      42.330  21.134  26.636  1.00  0.00     0.060 A 
BRANCH  80  81
ATOM     81  S   UNL A   1      41.793  19.445  26.291  1.00  0.00     0.124 S 
ATOM     82  O   UNL A   1      42.160  18.763  27.527  1.00  0.00    -0.237 OA
ATOM     83  O   UNL A   1      40.362  19.616  26.057  1.00  0.00    -0.237 OA
ATOM     84  O   UNL A   1      42.572  19.084  25.111  1.00  0.00    -0.744 OA
ENDBRANCH  80  81
ENDBRANCH  48  73
BRANCH  60  85
ATOM     85  C   UNL A   1      49.398  26.888  26.425  1.00  0.00     0.058 A 
ATOM     86  C   UNL A   1      50.265  26.248  27.323  1.00  0.00     0.135 A 
ATOM     87  C   UNL A   1      49.811  27.014  25.088  1.00  0.00     0.135 A 
ATOM     88  F   UNL A   1      49.918  26.109  28.613  1.00  0.00    -0.206 F 
ATOM     89  C   UNL A   1      51.505  25.767  26.916  1.00  0.00     0.059 A 
ATOM     90  C   UNL A   1      51.038  26.523  24.656  1.00  0.00     0.059 A 
ATOM     91  F   UNL A   1      49.013  27.610  24.188  1.00  0.00    -0.206 F 
ATOM     92  C   UNL A   1      51.884  25.911  25.581  1.00  0.00     0.060 A 
BRANCH  92  93
ATOM     93  S   UNL A   1      53.482  25.255  25.052  1.00  0.00     0.124 S 
ATOM     94  O   UNL A   1      53.319  23.832  25.326  1.00  0.00    -0.237 OA
ATOM     95  O   UNL A   1      53.529  25.629  23.643  1.00  0.00    -0.237 OA
ATOM     96  O   UNL A   1      54.433  25.956  25.910  1.00  0.00    -0.744 OA
ENDBRANCH  92  93
ENDBRANCH  60  85
ENDBRANCH  34  35
ENDBRANCH  27  29
ENDBRANCH  26  27
ENDBRANCH  25  26
ENDBRANCH   1  25
TORSDOF 19
ENDMDL
MODEL 2
REMARK VINA RESULT:     -11.1      6.294     12.180
REMARK SMILES Cc1ccc(F)c(C(=O)N[C@@H]2C=C[C@@H](C(=O)OCCOCCOC(=O)c3ccc(-c4c5nc(c(-c6c(F)cc(S(=O)(=O)[O-])cc6F)c6ccc([nH]6)c(-c6c(F)cc(S(=O)(=O)[O-])cc6F)c6nc(c(-c7c(F)cc(S(=O)(=O)[O-])cc7F)c7ccc4[nH]7)C=C6)C=C5)cc3)C2)c1
REMARK SMILES IDX 21 1 20 2 19 3 18 4 17 5 15 6 16 7 14 8 11 9 12 10 92 11
REMARK SMILES IDX 13 12 10 13 8 14 9 15 7 17 1 18 2 19 3 20 93 21 4 22 5 23
REMARK SMILES IDX 6 24 22 25 23 26 24 27 25 28 26 29 27 30 91 31 28 32 90 33
REMARK SMILES IDX 29 34 30 35 31 36 84 37 32 38 89 39 83 40 85 41 33 42 88 43
REMARK SMILES IDX 82 44 81 45 34 47 68 48 47 49 67 50 48 51 51 52 66 53 86 54
REMARK SMILES IDX 49 55 50 56 65 58 87 59 52 60 35 61 36 62 45 63 37 64 38 65
REMARK SMILES IDX 44 66 46 67 39 68 40 69 41 70 42 71 43 72 69 73 70 74 79 75
REMARK SMILES IDX 71 76 72 77 78 78 80 79 73 80 74 81 75 82 76 83 77 84 53 85
REMARK SMILES IDX 54 86 63 87 55 88 56 89 62 90 64 91 57 92 58 93 59 94 60 95
REMARK SMILES IDX 61 96
REMARK H PARENT 10 16 85 46 51 57
REMARK Flexibility Score: inf
ROOT
ATOM      1  C   UNL A   1      42.417  21.800  25.899  1.00  0.00     0.202 C 
ENDROOT
BRANCH   1   2
ATOM      2  O   UNL A   1      41.926  21.254  27.126  1.00  0.00    -0.374 OA
BRANCH   2   3
ATOM      3  C   UNL A   1      40.555  20.855  27.166  1.00  0.00     0.202 C 
BRANCH   3   4
ATOM      4  C   UNL A   1      39.836  20.819  25.813  1.00  0.00     0.261 C 
BRANCH   4   5
ATOM      5  O   UNL A   1      38.594  21.542  25.850  1.00  0.00    -0.463 OA
BRANCH   5   6
ATOM      6  C   UNL A   1      37.610  21.067  25.040  1.00  0.00     0.312 C 
ATOM      7  O   UNL A   1      37.275  19.888  24.975  1.00  0.00    -0.252 OA
BRANCH   6   8
ATOM      8  C   UNL A   1      36.905  22.158  24.234  1.00  0.00     0.124 C 
ATOM      9  C   UNL A   1      34.795  23.447  24.327  1.00  0.00     0.106 C 
ATOM     10  C   UNL A   1      35.923  24.150  25.011  1.00  0.00    -0.006 C 
ATOM     11  C   UNL A   1      35.383  22.057  24.037  1.00  0.00     0.048 C 
ATOM     12  C   UNL A   1      37.071  23.470  24.939  1.00  0.00    -0.014 C 
BRANCH   9  13
ATOM     13  N   UNL A   1      34.446  24.251  23.170  1.00  0.00    -0.346 N 
ATOM     14  C   UNL A   1      33.705  25.394  23.009  1.00  0.00     0.254 C 
ATOM     15  O   UNL A   1      33.721  25.944  21.909  1.00  0.00    -0.269 OA
ATOM     16  H   UNL A   1      34.818  23.904  22.326  1.00  0.00     0.164 HD
BRANCH  14  17
ATOM     17  C   UNL A   1      32.867  25.956  24.087  1.00  0.00     0.075 A 
ATOM     18  C   UNL A   1      33.057  28.299  27.073  1.00  0.00     0.044 C 
ATOM     19  C   UNL A   1      32.520  27.346  26.050  1.00  0.00    -0.050 A 
ATOM     20  C   UNL A   1      31.180  26.943  26.100  1.00  0.00     0.006 A 
ATOM     21  C   UNL A   1      33.348  26.883  25.016  1.00  0.00     0.020 A 
ATOM     22  C   UNL A   1      30.683  26.060  25.146  1.00  0.00     0.040 A 
ATOM     23  C   UNL A   1      31.527  25.566  24.153  1.00  0.00     0.135 A 
ATOM     24  F   UNL A   1      31.014  24.684  23.283  1.00  0.00    -0.206 F 
ENDBRANCH  14  17
ENDBRANCH   9  13
ENDBRANCH   6   8
ENDBRANCH   5   6
ENDBRANCH   4   5
ENDBRANCH   3   4
ENDBRANCH   2   3
ENDBRANCH   1   2
BRANCH   1  25
ATOM     25  C   UNL A   1      42.665  23.312  25.888  1.00  0.00     0.261 C 
BRANCH  25  26
ATOM     26  O   UNL A   1      41.491  24.063  26.254  1.00  0.00    -0.460 OA
BRANCH  26  27
ATOM     27  C   UNL A   1      41.624  25.403  26.078  1.00  0.00     0.338 C 
ATOM     28  O   UNL A   1      41.697  25.998  25.018  1.00  0.00    -0.246 OA
BRANCH  27  29
ATOM     29  C   UNL A   1      41.606  26.105  27.373  1.00  0.00     0.060 A 
ATOM     30  C   UNL A   1      40.538  25.886  28.248  1.00  0.00     0.016 A 
ATOM     31  C   UNL A   1      42.542  27.105  27.640  1.00  0.00     0.016 A 
ATOM     32  C   UNL A   1      40.388  26.699  29.377  1.00  0.00     0.010 A 
ATOM     33  C   UNL A   1      42.399  27.906  28.776  1.00  0.00     0.010 A 
ATOM     34  C   UNL A   1      41.300  27.734  29.631  1.00  0.00    -0.014 A 
BRANCH  34  35
ATOM     35  C   UNL A   1      41.063  28.700  30.734  1.00  0.00     0.031 A 
ATOM     36  C   UNL A   1      41.866  28.601  32.004  1.00  0.00     0.074 A 
ATOM     37  C   UNL A   1      40.111  29.643  30.612  1.00  0.00     0.049 A 
ATOM     38  N   UNL A   1      41.797  29.335  33.084  1.00  0.00    -0.248 NA
ATOM     39  C   UNL A   1      42.871  27.527  32.071  1.00  0.00     0.031 C 
ATOM     40  C   UNL A   1      39.246  29.825  29.447  1.00  0.00     0.029 A 
ATOM     41  N   UNL A   1      39.704  30.617  31.489  1.00  0.00    -0.354 N 
ATOM     42  C   UNL A   1      42.739  28.812  33.962  1.00  0.00     0.074 A 
ATOM     43  C   UNL A   1      43.349  27.679  33.299  1.00  0.00     0.031 C 
ATOM     44  C   UNL A   1      38.400  30.841  29.687  1.00  0.00     0.029 A 
ATOM     45  C   UNL A   1      38.655  31.371  31.025  1.00  0.00     0.049 A 
ATOM     46  H   UNL A   1      40.123  30.759  32.369  1.00  0.00     0.167 HD
ATOM     47  C   UNL A   1      43.076  29.243  35.202  1.00  0.00     0.037 A 
ATOM     48  C   UNL A   1      37.969  32.371  31.615  1.00  0.00     0.037 A 
ATOM     49  C   UNL A   1      42.487  30.383  35.854  1.00  0.00     0.049 A 
ATOM     50  C   UNL A   1      38.363  32.834  32.990  1.00  0.00     0.074 A 
ATOM     51  C   UNL A   1      42.818  30.940  37.078  1.00  0.00     0.029 A 
ATOM     52  N   UNL A   1      41.442  31.136  35.343  1.00  0.00    -0.354 N 
ATOM     53  N   UNL A   1      39.312  32.377  33.773  1.00  0.00    -0.248 NA
ATOM     54  C   UNL A   1      37.602  33.955  33.559  1.00  0.00     0.031 C 
ATOM     55  C   UNL A   1      41.948  32.009  37.322  1.00  0.00     0.029 A 
ATOM     56  C   UNL A   1      41.099  32.137  36.235  1.00  0.00     0.049 A 
ATOM     57  H   UNL A   1      41.008  30.981  34.473  1.00  0.00     0.167 HD
ATOM     58  C   UNL A   1      39.273  33.168  34.916  1.00  0.00     0.074 A 
ATOM     59  C   UNL A   1      38.215  34.137  34.721  1.00  0.00     0.031 C 
ATOM     60  C   UNL A   1      40.046  33.098  36.028  1.00  0.00     0.037 A 
BRANCH  47  61
ATOM     61  C   UNL A   1      44.137  28.480  35.941  1.00  0.00     0.058 A 
ATOM     62  C   UNL A   1      43.815  27.409  36.789  1.00  0.00     0.135 A 
ATOM     63  C   UNL A   1      45.495  28.789  35.759  1.00  0.00     0.135 A 
ATOM     64  F   UNL A   1      42.531  27.083  37.007  1.00  0.00    -0.206 F 
ATOM     65  C   UNL A   1      44.801  26.681  37.445  1.00  0.00     0.059 A 
ATOM     66  C   UNL A   1      46.499  28.061  36.392  1.00  0.00     0.059 A 
ATOM     67  F   UNL A   1      45.855  29.805  34.960  1.00  0.00    -0.206 F 
ATOM     68  C   UNL A   1      46.141  27.016  37.243  1.00  0.00     0.060 A 
BRANCH  68  69
ATOM     69  S   UNL A   1      47.412  26.056  38.092  1.00  0.00     0.124 S 
ATOM     70  O   UNL A   1      48.046  25.363  36.973  1.00  0.00    -0.237 OA
ATOM     71  O   UNL A   1      48.217  27.091  38.731  1.00  0.00    -0.237 OA
ATOM     72  O   UNL A   1      46.646  25.209  39.002  1.00  0.00    -0.744 OA
ENDBRANCH  68  69
ENDBRANCH  47  61
BRANCH  48  73
ATOM     73  C   UNL A   1      36.836  33.009  30.899  1.00  0.00     0.058 A 
ATOM     74  C   UNL A   1      35.509  32.676  31.204  1.00  0.00     0.135 A 
ATOM     75  C   UNL A   1      37.061  33.970  29.901  1.00  0.00     0.135 A 
ATOM     76  F   UNL A   1      35.248  31.758  32.147  1.00  0.00    -0.206 F 
ATOM     77  C   UNL A   1      34.441  33.263  30.534  1.00  0.00     0.059 A 
ATOM     78  C   UNL A   1      36.009  34.584  29.231  1.00  0.00     0.059 A 
ATOM     79  F   UNL A   1      38.315  34.330  29.586  1.00  0.00    -0.206 F 
ATOM     80  C   UNL A   1      34.702  34.216  29.549  1.00  0.00     0.060 A 
BRANCH  80  81
ATOM     81  S   UNL A   1      33.311  35.016  28.718  1.00  0.00     0.124 S 
ATOM     82  O   UNL A   1      32.534  35.502  29.853  1.00  0.00    -0.237 OA
ATOM     83  O   UNL A   1      33.976  36.037  27.914  1.00  0.00    -0.237 OA
ATOM     84  O   UNL A   1      32.709  33.925  27.958  1.00  0.00    -0.744 OA
ENDBRANCH  80  81
ENDBRANCH  48  73
BRANCH  60  85
ATOM     85  C   UNL A   1      39.794  34.109  37.110  1.00  0.00     0.058 A 
ATOM     86  C   UNL A   1      39.030  33.794  38.243  1.00  0.00     0.135 A 
ATOM     87  C   UNL A   1      40.362  35.391  37.033  1.00  0.00     0.135 A 
ATOM     88  F   UNL A   1      38.462  32.583  38.359  1.00  0.00    -0.206 F 
ATOM     89  C   UNL A   1      38.819  34.723  39.256  1.00  0.00     0.059 A 
ATOM     90  C   UNL A   1      40.179  36.329  38.044  1.00  0.00     0.059 A 
ATOM     91  F   UNL A   1      41.109  35.737  35.973  1.00  0.00    -0.206 F 
ATOM     92  C   UNL A   1      39.396  35.989  39.147  1.00  0.00     0.060 A 
BRANCH  92  93
ATOM     93  S   UNL A   1      39.145  37.181  40.481  1.00  0.00     0.124 S 
ATOM     94  O   UNL A   1      38.342  38.201  39.815  1.00  0.00    -0.237 OA
ATOM     95  O   UNL A   1      38.451  36.386  41.490  1.00  0.00    -0.237 OA
ATOM     96  O   UNL A   1      40.503  37.581  40.836  1.00  0.00    -0.744 OA
ENDBRANCH  92  93
ENDBRANCH  60  85
ENDBRANCH  34  35
ENDBRANCH  27  29
ENDBRANCH  26  27
ENDBRANCH  25  26
ENDBRANCH   1  25
TORSDOF 19
ENDMDL
MODEL 3
REMARK VINA RESULT:     -11.1      6.316     12.170
REMARK SMILES Cc1ccc(F)c(C(=O)N[C@@H]2C=C[C@@H](C(=O)OCCOCCOC(=O)c3ccc(-c4c5nc(c(-c6c(F)cc(S(=O)(=O)[O-])cc6F)c6ccc([nH]6)c(-c6c(F)cc(S(=O)(=O)[O-])cc6F)c6nc(c(-c7c(F)cc(S(=O)(=O)[O-])cc7F)c7ccc4[nH]7)C=C6)C=C5)cc3)C2)c1
REMARK SMILES IDX 21 1 20 2 19 3 18 4 17 5 15 6 16 7 14 8 11 9 12 10 92 11
REMARK SMILES IDX 13 12 10 13 8 14 9 15 7 17 1 18 2 19 3 20 93 21 4 22 5 23
REMARK SMILES IDX 6 24 22 25 23 26 24 27 25 28 26 29 27 30 91 31 28 32 90 33
REMARK SMILES IDX 29 34 30 35 31 36 84 37 32 38 89 39 83 40 85 41 33 42 88 43
REMARK SMILES IDX 82 44 81 45 34 47 68 48 47 49 67 50 48 51 51 52 66 53 86 54
REMARK SMILES IDX 49 55 50 56 65 58 87 59 52 60 35 61 36 62 45 63 37 64 38 65
REMARK SMILES IDX 44 66 46 67 39 68 40 69 41 70 42 71 43 72 69 73 70 74 79 75
REMARK SMILES IDX 71 76 72 77 78 78 80 79 73 80 74 81 75 82 76 83 77 84 53 85
REMARK SMILES IDX 54 86 63 87 55 88 56 89 62 90 64 91 57 92 58 93 59 94 60 95
REMARK SMILES IDX 61 96
REMARK H PARENT 10 16 85 46 51 57
REMARK Flexibility Score: inf
ROOT
ATOM      1  C   UNL A   1      43.884  22.296  25.566  1.00  0.00     0.202 C 
ENDROOT
BRANCH   1   2
ATOM      2  O   UNL A   1      43.413  21.046  25.057  1.00  0.00    -0.374 OA
BRANCH   2   3
ATOM      3  C   UNL A   1      43.114  20.020  26.006  1.00  0.00     0.202 C 
BRANCH   3   4
ATOM      4  C   UNL A   1      41.644  19.589  26.076  1.00  0.00     0.261 C 
BRANCH   4   5
ATOM      5  O   UNL A   1      41.007  20.060  27.275  1.00  0.00    -0.463 OA
BRANCH   5   6
ATOM      6  C   UNL A   1      40.811  21.403  27.351  1.00  0.00     0.312 C 
ATOM      7  O   UNL A   1      41.299  22.127  28.214  1.00  0.00    -0.252 OA
BRANCH   6   8
ATOM      8  C   UNL A   1      39.950  21.958  26.216  1.00  0.00     0.124 C 
ATOM      9  C   UNL A   1      37.553  22.341  25.738  1.00  0.00     0.106 C 
ATOM     10  C   UNL A   1      38.215  23.541  26.334  1.00  0.00    -0.006 C 
ATOM     11  C   UNL A   1      38.625  21.250  25.887  1.00  0.00     0.048 C 
ATOM     12  C   UNL A   1      39.516  23.347  26.568  1.00  0.00    -0.014 C 
BRANCH   9  13
ATOM     13  N   UNL A   1      37.187  22.701  24.380  1.00  0.00    -0.346 N 
ATOM     14  C   UNL A   1      35.984  22.845  23.739  1.00  0.00     0.254 C 
ATOM     15  O   UNL A   1      35.985  23.326  22.607  1.00  0.00    -0.269 OA
ATOM     16  H   UNL A   1      37.963  22.879  23.800  1.00  0.00     0.164 HD
BRANCH  14  17
ATOM     17  C   UNL A   1      34.707  22.407  24.337  1.00  0.00     0.075 A 
ATOM     18  C   UNL A   1      32.593  19.294  24.865  1.00  0.00     0.044 C 
ATOM     19  C   UNL A   1      33.049  20.720  24.895  1.00  0.00    -0.050 A 
ATOM     20  C   UNL A   1      32.249  21.701  25.493  1.00  0.00     0.006 A 
ATOM     21  C   UNL A   1      34.297  21.072  24.356  1.00  0.00     0.020 A 
ATOM     22  C   UNL A   1      32.678  23.025  25.523  1.00  0.00     0.040 A 
ATOM     23  C   UNL A   1      33.895  23.373  24.940  1.00  0.00     0.135 A 
ATOM     24  F   UNL A   1      34.245  24.667  24.954  1.00  0.00    -0.206 F 
ENDBRANCH  14  17
ENDBRANCH   9  13
ENDBRANCH   6   8
ENDBRANCH   5   6
ENDBRANCH   4   5
ENDBRANCH   3   4
ENDBRANCH   2   3
ENDBRANCH   1   2
BRANCH   1  25
ATOM     25  C   UNL A   1      43.125  23.541  25.095  1.00  0.00     0.261 C 
BRANCH  25  26
ATOM     26  O   UNL A   1      43.416  24.699  25.902  1.00  0.00    -0.460 OA
BRANCH  26  27
ATOM     27  C   UNL A   1      42.401  25.599  25.948  1.00  0.00     0.338 C 
ATOM     28  O   UNL A   1      41.589  25.833  25.070  1.00  0.00    -0.246 OA
BRANCH  27  29
ATOM     29  C   UNL A   1      42.341  26.253  27.267  1.00  0.00     0.060 A 
ATOM     30  C   UNL A   1      41.295  25.930  28.137  1.00  0.00     0.016 A 
ATOM     31  C   UNL A   1      43.207  27.306  27.566  1.00  0.00     0.016 A 
ATOM     32  C   UNL A   1      41.096  26.691  29.295  1.00  0.00     0.010 A 
ATOM     33  C   UNL A   1      43.015  28.055  28.729  1.00  0.00     0.010 A 
ATOM     34  C   UNL A   1      41.936  27.777  29.581  1.00  0.00    -0.014 A 
BRANCH  34  35
ATOM     35  C   UNL A   1      41.638  28.686  30.718  1.00  0.00     0.031 A 
ATOM     36  C   UNL A   1      42.435  28.580  31.991  1.00  0.00     0.074 A 
ATOM     37  C   UNL A   1      40.639  29.582  30.623  1.00  0.00     0.049 A 
ATOM     38  N   UNL A   1      42.318  29.267  33.099  1.00  0.00    -0.248 NA
ATOM     39  C   UNL A   1      43.495  27.559  32.027  1.00  0.00     0.031 C 
ATOM     40  C   UNL A   1      39.775  29.763  29.457  1.00  0.00     0.029 A 
ATOM     41  N   UNL A   1      40.173  30.497  31.532  1.00  0.00    -0.354 N 
ATOM     42  C   UNL A   1      43.280  28.760  33.965  1.00  0.00     0.074 A 
ATOM     43  C   UNL A   1      43.954  27.687  33.265  1.00  0.00     0.031 C 
ATOM     44  C   UNL A   1      38.874  30.722  29.727  1.00  0.00     0.029 A 
ATOM     45  C   UNL A   1      39.089  31.213  31.087  1.00  0.00     0.049 A 
ATOM     46  H   UNL A   1      40.576  30.627  32.422  1.00  0.00     0.167 HD
ATOM     47  C   UNL A   1      43.583  29.160  35.224  1.00  0.00     0.037 A 
ATOM     48  C   UNL A   1      38.346  32.151  31.708  1.00  0.00     0.037 A 
ATOM     49  C   UNL A   1      42.928  30.240  35.914  1.00  0.00     0.049 A 
ATOM     50  C   UNL A   1      38.704  32.580  33.104  1.00  0.00     0.074 A 
ATOM     51  C   UNL A   1      43.219  30.766  37.162  1.00  0.00     0.029 A 
ATOM     52  N   UNL A   1      41.849  30.957  35.421  1.00  0.00    -0.354 N 
ATOM     53  N   UNL A   1      39.669  32.144  33.879  1.00  0.00    -0.248 NA
ATOM     54  C   UNL A   1      37.879  33.637  33.708  1.00  0.00     0.031 C 
ATOM     55  C   UNL A   1      42.292  31.778  37.438  1.00  0.00     0.029 A 
ATOM     56  C   UNL A   1      41.446  31.903  36.348  1.00  0.00     0.049 A 
ATOM     57  H   UNL A   1      41.431  30.813  34.541  1.00  0.00     0.167 HD
ATOM     58  C   UNL A   1      39.578  32.886  35.051  1.00  0.00     0.074 A 
ATOM     59  C   UNL A   1      38.471  33.805  34.882  1.00  0.00     0.031 C 
ATOM     60  C   UNL A   1      40.345  32.814  36.167  1.00  0.00     0.037 A 
BRANCH  47  61
ATOM     61  C   UNL A   1      44.677  28.426  35.944  1.00  0.00     0.058 A 
ATOM     62  C   UNL A   1      46.021  28.816  35.831  1.00  0.00     0.135 A 
ATOM     63  C   UNL A   1      44.373  27.354  36.800  1.00  0.00     0.135 A 
ATOM     64  F   UNL A   1      46.364  29.825  35.015  1.00  0.00    -0.206 F 
ATOM     65  C   UNL A   1      47.028  28.157  36.526  1.00  0.00     0.059 A 
ATOM     66  C   UNL A   1      45.364  26.693  37.520  1.00  0.00     0.059 A 
ATOM     67  F   UNL A   1      43.104  26.942  36.942  1.00  0.00    -0.206 F 
ATOM     68  C   UNL A   1      46.691  27.095  37.367  1.00  0.00     0.060 A 
BRANCH  68  69
ATOM     69  S   UNL A   1      48.007  26.255  38.274  1.00  0.00     0.124 S 
ATOM     70  O   UNL A   1      47.283  25.758  39.440  1.00  0.00    -0.237 OA
ATOM     71  O   UNL A   1      48.449  25.240  37.323  1.00  0.00    -0.237 OA
ATOM     72  O   UNL A   1      48.969  27.321  38.539  1.00  0.00    -0.744 OA
ENDBRANCH  68  69
ENDBRANCH  47  61
BRANCH  48  73
ATOM     73  C   UNL A   1      37.186  32.756  31.005  1.00  0.00     0.058 A 
ATOM     74  C   UNL A   1      37.358  33.824  30.114  1.00  0.00     0.135 A 
ATOM     75  C   UNL A   1      35.886  32.269  31.208  1.00  0.00     0.135 A 
ATOM     76  F   UNL A   1      38.584  34.325  29.895  1.00  0.00    -0.206 F 
ATOM     77  C   UNL A   1      36.278  34.401  29.456  1.00  0.00     0.059 A 
ATOM     78  C   UNL A   1      34.793  32.818  30.547  1.00  0.00     0.059 A 
ATOM     79  F   UNL A   1      35.676  31.239  32.041  1.00  0.00    -0.206 F 
ATOM     80  C   UNL A   1      34.998  33.891  29.680  1.00  0.00     0.060 A 
BRANCH  80  81
ATOM     81  S   UNL A   1      33.604  34.608  28.784  1.00  0.00     0.124 S 
ATOM     82  O   UNL A   1      33.242  33.517  27.885  1.00  0.00    -0.237 OA
ATOM     83  O   UNL A   1      32.656  34.891  29.858  1.00  0.00    -0.237 OA
ATOM     84  O   UNL A   1      34.188  35.785  28.150  1.00  0.00    -0.744 OA
ENDBRANCH  80  81
ENDBRANCH  48  73
BRANCH  60  85
ATOM     85  C   UNL A   1      40.031  33.767  37.284  1.00  0.00     0.058 A 
ATOM     86  C   UNL A   1      40.657  35.018  37.379  1.00  0.00     0.135 A 
ATOM     87  C   UNL A   1      39.058  33.443  38.245  1.00  0.00     0.135 A 
ATOM     88  F   UNL A   1      41.598  35.371  36.488  1.00  0.00    -0.206 F 
ATOM     89  C   UNL A   1      40.346  35.910  38.400  1.00  0.00     0.059 A 
ATOM     90  C   UNL A   1      38.718  34.328  39.262  1.00  0.00     0.059 A 
ATOM     91  F   UNL A   1      38.423  32.262  38.192  1.00  0.00    -0.206 F 
ATOM     92  C   UNL A   1      39.376  35.555  39.338  1.00  0.00     0.060 A 
BRANCH  92  93
ATOM     93  S   UNL A   1      38.954  36.731  40.643  1.00  0.00     0.124 S 
ATOM     94  O   UNL A   1      38.395  37.836  39.872  1.00  0.00    -0.237 OA
ATOM     95  O   UNL A   1      38.003  35.978  41.454  1.00  0.00    -0.237 OA
ATOM     96  O   UNL A   1      40.238  36.998  41.284  1.00  0.00    -0.744 OA
ENDBRANCH  92  93
ENDBRANCH  60  85
ENDBRANCH  34  35
ENDBRANCH  27  29
ENDBRANCH  26  27
ENDBRANCH  25  26
ENDBRANCH   1  25
TORSDOF 19
ENDMDL
