MODEL 1
REMARK VINA RESULT:     -10.9      0.000      0.000
REMARK SMILES CCC(C)(C)[C@@H]1CCc2c(sc(=O)n2CCCC(=O)OCCOCCOC(=O)c2ccc(-c3c4nc(c(-c5c(F)cc(S(=O)(=O)[O-])cc5F)c5ccc([nH]5)c(-c5c(F)cc(S(=O)(=O)[O-])cc5F)c5nc(c(-c6c(F)cc(S(=O)(=O)[O-])cc6F)c6ccc3[nH]6)C=C5)C=C4)cc2)C1
REMARK SMILES IDX 22 1 21 2 20 3 18 4 19 5 17 6 16 7 15 8 14 9 6 10 7 11 95 12
REMARK SMILES IDX 8 13 10 14 9 15 11 16 12 17 13 18 3 19 4 20 5 21 2 22 1 23
REMARK SMILES IDX 23 24 24 25 25 26 26 27 27 28 28 29 29 30 30 31 94 32 31 33
REMARK SMILES IDX 93 34 32 35 33 36 34 37 87 38 35 39 92 40 86 41 88 42 36 43
REMARK SMILES IDX 91 44 85 45 84 46 37 48 71 49 50 50 70 51 51 52 54 53 69 54
REMARK SMILES IDX 89 55 52 56 53 57 68 59 90 60 55 61 38 62 39 63 48 64 40 65
REMARK SMILES IDX 41 66 47 67 49 68 42 69 43 70 44 71 45 72 46 73 72 74 73 75
REMARK SMILES IDX 82 76 74 77 75 78 81 79 83 80 76 81 77 82 78 83 79 84 80 85
REMARK SMILES IDX 56 86 57 87 66 88 58 89 59 90 65 91 67 92 60 93 61 94 62 95
REMARK SMILES IDX 63 96 64 97
REMARK H PARENT 88 47 54 58
REMARK Flexibility Score: inf
ROOT
ATOM      1  C   UNL A   1      40.372  21.353  27.178  1.00  0.00     0.202 C 
ENDROOT
BRANCH   1   2
ATOM      2  C   UNL A   1      39.579  22.397  26.399  1.00  0.00     0.261 C 
BRANCH   2   3
ATOM      3  O   UNL A   1      38.572  21.762  25.602  1.00  0.00    -0.463 OA
BRANCH   3   4
ATOM      4  C   UNL A   1      37.406  22.433  25.444  1.00  0.00     0.305 C 
ATOM      5  O   UNL A   1      37.093  23.457  26.040  1.00  0.00    -0.252 OA
BRANCH   4   6
ATOM      6  C   UNL A   1      36.519  21.821  24.375  1.00  0.00     0.124 C 
BRANCH   6   7
ATOM      7  C   UNL A   1      35.088  21.422  24.744  1.00  0.00     0.034 C 
BRANCH   7   8
ATOM      8  C   UNL A   1      33.944  22.262  24.175  1.00  0.00     0.127 C 
BRANCH   8   9
ATOM      9  N   UNL A   1      33.044  22.830  25.163  1.00  0.00    -0.303 N 
ATOM     10  C   UNL A   1      32.267  26.890  25.629  1.00  0.00     0.000 C 
ATOM     11  C   UNL A   1      33.785  26.598  25.528  1.00  0.00     0.011 C 
ATOM     12  C   UNL A   1      31.694  25.902  26.682  1.00  0.00     0.053 C 
ATOM     13  C   UNL A   1      34.140  25.138  25.172  1.00  0.00     0.055 C 
ATOM     14  C   UNL A   1      32.024  24.498  26.328  1.00  0.00     0.030 A 
ATOM     15  C   UNL A   1      33.096  24.145  25.603  1.00  0.00     0.035 A 
ATOM     16  S   UNL A   1      30.939  23.184  26.604  1.00  0.00    -0.079 S 
ATOM     17  C   UNL A   1      31.898  22.133  25.559  1.00  0.00     0.307 A 
ATOM     18  O   UNL A   1      31.546  21.012  25.258  1.00  0.00    -0.257 OA
BRANCH  10  19
ATOM     19  C   UNL A   1      31.457  27.029  24.254  1.00  0.00    -0.032 C 
ATOM     20  C   UNL A   1      31.029  28.511  24.111  1.00  0.00     0.011 C 
ATOM     21  C   UNL A   1      30.144  26.206  24.307  1.00  0.00     0.011 C 
BRANCH  19  22
ATOM     22  C   UNL A   1      32.181  26.588  22.945  1.00  0.00     0.003 C 
ATOM     23  C   UNL A   1      31.792  25.240  22.350  1.00  0.00     0.004 C 
ENDBRANCH  19  22
ENDBRANCH  10  19
ENDBRANCH   8   9
ENDBRANCH   7   8
ENDBRANCH   6   7
ENDBRANCH   4   6
ENDBRANCH   3   4
ENDBRANCH   2   3
ENDBRANCH   1   2
BRANCH   1  24
ATOM     24  O   UNL A   1      40.473  20.054  26.590  1.00  0.00    -0.374 OA
BRANCH  24  25
ATOM     25  C   UNL A   1      41.716  19.630  26.038  1.00  0.00     0.202 C 
BRANCH  25  26
ATOM     26  C   UNL A   1      42.875  20.617  26.069  1.00  0.00     0.261 C 
BRANCH  26  27
ATOM     27  O   UNL A   1      44.089  20.024  25.632  1.00  0.00    -0.460 OA
BRANCH  27  28
ATOM     28  C   UNL A   1      44.584  20.570  24.493  1.00  0.00     0.338 C 
ATOM     29  O   UNL A   1      44.860  19.991  23.462  1.00  0.00    -0.246 OA
BRANCH  28  30
ATOM     30  C   UNL A   1      44.906  21.975  24.760  1.00  0.00     0.060 A 
ATOM     31  C   UNL A   1      45.715  22.205  25.873  1.00  0.00     0.016 A 
ATOM     32  C   UNL A   1      44.151  22.994  24.158  1.00  0.00     0.016 A 
ATOM     33  C   UNL A   1      45.553  23.388  26.549  1.00  0.00     0.010 A 
ATOM     34  C   UNL A   1      43.983  24.170  24.841  1.00  0.00     0.010 A 
ATOM     35  C   UNL A   1      44.608  24.305  26.075  1.00  0.00    -0.014 A 
BRANCH  35  36
ATOM     36  C   UNL A   1      44.356  25.478  26.877  1.00  0.00     0.031 A 
ATOM     37  C   UNL A   1      45.390  26.512  26.673  1.00  0.00     0.074 A 
ATOM     38  C   UNL A   1      43.250  25.612  27.631  1.00  0.00     0.049 A 
ATOM     39  N   UNL A   1      46.345  26.846  27.473  1.00  0.00    -0.248 NA
ATOM     40  C   UNL A   1      45.526  27.063  25.317  1.00  0.00     0.031 C 
ATOM     41  C   UNL A   1      42.059  24.760  27.674  1.00  0.00     0.029 A 
ATOM     42  N   UNL A   1      42.927  26.624  28.474  1.00  0.00    -0.354 N 
ATOM     43  C   UNL A   1      47.041  27.848  26.806  1.00  0.00     0.074 A 
ATOM     44  C   UNL A   1      46.662  27.749  25.424  1.00  0.00     0.031 C 
ATOM     45  C   UNL A   1      41.065  25.415  28.319  1.00  0.00     0.029 A 
ATOM     46  C   UNL A   1      41.589  26.663  28.847  1.00  0.00     0.049 A 
ATOM     47  H   UNL A   1      43.588  27.279  28.797  1.00  0.00     0.167 HD
ATOM     48  C   UNL A   1      47.621  28.865  27.494  1.00  0.00     0.037 A 
ATOM     49  C   UNL A   1      40.973  27.706  29.463  1.00  0.00     0.037 A 
ATOM     50  C   UNL A   1      47.794  28.513  28.883  1.00  0.00     0.049 A 
ATOM     51  C   UNL A   1      42.049  28.522  30.097  1.00  0.00     0.074 A 
ATOM     52  C   UNL A   1      48.460  27.496  29.541  1.00  0.00     0.029 A 
ATOM     53  N   UNL A   1      46.888  29.018  29.786  1.00  0.00    -0.354 N 
ATOM     54  N   UNL A   1      42.801  28.090  31.076  1.00  0.00    -0.248 NA
ATOM     55  C   UNL A   1      42.619  29.611  29.315  1.00  0.00     0.031 C 
ATOM     56  C   UNL A   1      47.601  27.129  30.617  1.00  0.00     0.029 A 
ATOM     57  C   UNL A   1      46.502  27.990  30.608  1.00  0.00     0.049 A 
ATOM     58  H   UNL A   1      46.574  29.950  29.833  1.00  0.00     0.167 HD
ATOM     59  C   UNL A   1      44.079  28.548  30.781  1.00  0.00     0.074 A 
ATOM     60  C   UNL A   1      43.892  29.531  29.716  1.00  0.00     0.031 C 
ATOM     61  C   UNL A   1      45.192  27.886  31.215  1.00  0.00     0.037 A 
BRANCH  48  62
ATOM     62  C   UNL A   1      47.637  30.296  27.008  1.00  0.00     0.058 A 
ATOM     63  C   UNL A   1      48.845  31.019  27.071  1.00  0.00     0.135 A 
ATOM     64  C   UNL A   1      46.480  31.068  26.751  1.00  0.00     0.135 A 
ATOM     65  F   UNL A   1      50.007  30.390  27.308  1.00  0.00    -0.206 F 
ATOM     66  C   UNL A   1      48.887  32.409  26.976  1.00  0.00     0.059 A 
ATOM     67  C   UNL A   1      46.508  32.447  26.598  1.00  0.00     0.059 A 
ATOM     68  F   UNL A   1      45.247  30.551  26.734  1.00  0.00    -0.206 F 
ATOM     69  C   UNL A   1      47.707  33.114  26.757  1.00  0.00     0.060 A 
BRANCH  69  70
ATOM     70  S   UNL A   1      47.736  34.912  26.743  1.00  0.00     0.124 S 
ATOM     71  O   UNL A   1      49.025  35.175  26.115  1.00  0.00    -0.237 OA
ATOM     72  O   UNL A   1      46.556  35.225  25.945  1.00  0.00    -0.237 OA
ATOM     73  O   UNL A   1      47.640  35.259  28.158  1.00  0.00    -0.744 OA
ENDBRANCH  69  70
ENDBRANCH  48  62
BRANCH  49  74
ATOM     74  C   UNL A   1      39.614  28.245  29.170  1.00  0.00     0.058 A 
ATOM     75  C   UNL A   1      38.626  28.333  30.168  1.00  0.00     0.135 A 
ATOM     76  C   UNL A   1      39.340  28.939  27.973  1.00  0.00     0.135 A 
ATOM     77  F   UNL A   1      38.811  27.728  31.352  1.00  0.00    -0.206 F 
ATOM     78  C   UNL A   1      37.458  29.091  30.004  1.00  0.00     0.059 A 
ATOM     79  C   UNL A   1      38.183  29.690  27.782  1.00  0.00     0.059 A 
ATOM     80  F   UNL A   1      40.237  28.981  26.976  1.00  0.00    -0.206 F 
ATOM     81  C   UNL A   1      37.254  29.782  28.809  1.00  0.00     0.060 A 
BRANCH  81  82
ATOM     82  S   UNL A   1      35.832  30.890  28.643  1.00  0.00     0.124 S 
ATOM     83  O   UNL A   1      36.374  31.952  27.803  1.00  0.00    -0.237 OA
ATOM     84  O   UNL A   1      34.837  30.025  28.018  1.00  0.00    -0.237 OA
ATOM     85  O   UNL A   1      35.540  31.275  30.022  1.00  0.00    -0.744 OA
ENDBRANCH  81  82
ENDBRANCH  49  74
BRANCH  61  86
ATOM     86  C   UNL A   1      45.034  26.808  32.258  1.00  0.00     0.058 A 
ATOM     87  C   UNL A   1      44.968  27.042  33.644  1.00  0.00     0.135 A 
ATOM     88  C   UNL A   1      44.724  25.515  31.810  1.00  0.00     0.135 A 
ATOM     89  F   UNL A   1      45.161  28.270  34.145  1.00  0.00    -0.206 F 
ATOM     90  C   UNL A   1      44.623  26.029  34.542  1.00  0.00     0.059 A 
ATOM     91  C   UNL A   1      44.348  24.500  32.685  1.00  0.00     0.059 A 
ATOM     92  F   UNL A   1      44.712  25.247  30.494  1.00  0.00    -0.206 F 
ATOM     93  C   UNL A   1      44.304  24.762  34.051  1.00  0.00     0.060 A 
BRANCH  93  94
ATOM     94  S   UNL A   1      43.745  23.481  35.197  1.00  0.00     0.124 S 
ATOM     95  O   UNL A   1      44.459  22.305  34.713  1.00  0.00    -0.237 OA
ATOM     96  O   UNL A   1      44.179  24.000  36.490  1.00  0.00    -0.237 OA
ATOM     97  O   UNL A   1      42.297  23.456  35.001  1.00  0.00    -0.744 OA
ENDBRANCH  93  94
ENDBRANCH  61  86
ENDBRANCH  35  36
ENDBRANCH  28  30
ENDBRANCH  27  28
ENDBRANCH  26  27
ENDBRANCH  25  26
ENDBRANCH  24  25
ENDBRANCH   1  24
TORSDOF 22
ENDMDL
MODEL 2
REMARK VINA RESULT:     -10.0      3.338      9.902
REMARK SMILES CCC(C)(C)[C@@H]1CCc2c(sc(=O)n2CCCC(=O)OCCOCCOC(=O)c2ccc(-c3c4nc(c(-c5c(F)cc(S(=O)(=O)[O-])cc5F)c5ccc([nH]5)c(-c5c(F)cc(S(=O)(=O)[O-])cc5F)c5nc(c(-c6c(F)cc(S(=O)(=O)[O-])cc6F)c6ccc3[nH]6)C=C5)C=C4)cc2)C1
REMARK SMILES IDX 22 1 21 2 20 3 18 4 19 5 17 6 16 7 15 8 14 9 6 10 7 11 95 12
REMARK SMILES IDX 8 13 10 14 9 15 11 16 12 17 13 18 3 19 4 20 5 21 2 22 1 23
REMARK SMILES IDX 23 24 24 25 25 26 26 27 27 28 28 29 29 30 30 31 94 32 31 33
REMARK SMILES IDX 93 34 32 35 33 36 34 37 87 38 35 39 92 40 86 41 88 42 36 43
REMARK SMILES IDX 91 44 85 45 84 46 37 48 71 49 50 50 70 51 51 52 54 53 69 54
REMARK SMILES IDX 89 55 52 56 53 57 68 59 90 60 55 61 38 62 39 63 48 64 40 65
REMARK SMILES IDX 41 66 47 67 49 68 42 69 43 70 44 71 45 72 46 73 72 74 73 75
REMARK SMILES IDX 82 76 74 77 75 78 81 79 83 80 76 81 77 82 78 83 79 84 80 85
REMARK SMILES IDX 56 86 57 87 66 88 58 89 59 90 65 91 67 92 60 93 61 94 62 95
REMARK SMILES IDX 63 96 64 97
REMARK H PARENT 88 47 54 58
REMARK Flexibility Score: inf
ROOT
ATOM      1  C   UNL A   1      34.029  34.343  29.551  1.00  0.00     0.202 C 
ENDROOT
BRANCH   1   2
ATOM      2  C   UNL A   1      33.466  33.790  28.247  1.00  0.00     0.261 C 
BRANCH   2   3
ATOM      3  O   UNL A   1      34.430  32.942  27.610  1.00  0.00    -0.463 OA
BRANCH   3   4
ATOM      4  C   UNL A   1      34.418  31.634  27.960  1.00  0.00     0.305 C 
ATOM      5  O   UNL A   1      35.262  31.080  28.656  1.00  0.00    -0.252 OA
BRANCH   4   6
ATOM      6  C   UNL A   1      33.188  30.904  27.456  1.00  0.00     0.124 C 
BRANCH   6   7
ATOM      7  C   UNL A   1      33.306  30.042  26.196  1.00  0.00     0.034 C 
BRANCH   7   8
ATOM      8  C   UNL A   1      33.547  28.543  26.377  1.00  0.00     0.127 C 
BRANCH   8   9
ATOM      9  N   UNL A   1      32.497  27.682  25.862  1.00  0.00    -0.303 N 
ATOM     10  C   UNL A   1      33.045  24.685  23.030  1.00  0.00     0.000 C 
ATOM     11  C   UNL A   1      33.718  26.014  22.606  1.00  0.00     0.011 C 
ATOM     12  C   UNL A   1      31.595  25.039  23.460  1.00  0.00     0.053 C 
ATOM     13  C   UNL A   1      33.712  27.115  23.688  1.00  0.00     0.055 C 
ATOM     14  C   UNL A   1      31.594  26.088  24.511  1.00  0.00     0.030 A 
ATOM     15  C   UNL A   1      32.569  26.997  24.656  1.00  0.00     0.035 A 
ATOM     16  S   UNL A   1      30.460  26.107  25.813  1.00  0.00    -0.079 S 
ATOM     17  C   UNL A   1      31.431  27.298  26.681  1.00  0.00     0.307 A 
ATOM     18  O   UNL A   1      31.168  27.658  27.809  1.00  0.00    -0.257 OA
BRANCH  10  19
ATOM     19  C   UNL A   1      33.874  23.726  24.009  1.00  0.00    -0.032 C 
ATOM     20  C   UNL A   1      35.099  23.199  23.222  1.00  0.00     0.011 C 
ATOM     21  C   UNL A   1      33.038  22.476  24.390  1.00  0.00     0.011 C 
BRANCH  19  22
ATOM     22  C   UNL A   1      34.369  24.331  25.360  1.00  0.00     0.003 C 
ATOM     23  C   UNL A   1      34.098  23.528  26.627  1.00  0.00     0.004 C 
ENDBRANCH  19  22
ENDBRANCH  10  19
ENDBRANCH   8   9
ENDBRANCH   7   8
ENDBRANCH   6   7
ENDBRANCH   4   6
ENDBRANCH   3   4
ENDBRANCH   2   3
ENDBRANCH   1   2
BRANCH   1  24
ATOM     24  O   UNL A   1      33.084  34.859  30.490  1.00  0.00    -0.374 OA
BRANCH  24  25
ATOM     25  C   UNL A   1      33.289  34.638  31.883  1.00  0.00     0.202 C 
BRANCH  25  26
ATOM     26  C   UNL A   1      34.061  35.695  32.660  1.00  0.00     0.261 C 
BRANCH  26  27
ATOM     27  O   UNL A   1      35.449  35.402  32.721  1.00  0.00    -0.460 OA
BRANCH  27  28
ATOM     28  C   UNL A   1      35.729  34.204  33.291  1.00  0.00     0.338 C 
ATOM     29  O   UNL A   1      35.506  33.865  34.436  1.00  0.00    -0.246 OA
BRANCH  28  30
ATOM     30  C   UNL A   1      36.518  33.416  32.338  1.00  0.00     0.060 A 
ATOM     31  C   UNL A   1      36.280  32.042  32.355  1.00  0.00     0.016 A 
ATOM     32  C   UNL A   1      37.660  33.973  31.744  1.00  0.00     0.016 A 
ATOM     33  C   UNL A   1      37.319  31.209  32.023  1.00  0.00     0.010 A 
ATOM     34  C   UNL A   1      38.700  33.139  31.424  1.00  0.00     0.010 A 
ATOM     35  C   UNL A   1      38.546  31.780  31.665  1.00  0.00    -0.014 A 
BRANCH  35  36
ATOM     36  C   UNL A   1      39.661  30.887  31.455  1.00  0.00     0.031 A 
ATOM     37  C   UNL A   1      40.396  30.628  32.710  1.00  0.00     0.074 A 
ATOM     38  C   UNL A   1      39.907  30.307  30.267  1.00  0.00     0.049 A 
ATOM     39  N   UNL A   1      41.545  31.094  33.065  1.00  0.00    -0.248 NA
ATOM     40  C   UNL A   1      39.652  29.978  33.798  1.00  0.00     0.031 C 
ATOM     41  C   UNL A   1      39.077  30.297  29.060  1.00  0.00     0.029 A 
ATOM     42  N   UNL A   1      40.949  29.510  29.923  1.00  0.00    -0.354 N 
ATOM     43  C   UNL A   1      41.774  30.563  34.330  1.00  0.00     0.074 A 
ATOM     44  C   UNL A   1      40.498  30.119  34.817  1.00  0.00     0.031 C 
ATOM     45  C   UNL A   1      39.537  29.349  28.211  1.00  0.00     0.029 A 
ATOM     46  C   UNL A   1      40.762  28.786  28.752  1.00  0.00     0.049 A 
ATOM     47  H   UNL A   1      41.772  29.448  30.461  1.00  0.00     0.167 HD
ATOM     48  C   UNL A   1      43.033  30.249  34.733  1.00  0.00     0.037 A 
ATOM     49  C   UNL A   1      41.532  27.745  28.338  1.00  0.00     0.037 A 
ATOM     50  C   UNL A   1      44.015  30.930  33.924  1.00  0.00     0.049 A 
ATOM     51  C   UNL A   1      42.834  27.865  29.057  1.00  0.00     0.074 A 
ATOM     52  C   UNL A   1      44.279  32.259  33.647  1.00  0.00     0.029 A 
ATOM     53  N   UNL A   1      44.637  30.206  32.933  1.00  0.00    -0.354 N 
ATOM     54  N   UNL A   1      43.670  28.854  28.875  1.00  0.00    -0.248 NA
ATOM     55  C   UNL A   1      42.968  27.168  30.329  1.00  0.00     0.031 C 
ATOM     56  C   UNL A   1      44.625  32.285  32.265  1.00  0.00     0.029 A 
ATOM     57  C   UNL A   1      44.632  30.971  31.794  1.00  0.00     0.049 A 
ATOM     58  H   UNL A   1      45.016  29.303  33.025  1.00  0.00     0.167 HD
ATOM     59  C   UNL A   1      44.141  29.168  30.144  1.00  0.00     0.074 A 
ATOM     60  C   UNL A   1      43.718  28.054  30.991  1.00  0.00     0.031 C 
ATOM     61  C   UNL A   1      44.570  30.427  30.453  1.00  0.00     0.037 A 
BRANCH  48  62
ATOM     62  C   UNL A   1      43.362  29.028  35.560  1.00  0.00     0.058 A 
ATOM     63  C   UNL A   1      44.188  29.179  36.691  1.00  0.00     0.135 A 
ATOM     64  C   UNL A   1      43.142  27.694  35.142  1.00  0.00     0.135 A 
ATOM     65  F   UNL A   1      44.465  30.399  37.177  1.00  0.00    -0.206 F 
ATOM     66  C   UNL A   1      44.818  28.096  37.303  1.00  0.00     0.059 A 
ATOM     67  C   UNL A   1      43.715  26.599  35.772  1.00  0.00     0.059 A 
ATOM     68  F   UNL A   1      42.447  27.379  34.045  1.00  0.00    -0.206 F 
ATOM     69  C   UNL A   1      44.587  26.811  36.823  1.00  0.00     0.060 A 
BRANCH  69  70
ATOM     70  S   UNL A   1      45.479  25.422  37.535  1.00  0.00     0.124 S 
ATOM     71  O   UNL A   1      45.951  24.737  36.338  1.00  0.00    -0.237 OA
ATOM     72  O   UNL A   1      46.495  26.096  38.335  1.00  0.00    -0.237 OA
ATOM     73  O   UNL A   1      44.451  24.721  38.300  1.00  0.00    -0.744 OA
ENDBRANCH  69  70
ENDBRANCH  48  62
BRANCH  49  74
ATOM     74  C   UNL A   1      41.061  26.472  27.722  1.00  0.00     0.058 A 
ATOM     75  C   UNL A   1      41.774  25.849  26.681  1.00  0.00     0.135 A 
ATOM     76  C   UNL A   1      40.050  25.694  28.324  1.00  0.00     0.135 A 
ATOM     77  F   UNL A   1      42.773  26.502  26.067  1.00  0.00    -0.206 F 
ATOM     78  C   UNL A   1      41.526  24.527  26.287  1.00  0.00     0.059 A 
ATOM     79  C   UNL A   1      39.778  24.381  27.944  1.00  0.00     0.059 A 
ATOM     80  F   UNL A   1      39.348  26.157  29.370  1.00  0.00    -0.206 F 
ATOM     81  C   UNL A   1      40.535  23.793  26.939  1.00  0.00     0.060 A 
BRANCH  81  82
ATOM     82  S   UNL A   1      40.311  22.039  26.551  1.00  0.00     0.124 S 
ATOM     83  O   UNL A   1      41.405  21.795  25.618  1.00  0.00    -0.237 OA
ATOM     84  O   UNL A   1      40.437  21.413  27.863  1.00  0.00    -0.237 OA
ATOM     85  O   UNL A   1      38.971  21.990  25.967  1.00  0.00    -0.744 OA
ENDBRANCH  81  82
ENDBRANCH  49  74
BRANCH  61  86
ATOM     86  C   UNL A   1      44.800  31.411  29.334  1.00  0.00     0.058 A 
ATOM     87  C   UNL A   1      45.968  31.472  28.551  1.00  0.00     0.135 A 
ATOM     88  C   UNL A   1      43.702  32.175  28.908  1.00  0.00     0.135 A 
ATOM     89  F   UNL A   1      47.028  30.704  28.837  1.00  0.00    -0.206 F 
ATOM     90  C   UNL A   1      46.041  32.268  27.405  1.00  0.00     0.059 A 
ATOM     91  C   UNL A   1      43.744  32.950  27.754  1.00  0.00     0.059 A 
ATOM     92  F   UNL A   1      42.541  32.112  29.581  1.00  0.00    -0.206 F 
ATOM     93  C   UNL A   1      44.919  32.996  27.008  1.00  0.00     0.060 A 
BRANCH  93  94
ATOM     94  S   UNL A   1      44.971  33.935  25.465  1.00  0.00     0.124 S 
ATOM     95  O   UNL A   1      46.404  34.137  25.278  1.00  0.00    -0.237 OA
ATOM     96  O   UNL A   1      44.328  33.028  24.519  1.00  0.00    -0.237 OA
ATOM     97  O   UNL A   1      44.206  35.142  25.774  1.00  0.00    -0.744 OA
ENDBRANCH  93  94
ENDBRANCH  61  86
ENDBRANCH  35  36
ENDBRANCH  28  30
ENDBRANCH  27  28
ENDBRANCH  26  27
ENDBRANCH  25  26
ENDBRANCH  24  25
ENDBRANCH   1  24
TORSDOF 22
ENDMDL
MODEL 3
REMARK VINA RESULT:     -10.0      3.613      4.757
REMARK SMILES CCC(C)(C)[C@@H]1CCc2c(sc(=O)n2CCCC(=O)OCCOCCOC(=O)c2ccc(-c3c4nc(c(-c5c(F)cc(S(=O)(=O)[O-])cc5F)c5ccc([nH]5)c(-c5c(F)cc(S(=O)(=O)[O-])cc5F)c5nc(c(-c6c(F)cc(S(=O)(=O)[O-])cc6F)c6ccc3[nH]6)C=C5)C=C4)cc2)C1
REMARK SMILES IDX 22 1 21 2 20 3 18 4 19 5 17 6 16 7 15 8 14 9 6 10 7 11 95 12
REMARK SMILES IDX 8 13 10 14 9 15 11 16 12 17 13 18 3 19 4 20 5 21 2 22 1 23
REMARK SMILES IDX 23 24 24 25 25 26 26 27 27 28 28 29 29 30 30 31 94 32 31 33
REMARK SMILES IDX 93 34 32 35 33 36 34 37 87 38 35 39 92 40 86 41 88 42 36 43
REMARK SMILES IDX 91 44 85 45 84 46 37 48 71 49 50 50 70 51 51 52 54 53 69 54
REMARK SMILES IDX 89 55 52 56 53 57 68 59 90 60 55 61 38 62 39 63 48 64 40 65
REMARK SMILES IDX 41 66 47 67 49 68 42 69 43 70 44 71 45 72 46 73 72 74 73 75
REMARK SMILES IDX 82 76 74 77 75 78 81 79 83 80 76 81 77 82 78 83 79 84 80 85
REMARK SMILES IDX 56 86 57 87 66 88 58 89 59 90 65 91 67 92 60 93 61 94 62 95
REMARK SMILES IDX 63 96 64 97
REMARK H PARENT 88 47 54 58
REMARK Flexibility Score: inf
ROOT
ATOM      1  C   UNL A   1      39.464  22.081  26.421  1.00  0.00     0.202 C 
ENDROOT
BRANCH   1   2
ATOM      2  C   UNL A   1      38.525  21.462  25.393  1.00  0.00     0.261 C 
BRANCH   2   3
ATOM      3  O   UNL A   1      37.355  22.274  25.236  1.00  0.00    -0.463 OA
BRANCH   3   4
ATOM      4  C   UNL A   1      36.192  21.768  25.712  1.00  0.00     0.305 C 
ATOM      5  O   UNL A   1      35.764  20.643  25.482  1.00  0.00    -0.252 OA
BRANCH   4   6
ATOM      6  C   UNL A   1      35.474  22.727  26.643  1.00  0.00     0.124 C 
BRANCH   6   7
ATOM      7  C   UNL A   1      34.386  23.637  26.069  1.00  0.00     0.034 C 
BRANCH   7   8
ATOM      8  C   UNL A   1      33.289  22.991  25.221  1.00  0.00     0.127 C 
BRANCH   8   9
ATOM      9  N   UNL A   1      32.805  23.800  24.117  1.00  0.00    -0.303 N 
ATOM     10  C   UNL A   1      30.418  27.185  24.508  1.00  0.00     0.000 C 
ATOM     11  C   UNL A   1      29.886  25.999  25.351  1.00  0.00     0.011 C 
ATOM     12  C   UNL A   1      30.686  26.630  23.082  1.00  0.00     0.053 C 
ATOM     13  C   UNL A   1      30.819  24.770  25.399  1.00  0.00     0.055 C 
ATOM     14  C   UNL A   1      31.596  25.458  23.130  1.00  0.00     0.030 A 
ATOM     15  C   UNL A   1      31.703  24.642  24.189  1.00  0.00     0.035 A 
ATOM     16  S   UNL A   1      32.793  25.152  21.925  1.00  0.00    -0.079 S 
ATOM     17  C   UNL A   1      33.580  23.962  22.965  1.00  0.00     0.307 A 
ATOM     18  O   UNL A   1      34.631  23.431  22.672  1.00  0.00    -0.257 OA
BRANCH  10  19
ATOM     19  C   UNL A   1      31.570  28.086  25.161  1.00  0.00    -0.032 C 
ATOM     20  C   UNL A   1      31.542  27.846  26.690  1.00  0.00     0.011 C 
ATOM     21  C   UNL A   1      31.268  29.594  24.957  1.00  0.00     0.011 C 
BRANCH  19  22
ATOM     22  C   UNL A   1      33.028  27.874  24.647  1.00  0.00     0.003 C 
ATOM     23  C   UNL A   1      33.983  27.100  25.548  1.00  0.00     0.004 C 
ENDBRANCH  19  22
ENDBRANCH  10  19
ENDBRANCH   8   9
ENDBRANCH   7   8
ENDBRANCH   6   7
ENDBRANCH   4   6
ENDBRANCH   3   4
ENDBRANCH   2   3
ENDBRANCH   1   2
BRANCH   1  24
ATOM     24  O   UNL A   1      40.841  21.708  26.340  1.00  0.00    -0.374 OA
BRANCH  24  25
ATOM     25  C   UNL A   1      41.846  22.665  26.662  1.00  0.00     0.202 C 
BRANCH  25  26
ATOM     26  C   UNL A   1      42.381  23.534  25.533  1.00  0.00     0.261 C 
BRANCH  26  27
ATOM     27  O   UNL A   1      42.509  24.893  25.923  1.00  0.00    -0.460 OA
BRANCH  27  28
ATOM     28  C   UNL A   1      43.511  25.552  25.289  1.00  0.00     0.338 C 
ATOM     29  O   UNL A   1      44.344  25.078  24.542  1.00  0.00    -0.246 OA
BRANCH  28  30
ATOM     30  C   UNL A   1      43.543  26.930  25.789  1.00  0.00     0.060 A 
ATOM     31  C   UNL A   1      44.302  27.132  26.942  1.00  0.00     0.016 A 
ATOM     32  C   UNL A   1      42.590  27.860  25.345  1.00  0.00     0.016 A 
ATOM     33  C   UNL A   1      43.910  28.131  27.798  1.00  0.00     0.010 A 
ATOM     34  C   UNL A   1      42.194  28.849  26.207  1.00  0.00     0.010 A 
ATOM     35  C   UNL A   1      42.793  28.903  27.459  1.00  0.00    -0.014 A 
BRANCH  35  36
ATOM     36  C   UNL A   1      42.317  29.852  28.437  1.00  0.00     0.031 A 
ATOM     37  C   UNL A   1      43.314  30.908  28.705  1.00  0.00     0.074 A 
ATOM     38  C   UNL A   1      41.072  29.801  28.945  1.00  0.00     0.049 A 
ATOM     39  N   UNL A   1      44.062  31.045  29.746  1.00  0.00    -0.248 NA
ATOM     40  C   UNL A   1      43.701  31.764  27.573  1.00  0.00     0.031 C 
ATOM     41  C   UNL A   1      39.946  28.960  28.533  1.00  0.00     0.029 A 
ATOM     42  N   UNL A   1      40.527  30.584  29.909  1.00  0.00    -0.354 N 
ATOM     43  C   UNL A   1      44.827  32.178  29.493  1.00  0.00     0.074 A 
ATOM     44  C   UNL A   1      44.751  32.408  28.077  1.00  0.00     0.031 C 
ATOM     45  C   UNL A   1      38.806  29.441  29.082  1.00  0.00     0.029 A 
ATOM     46  C   UNL A   1      39.141  30.530  29.984  1.00  0.00     0.049 A 
ATOM     47  H   UNL A   1      41.071  31.145  30.509  1.00  0.00     0.167 HD
ATOM     48  C   UNL A   1      45.196  33.006  30.506  1.00  0.00     0.037 A 
ATOM     49  C   UNL A   1      38.355  31.397  30.677  1.00  0.00     0.037 A 
ATOM     50  C   UNL A   1      45.095  32.335  31.780  1.00  0.00     0.049 A 
ATOM     51  C   UNL A   1      39.231  32.042  31.698  1.00  0.00     0.074 A 
ATOM     52  C   UNL A   1      45.662  31.193  32.313  1.00  0.00     0.029 A 
ATOM     53  N   UNL A   1      43.995  32.610  32.558  1.00  0.00    -0.354 N 
ATOM     54  N   UNL A   1      39.784  31.393  32.689  1.00  0.00    -0.248 NA
ATOM     55  C   UNL A   1      39.892  33.287  31.329  1.00  0.00     0.031 C 
ATOM     56  C   UNL A   1      44.619  30.580  33.065  1.00  0.00     0.029 A 
ATOM     57  C   UNL A   1      43.501  31.416  33.018  1.00  0.00     0.049 A 
ATOM     58  H   UNL A   1      43.628  33.503  32.750  1.00  0.00     0.167 HD
ATOM     59  C   UNL A   1      41.069  31.911  32.790  1.00  0.00     0.074 A 
ATOM     60  C   UNL A   1      41.056  33.118  31.965  1.00  0.00     0.031 C 
ATOM     61  C   UNL A   1      42.100  31.168  33.289  1.00  0.00     0.037 A 
BRANCH  48  62
ATOM     62  C   UNL A   1      45.237  34.511  30.378  1.00  0.00     0.058 A 
ATOM     63  C   UNL A   1      46.397  35.195  30.793  1.00  0.00     0.135 A 
ATOM     64  C   UNL A   1      44.106  35.325  30.135  1.00  0.00     0.135 A 
ATOM     65  F   UNL A   1      47.530  34.523  31.051  1.00  0.00    -0.206 F 
ATOM     66  C   UNL A   1      46.406  36.567  31.035  1.00  0.00     0.059 A 
ATOM     67  C   UNL A   1      44.111  36.701  30.316  1.00  0.00     0.059 A 
ATOM     68  F   UNL A   1      42.908  34.831  29.808  1.00  0.00    -0.206 F 
ATOM     69  C   UNL A   1      45.250  37.308  30.809  1.00  0.00     0.060 A 
BRANCH  69  70
ATOM     70  S   UNL A   1      45.220  39.058  31.222  1.00  0.00     0.124 S 
ATOM     71  O   UNL A   1      44.674  39.633  29.999  1.00  0.00    -0.237 OA
ATOM     72  O   UNL A   1      44.345  39.076  32.389  1.00  0.00    -0.237 OA
ATOM     73  O   UNL A   1      46.623  39.361  31.492  1.00  0.00    -0.744 OA
ENDBRANCH  69  70
ENDBRANCH  48  62
BRANCH  49  74
ATOM     74  C   UNL A   1      37.061  31.986  30.230  1.00  0.00     0.058 A 
ATOM     75  C   UNL A   1      35.942  32.037  31.083  1.00  0.00     0.135 A 
ATOM     76  C   UNL A   1      36.971  32.759  29.054  1.00  0.00     0.135 A 
ATOM     77  F   UNL A   1      35.947  31.356  32.239  1.00  0.00    -0.206 F 
ATOM     78  C   UNL A   1      34.822  32.833  30.804  1.00  0.00     0.059 A 
ATOM     79  C   UNL A   1      35.864  33.549  28.750  1.00  0.00     0.059 A 
ATOM     80  F   UNL A   1      38.001  32.841  28.198  1.00  0.00    -0.206 F 
ATOM     81  C   UNL A   1      34.801  33.601  29.640  1.00  0.00     0.060 A 
BRANCH  81  82
ATOM     82  S   UNL A   1      33.434  34.752  29.346  1.00  0.00     0.124 S 
ATOM     83  O   UNL A   1      32.635  34.027  28.366  1.00  0.00    -0.237 OA
ATOM     84  O   UNL A   1      32.850  34.884  30.676  1.00  0.00    -0.237 OA
ATOM     85  O   UNL A   1      34.104  35.949  28.841  1.00  0.00    -0.744 OA
ENDBRANCH  81  82
ENDBRANCH  49  74
BRANCH  61  86
ATOM     86  C   UNL A   1      41.786  29.874  33.996  1.00  0.00     0.058 A 
ATOM     87  C   UNL A   1      41.706  28.618  33.366  1.00  0.00     0.135 A 
ATOM     88  C   UNL A   1      41.779  29.889  35.399  1.00  0.00     0.135 A 
ATOM     89  F   UNL A   1      41.798  28.510  32.033  1.00  0.00    -0.206 F 
ATOM     90  C   UNL A   1      41.610  27.434  34.101  1.00  0.00     0.059 A 
ATOM     91  C   UNL A   1      41.714  28.719  36.151  1.00  0.00     0.059 A 
ATOM     92  F   UNL A   1      41.911  31.052  36.058  1.00  0.00    -0.206 F 
ATOM     93  C   UNL A   1      41.625  27.494  35.495  1.00  0.00     0.060 A 
BRANCH  93  94
ATOM     94  S   UNL A   1      41.618  25.959  36.450  1.00  0.00     0.124 S 
ATOM     95  O   UNL A   1      40.403  25.308  35.972  1.00  0.00    -0.237 OA
ATOM     96  O   UNL A   1      42.874  25.332  36.052  1.00  0.00    -0.237 OA
ATOM     97  O   UNL A   1      41.575  26.420  37.836  1.00  0.00    -0.744 OA
ENDBRANCH  93  94
ENDBRANCH  61  86
ENDBRANCH  35  36
ENDBRANCH  28  30
ENDBRANCH  27  28
ENDBRANCH  26  27
ENDBRANCH  25  26
ENDBRANCH  24  25
ENDBRANCH   1  24
TORSDOF 22
ENDMDL
