MODEL 1
REMARK VINA RESULT:     -13.1      0.000      0.000
REMARK SMILES COc1ccc(-c2cc(Cl)cc3c2O[C@@H](C(F)(F)F)C(C(=O)OCCOCCOC(=O)c2ccc(-c4c5nc(c(-c6c(F)cc(S(=O)(=O)[O-])cc6F)c6ccc([nH]6)c(-c6c(F)cc(S(=O)(=O)[O-])cc6F)c6nc(c(-c7c(F)cc(S(=O)(=O)[O-])cc7F)c7ccc4[nH]7)C=C6)C=C5)cc2)=C3)cc1C
REMARK SMILES IDX 27 1 26 2 25 3 24 4 23 5 21 6 22 7 20 8 7 9 8 10 13 11 9 12
REMARK SMILES IDX 12 13 14 14 10 15 11 16 98 17 15 18 6 19 3 20 4 21 100 22
REMARK SMILES IDX 5 23 99 24 101 25 2 26 1 27 16 28 17 29 18 30 19 31 28 32
REMARK SMILES IDX 29 33 30 34 31 35 32 36 33 37 97 38 34 39 96 40 35 41 36 42
REMARK SMILES IDX 37 43 90 44 38 45 95 46 89 47 91 48 39 49 94 50 88 51 87 52
REMARK SMILES IDX 40 54 74 55 53 56 73 57 54 58 57 59 72 60 92 61 55 62 56 63
REMARK SMILES IDX 71 65 93 66 58 67 41 68 42 69 51 70 43 71 44 72 50 73 52 74
REMARK SMILES IDX 45 75 46 76 47 77 48 78 49 79 75 80 76 81 85 82 77 83 78 84
REMARK SMILES IDX 84 85 86 86 79 87 80 88 81 89 82 90 83 91 59 92 60 93 69 94
REMARK SMILES IDX 61 95 62 96 68 97 70 98 63 99 64 100 65 101 66 102 67 103
REMARK H PARENT 91 53 57 64
REMARK Flexibility Score: inf
ROOT
ATOM      1  C   UNL A   1      32.545  28.157  27.140  1.00  0.00     0.202 C 
ENDROOT
BRANCH   1   2
ATOM      2  O   UNL A   1      31.933  27.399  26.099  1.00  0.00    -0.374 OA
BRANCH   2   3
ATOM      3  C   UNL A   1      30.774  26.679  26.509  1.00  0.00     0.202 C 
BRANCH   3   4
ATOM      4  C   UNL A   1      30.804  25.274  25.888  1.00  0.00     0.261 C 
BRANCH   4   5
ATOM      5  O   UNL A   1      32.016  24.538  26.150  1.00  0.00    -0.460 OA
BRANCH   5   6
ATOM      6  C   UNL A   1      32.644  24.047  25.031  1.00  0.00     0.338 C 
ATOM      7  O   UNL A   1      32.261  23.154  24.311  1.00  0.00    -0.246 OA
BRANCH   6   8
ATOM      8  C   UNL A   1      33.730  25.036  24.620  1.00  0.00     0.087 C 
ATOM      9  C   UNL A   1      35.681  21.535  24.705  1.00  0.00     0.026 A 
ATOM     10  C   UNL A   1      36.982  21.469  25.246  1.00  0.00     0.033 A 
ATOM     11  C   UNL A   1      35.214  22.843  24.439  1.00  0.00     0.135 A 
ATOM     12  C   UNL A   1      37.625  22.604  25.737  1.00  0.00     0.042 A 
ATOM     13  C   UNL A   1      35.691  23.913  25.236  1.00  0.00     0.019 A 
ATOM     14  O   UNL A   1      34.479  23.202  23.270  1.00  0.00    -0.475 OA
ATOM     15  Cl  UNL A   1      39.217  22.468  26.370  1.00  0.00    -0.084 Cl
ATOM     16  C   UNL A   1      36.943  23.810  25.826  1.00  0.00     0.032 A 
ATOM     17  C   UNL A   1      34.830  25.126  25.399  1.00  0.00     0.027 C 
ATOM     18  C   UNL A   1      34.155  24.669  23.212  1.00  0.00     0.316 C 
BRANCH   9  19
ATOM     19  C   UNL A   1      34.861  20.316  25.085  1.00  0.00    -0.014 A 
ATOM     20  C   UNL A   1      32.992  18.116  25.070  1.00  0.00     0.121 A 
ATOM     21  C   UNL A   1      32.708  19.321  25.718  1.00  0.00     0.047 A 
ATOM     22  C   UNL A   1      34.197  17.997  24.377  1.00  0.00    -0.008 A 
ATOM     23  C   UNL A   1      33.619  20.406  25.717  1.00  0.00     0.013 A 
ATOM     24  C   UNL A   1      35.137  19.068  24.450  1.00  0.00     0.016 A 
ATOM     25  C   UNL A   1      34.428  16.872  23.402  1.00  0.00     0.048 C 
BRANCH  20  26
ATOM     26  O   UNL A   1      31.967  17.204  25.003  1.00  0.00    -0.496 OA
ATOM     27  C   UNL A   1      32.183  16.007  25.753  1.00  0.00     0.278 C 
ENDBRANCH  20  26
ENDBRANCH   9  19
BRANCH  18  28
ATOM     28  C   UNL A   1      33.170  25.338  22.185  1.00  0.00     0.430 C 
ATOM     29  F   UNL A   1      32.134  25.954  22.822  1.00  0.00    -0.167 F 
ATOM     30  F   UNL A   1      33.819  26.340  21.526  1.00  0.00    -0.167 F 
ATOM     31  F   UNL A   1      32.627  24.560  21.241  1.00  0.00    -0.167 F 
ENDBRANCH  18  28
ENDBRANCH   6   8
ENDBRANCH   5   6
ENDBRANCH   4   5
ENDBRANCH   3   4
ENDBRANCH   2   3
ENDBRANCH   1   2
BRANCH   1  32
ATOM     32  C   UNL A   1      32.608  29.675  26.895  1.00  0.00     0.261 C 
BRANCH  32  33
ATOM     33  O   UNL A   1      33.952  30.153  26.736  1.00  0.00    -0.460 OA
BRANCH  33  34
ATOM     34  C   UNL A   1      34.481  30.891  27.737  1.00  0.00     0.338 C 
ATOM     35  O   UNL A   1      33.992  31.879  28.259  1.00  0.00    -0.246 OA
BRANCH  34  36
ATOM     36  C   UNL A   1      35.454  29.984  28.387  1.00  0.00     0.060 A 
ATOM     37  C   UNL A   1      35.648  29.868  29.763  1.00  0.00     0.016 A 
ATOM     38  C   UNL A   1      36.415  29.496  27.515  1.00  0.00     0.016 A 
ATOM     39  C   UNL A   1      36.878  29.395  30.259  1.00  0.00     0.010 A 
ATOM     40  C   UNL A   1      37.643  29.092  28.003  1.00  0.00     0.010 A 
ATOM     41  C   UNL A   1      37.919  29.092  29.379  1.00  0.00    -0.014 A 
BRANCH  41  42
ATOM     42  C   UNL A   1      39.357  29.000  29.738  1.00  0.00     0.031 A 
ATOM     43  C   UNL A   1      40.156  27.816  29.322  1.00  0.00     0.074 A 
ATOM     44  C   UNL A   1      40.024  30.091  30.199  1.00  0.00     0.049 A 
ATOM     45  N   UNL A   1      41.418  27.662  29.511  1.00  0.00    -0.248 NA
ATOM     46  C   UNL A   1      39.567  26.656  28.674  1.00  0.00     0.031 C 
ATOM     47  C   UNL A   1      41.465  30.359  30.131  1.00  0.00     0.029 A 
ATOM     48  N   UNL A   1      39.530  31.228  30.829  1.00  0.00    -0.354 N 
ATOM     49  C   UNL A   1      41.857  26.550  28.832  1.00  0.00     0.074 A 
ATOM     50  C   UNL A   1      40.649  25.947  28.338  1.00  0.00     0.031 C 
ATOM     51  C   UNL A   1      41.764  31.450  30.852  1.00  0.00     0.029 A 
ATOM     52  C   UNL A   1      40.561  31.843  31.552  1.00  0.00     0.049 A 
ATOM     53  H   UNL A   1      38.600  31.549  30.776  1.00  0.00     0.167 HD
ATOM     54  C   UNL A   1      43.205  26.331  28.760  1.00  0.00     0.037 A 
ATOM     55  C   UNL A   1      40.436  31.891  32.910  1.00  0.00     0.037 A 
ATOM     56  C   UNL A   1      43.883  27.164  29.770  1.00  0.00     0.049 A 
ATOM     57  C   UNL A   1      41.337  30.863  33.576  1.00  0.00     0.074 A 
ATOM     58  C   UNL A   1      44.631  28.328  29.737  1.00  0.00     0.029 A 
ATOM     59  N   UNL A   1      43.517  26.984  31.107  1.00  0.00    -0.354 N 
ATOM     60  N   UNL A   1      41.991  29.947  32.907  1.00  0.00    -0.248 NA
ATOM     61  C   UNL A   1      41.647  30.803  35.000  1.00  0.00     0.031 C 
ATOM     62  C   UNL A   1      44.592  28.909  31.043  1.00  0.00     0.029 A 
ATOM     63  C   UNL A   1      43.847  28.086  31.875  1.00  0.00     0.049 A 
ATOM     64  H   UNL A   1      43.079  26.175  31.458  1.00  0.00     0.167 HD
ATOM     65  C   UNL A   1      42.748  29.183  33.739  1.00  0.00     0.074 A 
ATOM     66  C   UNL A   1      42.504  29.764  35.049  1.00  0.00     0.031 C 
ATOM     67  C   UNL A   1      43.496  28.129  33.296  1.00  0.00     0.037 A 
BRANCH  54  68
ATOM     68  C   UNL A   1      43.930  25.471  27.728  1.00  0.00     0.058 A 
ATOM     69  C   UNL A   1      43.749  25.697  26.341  1.00  0.00     0.135 A 
ATOM     70  C   UNL A   1      44.755  24.363  28.014  1.00  0.00     0.135 A 
ATOM     71  F   UNL A   1      43.010  26.721  25.891  1.00  0.00    -0.206 F 
ATOM     72  C   UNL A   1      44.297  24.874  25.343  1.00  0.00     0.059 A 
ATOM     73  C   UNL A   1      45.291  23.512  27.040  1.00  0.00     0.059 A 
ATOM     74  F   UNL A   1      45.119  24.048  29.257  1.00  0.00    -0.206 F 
ATOM     75  C   UNL A   1      45.058  23.771  25.702  1.00  0.00     0.060 A 
BRANCH  75  76
ATOM     76  S   UNL A   1      45.716  22.675  24.429  1.00  0.00     0.124 S 
ATOM     77  O   UNL A   1      46.704  23.521  23.765  1.00  0.00    -0.237 OA
ATOM     78  O   UNL A   1      46.252  21.574  25.221  1.00  0.00    -0.237 OA
ATOM     79  O   UNL A   1      44.543  22.351  23.621  1.00  0.00    -0.744 OA
ENDBRANCH  75  76
ENDBRANCH  54  68
BRANCH  55  80
ATOM     80  C   UNL A   1      39.071  32.416  33.263  1.00  0.00     0.058 A 
ATOM     81  C   UNL A   1      38.852  33.764  32.888  1.00  0.00     0.135 A 
ATOM     82  C   UNL A   1      37.935  31.586  33.302  1.00  0.00     0.135 A 
ATOM     83  F   UNL A   1      39.892  34.613  32.834  1.00  0.00    -0.206 F 
ATOM     84  C   UNL A   1      37.635  34.206  32.369  1.00  0.00     0.059 A 
ATOM     85  C   UNL A   1      36.692  32.022  32.804  1.00  0.00     0.059 A 
ATOM     86  F   UNL A   1      38.057  30.293  33.636  1.00  0.00    -0.206 F 
ATOM     87  C   UNL A   1      36.575  33.310  32.274  1.00  0.00     0.060 A 
BRANCH  87  88
ATOM     88  S   UNL A   1      35.141  33.807  31.276  1.00  0.00     0.124 S 
ATOM     89  O   UNL A   1      34.254  32.659  31.429  1.00  0.00    -0.237 OA
ATOM     90  O   UNL A   1      34.713  35.031  31.949  1.00  0.00    -0.237 OA
ATOM     91  O   UNL A   1      35.698  33.990  29.941  1.00  0.00    -0.744 OA
ENDBRANCH  87  88
ENDBRANCH  55  80
BRANCH  67  92
ATOM     92  C   UNL A   1      43.995  27.040  34.206  1.00  0.00     0.058 A 
ATOM     93  C   UNL A   1      43.142  26.069  34.761  1.00  0.00     0.135 A 
ATOM     94  C   UNL A   1      45.379  26.833  34.396  1.00  0.00     0.135 A 
ATOM     95  F   UNL A   1      41.818  26.096  34.546  1.00  0.00    -0.206 F 
ATOM     96  C   UNL A   1      43.622  25.009  35.523  1.00  0.00     0.059 A 
ATOM     97  C   UNL A   1      45.882  25.746  35.104  1.00  0.00     0.059 A 
ATOM     98  F   UNL A   1      46.288  27.674  33.879  1.00  0.00    -0.206 F 
ATOM     99  C   UNL A   1      44.994  24.856  35.692  1.00  0.00     0.060 A 
BRANCH  99 100
ATOM    100  S   UNL A   1      45.616  23.469  36.655  1.00  0.00     0.124 S 
ATOM    101  O   UNL A   1      45.129  23.804  37.989  1.00  0.00    -0.237 OA
ATOM    102  O   UNL A   1      44.976  22.319  36.020  1.00  0.00    -0.237 OA
ATOM    103  O   UNL A   1      47.061  23.555  36.465  1.00  0.00    -0.744 OA
ENDBRANCH  99 100
ENDBRANCH  67  92
ENDBRANCH  41  42
ENDBRANCH  34  36
ENDBRANCH  33  34
ENDBRANCH  32  33
ENDBRANCH   1  32
TORSDOF 20
ENDMDL
MODEL 2
REMARK VINA RESULT:     -12.7      2.049      3.722
REMARK SMILES COc1ccc(-c2cc(Cl)cc3c2O[C@@H](C(F)(F)F)C(C(=O)OCCOCCOC(=O)c2ccc(-c4c5nc(c(-c6c(F)cc(S(=O)(=O)[O-])cc6F)c6ccc([nH]6)c(-c6c(F)cc(S(=O)(=O)[O-])cc6F)c6nc(c(-c7c(F)cc(S(=O)(=O)[O-])cc7F)c7ccc4[nH]7)C=C6)C=C5)cc2)=C3)cc1C
REMARK SMILES IDX 27 1 26 2 25 3 24 4 23 5 21 6 22 7 20 8 7 9 8 10 13 11 9 12
REMARK SMILES IDX 12 13 14 14 10 15 11 16 98 17 15 18 6 19 3 20 4 21 100 22
REMARK SMILES IDX 5 23 99 24 101 25 2 26 1 27 16 28 17 29 18 30 19 31 28 32
REMARK SMILES IDX 29 33 30 34 31 35 32 36 33 37 97 38 34 39 96 40 35 41 36 42
REMARK SMILES IDX 37 43 90 44 38 45 95 46 89 47 91 48 39 49 94 50 88 51 87 52
REMARK SMILES IDX 40 54 74 55 53 56 73 57 54 58 57 59 72 60 92 61 55 62 56 63
REMARK SMILES IDX 71 65 93 66 58 67 41 68 42 69 51 70 43 71 44 72 50 73 52 74
REMARK SMILES IDX 45 75 46 76 47 77 48 78 49 79 75 80 76 81 85 82 77 83 78 84
REMARK SMILES IDX 84 85 86 86 79 87 80 88 81 89 82 90 83 91 59 92 60 93 69 94
REMARK SMILES IDX 61 95 62 96 68 97 70 98 63 99 64 100 65 101 66 102 67 103
REMARK H PARENT 91 53 57 64
REMARK Flexibility Score: inf
ROOT
ATOM      1  C   UNL A   1      31.914  29.314  26.218  1.00  0.00     0.202 C 
ENDROOT
BRANCH   1   2
ATOM      2  O   UNL A   1      32.986  28.503  25.745  1.00  0.00    -0.374 OA
BRANCH   2   3
ATOM      3  C   UNL A   1      32.891  27.133  26.124  1.00  0.00     0.202 C 
BRANCH   3   4
ATOM      4  C   UNL A   1      34.018  26.339  25.446  1.00  0.00     0.261 C 
BRANCH   4   5
ATOM      5  O   UNL A   1      34.548  25.264  26.247  1.00  0.00    -0.460 OA
BRANCH   5   6
ATOM      6  C   UNL A   1      35.105  24.233  25.530  1.00  0.00     0.338 C 
ATOM      7  O   UNL A   1      35.827  24.322  24.564  1.00  0.00    -0.246 OA
BRANCH   6   8
ATOM      8  C   UNL A   1      34.968  22.954  26.349  1.00  0.00     0.087 C 
ATOM      9  C   UNL A   1      31.323  23.391  24.736  1.00  0.00     0.026 A 
ATOM     10  C   UNL A   1      30.175  23.132  25.514  1.00  0.00     0.033 A 
ATOM     11  C   UNL A   1      32.535  22.914  25.288  1.00  0.00     0.135 A 
ATOM     12  C   UNL A   1      30.273  22.702  26.837  1.00  0.00     0.042 A 
ATOM     13  C   UNL A   1      32.655  22.826  26.697  1.00  0.00     0.019 A 
ATOM     14  O   UNL A   1      33.564  22.286  24.524  1.00  0.00    -0.475 OA
ATOM     15  Cl  UNL A   1      28.841  22.385  27.733  1.00  0.00    -0.084 Cl
ATOM     16  C   UNL A   1      31.512  22.645  27.462  1.00  0.00     0.032 A 
ATOM     17  C   UNL A   1      34.018  22.916  27.309  1.00  0.00     0.027 C 
ATOM     18  C   UNL A   1      34.719  21.824  25.369  1.00  0.00     0.316 C 
BRANCH   9  19
ATOM     19  C   UNL A   1      31.124  24.599  23.841  1.00  0.00    -0.014 A 
ATOM     20  C   UNL A   1      31.300  27.215  22.633  1.00  0.00     0.121 A 
ATOM     21  C   UNL A   1      30.265  26.875  23.508  1.00  0.00     0.047 A 
ATOM     22  C   UNL A   1      32.296  26.272  22.375  1.00  0.00    -0.008 A 
ATOM     23  C   UNL A   1      30.184  25.596  24.111  1.00  0.00     0.013 A 
ATOM     24  C   UNL A   1      32.158  24.964  22.927  1.00  0.00     0.016 A 
ATOM     25  C   UNL A   1      33.590  26.667  21.713  1.00  0.00     0.048 C 
BRANCH  20  26
ATOM     26  O   UNL A   1      31.360  28.532  22.244  1.00  0.00    -0.496 OA
ATOM     27  C   UNL A   1      30.333  29.362  22.787  1.00  0.00     0.278 C 
ENDBRANCH  20  26
ENDBRANCH   9  19
BRANCH  18  28
ATOM     28  C   UNL A   1      36.097  21.311  24.813  1.00  0.00     0.430 C 
ATOM     29  F   UNL A   1      37.112  21.574  25.685  1.00  0.00    -0.167 F 
ATOM     30  F   UNL A   1      36.065  19.950  24.716  1.00  0.00    -0.167 F 
ATOM     31  F   UNL A   1      36.497  21.761  23.618  1.00  0.00    -0.167 F 
ENDBRANCH  18  28
ENDBRANCH   6   8
ENDBRANCH   5   6
ENDBRANCH   4   5
ENDBRANCH   3   4
ENDBRANCH   2   3
ENDBRANCH   1   2
BRANCH   1  32
ATOM     32  C   UNL A   1      32.334  30.652  26.851  1.00  0.00     0.261 C 
BRANCH  32  33
ATOM     33  O   UNL A   1      33.331  30.492  27.870  1.00  0.00    -0.460 OA
BRANCH  33  34
ATOM     34  C   UNL A   1      34.516  31.118  27.698  1.00  0.00     0.338 C 
ATOM     35  O   UNL A   1      34.701  32.314  27.544  1.00  0.00    -0.246 OA
BRANCH  34  36
ATOM     36  C   UNL A   1      35.514  30.170  28.244  1.00  0.00     0.060 A 
ATOM     37  C   UNL A   1      35.675  29.866  29.595  1.00  0.00     0.016 A 
ATOM     38  C   UNL A   1      36.521  29.856  27.345  1.00  0.00     0.016 A 
ATOM     39  C   UNL A   1      36.912  29.380  30.061  1.00  0.00     0.010 A 
ATOM     40  C   UNL A   1      37.753  29.439  27.812  1.00  0.00     0.010 A 
ATOM     41  C   UNL A   1      37.990  29.253  29.183  1.00  0.00    -0.014 A 
BRANCH  41  42
ATOM     42  C   UNL A   1      39.421  29.173  29.575  1.00  0.00     0.031 A 
ATOM     43  C   UNL A   1      40.233  27.986  29.196  1.00  0.00     0.074 A 
ATOM     44  C   UNL A   1      40.074  30.274  30.031  1.00  0.00     0.049 A 
ATOM     45  N   UNL A   1      41.491  27.840  29.415  1.00  0.00    -0.248 NA
ATOM     46  C   UNL A   1      39.662  26.812  28.555  1.00  0.00     0.031 C 
ATOM     47  C   UNL A   1      41.514  30.547  29.990  1.00  0.00     0.029 A 
ATOM     48  N   UNL A   1      39.561  31.419  30.631  1.00  0.00    -0.354 N 
ATOM     49  C   UNL A   1      41.949  26.718  28.764  1.00  0.00     0.074 A 
ATOM     50  C   UNL A   1      40.754  26.102  28.254  1.00  0.00     0.031 C 
ATOM     51  C   UNL A   1      41.793  31.651  30.699  1.00  0.00     0.029 A 
ATOM     52  C   UNL A   1      40.574  32.051  31.366  1.00  0.00     0.049 A 
ATOM     53  H   UNL A   1      38.632  31.736  30.553  1.00  0.00     0.167 HD
ATOM     54  C   UNL A   1      43.299  26.504  28.725  1.00  0.00     0.037 A 
ATOM     55  C   UNL A   1      40.419  32.121  32.721  1.00  0.00     0.037 A 
ATOM     56  C   UNL A   1      43.951  27.356  29.735  1.00  0.00     0.049 A 
ATOM     57  C   UNL A   1      41.309  31.108  33.422  1.00  0.00     0.074 A 
ATOM     58  C   UNL A   1      44.696  28.523  29.700  1.00  0.00     0.029 A 
ATOM     59  N   UNL A   1      43.557  27.197  31.067  1.00  0.00    -0.354 N 
ATOM     60  N   UNL A   1      41.982  30.184  32.783  1.00  0.00    -0.248 NA
ATOM     61  C   UNL A   1      41.588  31.072  34.854  1.00  0.00     0.031 C 
ATOM     62  C   UNL A   1      44.626  29.125  30.994  1.00  0.00     0.029 A 
ATOM     63  C   UNL A   1      43.866  28.313  31.823  1.00  0.00     0.049 A 
ATOM     64  H   UNL A   1      43.115  26.393  31.421  1.00  0.00     0.167 HD
ATOM     65  C   UNL A   1      42.723  29.437  33.644  1.00  0.00     0.074 A 
ATOM     66  C   UNL A   1      42.448  30.038  34.939  1.00  0.00     0.031 C 
ATOM     67  C   UNL A   1      43.485  28.378  33.235  1.00  0.00     0.037 A 
BRANCH  54  68
ATOM     68  C   UNL A   1      44.049  25.630  27.723  1.00  0.00     0.058 A 
ATOM     69  C   UNL A   1      44.672  26.202  26.586  1.00  0.00     0.135 A 
ATOM     70  C   UNL A   1      44.139  24.223  27.765  1.00  0.00     0.135 A 
ATOM     71  F   UNL A   1      44.698  27.529  26.398  1.00  0.00    -0.206 F 
ATOM     72  C   UNL A   1      45.280  25.444  25.572  1.00  0.00     0.059 A 
ATOM     73  C   UNL A   1      44.716  23.443  26.755  1.00  0.00     0.059 A 
ATOM     74  F   UNL A   1      43.697  23.511  28.802  1.00  0.00    -0.206 F 
ATOM     75  C   UNL A   1      45.286  24.060  25.656  1.00  0.00     0.060 A 
BRANCH  75  76
ATOM     76  S   UNL A   1      46.013  23.077  24.329  1.00  0.00     0.124 S 
ATOM     77  O   UNL A   1      46.496  21.897  25.040  1.00  0.00    -0.237 OA
ATOM     78  O   UNL A   1      44.871  22.864  23.447  1.00  0.00    -0.237 OA
ATOM     79  O   UNL A   1      47.059  23.946  23.797  1.00  0.00    -0.744 OA
ENDBRANCH  75  76
ENDBRANCH  54  68
BRANCH  55  80
ATOM     80  C   UNL A   1      39.045  32.645  33.035  1.00  0.00     0.058 A 
ATOM     81  C   UNL A   1      38.826  33.983  32.623  1.00  0.00     0.135 A 
ATOM     82  C   UNL A   1      37.913  31.810  33.072  1.00  0.00     0.135 A 
ATOM     83  F   UNL A   1      39.862  34.836  32.569  1.00  0.00    -0.206 F 
ATOM     84  C   UNL A   1      37.617  34.405  32.071  1.00  0.00     0.059 A 
ATOM     85  C   UNL A   1      36.677  32.227  32.541  1.00  0.00     0.059 A 
ATOM     86  F   UNL A   1      38.036  30.526  33.440  1.00  0.00    -0.206 F 
ATOM     87  C   UNL A   1      36.563  33.501  31.978  1.00  0.00     0.060 A 
BRANCH  87  88
ATOM     88  S   UNL A   1      35.146  33.965  30.942  1.00  0.00     0.124 S 
ATOM     89  O   UNL A   1      35.790  34.283  29.672  1.00  0.00    -0.237 OA
ATOM     90  O   UNL A   1      34.345  32.743  30.956  1.00  0.00    -0.237 OA
ATOM     91  O   UNL A   1      34.564  35.102  31.646  1.00  0.00    -0.744 OA
ENDBRANCH  87  88
ENDBRANCH  55  80
BRANCH  67  92
ATOM     92  C   UNL A   1      43.967  27.306  34.174  1.00  0.00     0.058 A 
ATOM     93  C   UNL A   1      43.120  26.303  34.676  1.00  0.00     0.135 A 
ATOM     94  C   UNL A   1      45.344  27.151  34.448  1.00  0.00     0.135 A 
ATOM     95  F   UNL A   1      41.811  26.281  34.380  1.00  0.00    -0.206 F 
ATOM     96  C   UNL A   1      43.592  25.260  35.465  1.00  0.00     0.059 A 
ATOM     97  C   UNL A   1      45.844  26.082  35.185  1.00  0.00     0.059 A 
ATOM     98  F   UNL A   1      46.250  28.027  33.988  1.00  0.00    -0.206 F 
ATOM     99  C   UNL A   1      44.956  25.159  35.718  1.00  0.00     0.060 A 
BRANCH  99 100
ATOM    100  S   UNL A   1      45.570  23.793  36.717  1.00  0.00     0.124 S 
ATOM    101  O   UNL A   1      44.712  22.701  36.268  1.00  0.00    -0.237 OA
ATOM    102  O   UNL A   1      46.971  23.700  36.315  1.00  0.00    -0.237 OA
ATOM    103  O   UNL A   1      45.348  24.256  38.083  1.00  0.00    -0.744 OA
ENDBRANCH  99 100
ENDBRANCH  67  92
ENDBRANCH  41  42
ENDBRANCH  34  36
ENDBRANCH  33  34
ENDBRANCH  32  33
ENDBRANCH   1  32
TORSDOF 20
ENDMDL
MODEL 3
REMARK VINA RESULT:     -12.7      1.536      2.912
REMARK SMILES COc1ccc(-c2cc(Cl)cc3c2O[C@@H](C(F)(F)F)C(C(=O)OCCOCCOC(=O)c2ccc(-c4c5nc(c(-c6c(F)cc(S(=O)(=O)[O-])cc6F)c6ccc([nH]6)c(-c6c(F)cc(S(=O)(=O)[O-])cc6F)c6nc(c(-c7c(F)cc(S(=O)(=O)[O-])cc7F)c7ccc4[nH]7)C=C6)C=C5)cc2)=C3)cc1C
REMARK SMILES IDX 27 1 26 2 25 3 24 4 23 5 21 6 22 7 20 8 7 9 8 10 13 11 9 12
REMARK SMILES IDX 12 13 14 14 10 15 11 16 98 17 15 18 6 19 3 20 4 21 100 22
REMARK SMILES IDX 5 23 99 24 101 25 2 26 1 27 16 28 17 29 18 30 19 31 28 32
REMARK SMILES IDX 29 33 30 34 31 35 32 36 33 37 97 38 34 39 96 40 35 41 36 42
REMARK SMILES IDX 37 43 90 44 38 45 95 46 89 47 91 48 39 49 94 50 88 51 87 52
REMARK SMILES IDX 40 54 74 55 53 56 73 57 54 58 57 59 72 60 92 61 55 62 56 63
REMARK SMILES IDX 71 65 93 66 58 67 41 68 42 69 51 70 43 71 44 72 50 73 52 74
REMARK SMILES IDX 45 75 46 76 47 77 48 78 49 79 75 80 76 81 85 82 77 83 78 84
REMARK SMILES IDX 84 85 86 86 79 87 80 88 81 89 82 90 83 91 59 92 60 93 69 94
REMARK SMILES IDX 61 95 62 96 68 97 70 98 63 99 64 100 65 101 66 102 67 103
REMARK H PARENT 91 53 57 64
REMARK Flexibility Score: inf
ROOT
ATOM      1  C   UNL A   1      32.011  29.832  25.479  1.00  0.00     0.202 C 
ENDROOT
BRANCH   1   2
ATOM      2  O   UNL A   1      33.138  29.216  24.860  1.00  0.00    -0.374 OA
BRANCH   2   3
ATOM      3  C   UNL A   1      32.923  28.841  23.502  1.00  0.00     0.202 C 
BRANCH   3   4
ATOM      4  C   UNL A   1      33.784  27.612  23.173  1.00  0.00     0.261 C 
BRANCH   4   5
ATOM      5  O   UNL A   1      33.644  26.525  24.109  1.00  0.00    -0.460 OA
BRANCH   5   6
ATOM      6  C   UNL A   1      33.765  25.272  23.558  1.00  0.00     0.338 C 
ATOM      7  O   UNL A   1      34.787  24.697  23.266  1.00  0.00    -0.246 OA
BRANCH   6   8
ATOM      8  C   UNL A   1      32.422  24.560  23.693  1.00  0.00     0.087 C 
ATOM      9  C   UNL A   1      34.966  22.046  25.505  1.00  0.00     0.026 A 
ATOM     10  C   UNL A   1      34.843  20.655  25.301  1.00  0.00     0.033 A 
ATOM     11  C   UNL A   1      33.852  22.809  25.084  1.00  0.00     0.135 A 
ATOM     12  C   UNL A   1      33.837  20.123  24.495  1.00  0.00     0.042 A 
ATOM     13  C   UNL A   1      33.065  22.330  24.006  1.00  0.00     0.019 A 
ATOM     14  O   UNL A   1      33.316  23.907  25.820  1.00  0.00    -0.475 OA
ATOM     15  Cl  UNL A   1      33.725  18.420  24.295  1.00  0.00    -0.084 Cl
ATOM     16  C   UNL A   1      33.008  20.965  23.766  1.00  0.00     0.032 A 
ATOM     17  C   UNL A   1      32.310  23.318  23.175  1.00  0.00     0.027 C 
ATOM     18  C   UNL A   1      32.097  24.504  25.173  1.00  0.00     0.316 C 
BRANCH   9  19
ATOM     19  C   UNL A   1      36.421  22.473  25.545  1.00  0.00    -0.014 A 
ATOM     20  C   UNL A   1      39.160  22.918  26.342  1.00  0.00     0.121 A 
ATOM     21  C   UNL A   1      38.184  23.912  26.465  1.00  0.00     0.047 A 
ATOM     22  C   UNL A   1      38.781  21.665  25.861  1.00  0.00    -0.008 A 
ATOM     23  C   UNL A   1      36.838  23.691  26.085  1.00  0.00     0.013 A 
ATOM     24  C   UNL A   1      37.440  21.482  25.409  1.00  0.00     0.016 A 
ATOM     25  C   UNL A   1      39.686  20.469  26.003  1.00  0.00     0.048 C 
BRANCH  20  26
ATOM     26  O   UNL A   1      40.386  23.197  26.894  1.00  0.00    -0.496 OA
ATOM     27  C   UNL A   1      41.425  23.446  25.946  1.00  0.00     0.278 C 
ENDBRANCH  20  26
ENDBRANCH   9  19
BRANCH  18  28
ATOM     28  C   UNL A   1      31.415  25.855  25.603  1.00  0.00     0.430 C 
ATOM     29  F   UNL A   1      30.934  26.532  24.522  1.00  0.00    -0.167 F 
ATOM     30  F   UNL A   1      30.315  25.582  26.361  1.00  0.00    -0.167 F 
ATOM     31  F   UNL A   1      32.145  26.729  26.305  1.00  0.00    -0.167 F 
ENDBRANCH  18  28
ENDBRANCH   6   8
ENDBRANCH   5   6
ENDBRANCH   4   5
ENDBRANCH   3   4
ENDBRANCH   2   3
ENDBRANCH   1   2
BRANCH   1  32
ATOM     32  C   UNL A   1      32.344  30.816  26.614  1.00  0.00     0.261 C 
BRANCH  32  33
ATOM     33  O   UNL A   1      33.359  30.319  27.496  1.00  0.00    -0.460 OA
BRANCH  33  34
ATOM     34  C   UNL A   1      34.455  31.086  27.694  1.00  0.00     0.338 C 
ATOM     35  O   UNL A   1      34.494  32.301  27.788  1.00  0.00    -0.246 OA
BRANCH  34  36
ATOM     36  C   UNL A   1      35.451  30.158  28.276  1.00  0.00     0.060 A 
ATOM     37  C   UNL A   1      35.608  29.900  29.637  1.00  0.00     0.016 A 
ATOM     38  C   UNL A   1      36.461  29.814  27.392  1.00  0.00     0.016 A 
ATOM     39  C   UNL A   1      36.843  29.432  30.124  1.00  0.00     0.010 A 
ATOM     40  C   UNL A   1      37.693  29.415  27.877  1.00  0.00     0.010 A 
ATOM     41  C   UNL A   1      37.925  29.276  29.255  1.00  0.00    -0.014 A 
BRANCH  41  42
ATOM     42  C   UNL A   1      39.353  29.211  29.654  1.00  0.00     0.031 A 
ATOM     43  C   UNL A   1      40.189  28.049  29.250  1.00  0.00     0.074 A 
ATOM     44  C   UNL A   1      39.984  30.310  30.144  1.00  0.00     0.049 A 
ATOM     45  N   UNL A   1      41.449  27.920  29.473  1.00  0.00    -0.248 NA
ATOM     46  C   UNL A   1      39.644  26.883  28.574  1.00  0.00     0.031 C 
ATOM     47  C   UNL A   1      41.419  30.610  30.121  1.00  0.00     0.029 A 
ATOM     48  N   UNL A   1      39.447  31.430  30.771  1.00  0.00    -0.354 N 
ATOM     49  C   UNL A   1      41.931  26.824  28.796  1.00  0.00     0.074 A 
ATOM     50  C   UNL A   1      40.750  26.201  28.261  1.00  0.00     0.031 C 
ATOM     51  C   UNL A   1      41.674  31.699  30.861  1.00  0.00     0.029 A 
ATOM     52  C   UNL A   1      40.444  32.060  31.530  1.00  0.00     0.049 A 
ATOM     53  H   UNL A   1      38.513  31.732  30.695  1.00  0.00     0.167 HD
ATOM     54  C   UNL A   1      43.285  26.635  28.761  1.00  0.00     0.037 A 
ATOM     55  C   UNL A   1      40.279  32.091  32.885  1.00  0.00     0.037 A 
ATOM     56  C   UNL A   1      43.915  27.471  29.798  1.00  0.00     0.049 A 
ATOM     57  C   UNL A   1      41.182  31.075  33.566  1.00  0.00     0.074 A 
ATOM     58  C   UNL A   1      44.639  28.651  29.799  1.00  0.00     0.029 A 
ATOM     59  N   UNL A   1      43.515  27.269  31.122  1.00  0.00    -0.354 N 
ATOM     60  N   UNL A   1      41.875  30.180  32.907  1.00  0.00    -0.248 NA
ATOM     61  C   UNL A   1      41.452  31.006  34.998  1.00  0.00     0.031 C 
ATOM     62  C   UNL A   1      44.549  29.217  31.108  1.00  0.00     0.029 A 
ATOM     63  C   UNL A   1      43.799  28.370  31.910  1.00  0.00     0.049 A 
ATOM     64  H   UNL A   1      43.085  26.448  31.452  1.00  0.00     0.167 HD
ATOM     65  C   UNL A   1      42.624  29.424  33.752  1.00  0.00     0.074 A 
ATOM     66  C   UNL A   1      42.330  29.985  35.061  1.00  0.00     0.031 C 
ATOM     67  C   UNL A   1      43.407  28.390  33.321  1.00  0.00     0.037 A 
BRANCH  54  68
ATOM     68  C   UNL A   1      44.057  25.802  27.741  1.00  0.00     0.058 A 
ATOM     69  C   UNL A   1      44.017  26.124  26.362  1.00  0.00     0.135 A 
ATOM     70  C   UNL A   1      44.795  24.633  28.025  1.00  0.00     0.135 A 
ATOM     71  F   UNL A   1      43.376  27.214  25.918  1.00  0.00    -0.206 F 
ATOM     72  C   UNL A   1      44.612  25.335  25.364  1.00  0.00     0.059 A 
ATOM     73  C   UNL A   1      45.375  23.815  27.046  1.00  0.00     0.059 A 
ATOM     74  F   UNL A   1      45.025  24.220  29.271  1.00  0.00    -0.206 F 
ATOM     75  C   UNL A   1      45.280  24.171  25.713  1.00  0.00     0.060 A 
BRANCH  75  76
ATOM     76  S   UNL A   1      45.996  23.121  24.433  1.00  0.00     0.124 S 
ATOM     77  O   UNL A   1      47.098  23.939  23.935  1.00  0.00    -0.237 OA
ATOM     78  O   UNL A   1      46.376  21.934  25.189  1.00  0.00    -0.237 OA
ATOM     79  O   UNL A   1      44.894  22.935  23.491  1.00  0.00    -0.744 OA
ENDBRANCH  75  76
ENDBRANCH  54  68
BRANCH  55  80
ATOM     80  C   UNL A   1      38.894  32.582  33.203  1.00  0.00     0.058 A 
ATOM     81  C   UNL A   1      38.655  33.928  32.832  1.00  0.00     0.135 A 
ATOM     82  C   UNL A   1      37.775  31.728  33.204  1.00  0.00     0.135 A 
ATOM     83  F   UNL A   1      39.677  34.800  32.814  1.00  0.00    -0.206 F 
ATOM     84  C   UNL A   1      37.444  34.348  32.283  1.00  0.00     0.059 A 
ATOM     85  C   UNL A   1      36.537  32.141  32.675  1.00  0.00     0.059 A 
ATOM     86  F   UNL A   1      37.917  30.435  33.532  1.00  0.00    -0.206 F 
ATOM     87  C   UNL A   1      36.406  33.429  32.152  1.00  0.00     0.060 A 
BRANCH  87  88
ATOM     88  S   UNL A   1      34.990  33.903  31.118  1.00  0.00     0.124 S 
ATOM     89  O   UNL A   1      35.632  34.199  29.842  1.00  0.00    -0.237 OA
ATOM     90  O   UNL A   1      34.172  32.693  31.150  1.00  0.00    -0.237 OA
ATOM     91  O   UNL A   1      34.427  35.055  31.814  1.00  0.00    -0.744 OA
ENDBRANCH  87  88
ENDBRANCH  55  80
BRANCH  67  92
ATOM     92  C   UNL A   1      43.903  27.302  34.234  1.00  0.00     0.058 A 
ATOM     93  C   UNL A   1      43.049  26.329  34.784  1.00  0.00     0.135 A 
ATOM     94  C   UNL A   1      45.286  27.099  34.433  1.00  0.00     0.135 A 
ATOM     95  F   UNL A   1      41.727  26.353  34.560  1.00  0.00    -0.206 F 
ATOM     96  C   UNL A   1      43.527  25.270  35.548  1.00  0.00     0.059 A 
ATOM     97  C   UNL A   1      45.788  26.014  35.144  1.00  0.00     0.059 A 
ATOM     98  F   UNL A   1      46.196  27.943  33.922  1.00  0.00    -0.206 F 
ATOM     99  C   UNL A   1      44.899  25.122  35.726  1.00  0.00     0.060 A 
BRANCH  99 100
ATOM    100  S   UNL A   1      45.519  23.736  36.693  1.00  0.00     0.124 S 
ATOM    101  O   UNL A   1      46.954  23.835  36.448  1.00  0.00    -0.237 OA
ATOM    102  O   UNL A   1      45.086  24.064  38.048  1.00  0.00    -0.237 OA
ATOM    103  O   UNL A   1      44.849  22.587  36.091  1.00  0.00    -0.744 OA
ENDBRANCH  99 100
ENDBRANCH  67  92
ENDBRANCH  41  42
ENDBRANCH  34  36
ENDBRANCH  33  34
ENDBRANCH  32  33
ENDBRANCH   1  32
TORSDOF 20
ENDMDL
