MODEL 1
REMARK VINA RESULT:     -12.2      0.000      0.000
REMARK SMILES O=C(OCCOCCOC(=O)c1cc(S(=O)(=O)NNC(=O)[C@H]2C=C(c3ccccc3)N=N2)ccc1F)c1ccc(-c2c3nc(c(-c4c(F)cc(S(=O)(=O)[O-])cc4F)c4ccc([nH]4)c(-c4c(F)cc(S(=O)(=O)[O-])cc4F)c4nc(c(-c5c(F)cc(S(=O)(=O)[O-])cc5F)c5ccc2[nH]5)C=C4)C=C3)cc1
REMARK SMILES IDX 7 1 6 2 5 3 4 4 3 5 2 6 1 7 37 8 38 9 102 10 39 11 101 12
REMARK SMILES IDX 40 13 41 14 42 15 95 16 43 17 100 18 94 19 96 20 44 21 99 22
REMARK SMILES IDX 93 23 92 24 45 26 79 27 58 28 78 29 59 30 62 31 77 32 97 33
REMARK SMILES IDX 60 34 61 35 76 37 98 38 63 39 46 40 47 41 56 42 48 43 49 44
REMARK SMILES IDX 55 45 57 46 50 47 51 48 52 49 53 50 54 51 80 52 81 53 90 54
REMARK SMILES IDX 82 55 83 56 89 57 91 58 84 59 85 60 86 61 87 62 88 63 64 64
REMARK SMILES IDX 65 65 74 66 66 67 67 68 73 69 75 70 68 71 69 72 70 73 71 74
REMARK SMILES IDX 72 75 8 76 9 77 10 78 11 79 12 80 13 81 35 82 14 83 34 84
REMARK SMILES IDX 36 85 33 86 15 87 16 88 17 89 18 90 19 92 20 93 21 95 22 96
REMARK SMILES IDX 23 97 32 98 24 99 31 100 25 101 26 102 30 103 27 104 29 105
REMARK SMILES IDX 28 106
REMARK H PARENT 96 25 62 36 18 91 19 94
REMARK Flexibility Score: inf
ROOT
ATOM      1  C   UNL A   1      43.012  18.693  25.758  1.00  0.00     0.202 C 
ENDROOT
BRANCH   1   2
ATOM      2  O   UNL A   1      43.645  19.611  24.854  1.00  0.00    -0.374 OA
BRANCH   2   3
ATOM      3  C   UNL A   1      44.997  19.957  25.127  1.00  0.00     0.202 C 
BRANCH   3   4
ATOM      4  C   UNL A   1      45.313  21.441  25.314  1.00  0.00     0.261 C 
BRANCH   4   5
ATOM      5  O   UNL A   1      44.258  22.185  25.954  1.00  0.00    -0.460 OA
BRANCH   5   6
ATOM      6  C   UNL A   1      43.534  23.163  25.365  1.00  0.00     0.338 C 
ATOM      7  O   UNL A   1      42.734  22.888  24.473  1.00  0.00    -0.246 OA
BRANCH   6   8
ATOM      8  C   UNL A   1      43.501  24.505  25.999  1.00  0.00     0.060 A 
ATOM      9  C   UNL A   1      44.286  24.894  27.084  1.00  0.00     0.016 A 
ATOM     10  C   UNL A   1      42.540  25.400  25.499  1.00  0.00     0.016 A 
ATOM     11  C   UNL A   1      43.953  26.021  27.811  1.00  0.00     0.010 A 
ATOM     12  C   UNL A   1      42.251  26.570  26.181  1.00  0.00     0.010 A 
ATOM     13  C   UNL A   1      42.895  26.821  27.390  1.00  0.00    -0.014 A 
BRANCH  13  14
ATOM     14  C   UNL A   1      42.536  27.943  28.243  1.00  0.00     0.031 A 
ATOM     15  C   UNL A   1      43.552  29.027  28.328  1.00  0.00     0.074 A 
ATOM     16  C   UNL A   1      41.334  28.027  28.844  1.00  0.00     0.049 A 
ATOM     17  N   UNL A   1      44.178  29.471  29.371  1.00  0.00    -0.248 NA
ATOM     18  C   UNL A   1      44.009  29.613  27.059  1.00  0.00     0.031 C 
ATOM     19  C   UNL A   1      40.158  27.179  28.630  1.00  0.00     0.029 A 
ATOM     20  N   UNL A   1      40.874  28.981  29.697  1.00  0.00    -0.354 N 
ATOM     21  C   UNL A   1      44.967  30.527  28.918  1.00  0.00     0.074 A 
ATOM     22  C   UNL A   1      44.938  30.471  27.479  1.00  0.00     0.031 C 
ATOM     23  C   UNL A   1      39.070  27.800  29.132  1.00  0.00     0.029 A 
ATOM     24  C   UNL A   1      39.492  29.013  29.812  1.00  0.00     0.049 A 
ATOM     25  H   UNL A   1      41.467  29.592  30.189  1.00  0.00     0.167 HD
ATOM     26  C   UNL A   1      45.425  31.503  29.748  1.00  0.00     0.037 A 
ATOM     27  C   UNL A   1      38.754  30.022  30.336  1.00  0.00     0.037 A 
ATOM     28  C   UNL A   1      45.386  31.101  31.127  1.00  0.00     0.049 A 
ATOM     29  C   UNL A   1      39.658  30.827  31.201  1.00  0.00     0.074 A 
ATOM     30  C   UNL A   1      45.983  30.095  31.861  1.00  0.00     0.029 A 
ATOM     31  N   UNL A   1      44.369  31.584  31.912  1.00  0.00    -0.354 N 
ATOM     32  N   UNL A   1      40.193  30.394  32.310  1.00  0.00    -0.248 NA
ATOM     33  C   UNL A   1      40.308  31.989  30.613  1.00  0.00     0.031 C 
ATOM     34  C   UNL A   1      45.007  29.710  32.824  1.00  0.00     0.029 A 
ATOM     35  C   UNL A   1      43.891  30.529  32.646  1.00  0.00     0.049 A 
ATOM     36  H   UNL A   1      44.045  32.513  31.944  1.00  0.00     0.167 HD
ATOM     37  C   UNL A   1      41.462  30.954  32.340  1.00  0.00     0.074 A 
ATOM     38  C   UNL A   1      41.437  32.004  31.326  1.00  0.00     0.031 C 
ATOM     39  C   UNL A   1      42.497  30.341  32.986  1.00  0.00     0.037 A 
BRANCH  26  40
ATOM     40  C   UNL A   1      45.602  32.940  29.326  1.00  0.00     0.058 A 
ATOM     41  C   UNL A   1      46.862  33.505  29.030  1.00  0.00     0.135 A 
ATOM     42  C   UNL A   1      44.483  33.705  28.934  1.00  0.00     0.135 A 
ATOM     43  F   UNL A   1      48.007  32.843  29.243  1.00  0.00    -0.206 F 
ATOM     44  C   UNL A   1      47.009  34.736  28.406  1.00  0.00     0.059 A 
ATOM     45  C   UNL A   1      44.609  34.918  28.252  1.00  0.00     0.059 A 
ATOM     46  F   UNL A   1      43.237  33.249  29.142  1.00  0.00    -0.206 F 
ATOM     47  C   UNL A   1      45.878  35.421  27.989  1.00  0.00     0.060 A 
BRANCH  47  48
ATOM     48  S   UNL A   1      46.120  36.905  26.998  1.00  0.00     0.124 S 
ATOM     49  O   UNL A   1      46.721  36.353  25.788  1.00  0.00    -0.237 OA
ATOM     50  O   UNL A   1      44.755  37.402  26.860  1.00  0.00    -0.237 OA
ATOM     51  O   UNL A   1      47.002  37.722  27.825  1.00  0.00    -0.744 OA
ENDBRANCH  47  48
ENDBRANCH  26  40
BRANCH  27  52
ATOM     52  C   UNL A   1      37.456  30.540  29.828  1.00  0.00     0.058 A 
ATOM     53  C   UNL A   1      37.244  30.806  28.459  1.00  0.00     0.135 A 
ATOM     54  C   UNL A   1      36.488  31.050  30.713  1.00  0.00     0.135 A 
ATOM     55  F   UNL A   1      38.128  30.420  27.526  1.00  0.00    -0.206 F 
ATOM     56  C   UNL A   1      36.170  31.562  27.999  1.00  0.00     0.059 A 
ATOM     57  C   UNL A   1      35.409  31.825  30.276  1.00  0.00     0.059 A 
ATOM     58  F   UNL A   1      36.621  30.861  32.035  1.00  0.00    -0.206 F 
ATOM     59  C   UNL A   1      35.275  32.098  28.917  1.00  0.00     0.060 A 
BRANCH  59  60
ATOM     60  S   UNL A   1      34.014  33.231  28.296  1.00  0.00     0.124 S 
ATOM     61  O   UNL A   1      34.797  34.098  27.420  1.00  0.00    -0.237 OA
ATOM     62  O   UNL A   1      33.093  32.320  27.621  1.00  0.00    -0.237 OA
ATOM     63  O   UNL A   1      33.495  33.862  29.504  1.00  0.00    -0.744 OA
ENDBRANCH  59  60
ENDBRANCH  27  52
BRANCH  39  64
ATOM     64  C   UNL A   1      42.185  29.204  33.926  1.00  0.00     0.058 A 
ATOM     65  C   UNL A   1      41.955  29.504  35.276  1.00  0.00     0.135 A 
ATOM     66  C   UNL A   1      42.283  27.844  33.578  1.00  0.00     0.135 A 
ATOM     67  F   UNL A   1      41.908  30.784  35.683  1.00  0.00    -0.206 F 
ATOM     68  C   UNL A   1      41.834  28.510  36.242  1.00  0.00     0.059 A 
ATOM     69  C   UNL A   1      42.131  26.828  34.524  1.00  0.00     0.059 A 
ATOM     70  F   UNL A   1      42.602  27.473  32.331  1.00  0.00    -0.206 F 
ATOM     71  C   UNL A   1      41.925  27.172  35.858  1.00  0.00     0.060 A 
BRANCH  71  72
ATOM     72  S   UNL A   1      41.808  25.906  37.139  1.00  0.00     0.124 S 
ATOM     73  O   UNL A   1      40.461  26.125  37.657  1.00  0.00    -0.237 OA
ATOM     74  O   UNL A   1      41.996  24.673  36.380  1.00  0.00    -0.237 OA
ATOM     75  O   UNL A   1      42.890  26.239  38.061  1.00  0.00    -0.744 OA
ENDBRANCH  71  72
ENDBRANCH  39  64
ENDBRANCH  13  14
ENDBRANCH   6   8
ENDBRANCH   5   6
ENDBRANCH   4   5
ENDBRANCH   3   4
ENDBRANCH   2   3
ENDBRANCH   1   2
BRANCH   1  76
ATOM     76  C   UNL A   1      42.033  19.247  26.805  1.00  0.00     0.261 C 
BRANCH  76  77
ATOM     77  O   UNL A   1      41.388  20.461  26.366  1.00  0.00    -0.460 OA
BRANCH  77  78
ATOM     78  C   UNL A   1      41.163  21.400  27.323  1.00  0.00     0.341 C 
ATOM     79  O   UNL A   1      41.872  21.694  28.255  1.00  0.00    -0.246 OA
BRANCH  78  80
ATOM     80  C   UNL A   1      40.021  22.229  26.898  1.00  0.00     0.097 A 
ATOM     81  C   UNL A   1      39.047  21.641  26.086  1.00  0.00     0.040 A 
ATOM     82  C   UNL A   1      39.887  23.552  27.297  1.00  0.00     0.137 A 
ATOM     83  C   UNL A   1      37.911  22.375  25.728  1.00  0.00     0.085 A 
ATOM     84  C   UNL A   1      38.773  24.297  26.899  1.00  0.00     0.041 A 
ATOM     85  F   UNL A   1      40.827  24.142  28.047  1.00  0.00    -0.206 F 
ATOM     86  C   UNL A   1      37.771  23.707  26.120  1.00  0.00     0.025 A 
BRANCH  83  87
ATOM     87  S   UNL A   1      36.672  21.541  24.782  1.00  0.00     0.257 S 
ATOM     88  O   UNL A   1      36.516  22.262  23.537  1.00  0.00    -0.205 OA
ATOM     89  O   UNL A   1      37.001  20.136  24.819  1.00  0.00    -0.205 OA
BRANCH  87  90
ATOM     90  N   UNL A   1      35.222  21.746  25.645  1.00  0.00    -0.123 NA
ATOM     91  H   UNL A   1      34.654  22.416  25.126  1.00  0.00     0.167 HD
BRANCH  90  92
ATOM     92  N   UNL A   1      34.401  20.588  25.884  1.00  0.00    -0.275 N 
ATOM     93  C   UNL A   1      33.094  20.415  25.514  1.00  0.00     0.265 C 
ATOM     94  H   UNL A   1      34.824  19.840  26.365  1.00  0.00     0.186 HD
ATOM     95  O   UNL A   1      32.620  19.276  25.614  1.00  0.00    -0.271 OA
BRANCH  93  96
ATOM     96  C   UNL A   1      32.215  21.582  25.046  1.00  0.00     0.244 C 
ATOM     97  C   UNL A   1      32.010  22.734  25.960  1.00  0.00     0.042 C 
ATOM     98  N   UNL A   1      32.837  22.215  23.854  1.00  0.00    -0.171 NA
ATOM     99  C   UNL A   1      32.397  23.803  25.260  1.00  0.00     0.091 C 
ATOM    100  N   UNL A   1      32.863  23.470  24.011  1.00  0.00    -0.155 NA
BRANCH  99 101
ATOM    101  C   UNL A   1      32.447  25.177  25.756  1.00  0.00     0.002 A 
ATOM    102  C   UNL A   1      31.279  25.849  26.137  1.00  0.00     0.010 A 
ATOM    103  C   UNL A   1      33.664  25.867  25.794  1.00  0.00     0.010 A 
ATOM    104  C   UNL A   1      31.336  27.187  26.540  1.00  0.00     0.001 A 
ATOM    105  C   UNL A   1      33.719  27.207  26.177  1.00  0.00     0.001 A 
ATOM    106  C   UNL A   1      32.553  27.868  26.548  1.00  0.00     0.000 A 
ENDBRANCH  99 101
ENDBRANCH  93  96
ENDBRANCH  90  92
ENDBRANCH  87  90
ENDBRANCH  83  87
ENDBRANCH  78  80
ENDBRANCH  77  78
ENDBRANCH  76  77
ENDBRANCH   1  76
TORSDOF 22
ENDMDL
MODEL 2
REMARK VINA RESULT:     -12.0      2.545      4.293
REMARK SMILES O=C(OCCOCCOC(=O)c1cc(S(=O)(=O)NNC(=O)[C@H]2C=C(c3ccccc3)N=N2)ccc1F)c1ccc(-c2c3nc(c(-c4c(F)cc(S(=O)(=O)[O-])cc4F)c4ccc([nH]4)c(-c4c(F)cc(S(=O)(=O)[O-])cc4F)c4nc(c(-c5c(F)cc(S(=O)(=O)[O-])cc5F)c5ccc2[nH]5)C=C4)C=C3)cc1
REMARK SMILES IDX 7 1 6 2 5 3 4 4 3 5 2 6 1 7 37 8 38 9 102 10 39 11 101 12
REMARK SMILES IDX 40 13 41 14 42 15 95 16 43 17 100 18 94 19 96 20 44 21 99 22
REMARK SMILES IDX 93 23 92 24 45 26 79 27 58 28 78 29 59 30 62 31 77 32 97 33
REMARK SMILES IDX 60 34 61 35 76 37 98 38 63 39 46 40 47 41 56 42 48 43 49 44
REMARK SMILES IDX 55 45 57 46 50 47 51 48 52 49 53 50 54 51 80 52 81 53 90 54
REMARK SMILES IDX 82 55 83 56 89 57 91 58 84 59 85 60 86 61 87 62 88 63 64 64
REMARK SMILES IDX 65 65 74 66 66 67 67 68 73 69 75 70 68 71 69 72 70 73 71 74
REMARK SMILES IDX 72 75 8 76 9 77 10 78 11 79 12 80 13 81 35 82 14 83 34 84
REMARK SMILES IDX 36 85 33 86 15 87 16 88 17 89 18 90 19 92 20 93 21 95 22 96
REMARK SMILES IDX 23 97 32 98 24 99 31 100 25 101 26 102 30 103 27 104 29 105
REMARK SMILES IDX 28 106
REMARK H PARENT 96 25 62 36 18 91 19 94
REMARK Flexibility Score: inf
ROOT
ATOM      1  C   UNL A   1      39.288  21.806  26.271  1.00  0.00     0.202 C 
ENDROOT
BRANCH   1   2
ATOM      2  O   UNL A   1      39.933  20.606  26.722  1.00  0.00    -0.374 OA
BRANCH   2   3
ATOM      3  C   UNL A   1      41.256  20.735  27.227  1.00  0.00     0.202 C 
BRANCH   3   4
ATOM      4  C   UNL A   1      42.293  19.726  26.734  1.00  0.00     0.261 C 
BRANCH   4   5
ATOM      5  O   UNL A   1      42.719  19.945  25.376  1.00  0.00    -0.460 OA
BRANCH   5   6
ATOM      6  C   UNL A   1      43.819  20.644  25.013  1.00  0.00     0.338 C 
ATOM      7  O   UNL A   1      44.563  20.214  24.135  1.00  0.00    -0.246 OA
BRANCH   6   8
ATOM      8  C   UNL A   1      43.951  22.051  25.472  1.00  0.00     0.060 A 
ATOM      9  C   UNL A   1      44.859  22.495  26.432  1.00  0.00     0.016 A 
ATOM     10  C   UNL A   1      43.023  22.961  24.939  1.00  0.00     0.016 A 
ATOM     11  C   UNL A   1      44.684  23.727  27.033  1.00  0.00     0.010 A 
ATOM     12  C   UNL A   1      42.892  24.227  25.486  1.00  0.00     0.010 A 
ATOM     13  C   UNL A   1      43.660  24.563  26.598  1.00  0.00    -0.014 A 
BRANCH  13  14
ATOM     14  C   UNL A   1      43.470  25.808  27.326  1.00  0.00     0.031 A 
ATOM     15  C   UNL A   1      44.519  26.840  27.105  1.00  0.00     0.074 A 
ATOM     16  C   UNL A   1      42.378  26.034  28.081  1.00  0.00     0.049 A 
ATOM     17  N   UNL A   1      45.311  27.388  27.969  1.00  0.00    -0.248 NA
ATOM     18  C   UNL A   1      44.793  27.222  25.711  1.00  0.00     0.031 C 
ATOM     19  C   UNL A   1      41.159  25.226  28.166  1.00  0.00     0.029 A 
ATOM     20  N   UNL A   1      42.084  27.117  28.848  1.00  0.00    -0.354 N 
ATOM     21  C   UNL A   1      46.053  28.331  27.259  1.00  0.00     0.074 A 
ATOM     22  C   UNL A   1      45.801  28.081  25.863  1.00  0.00     0.031 C 
ATOM     23  C   UNL A   1      40.179  25.965  28.730  1.00  0.00     0.029 A 
ATOM     24  C   UNL A   1      40.737  27.235  29.160  1.00  0.00     0.049 A 
ATOM     25  H   UNL A   1      42.764  27.759  29.154  1.00  0.00     0.167 HD
ATOM     26  C   UNL A   1      46.662  29.386  27.864  1.00  0.00     0.037 A 
ATOM     27  C   UNL A   1      40.119  28.343  29.638  1.00  0.00     0.037 A 
ATOM     28  C   UNL A   1      46.823  29.179  29.276  1.00  0.00     0.049 A 
ATOM     29  C   UNL A   1      41.169  29.211  30.236  1.00  0.00     0.074 A 
ATOM     30  C   UNL A   1      47.496  28.252  30.050  1.00  0.00     0.029 A 
ATOM     31  N   UNL A   1      45.954  29.815  30.127  1.00  0.00    -0.354 N 
ATOM     32  N   UNL A   1      41.855  28.906  31.305  1.00  0.00    -0.248 NA
ATOM     33  C   UNL A   1      41.756  30.248  29.399  1.00  0.00     0.031 C 
ATOM     34  C   UNL A   1      46.669  28.053  31.192  1.00  0.00     0.029 A 
ATOM     35  C   UNL A   1      45.563  28.896  31.066  1.00  0.00     0.049 A 
ATOM     36  H   UNL A   1      45.666  30.756  30.074  1.00  0.00     0.167 HD
ATOM     37  C   UNL A   1      43.130  29.400  31.066  1.00  0.00     0.074 A 
ATOM     38  C   UNL A   1      42.981  30.301  29.928  1.00  0.00     0.031 C 
ATOM     39  C   UNL A   1      44.233  28.827  31.632  1.00  0.00     0.037 A 
BRANCH  26  40
ATOM     40  C   UNL A   1      46.814  30.742  27.220  1.00  0.00     0.058 A 
ATOM     41  C   UNL A   1      45.717  31.580  26.924  1.00  0.00     0.135 A 
ATOM     42  C   UNL A   1      48.084  31.350  27.146  1.00  0.00     0.135 A 
ATOM     43  F   UNL A   1      44.449  31.170  27.062  1.00  0.00    -0.206 F 
ATOM     44  C   UNL A   1      45.861  32.914  26.570  1.00  0.00     0.059 A 
ATOM     45  C   UNL A   1      48.248  32.706  26.849  1.00  0.00     0.059 A 
ATOM     46  F   UNL A   1      49.194  30.651  27.435  1.00  0.00    -0.206 F 
ATOM     47  C   UNL A   1      47.127  33.480  26.567  1.00  0.00     0.060 A 
BRANCH  47  48
ATOM     48  S   UNL A   1      47.246  35.258  26.312  1.00  0.00     0.124 S 
ATOM     49  O   UNL A   1      47.032  35.762  27.664  1.00  0.00    -0.237 OA
ATOM     50  O   UNL A   1      48.600  35.397  25.788  1.00  0.00    -0.237 OA
ATOM     51  O   UNL A   1      46.176  35.533  25.358  1.00  0.00    -0.744 OA
ENDBRANCH  47  48
ENDBRANCH  26  40
BRANCH  27  52
ATOM     52  C   UNL A   1      38.774  28.853  29.260  1.00  0.00     0.058 A 
ATOM     53  C   UNL A   1      38.526  29.434  27.999  1.00  0.00     0.135 A 
ATOM     54  C   UNL A   1      37.774  29.034  30.232  1.00  0.00     0.135 A 
ATOM     55  F   UNL A   1      39.432  29.376  27.011  1.00  0.00    -0.206 F 
ATOM     56  C   UNL A   1      37.383  30.181  27.730  1.00  0.00     0.059 A 
ATOM     57  C   UNL A   1      36.624  29.794  29.989  1.00  0.00     0.059 A 
ATOM     58  F   UNL A   1      37.936  28.532  31.466  1.00  0.00    -0.206 F 
ATOM     59  C   UNL A   1      36.453  30.387  28.741  1.00  0.00     0.060 A 
BRANCH  59  60
ATOM     60  S   UNL A   1      35.088  31.521  28.408  1.00  0.00     0.124 S 
ATOM     61  O   UNL A   1      34.717  31.945  29.755  1.00  0.00    -0.237 OA
ATOM     62  O   UNL A   1      35.733  32.538  27.582  1.00  0.00    -0.237 OA
ATOM     63  O   UNL A   1      34.109  30.686  27.721  1.00  0.00    -0.744 OA
ENDBRANCH  59  60
ENDBRANCH  27  52
BRANCH  39  64
ATOM     64  C   UNL A   1      44.036  27.847  32.760  1.00  0.00     0.058 A 
ATOM     65  C   UNL A   1      43.933  26.484  32.444  1.00  0.00     0.135 A 
ATOM     66  C   UNL A   1      43.771  28.219  34.092  1.00  0.00     0.135 A 
ATOM     67  F   UNL A   1      44.117  26.071  31.179  1.00  0.00    -0.206 F 
ATOM     68  C   UNL A   1      43.578  25.533  33.395  1.00  0.00     0.059 A 
ATOM     69  C   UNL A   1      43.447  27.277  35.070  1.00  0.00     0.059 A 
ATOM     70  F   UNL A   1      43.749  29.508  34.454  1.00  0.00    -0.206 F 
ATOM     71  C   UNL A   1      43.334  25.937  34.707  1.00  0.00     0.060 A 
BRANCH  71  72
ATOM     72  S   UNL A   1      42.833  24.686  35.908  1.00  0.00     0.124 S 
ATOM     73  O   UNL A   1      41.622  25.277  36.471  1.00  0.00    -0.237 OA
ATOM     74  O   UNL A   1      42.625  23.511  35.068  1.00  0.00    -0.237 OA
ATOM     75  O   UNL A   1      43.968  24.605  36.823  1.00  0.00    -0.744 OA
ENDBRANCH  71  72
ENDBRANCH  39  64
ENDBRANCH  13  14
ENDBRANCH   6   8
ENDBRANCH   5   6
ENDBRANCH   4   5
ENDBRANCH   3   4
ENDBRANCH   2   3
ENDBRANCH   1   2
BRANCH   1  76
ATOM     76  C   UNL A   1      37.977  21.684  25.478  1.00  0.00     0.261 C 
BRANCH  76  77
ATOM     77  O   UNL A   1      37.072  22.776  25.741  1.00  0.00    -0.460 OA
BRANCH  77  78
ATOM     78  C   UNL A   1      36.267  23.149  24.710  1.00  0.00     0.341 C 
ATOM     79  O   UNL A   1      36.366  22.847  23.546  1.00  0.00    -0.246 OA
BRANCH  78  80
ATOM     80  C   UNL A   1      35.055  23.772  25.272  1.00  0.00     0.097 A 
ATOM     81  C   UNL A   1      34.923  25.160  25.176  1.00  0.00     0.040 A 
ATOM     82  C   UNL A   1      34.052  23.019  25.867  1.00  0.00     0.137 A 
ATOM     83  C   UNL A   1      33.751  25.776  25.628  1.00  0.00     0.085 A 
ATOM     84  C   UNL A   1      32.903  23.643  26.360  1.00  0.00     0.041 A 
ATOM     85  F   UNL A   1      34.176  21.691  25.999  1.00  0.00    -0.206 F 
ATOM     86  C   UNL A   1      32.741  25.027  26.232  1.00  0.00     0.025 A 
BRANCH  83  87
ATOM     87  S   UNL A   1      33.608  27.521  25.387  1.00  0.00     0.257 S 
ATOM     88  O   UNL A   1      34.298  28.170  26.481  1.00  0.00    -0.205 OA
ATOM     89  O   UNL A   1      33.947  27.777  24.007  1.00  0.00    -0.205 OA
BRANCH  87  90
ATOM     90  N   UNL A   1      31.957  27.876  25.577  1.00  0.00    -0.123 NA
ATOM     91  H   UNL A   1      31.781  27.970  26.578  1.00  0.00     0.167 HD
BRANCH  90  92
ATOM     92  N   UNL A   1      31.435  29.057  24.942  1.00  0.00    -0.275 N 
ATOM     93  C   UNL A   1      30.431  29.116  24.012  1.00  0.00     0.265 C 
ATOM     94  H   UNL A   1      31.843  29.914  25.202  1.00  0.00     0.186 HD
ATOM     95  O   UNL A   1      29.973  30.233  23.739  1.00  0.00    -0.271 OA
BRANCH  93  96
ATOM     96  C   UNL A   1      29.918  27.868  23.282  1.00  0.00     0.244 C 
ATOM     97  C   UNL A   1      30.900  26.972  22.621  1.00  0.00     0.042 C 
ATOM     98  N   UNL A   1      29.257  26.966  24.261  1.00  0.00    -0.171 NA
ATOM     99  C   UNL A   1      30.675  25.766  23.149  1.00  0.00     0.091 C 
ATOM    100  N   UNL A   1      29.685  25.787  24.102  1.00  0.00    -0.155 NA
BRANCH  99 101
ATOM    101  C   UNL A   1      31.440  24.553  22.865  1.00  0.00     0.002 A 
ATOM    102  C   UNL A   1      31.004  23.303  23.318  1.00  0.00     0.010 A 
ATOM    103  C   UNL A   1      32.663  24.635  22.187  1.00  0.00     0.010 A 
ATOM    104  C   UNL A   1      31.785  22.163  23.101  1.00  0.00     0.001 A 
ATOM    105  C   UNL A   1      33.452  23.502  21.988  1.00  0.00     0.001 A 
ATOM    106  C   UNL A   1      33.012  22.265  22.447  1.00  0.00     0.000 A 
ENDBRANCH  99 101
ENDBRANCH  93  96
ENDBRANCH  90  92
ENDBRANCH  87  90
ENDBRANCH  83  87
ENDBRANCH  78  80
ENDBRANCH  77  78
ENDBRANCH  76  77
ENDBRANCH   1  76
TORSDOF 22
ENDMDL
MODEL 3
REMARK VINA RESULT:     -11.5      2.546     10.255
REMARK SMILES O=C(OCCOCCOC(=O)c1cc(S(=O)(=O)NNC(=O)[C@H]2C=C(c3ccccc3)N=N2)ccc1F)c1ccc(-c2c3nc(c(-c4c(F)cc(S(=O)(=O)[O-])cc4F)c4ccc([nH]4)c(-c4c(F)cc(S(=O)(=O)[O-])cc4F)c4nc(c(-c5c(F)cc(S(=O)(=O)[O-])cc5F)c5ccc2[nH]5)C=C4)C=C3)cc1
REMARK SMILES IDX 7 1 6 2 5 3 4 4 3 5 2 6 1 7 37 8 38 9 102 10 39 11 101 12
REMARK SMILES IDX 40 13 41 14 42 15 95 16 43 17 100 18 94 19 96 20 44 21 99 22
REMARK SMILES IDX 93 23 92 24 45 26 79 27 58 28 78 29 59 30 62 31 77 32 97 33
REMARK SMILES IDX 60 34 61 35 76 37 98 38 63 39 46 40 47 41 56 42 48 43 49 44
REMARK SMILES IDX 55 45 57 46 50 47 51 48 52 49 53 50 54 51 80 52 81 53 90 54
REMARK SMILES IDX 82 55 83 56 89 57 91 58 84 59 85 60 86 61 87 62 88 63 64 64
REMARK SMILES IDX 65 65 74 66 66 67 67 68 73 69 75 70 68 71 69 72 70 73 71 74
REMARK SMILES IDX 72 75 8 76 9 77 10 78 11 79 12 80 13 81 35 82 14 83 34 84
REMARK SMILES IDX 36 85 33 86 15 87 16 88 17 89 18 90 19 92 20 93 21 95 22 96
REMARK SMILES IDX 23 97 32 98 24 99 31 100 25 101 26 102 30 103 27 104 29 105
REMARK SMILES IDX 28 106
REMARK H PARENT 96 25 62 36 18 91 19 94
REMARK Flexibility Score: inf
ROOT
ATOM      1  C   UNL A   1      32.721  35.748  30.791  1.00  0.00     0.202 C 
ENDROOT
BRANCH   1   2
ATOM      2  O   UNL A   1      33.031  37.013  31.396  1.00  0.00    -0.374 OA
BRANCH   2   3
ATOM      3  C   UNL A   1      34.048  37.021  32.390  1.00  0.00     0.202 C 
BRANCH   3   4
ATOM      4  C   UNL A   1      34.093  35.836  33.353  1.00  0.00     0.261 C 
BRANCH   4   5
ATOM      5  O   UNL A   1      35.113  34.868  33.039  1.00  0.00    -0.460 OA
BRANCH   5   6
ATOM      6  C   UNL A   1      34.883  33.564  32.765  1.00  0.00     0.338 C 
ATOM      7  O   UNL A   1      33.741  33.114  32.811  1.00  0.00    -0.246 OA
BRANCH   6   8
ATOM      8  C   UNL A   1      35.967  32.769  32.133  1.00  0.00     0.060 A 
ATOM      9  C   UNL A   1      35.928  31.390  31.926  1.00  0.00     0.016 A 
ATOM     10  C   UNL A   1      37.137  33.474  31.804  1.00  0.00     0.016 A 
ATOM     11  C   UNL A   1      37.092  30.698  31.652  1.00  0.00     0.010 A 
ATOM     12  C   UNL A   1      38.290  32.791  31.454  1.00  0.00     0.010 A 
ATOM     13  C   UNL A   1      38.282  31.399  31.478  1.00  0.00    -0.014 A 
BRANCH  13  14
ATOM     14  C   UNL A   1      39.489  30.612  31.278  1.00  0.00     0.031 A 
ATOM     15  C   UNL A   1      40.305  30.380  32.501  1.00  0.00     0.074 A 
ATOM     16  C   UNL A   1      39.797  30.067  30.087  1.00  0.00     0.049 A 
ATOM     17  N   UNL A   1      41.530  30.724  32.735  1.00  0.00    -0.248 NA
ATOM     18  C   UNL A   1      39.617  29.783  33.657  1.00  0.00     0.031 C 
ATOM     19  C   UNL A   1      38.958  29.989  28.888  1.00  0.00     0.029 A 
ATOM     20  N   UNL A   1      40.901  29.353  29.738  1.00  0.00    -0.354 N 
ATOM     21  C   UNL A   1      41.833  30.215  33.997  1.00  0.00     0.074 A 
ATOM     22  C   UNL A   1      40.586  29.782  34.573  1.00  0.00     0.031 C 
ATOM     23  C   UNL A   1      39.474  29.064  28.050  1.00  0.00     0.029 A 
ATOM     24  C   UNL A   1      40.737  28.590  28.591  1.00  0.00     0.049 A 
ATOM     25  H   UNL A   1      41.739  29.374  30.252  1.00  0.00     0.167 HD
ATOM     26  C   UNL A   1      43.111  29.989  34.405  1.00  0.00     0.037 A 
ATOM     27  C   UNL A   1      41.534  27.573  28.184  1.00  0.00     0.037 A 
ATOM     28  C   UNL A   1      44.066  30.715  33.614  1.00  0.00     0.049 A 
ATOM     29  C   UNL A   1      42.846  27.740  28.865  1.00  0.00     0.074 A 
ATOM     30  C   UNL A   1      44.303  32.053  33.365  1.00  0.00     0.029 A 
ATOM     31  N   UNL A   1      44.766  30.027  32.653  1.00  0.00    -0.354 N 
ATOM     32  N   UNL A   1      43.673  28.725  28.638  1.00  0.00    -0.248 NA
ATOM     33  C   UNL A   1      43.060  27.028  30.116  1.00  0.00     0.031 C 
ATOM     34  C   UNL A   1      44.729  32.108  32.007  1.00  0.00     0.029 A 
ATOM     35  C   UNL A   1      44.763  30.800  31.521  1.00  0.00     0.049 A 
ATOM     36  H   UNL A   1      45.191  29.145  32.759  1.00  0.00     0.167 HD
ATOM     37  C   UNL A   1      44.231  29.017  29.875  1.00  0.00     0.074 A 
ATOM     38  C   UNL A   1      43.894  27.877  30.721  1.00  0.00     0.031 C 
ATOM     39  C   UNL A   1      44.677  30.272  30.177  1.00  0.00     0.037 A 
BRANCH  26  40
ATOM     40  C   UNL A   1      43.507  28.855  35.317  1.00  0.00     0.058 A 
ATOM     41  C   UNL A   1      43.479  27.501  34.916  1.00  0.00     0.135 A 
ATOM     42  C   UNL A   1      44.195  29.121  36.519  1.00  0.00     0.135 A 
ATOM     43  F   UNL A   1      42.960  27.116  33.743  1.00  0.00    -0.206 F 
ATOM     44  C   UNL A   1      44.073  26.485  35.651  1.00  0.00     0.059 A 
ATOM     45  C   UNL A   1      44.850  28.122  37.242  1.00  0.00     0.059 A 
ATOM     46  F   UNL A   1      44.307  30.378  36.978  1.00  0.00    -0.206 F 
ATOM     47  C   UNL A   1      44.786  26.806  36.796  1.00  0.00     0.060 A 
BRANCH  47  48
ATOM     48  S   UNL A   1      45.717  25.489  37.597  1.00  0.00     0.124 S 
ATOM     49  O   UNL A   1      44.862  24.333  37.343  1.00  0.00    -0.237 OA
ATOM     50  O   UNL A   1      46.977  25.521  36.864  1.00  0.00    -0.237 OA
ATOM     51  O   UNL A   1      45.790  25.927  38.987  1.00  0.00    -0.744 OA
ENDBRANCH  47  48
ENDBRANCH  26  40
BRANCH  27  52
ATOM     52  C   UNL A   1      41.104  26.287  27.571  1.00  0.00     0.058 A 
ATOM     53  C   UNL A   1      40.055  25.517  28.115  1.00  0.00     0.135 A 
ATOM     54  C   UNL A   1      41.900  25.651  26.601  1.00  0.00     0.135 A 
ATOM     55  F   UNL A   1      39.266  25.997  29.088  1.00  0.00    -0.206 F 
ATOM     56  C   UNL A   1      39.835  24.191  27.755  1.00  0.00     0.059 A 
ATOM     57  C   UNL A   1      41.707  24.314  26.234  1.00  0.00     0.059 A 
ATOM     58  F   UNL A   1      42.933  26.303  26.044  1.00  0.00    -0.206 F 
ATOM     59  C   UNL A   1      40.687  23.585  26.840  1.00  0.00     0.060 A 
BRANCH  59  60
ATOM     60  S   UNL A   1      40.485  21.814  26.550  1.00  0.00     0.124 S 
ATOM     61  O   UNL A   1      40.565  21.280  27.906  1.00  0.00    -0.237 OA
ATOM     62  O   UNL A   1      39.165  21.757  25.927  1.00  0.00    -0.237 OA
ATOM     63  O   UNL A   1      41.604  21.481  25.676  1.00  0.00    -0.744 OA
ENDBRANCH  59  60
ENDBRANCH  27  52
BRANCH  39  64
ATOM     64  C   UNL A   1      44.840  31.266  29.056  1.00  0.00     0.058 A 
ATOM     65  C   UNL A   1      43.762  32.111  28.756  1.00  0.00     0.135 A 
ATOM     66  C   UNL A   1      45.937  31.286  28.173  1.00  0.00     0.135 A 
ATOM     67  F   UNL A   1      42.661  32.098  29.527  1.00  0.00    -0.206 F 
ATOM     68  C   UNL A   1      43.760  32.933  27.633  1.00  0.00     0.059 A 
ATOM     69  C   UNL A   1      45.971  32.128  27.059  1.00  0.00     0.059 A 
ATOM     70  F   UNL A   1      46.962  30.438  28.329  1.00  0.00    -0.206 F 
ATOM     71  C   UNL A   1      44.869  32.934  26.787  1.00  0.00     0.060 A 
BRANCH  71  72
ATOM     72  S   UNL A   1      44.819  33.978  25.315  1.00  0.00     0.124 S 
ATOM     73  O   UNL A   1      44.492  33.011  24.271  1.00  0.00    -0.237 OA
ATOM     74  O   UNL A   1      43.763  34.931  25.642  1.00  0.00    -0.237 OA
ATOM     75  O   UNL A   1      46.165  34.541  25.240  1.00  0.00    -0.744 OA
ENDBRANCH  71  72
ENDBRANCH  39  64
ENDBRANCH  13  14
ENDBRANCH   6   8
ENDBRANCH   5   6
ENDBRANCH   4   5
ENDBRANCH   3   4
ENDBRANCH   2   3
ENDBRANCH   1   2
BRANCH   1  76
ATOM     76  C   UNL A   1      33.225  35.472  29.365  1.00  0.00     0.261 C 
BRANCH  76  77
ATOM     77  O   UNL A   1      33.768  34.143  29.222  1.00  0.00    -0.460 OA
BRANCH  77  78
ATOM     78  C   UNL A   1      34.349  33.858  28.027  1.00  0.00     0.341 C 
ATOM     79  O   UNL A   1      34.900  34.620  27.270  1.00  0.00    -0.246 OA
BRANCH  78  80
ATOM     80  C   UNL A   1      34.457  32.394  27.903  1.00  0.00     0.097 A 
ATOM     81  C   UNL A   1      33.351  31.689  27.419  1.00  0.00     0.040 A 
ATOM     82  C   UNL A   1      35.622  31.714  28.233  1.00  0.00     0.137 A 
ATOM     83  C   UNL A   1      33.446  30.308  27.214  1.00  0.00     0.085 A 
ATOM     84  C   UNL A   1      35.697  30.328  28.073  1.00  0.00     0.041 A 
ATOM     85  F   UNL A   1      36.681  32.367  28.731  1.00  0.00    -0.206 F 
ATOM     86  C   UNL A   1      34.611  29.617  27.549  1.00  0.00     0.025 A 
BRANCH  83  87
ATOM     87  S   UNL A   1      32.045  29.496  26.508  1.00  0.00     0.257 S 
ATOM     88  O   UNL A   1      31.523  28.583  27.503  1.00  0.00    -0.205 OA
ATOM     89  O   UNL A   1      31.229  30.525  25.908  1.00  0.00    -0.205 OA
BRANCH  87  90
ATOM     90  N   UNL A   1      32.659  28.536  25.246  1.00  0.00    -0.123 NA
ATOM     91  H   UNL A   1      33.324  27.883  25.660  1.00  0.00     0.167 HD
BRANCH  90  92
ATOM     92  N   UNL A   1      31.731  27.761  24.465  1.00  0.00    -0.275 N 
ATOM     93  C   UNL A   1      31.427  26.435  24.626  1.00  0.00     0.265 C 
ATOM     94  H   UNL A   1      31.266  28.233  23.738  1.00  0.00     0.186 HD
ATOM     95  O   UNL A   1      30.452  25.995  24.003  1.00  0.00    -0.271 OA
BRANCH  93  96
ATOM     96  C   UNL A   1      32.280  25.500  25.493  1.00  0.00     0.244 C 
ATOM     97  C   UNL A   1      31.979  24.046  25.486  1.00  0.00     0.042 C 
ATOM     98  N   UNL A   1      33.689  25.546  25.024  1.00  0.00    -0.171 NA
ATOM     99  C   UNL A   1      33.129  23.458  25.147  1.00  0.00     0.091 C 
ATOM    100  N   UNL A   1      34.129  24.367  24.898  1.00  0.00    -0.155 NA
BRANCH  99 101
ATOM    101  C   UNL A   1      33.327  22.025  24.939  1.00  0.00     0.002 A 
ATOM    102  C   UNL A   1      34.548  21.413  25.245  1.00  0.00     0.010 A 
ATOM    103  C   UNL A   1      32.311  21.251  24.364  1.00  0.00     0.010 A 
ATOM    104  C   UNL A   1      34.745  20.056  24.972  1.00  0.00     0.001 A 
ATOM    105  C   UNL A   1      32.513  19.902  24.072  1.00  0.00     0.001 A 
ATOM    106  C   UNL A   1      33.732  19.304  24.375  1.00  0.00     0.000 A 
ENDBRANCH  99 101
ENDBRANCH  93  96
ENDBRANCH  90  92
ENDBRANCH  87  90
ENDBRANCH  83  87
ENDBRANCH  78  80
ENDBRANCH  77  78
ENDBRANCH  76  77
ENDBRANCH   1  76
TORSDOF 22
ENDMDL
