MODEL 1
REMARK VINA RESULT:     -10.6      0.000      0.000
REMARK SMILES O=C(OCCOCCOC(=O)[C@H]1CCC[N@@H+]1Cc1ccccc1[N+](=O)[O-])c1ccc(-c2c3nc(c(-c4c(F)cc(S(=O)(=O)[O-])cc4F)c4ccc([nH]4)c(-c4c(F)cc(S(=O)(=O)[O-])cc4F)c4nc(c(-c5c(F)cc(S(=O)(=O)[O-])cc5F)c5ccc2[nH]5)C=C4)C=C3)cc1
REMARK SMILES IDX 6 1 5 2 4 3 3 4 2 5 1 6 27 7 28 8 92 9 29 10 91 11 30 12
REMARK SMILES IDX 31 13 32 14 85 15 33 16 90 17 84 18 86 19 34 20 89 21 83 22
REMARK SMILES IDX 82 23 35 25 69 26 48 27 68 28 49 29 52 30 67 31 87 32 50 33
REMARK SMILES IDX 51 34 66 36 88 37 53 38 36 39 37 40 46 41 38 42 39 43 45 44
REMARK SMILES IDX 47 45 40 46 41 47 42 48 43 49 44 50 70 51 71 52 80 53 72 54
REMARK SMILES IDX 73 55 79 56 81 57 74 58 75 59 76 60 77 61 78 62 54 63 55 64
REMARK SMILES IDX 64 65 56 66 57 67 63 68 65 69 58 70 59 71 60 72 61 73 62 74
REMARK SMILES IDX 7 75 8 76 9 77 10 78 11 79 12 80 13 81 16 82 14 83 15 84
REMARK SMILES IDX 17 86 18 87 19 88 23 89 20 90 22 91 21 92 24 93 25 94 26 95
REMARK H PARENT 86 24 52 35 16 85
REMARK Flexibility Score: inf
ROOT
ATOM      1  O   UNL A   1      38.669  21.848  25.951  1.00  0.00    -0.374 OA
ENDROOT
BRANCH   1   2
ATOM      2  C   UNL A   1      38.979  23.153  26.439  1.00  0.00     0.202 C 
BRANCH   2   3
ATOM      3  C   UNL A   1      40.326  23.247  27.158  1.00  0.00     0.261 C 
BRANCH   3   4
ATOM      4  O   UNL A   1      41.189  24.168  26.484  1.00  0.00    -0.460 OA
BRANCH   4   5
ATOM      5  C   UNL A   1      41.030  25.515  26.456  1.00  0.00     0.338 C 
ATOM      6  O   UNL A   1      40.902  26.072  25.366  1.00  0.00    -0.246 OA
BRANCH   5   7
ATOM      7  C   UNL A   1      40.889  26.342  27.695  1.00  0.00     0.060 A 
ATOM      8  C   UNL A   1      39.881  26.201  28.654  1.00  0.00     0.016 A 
ATOM      9  C   UNL A   1      41.900  27.286  27.935  1.00  0.00     0.016 A 
ATOM     10  C   UNL A   1      39.839  26.983  29.790  1.00  0.00     0.010 A 
ATOM     11  C   UNL A   1      41.883  28.067  29.093  1.00  0.00     0.010 A 
ATOM     12  C   UNL A   1      40.843  27.913  30.014  1.00  0.00    -0.014 A 
BRANCH  12  13
ATOM     13  C   UNL A   1      40.681  28.793  31.174  1.00  0.00     0.031 A 
ATOM     14  C   UNL A   1      39.584  29.802  31.128  1.00  0.00     0.074 A 
ATOM     15  C   UNL A   1      41.413  28.563  32.276  1.00  0.00     0.049 A 
ATOM     16  N   UNL A   1      39.305  30.756  31.968  1.00  0.00    -0.248 NA
ATOM     17  C   UNL A   1      38.664  29.716  29.977  1.00  0.00     0.031 C 
ATOM     18  C   UNL A   1      42.379  27.470  32.434  1.00  0.00     0.029 A 
ATOM     19  N   UNL A   1      41.443  29.210  33.479  1.00  0.00    -0.354 N 
ATOM     20  C   UNL A   1      38.211  31.417  31.427  1.00  0.00     0.074 A 
ATOM     21  C   UNL A   1      37.862  30.747  30.196  1.00  0.00     0.031 C 
ATOM     22  C   UNL A   1      42.903  27.523  33.669  1.00  0.00     0.029 A 
ATOM     23  C   UNL A   1      42.375  28.698  34.349  1.00  0.00     0.049 A 
ATOM     24  H   UNL A   1      40.855  29.968  33.699  1.00  0.00     0.167 HD
ATOM     25  C   UNL A   1      37.583  32.507  31.921  1.00  0.00     0.037 A 
ATOM     26  C   UNL A   1      42.786  29.175  35.538  1.00  0.00     0.037 A 
ATOM     27  C   UNL A   1      37.986  33.132  33.151  1.00  0.00     0.049 A 
ATOM     28  C   UNL A   1      42.141  30.443  36.026  1.00  0.00     0.074 A 
ATOM     29  C   UNL A   1      37.512  34.288  33.736  1.00  0.00     0.029 A 
ATOM     30  N   UNL A   1      38.978  32.630  33.989  1.00  0.00    -0.354 N 
ATOM     31  N   UNL A   1      41.182  31.145  35.461  1.00  0.00    -0.248 NA
ATOM     32  C   UNL A   1      42.635  31.001  37.287  1.00  0.00     0.031 C 
ATOM     33  C   UNL A   1      38.247  34.507  34.908  1.00  0.00     0.029 A 
ATOM     34  C   UNL A   1      39.141  33.458  35.082  1.00  0.00     0.049 A 
ATOM     35  H   UNL A   1      39.490  31.804  33.826  1.00  0.00     0.167 HD
ATOM     36  C   UNL A   1      40.945  32.220  36.306  1.00  0.00     0.074 A 
ATOM     37  C   UNL A   1      41.859  32.068  37.425  1.00  0.00     0.031 C 
ATOM     38  C   UNL A   1      40.062  33.242  36.175  1.00  0.00     0.037 A 
BRANCH  25  39
ATOM     39  C   UNL A   1      36.506  33.116  31.069  1.00  0.00     0.058 A 
ATOM     40  C   UNL A   1      36.788  33.819  29.886  1.00  0.00     0.135 A 
ATOM     41  C   UNL A   1      35.167  33.065  31.493  1.00  0.00     0.135 A 
ATOM     42  F   UNL A   1      38.055  33.933  29.455  1.00  0.00    -0.206 F 
ATOM     43  C   UNL A   1      35.791  34.482  29.178  1.00  0.00     0.059 A 
ATOM     44  C   UNL A   1      34.150  33.700  30.786  1.00  0.00     0.059 A 
ATOM     45  F   UNL A   1      34.841  32.423  32.625  1.00  0.00    -0.206 F 
ATOM     46  C   UNL A   1      34.475  34.426  29.642  1.00  0.00     0.060 A 
BRANCH  46  47
ATOM     47  S   UNL A   1      33.197  35.330  28.743  1.00  0.00     0.124 S 
ATOM     48  O   UNL A   1      33.999  36.264  27.958  1.00  0.00    -0.237 OA
ATOM     49  O   UNL A   1      32.536  34.272  27.986  1.00  0.00    -0.237 OA
ATOM     50  O   UNL A   1      32.394  35.931  29.804  1.00  0.00    -0.744 OA
ENDBRANCH  46  47
ENDBRANCH  25  39
BRANCH  26  51
ATOM     51  C   UNL A   1      43.882  28.495  36.279  1.00  0.00     0.058 A 
ATOM     52  C   UNL A   1      43.641  27.368  37.076  1.00  0.00     0.135 A 
ATOM     53  C   UNL A   1      45.213  28.935  36.166  1.00  0.00     0.135 A 
ATOM     54  F   UNL A   1      42.389  26.908  37.224  1.00  0.00    -0.206 F 
ATOM     55  C   UNL A   1      44.673  26.703  37.735  1.00  0.00     0.059 A 
ATOM     56  C   UNL A   1      46.265  28.273  36.791  1.00  0.00     0.059 A 
ATOM     57  F   UNL A   1      45.507  30.004  35.408  1.00  0.00    -0.206 F 
ATOM     58  C   UNL A   1      45.984  27.160  37.581  1.00  0.00     0.060 A 
BRANCH  58  59
ATOM     59  S   UNL A   1      47.323  26.258  38.393  1.00  0.00     0.124 S 
ATOM     60  O   UNL A   1      46.680  25.830  39.630  1.00  0.00    -0.237 OA
ATOM     61  O   UNL A   1      47.614  25.203  37.426  1.00  0.00    -0.237 OA
ATOM     62  O   UNL A   1      48.367  27.266  38.541  1.00  0.00    -0.744 OA
ENDBRANCH  58  59
ENDBRANCH  26  51
BRANCH  38  63
ATOM     63  C   UNL A   1      40.012  34.238  37.294  1.00  0.00     0.058 A 
ATOM     64  C   UNL A   1      40.774  35.414  37.265  1.00  0.00     0.135 A 
ATOM     65  C   UNL A   1      39.121  34.046  38.361  1.00  0.00     0.135 A 
ATOM     66  F   UNL A   1      41.645  35.633  36.267  1.00  0.00    -0.206 F 
ATOM     67  C   UNL A   1      40.660  36.369  38.267  1.00  0.00     0.059 A 
ATOM     68  C   UNL A   1      38.972  34.999  39.359  1.00  0.00     0.059 A 
ATOM     69  F   UNL A   1      38.366  32.937  38.421  1.00  0.00    -0.206 F 
ATOM     70  C   UNL A   1      39.750  36.154  39.305  1.00  0.00     0.060 A 
BRANCH  70  71
ATOM     71  S   UNL A   1      39.561  37.431  40.565  1.00  0.00     0.124 S 
ATOM     72  O   UNL A   1      38.403  38.166  40.066  1.00  0.00    -0.237 OA
ATOM     73  O   UNL A   1      39.343  36.647  41.776  1.00  0.00    -0.237 OA
ATOM     74  O   UNL A   1      40.832  38.149  40.512  1.00  0.00    -0.744 OA
ENDBRANCH  70  71
ENDBRANCH  38  63
ENDBRANCH  12  13
ENDBRANCH   5   7
ENDBRANCH   4   5
ENDBRANCH   3   4
ENDBRANCH   2   3
ENDBRANCH   1   2
BRANCH   1  75
ATOM     75  C   UNL A   1      37.751  21.813  24.865  1.00  0.00     0.202 C 
BRANCH  75  76
ATOM     76  C   UNL A   1      36.370  21.359  25.334  1.00  0.00     0.261 C 
BRANCH  76  77
ATOM     77  O   UNL A   1      35.392  21.567  24.297  1.00  0.00    -0.459 OA
BRANCH  77  78
ATOM     78  C   UNL A   1      34.512  22.592  24.521  1.00  0.00     0.365 C 
ATOM     79  O   UNL A   1      34.758  23.598  25.177  1.00  0.00    -0.245 OA
BRANCH  78  80
ATOM     80  C   UNL A   1      33.161  22.296  23.850  1.00  0.00     0.295 C 
ATOM     81  C   UNL A   1      32.849  20.804  23.915  1.00  0.00     0.083 C 
ATOM     82  N   UNL A   1      32.037  22.944  24.579  1.00  0.00    -0.319 N 
ATOM     83  C   UNL A   1      32.163  20.632  25.256  1.00  0.00     0.068 C 
ATOM     84  C   UNL A   1      31.513  21.973  25.548  1.00  0.00     0.263 C 
ATOM     85  H   UNL A   1      32.402  23.758  25.073  1.00  0.00     0.349 HD
BRANCH  82  86
ATOM     86  C   UNL A   1      31.012  23.590  23.735  1.00  0.00     0.307 C 
BRANCH  86  87
ATOM     87  C   UNL A   1      31.088  25.105  23.669  1.00  0.00     0.084 A 
ATOM     88  C   UNL A   1      31.404  25.696  22.430  1.00  0.00     0.017 A 
ATOM     89  C   UNL A   1      30.683  25.965  24.708  1.00  0.00     0.278 A 
ATOM     90  C   UNL A   1      31.158  27.049  22.193  1.00  0.00     0.001 A 
ATOM     91  C   UNL A   1      30.406  27.319  24.467  1.00  0.00     0.086 A 
ATOM     92  C   UNL A   1      30.616  27.848  23.196  1.00  0.00     0.007 A 
BRANCH  89  93
ATOM     93  N   UNL A   1      30.563  25.504  26.087  1.00  0.00     0.063 N 
ATOM     94  O   UNL A   1      31.611  25.344  26.727  1.00  0.00    -0.258 OA
ATOM     95  O   UNL A   1      29.423  25.269  26.513  1.00  0.00    -0.258 OA
ENDBRANCH  89  93
ENDBRANCH  86  87
ENDBRANCH  82  86
ENDBRANCH  78  80
ENDBRANCH  77  78
ENDBRANCH  76  77
ENDBRANCH  75  76
ENDBRANCH   1  75
TORSDOF 20
ENDMDL
MODEL 2
REMARK VINA RESULT:     -10.5      6.927     11.751
REMARK SMILES O=C(OCCOCCOC(=O)[C@H]1CCC[N@@H+]1Cc1ccccc1[N+](=O)[O-])c1ccc(-c2c3nc(c(-c4c(F)cc(S(=O)(=O)[O-])cc4F)c4ccc([nH]4)c(-c4c(F)cc(S(=O)(=O)[O-])cc4F)c4nc(c(-c5c(F)cc(S(=O)(=O)[O-])cc5F)c5ccc2[nH]5)C=C4)C=C3)cc1
REMARK SMILES IDX 6 1 5 2 4 3 3 4 2 5 1 6 27 7 28 8 92 9 29 10 91 11 30 12
REMARK SMILES IDX 31 13 32 14 85 15 33 16 90 17 84 18 86 19 34 20 89 21 83 22
REMARK SMILES IDX 82 23 35 25 69 26 48 27 68 28 49 29 52 30 67 31 87 32 50 33
REMARK SMILES IDX 51 34 66 36 88 37 53 38 36 39 37 40 46 41 38 42 39 43 45 44
REMARK SMILES IDX 47 45 40 46 41 47 42 48 43 49 44 50 70 51 71 52 80 53 72 54
REMARK SMILES IDX 73 55 79 56 81 57 74 58 75 59 76 60 77 61 78 62 54 63 55 64
REMARK SMILES IDX 64 65 56 66 57 67 63 68 65 69 58 70 59 71 60 72 61 73 62 74
REMARK SMILES IDX 7 75 8 76 9 77 10 78 11 79 12 80 13 81 16 82 14 83 15 84
REMARK SMILES IDX 17 86 18 87 19 88 23 89 20 90 22 91 21 92 24 93 25 94 26 95
REMARK H PARENT 86 24 52 35 16 85
REMARK Flexibility Score: inf
ROOT
ATOM      1  O   UNL A   1      32.299  30.177  27.579  1.00  0.00    -0.374 OA
ENDROOT
BRANCH   1   2
ATOM      2  C   UNL A   1      33.524  30.827  27.241  1.00  0.00     0.202 C 
BRANCH   2   3
ATOM      3  C   UNL A   1      34.777  30.031  27.614  1.00  0.00     0.261 C 
BRANCH   3   4
ATOM      4  O   UNL A   1      35.495  30.691  28.660  1.00  0.00    -0.460 OA
BRANCH   4   5
ATOM      5  C   UNL A   1      36.342  30.086  29.532  1.00  0.00     0.338 C 
ATOM      6  O   UNL A   1      35.908  29.730  30.627  1.00  0.00    -0.246 OA
BRANCH   5   7
ATOM      7  C   UNL A   1      37.752  29.730  29.178  1.00  0.00     0.060 A 
ATOM      8  C   UNL A   1      38.269  29.657  27.881  1.00  0.00     0.016 A 
ATOM      9  C   UNL A   1      38.632  29.521  30.251  1.00  0.00     0.016 A 
ATOM     10  C   UNL A   1      39.593  29.352  27.639  1.00  0.00     0.010 A 
ATOM     11  C   UNL A   1      39.980  29.236  30.021  1.00  0.00     0.010 A 
ATOM     12  C   UNL A   1      40.451  29.146  28.708  1.00  0.00    -0.014 A 
BRANCH  12  13
ATOM     13  C   UNL A   1      41.813  28.711  28.389  1.00  0.00     0.031 A 
ATOM     14  C   UNL A   1      42.907  29.718  28.513  1.00  0.00     0.074 A 
ATOM     15  C   UNL A   1      42.044  27.411  28.148  1.00  0.00     0.049 A 
ATOM     16  N   UNL A   1      44.164  29.615  28.190  1.00  0.00    -0.248 NA
ATOM     17  C   UNL A   1      42.534  31.020  29.097  1.00  0.00     0.031 C 
ATOM     18  C   UNL A   1      41.029  26.352  28.190  1.00  0.00     0.029 A 
ATOM     19  N   UNL A   1      43.202  26.750  27.849  1.00  0.00    -0.354 N 
ATOM     20  C   UNL A   1      44.722  30.851  28.480  1.00  0.00     0.074 A 
ATOM     21  C   UNL A   1      43.677  31.685  29.025  1.00  0.00     0.031 C 
ATOM     22  C   UNL A   1      41.615  25.172  27.930  1.00  0.00     0.029 A 
ATOM     23  C   UNL A   1      43.019  25.408  27.621  1.00  0.00     0.049 A 
ATOM     24  H   UNL A   1      44.080  27.193  27.803  1.00  0.00     0.167 HD
ATOM     25  C   UNL A   1      45.999  31.244  28.276  1.00  0.00     0.037 A 
ATOM     26  C   UNL A   1      43.890  24.494  27.155  1.00  0.00     0.037 A 
ATOM     27  C   UNL A   1      46.992  30.363  27.722  1.00  0.00     0.049 A 
ATOM     28  C   UNL A   1      45.282  24.973  26.844  1.00  0.00     0.074 A 
ATOM     29  C   UNL A   1      48.298  30.636  27.373  1.00  0.00     0.029 A 
ATOM     30  N   UNL A   1      46.768  29.019  27.439  1.00  0.00    -0.354 N 
ATOM     31  N   UNL A   1      45.790  26.175  27.005  1.00  0.00    -0.248 NA
ATOM     32  C   UNL A   1      46.211  23.996  26.271  1.00  0.00     0.031 C 
ATOM     33  C   UNL A   1      48.852  29.465  26.840  1.00  0.00     0.029 A 
ATOM     34  C   UNL A   1      47.908  28.449  26.908  1.00  0.00     0.049 A 
ATOM     35  H   UNL A   1      45.919  28.544  27.594  1.00  0.00     0.167 HD
ATOM     36  C   UNL A   1      47.105  26.097  26.570  1.00  0.00     0.074 A 
ATOM     37  C   UNL A   1      47.314  24.723  26.146  1.00  0.00     0.031 C 
ATOM     38  C   UNL A   1      48.056  27.065  26.518  1.00  0.00     0.037 A 
BRANCH  25  39
ATOM     39  C   UNL A   1      46.321  32.685  28.549  1.00  0.00     0.058 A 
ATOM     40  C   UNL A   1      46.749  33.136  29.808  1.00  0.00     0.135 A 
ATOM     41  C   UNL A   1      46.116  33.649  27.547  1.00  0.00     0.135 A 
ATOM     42  F   UNL A   1      46.924  32.263  30.815  1.00  0.00    -0.206 F 
ATOM     43  C   UNL A   1      46.922  34.491  30.077  1.00  0.00     0.059 A 
ATOM     44  C   UNL A   1      46.308  35.007  27.786  1.00  0.00     0.059 A 
ATOM     45  F   UNL A   1      45.691  33.278  26.330  1.00  0.00    -0.206 F 
ATOM     46  C   UNL A   1      46.688  35.420  29.060  1.00  0.00     0.060 A 
BRANCH  46  47
ATOM     47  S   UNL A   1      46.868  37.178  29.433  1.00  0.00     0.124 S 
ATOM     48  O   UNL A   1      47.381  37.135  30.799  1.00  0.00    -0.237 OA
ATOM     49  O   UNL A   1      47.816  37.619  28.415  1.00  0.00    -0.237 OA
ATOM     50  O   UNL A   1      45.511  37.697  29.288  1.00  0.00    -0.744 OA
ENDBRANCH  46  47
ENDBRANCH  25  39
BRANCH  26  51
ATOM     51  C   UNL A   1      43.445  23.097  26.901  1.00  0.00     0.058 A 
ATOM     52  C   UNL A   1      43.328  22.589  25.600  1.00  0.00     0.135 A 
ATOM     53  C   UNL A   1      43.169  22.222  27.966  1.00  0.00     0.135 A 
ATOM     54  F   UNL A   1      43.573  23.383  24.547  1.00  0.00    -0.206 F 
ATOM     55  C   UNL A   1      42.954  21.268  25.362  1.00  0.00     0.059 A 
ATOM     56  C   UNL A   1      42.821  20.891  27.755  1.00  0.00     0.059 A 
ATOM     57  F   UNL A   1      43.274  22.649  29.234  1.00  0.00    -0.206 F 
ATOM     58  C   UNL A   1      42.709  20.424  26.447  1.00  0.00     0.060 A 
BRANCH  58  59
ATOM     59  S   UNL A   1      42.280  18.698  26.129  1.00  0.00     0.124 S 
ATOM     60  O   UNL A   1      40.871  18.807  25.768  1.00  0.00    -0.237 OA
ATOM     61  O   UNL A   1      43.192  18.349  25.044  1.00  0.00    -0.237 OA
ATOM     62  O   UNL A   1      42.554  18.042  27.404  1.00  0.00    -0.744 OA
ENDBRANCH  58  59
ENDBRANCH  26  51
BRANCH  38  63
ATOM     63  C   UNL A   1      49.413  26.651  26.033  1.00  0.00     0.058 A 
ATOM     64  C   UNL A   1      49.812  26.853  24.705  1.00  0.00     0.135 A 
ATOM     65  C   UNL A   1      50.349  26.129  26.940  1.00  0.00     0.135 A 
ATOM     66  F   UNL A   1      48.944  27.341  23.804  1.00  0.00    -0.206 F 
ATOM     67  C   UNL A   1      51.099  26.541  24.286  1.00  0.00     0.059 A 
ATOM     68  C   UNL A   1      51.648  25.836  26.549  1.00  0.00     0.059 A 
ATOM     69  F   UNL A   1      50.009  25.931  28.224  1.00  0.00    -0.206 F 
ATOM     70  C   UNL A   1      52.011  26.041  25.219  1.00  0.00     0.060 A 
BRANCH  70  71
ATOM     71  S   UNL A   1      53.698  25.703  24.679  1.00  0.00     0.124 S 
ATOM     72  O   UNL A   1      53.712  24.244  24.658  1.00  0.00    -0.237 OA
ATOM     73  O   UNL A   1      53.747  26.357  23.375  1.00  0.00    -0.237 OA
ATOM     74  O   UNL A   1      54.517  26.325  25.716  1.00  0.00    -0.744 OA
ENDBRANCH  70  71
ENDBRANCH  38  63
ENDBRANCH  12  13
ENDBRANCH   5   7
ENDBRANCH   4   5
ENDBRANCH   3   4
ENDBRANCH   2   3
ENDBRANCH   1   2
BRANCH   1  75
ATOM     75  C   UNL A   1      31.931  29.102  26.724  1.00  0.00     0.202 C 
BRANCH  75  76
ATOM     76  C   UNL A   1      31.492  27.885  27.537  1.00  0.00     0.261 C 
BRANCH  76  77
ATOM     77  O   UNL A   1      31.788  26.669  26.824  1.00  0.00    -0.459 OA
BRANCH  77  78
ATOM     78  C   UNL A   1      30.744  26.138  26.115  1.00  0.00     0.365 C 
ATOM     79  O   UNL A   1      29.686  25.755  26.603  1.00  0.00    -0.245 OA
BRANCH  78  80
ATOM     80  C   UNL A   1      31.093  26.066  24.620  1.00  0.00     0.295 C 
ATOM     81  C   UNL A   1      29.838  25.815  23.791  1.00  0.00     0.083 C 
ATOM     82  N   UNL A   1      31.617  27.366  24.120  1.00  0.00    -0.319 N 
ATOM     83  C   UNL A   1      29.280  27.203  23.542  1.00  0.00     0.068 C 
ATOM     84  C   UNL A   1      30.481  28.130  23.587  1.00  0.00     0.263 C 
ATOM     85  H   UNL A   1      32.029  27.869  24.905  1.00  0.00     0.349 HD
BRANCH  82  86
ATOM     86  C   UNL A   1      32.784  27.285  23.220  1.00  0.00     0.307 C 
BRANCH  86  87
ATOM     87  C   UNL A   1      33.355  25.891  23.025  1.00  0.00     0.084 A 
ATOM     88  C   UNL A   1      34.094  25.328  24.083  1.00  0.00     0.017 A 
ATOM     89  C   UNL A   1      33.040  25.050  21.940  1.00  0.00     0.278 A 
ATOM     90  C   UNL A   1      34.351  23.957  24.134  1.00  0.00     0.001 A 
ATOM     91  C   UNL A   1      33.269  23.668  21.999  1.00  0.00     0.086 A 
ATOM     92  C   UNL A   1      33.897  23.121  23.116  1.00  0.00     0.007 A 
BRANCH  89  93
ATOM     93  N   UNL A   1      32.494  25.574  20.692  1.00  0.00     0.063 N 
ATOM     94  O   UNL A   1      31.386  26.125  20.743  1.00  0.00    -0.258 OA
ATOM     95  O   UNL A   1      33.159  25.400  19.661  1.00  0.00    -0.258 OA
ENDBRANCH  89  93
ENDBRANCH  86  87
ENDBRANCH  82  86
ENDBRANCH  78  80
ENDBRANCH  77  78
ENDBRANCH  76  77
ENDBRANCH  75  76
ENDBRANCH   1  75
TORSDOF 20
ENDMDL
MODEL 3
REMARK VINA RESULT:     -10.5      6.989     12.255
REMARK SMILES O=C(OCCOCCOC(=O)[C@H]1CCC[N@@H+]1Cc1ccccc1[N+](=O)[O-])c1ccc(-c2c3nc(c(-c4c(F)cc(S(=O)(=O)[O-])cc4F)c4ccc([nH]4)c(-c4c(F)cc(S(=O)(=O)[O-])cc4F)c4nc(c(-c5c(F)cc(S(=O)(=O)[O-])cc5F)c5ccc2[nH]5)C=C4)C=C3)cc1
REMARK SMILES IDX 6 1 5 2 4 3 3 4 2 5 1 6 27 7 28 8 92 9 29 10 91 11 30 12
REMARK SMILES IDX 31 13 32 14 85 15 33 16 90 17 84 18 86 19 34 20 89 21 83 22
REMARK SMILES IDX 82 23 35 25 69 26 48 27 68 28 49 29 52 30 67 31 87 32 50 33
REMARK SMILES IDX 51 34 66 36 88 37 53 38 36 39 37 40 46 41 38 42 39 43 45 44
REMARK SMILES IDX 47 45 40 46 41 47 42 48 43 49 44 50 70 51 71 52 80 53 72 54
REMARK SMILES IDX 73 55 79 56 81 57 74 58 75 59 76 60 77 61 78 62 54 63 55 64
REMARK SMILES IDX 64 65 56 66 57 67 63 68 65 69 58 70 59 71 60 72 61 73 62 74
REMARK SMILES IDX 7 75 8 76 9 77 10 78 11 79 12 80 13 81 16 82 14 83 15 84
REMARK SMILES IDX 17 86 18 87 19 88 23 89 20 90 22 91 21 92 24 93 25 94 26 95
REMARK H PARENT 86 24 52 35 16 85
REMARK Flexibility Score: inf
ROOT
ATOM      1  O   UNL A   1      32.725  29.929  27.439  1.00  0.00    -0.374 OA
ENDROOT
BRANCH   1   2
ATOM      2  C   UNL A   1      34.039  30.452  27.244  1.00  0.00     0.202 C 
BRANCH   2   3
ATOM      3  C   UNL A   1      35.150  29.595  27.856  1.00  0.00     0.261 C 
BRANCH   3   4
ATOM      4  O   UNL A   1      35.680  30.225  29.025  1.00  0.00    -0.460 OA
BRANCH   4   5
ATOM      5  C   UNL A   1      36.642  29.704  29.829  1.00  0.00     0.338 C 
ATOM      6  O   UNL A   1      36.323  29.293  30.943  1.00  0.00    -0.246 OA
BRANCH   5   7
ATOM      7  C   UNL A   1      38.054  29.501  29.375  1.00  0.00     0.060 A 
ATOM      8  C   UNL A   1      38.502  29.582  28.053  1.00  0.00     0.016 A 
ATOM      9  C   UNL A   1      39.008  29.278  30.381  1.00  0.00     0.016 A 
ATOM     10  C   UNL A   1      39.831  29.413  27.720  1.00  0.00     0.010 A 
ATOM     11  C   UNL A   1      40.359  29.131  30.061  1.00  0.00     0.010 A 
ATOM     12  C   UNL A   1      40.762  29.193  28.724  1.00  0.00    -0.014 A 
BRANCH  12  13
ATOM     13  C   UNL A   1      42.134  28.905  28.300  1.00  0.00     0.031 A 
ATOM     14  C   UNL A   1      42.437  27.520  27.837  1.00  0.00     0.074 A 
ATOM     15  C   UNL A   1      43.014  29.914  28.202  1.00  0.00     0.049 A 
ATOM     16  N   UNL A   1      43.582  26.989  27.517  1.00  0.00    -0.248 NA
ATOM     17  C   UNL A   1      41.285  26.608  27.704  1.00  0.00     0.031 C 
ATOM     18  C   UNL A   1      42.713  31.325  28.475  1.00  0.00     0.029 A 
ATOM     19  N   UNL A   1      44.325  29.922  27.821  1.00  0.00    -0.354 N 
ATOM     20  C   UNL A   1      43.300  25.669  27.195  1.00  0.00     0.074 A 
ATOM     21  C   UNL A   1      41.875  25.481  27.336  1.00  0.00     0.031 C 
ATOM     22  C   UNL A   1      43.813  32.059  28.247  1.00  0.00     0.029 A 
ATOM     23  C   UNL A   1      44.907  31.164  27.898  1.00  0.00     0.049 A 
ATOM     24  H   UNL A   1      44.805  29.117  27.520  1.00  0.00     0.167 HD
ATOM     25  C   UNL A   1      44.177  24.705  26.837  1.00  0.00     0.037 A 
ATOM     26  C   UNL A   1      46.200  31.511  27.757  1.00  0.00     0.037 A 
ATOM     27  C   UNL A   1      45.588  24.958  26.721  1.00  0.00     0.049 A 
ATOM     28  C   UNL A   1      47.175  30.408  27.453  1.00  0.00     0.074 A 
ATOM     29  C   UNL A   1      46.611  24.072  26.458  1.00  0.00     0.029 A 
ATOM     30  N   UNL A   1      46.166  26.216  26.866  1.00  0.00    -0.354 N 
ATOM     31  N   UNL A   1      46.933  29.129  27.261  1.00  0.00    -0.248 NA
ATOM     32  C   UNL A   1      48.591  30.774  27.368  1.00  0.00     0.031 C 
ATOM     33  C   UNL A   1      47.815  24.789  26.485  1.00  0.00     0.029 A 
ATOM     34  C   UNL A   1      47.536  26.130  26.709  1.00  0.00     0.049 A 
ATOM     35  H   UNL A   1      45.671  27.046  27.053  1.00  0.00     0.167 HD
ATOM     36  C   UNL A   1      48.164  28.538  27.015  1.00  0.00     0.074 A 
ATOM     37  C   UNL A   1      49.148  29.606  27.075  1.00  0.00     0.031 C 
ATOM     38  C   UNL A   1      48.463  27.238  26.766  1.00  0.00     0.037 A 
BRANCH  25  39
ATOM     39  C   UNL A   1      43.632  23.316  26.672  1.00  0.00     0.058 A 
ATOM     40  C   UNL A   1      43.223  22.532  27.764  1.00  0.00     0.135 A 
ATOM     41  C   UNL A   1      43.596  22.725  25.397  1.00  0.00     0.135 A 
ATOM     42  F   UNL A   1      43.273  23.032  29.010  1.00  0.00    -0.206 F 
ATOM     43  C   UNL A   1      42.839  21.204  27.604  1.00  0.00     0.059 A 
ATOM     44  C   UNL A   1      43.191  21.407  25.211  1.00  0.00     0.059 A 
ATOM     45  F   UNL A   1      43.992  23.420  24.320  1.00  0.00    -0.206 F 
ATOM     46  C   UNL A   1      42.836  20.647  26.323  1.00  0.00     0.060 A 
BRANCH  46  47
ATOM     47  S   UNL A   1      42.383  18.909  26.133  1.00  0.00     0.124 S 
ATOM     48  O   UNL A   1      42.599  18.403  27.486  1.00  0.00    -0.237 OA
ATOM     49  O   UNL A   1      40.991  18.993  25.703  1.00  0.00    -0.237 OA
ATOM     50  O   UNL A   1      43.319  18.422  25.124  1.00  0.00    -0.744 OA
ENDBRANCH  46  47
ENDBRANCH  25  39
BRANCH  26  51
ATOM     51  C   UNL A   1      46.622  32.922  27.971  1.00  0.00     0.058 A 
ATOM     52  C   UNL A   1      46.538  33.876  26.948  1.00  0.00     0.135 A 
ATOM     53  C   UNL A   1      47.081  33.357  29.227  1.00  0.00     0.135 A 
ATOM     54  F   UNL A   1      46.113  33.514  25.728  1.00  0.00    -0.206 F 
ATOM     55  C   UNL A   1      46.892  35.208  27.159  1.00  0.00     0.059 A 
ATOM     56  C   UNL A   1      47.414  34.686  29.470  1.00  0.00     0.059 A 
ATOM     57  F   UNL A   1      47.173  32.490  30.248  1.00  0.00    -0.206 F 
ATOM     58  C   UNL A   1      47.323  35.604  28.426  1.00  0.00     0.060 A 
BRANCH  58  59
ATOM     59  S   UNL A   1      47.725  37.344  28.705  1.00  0.00     0.124 S 
ATOM     60  O   UNL A   1      49.152  37.367  28.404  1.00  0.00    -0.237 OA
ATOM     61  O   UNL A   1      46.858  38.018  27.744  1.00  0.00    -0.237 OA
ATOM     62  O   UNL A   1      47.374  37.551  30.107  1.00  0.00    -0.744 OA
ENDBRANCH  58  59
ENDBRANCH  26  51
BRANCH  38  63
ATOM     63  C   UNL A   1      49.901  26.917  26.492  1.00  0.00     0.058 A 
ATOM     64  C   UNL A   1      50.759  26.467  27.504  1.00  0.00     0.135 A 
ATOM     65  C   UNL A   1      50.392  26.979  25.179  1.00  0.00     0.135 A 
ATOM     66  F   UNL A   1      50.332  26.401  28.776  1.00  0.00    -0.206 F 
ATOM     67  C   UNL A   1      52.068  26.094  27.224  1.00  0.00     0.059 A 
ATOM     68  C   UNL A   1      51.687  26.587  24.872  1.00  0.00     0.059 A 
ATOM     69  F   UNL A   1      49.598  27.396  24.178  1.00  0.00    -0.206 F 
ATOM     70  C   UNL A   1      52.519  26.151  25.903  1.00  0.00     0.060 A 
BRANCH  70  71
ATOM     71  S   UNL A   1      54.198  25.601  25.541  1.00  0.00     0.124 S 
ATOM     72  O   UNL A   1      54.188  24.249  26.089  1.00  0.00    -0.237 OA
ATOM     73  O   UNL A   1      54.251  25.696  24.085  1.00  0.00    -0.237 OA
ATOM     74  O   UNL A   1      55.031  26.564  26.256  1.00  0.00    -0.744 OA
ENDBRANCH  70  71
ENDBRANCH  38  63
ENDBRANCH  12  13
ENDBRANCH   5   7
ENDBRANCH   4   5
ENDBRANCH   3   4
ENDBRANCH   2   3
ENDBRANCH   1   2
BRANCH   1  75
ATOM     75  C   UNL A   1      32.547  28.578  27.033  1.00  0.00     0.202 C 
BRANCH  75  76
ATOM     76  C   UNL A   1      31.568  28.484  25.865  1.00  0.00     0.261 C 
BRANCH  76  77
ATOM     77  O   UNL A   1      32.275  28.278  24.628  1.00  0.00    -0.459 OA
BRANCH  77  78
ATOM     78  C   UNL A   1      32.765  27.013  24.438  1.00  0.00     0.365 C 
ATOM     79  O   UNL A   1      33.909  26.658  24.697  1.00  0.00    -0.245 OA
BRANCH  78  80
ATOM     80  C   UNL A   1      31.684  26.104  23.832  1.00  0.00     0.295 C 
ATOM     81  C   UNL A   1      31.191  26.673  22.505  1.00  0.00     0.083 C 
ATOM     82  N   UNL A   1      32.231  24.765  23.484  1.00  0.00    -0.319 N 
ATOM     83  C   UNL A   1      32.162  26.113  21.484  1.00  0.00     0.068 C 
ATOM     84  C   UNL A   1      32.661  24.809  22.080  1.00  0.00     0.263 C 
ATOM     85  H   UNL A   1      33.036  24.582  24.082  1.00  0.00     0.349 HD
BRANCH  82  86
ATOM     86  C   UNL A   1      31.378  23.612  23.833  1.00  0.00     0.307 C 
BRANCH  86  87
ATOM     87  C   UNL A   1      31.978  22.642  24.835  1.00  0.00     0.084 A 
ATOM     88  C   UNL A   1      32.657  21.514  24.333  1.00  0.00     0.017 A 
ATOM     89  C   UNL A   1      32.070  22.885  26.218  1.00  0.00     0.278 A 
ATOM     90  C   UNL A   1      33.521  20.774  25.142  1.00  0.00     0.001 A 
ATOM     91  C   UNL A   1      32.958  22.164  27.029  1.00  0.00     0.086 A 
ATOM     92  C   UNL A   1      33.707  21.128  26.476  1.00  0.00     0.007 A 
BRANCH  89  93
ATOM     93  N   UNL A   1      31.224  23.872  26.884  1.00  0.00     0.063 N 
ATOM     94  O   UNL A   1      31.704  24.998  27.072  1.00  0.00    -0.258 OA
ATOM     95  O   UNL A   1      30.098  23.505  27.248  1.00  0.00    -0.258 OA
ENDBRANCH  89  93
ENDBRANCH  86  87
ENDBRANCH  82  86
ENDBRANCH  78  80
ENDBRANCH  77  78
ENDBRANCH  76  77
ENDBRANCH  75  76
ENDBRANCH   1  75
TORSDOF 20
ENDMDL
