MODEL 1
REMARK VINA RESULT:     -12.5      0.000      0.000
REMARK SMILES COc1cc2ccccc2cc1C(=O)Nc1cc(C(=O)OCCOCCOC(=O)c2ccc(-c3c4nc(c(-c5c(F)cc(S(=O)(=O)[O-])cc5F)c5ccc([nH]5)c(-c5c(F)cc(S(=O)(=O)[O-])cc5F)c5nc(c(-c6c(F)cc(S(=O)(=O)[O-])cc6F)c6ccc3[nH]6)C=C5)C=C4)cc2)ccc1C
REMARK SMILES IDX 24 1 23 2 22 3 21 4 19 5 20 6 18 7 16 8 17 9 98 10 97 11
REMARK SMILES IDX 99 12 96 13 15 14 13 15 14 16 12 18 3 19 4 20 5 21 11 22
REMARK SMILES IDX 6 23 10 24 7 25 9 26 8 27 2 28 1 29 25 30 26 31 27 32 28 33
REMARK SMILES IDX 29 34 30 35 31 36 95 37 32 38 94 39 33 40 34 41 35 42 88 43
REMARK SMILES IDX 36 44 93 45 87 46 89 47 37 48 92 49 86 50 85 51 38 53 72 54
REMARK SMILES IDX 51 55 71 56 52 57 55 58 70 59 90 60 53 61 54 62 69 64 91 65
REMARK SMILES IDX 56 66 39 67 40 68 49 69 41 70 42 71 48 72 50 73 43 74 44 75
REMARK SMILES IDX 45 76 46 77 47 78 73 79 74 80 83 81 75 82 76 83 82 84 84 85
REMARK SMILES IDX 77 86 78 87 79 88 80 89 81 90 57 91 58 92 67 93 59 94 60 95
REMARK SMILES IDX 66 96 68 97 61 98 62 99 63 100 64 101 65 102
REMARK H PARENT 15 17 89 52 55 63
REMARK Flexibility Score: inf
ROOT
ATOM      1  O   UNL A   1      36.612  23.241  24.958  1.00  0.00    -0.374 OA
ENDROOT
BRANCH   1   2
ATOM      2  C   UNL A   1      35.812  24.376  25.263  1.00  0.00     0.202 C 
BRANCH   2   3
ATOM      3  C   UNL A   1      34.816  24.315  24.183  1.00  0.00     0.261 C 
BRANCH   3   4
ATOM      4  O   UNL A   1      34.304  25.566  23.863  1.00  0.00    -0.460 OA
BRANCH   4   5
ATOM      5  C   UNL A   1      33.760  25.758  22.630  1.00  0.00     0.338 C 
ATOM      6  O   UNL A   1      33.642  25.065  21.641  1.00  0.00    -0.246 OA
BRANCH   5   7
ATOM      7  C   UNL A   1      33.337  27.134  22.707  1.00  0.00     0.062 A 
ATOM      8  C   UNL A   1      31.308  28.147  22.696  1.00  0.00     0.045 A 
ATOM      9  C   UNL A   1      32.199  27.442  21.984  1.00  0.00     0.042 A 
ATOM     10  C   UNL A   1      31.728  29.041  23.673  1.00  0.00    -0.027 A 
ATOM     11  C   UNL A   1      33.052  28.981  24.132  1.00  0.00     0.006 A 
ATOM     12  C   UNL A   1      30.730  29.896  24.365  1.00  0.00     0.046 C 
ATOM     13  C   UNL A   1      33.837  27.924  23.729  1.00  0.00     0.016 A 
BRANCH   8  14
ATOM     14  N   UNL A   1      30.079  27.530  22.819  1.00  0.00    -0.322 N 
ATOM     15  C   UNL A   1      29.750  26.504  23.701  1.00  0.00     0.259 C 
ATOM     16  O   UNL A   1      28.546  26.207  23.625  1.00  0.00    -0.269 OA
ATOM     17  H   UNL A   1      29.362  27.849  22.224  1.00  0.00     0.170 HD
BRANCH  15  18
ATOM     18  C   UNL A   1      30.724  25.623  24.608  1.00  0.00     0.082 A 
ATOM     19  C   UNL A   1      31.399  25.454  26.094  1.00  0.00     0.132 A 
ATOM     20  C   UNL A   1      32.298  23.969  26.698  1.00  0.00     0.056 A 
ATOM     21  C   UNL A   1      32.596  22.315  25.795  1.00  0.00    -0.015 A 
ATOM     22  C   UNL A   1      30.905  24.336  23.831  1.00  0.00     0.026 A 
ATOM     23  C   UNL A   1      33.064  20.601  25.808  1.00  0.00     0.009 A 
ATOM     24  C   UNL A   1      31.953  22.564  24.090  1.00  0.00    -0.017 A 
ATOM     25  C   UNL A   1      32.870  19.317  24.580  1.00  0.00     0.001 A 
ATOM     26  C   UNL A   1      31.796  21.157  22.561  1.00  0.00     0.009 A 
ATOM     27  C   UNL A   1      32.252  19.515  22.982  1.00  0.00     0.001 A 
BRANCH  19  28
ATOM     28  O   UNL A   1      30.928  26.314  27.097  1.00  0.00    -0.496 OA
ATOM     29  C   UNL A   1      31.652  27.554  27.186  1.00  0.00     0.278 C 
ENDBRANCH  19  28
ENDBRANCH  15  18
ENDBRANCH   8  14
ENDBRANCH   5   7
ENDBRANCH   4   5
ENDBRANCH   3   4
ENDBRANCH   2   3
ENDBRANCH   1   2
BRANCH   1  30
ATOM     30  C   UNL A   1      36.944  22.238  25.840  1.00  0.00     0.202 C 
BRANCH  30  31
ATOM     31  C   UNL A   1      38.279  21.783  25.402  1.00  0.00     0.261 C 
BRANCH  31  32
ATOM     32  O   UNL A   1      39.305  21.773  26.495  1.00  0.00    -0.460 OA
BRANCH  32  33
ATOM     33  C   UNL A   1      40.339  22.579  26.964  1.00  0.00     0.338 C 
ATOM     34  O   UNL A   1      41.382  22.012  27.290  1.00  0.00    -0.246 OA
BRANCH  33  35
ATOM     35  C   UNL A   1      40.328  24.119  27.023  1.00  0.00     0.060 A 
ATOM     36  C   UNL A   1      41.354  24.943  26.549  1.00  0.00     0.016 A 
ATOM     37  C   UNL A   1      39.428  24.818  27.762  1.00  0.00     0.016 A 
ATOM     38  C   UNL A   1      41.775  26.103  27.301  1.00  0.00     0.010 A 
ATOM     39  C   UNL A   1      39.989  25.790  28.632  1.00  0.00     0.010 A 
ATOM     40  C   UNL A   1      41.343  26.294  28.606  1.00  0.00    -0.014 A 
BRANCH  40  41
ATOM     41  C   UNL A   1      41.874  27.186  30.077  1.00  0.00     0.031 A 
ATOM     42  C   UNL A   1      40.840  28.600  29.305  1.00  0.00     0.074 A 
ATOM     43  C   UNL A   1      42.609  26.892  31.673  1.00  0.00     0.049 A 
ATOM     44  N   UNL A   1      40.322  29.700  29.800  1.00  0.00    -0.248 NA
ATOM     45  C   UNL A   1      40.236  28.638  27.866  1.00  0.00     0.031 C 
ATOM     46  C   UNL A   1      42.899  28.478  33.065  1.00  0.00     0.029 A 
ATOM     47  N   UNL A   1      44.338  26.045  32.239  1.00  0.00    -0.354 N 
ATOM     48  C   UNL A   1      39.270  30.290  29.038  1.00  0.00     0.074 A 
ATOM     49  C   UNL A   1      39.191  29.493  27.872  1.00  0.00     0.031 C 
ATOM     50  C   UNL A   1      44.093  28.591  33.918  1.00  0.00     0.029 A 
ATOM     51  C   UNL A   1      45.189  27.593  33.247  1.00  0.00     0.049 A 
ATOM     52  H   UNL A   1      44.678  25.136  32.074  1.00  0.00     0.167 HD
ATOM     53  C   UNL A   1      38.593  31.403  29.501  1.00  0.00     0.037 A 
ATOM     54  C   UNL A   1      45.399  28.871  31.937  1.00  0.00     0.037 A 
ATOM     55  C   UNL A   1      39.440  31.928  30.557  1.00  0.00     0.049 A 
ATOM     56  C   UNL A   1      45.035  30.419  32.269  1.00  0.00     0.074 A 
ATOM     57  C   UNL A   1      39.425  31.698  31.913  1.00  0.00     0.029 A 
ATOM     58  N   UNL A   1      40.693  32.423  30.228  1.00  0.00    -0.354 N 
ATOM     59  N   UNL A   1      43.837  30.946  32.426  1.00  0.00    -0.248 NA
ATOM     60  C   UNL A   1      46.079  31.439  32.269  1.00  0.00     0.031 C 
ATOM     61  C   UNL A   1      40.752  31.913  32.375  1.00  0.00     0.029 A 
ATOM     62  C   UNL A   1      41.540  32.375  31.329  1.00  0.00     0.049 A 
ATOM     63  H   UNL A   1      40.947  32.761  29.339  1.00  0.00     0.167 HD
ATOM     64  C   UNL A   1      43.919  32.222  31.943  1.00  0.00     0.074 A 
ATOM     65  C   UNL A   1      45.336  32.537  32.081  1.00  0.00     0.031 C 
ATOM     66  C   UNL A   1      42.922  32.819  31.206  1.00  0.00     0.037 A 
BRANCH  53  67
ATOM     67  C   UNL A   1      37.208  32.125  29.222  1.00  0.00     0.058 A 
ATOM     68  C   UNL A   1      37.224  33.551  29.086  1.00  0.00     0.135 A 
ATOM     69  C   UNL A   1      35.886  31.612  29.212  1.00  0.00     0.135 A 
ATOM     70  F   UNL A   1      38.374  34.232  29.014  1.00  0.00    -0.206 F 
ATOM     71  C   UNL A   1      36.091  34.381  29.034  1.00  0.00     0.059 A 
ATOM     72  C   UNL A   1      34.709  32.443  29.127  1.00  0.00     0.059 A 
ATOM     73  F   UNL A   1      35.667  30.289  29.290  1.00  0.00    -0.206 F 
ATOM     74  C   UNL A   1      34.827  33.833  29.069  1.00  0.00     0.060 A 
BRANCH  74  75
ATOM     75  S   UNL A   1      33.419  34.990  29.045  1.00  0.00     0.124 S 
ATOM     76  O   UNL A   1      34.031  36.217  28.540  1.00  0.00    -0.237 OA
ATOM     77  O   UNL A   1      32.486  34.339  28.130  1.00  0.00    -0.237 OA
ATOM     78  O   UNL A   1      32.985  35.043  30.438  1.00  0.00    -0.744 OA
ENDBRANCH  74  75
ENDBRANCH  53  67
BRANCH  54  79
ATOM     79  C   UNL A   1      45.114  27.629  30.160  1.00  0.00     0.058 A 
ATOM     80  C   UNL A   1      44.582  28.438  28.674  1.00  0.00     0.135 A 
ATOM     81  C   UNL A   1      45.132  26.358  29.485  1.00  0.00     0.135 A 
ATOM     82  F   UNL A   1      43.746  29.540  28.657  1.00  0.00    -0.206 F 
ATOM     83  C   UNL A   1      44.815  28.353  27.328  1.00  0.00     0.059 A 
ATOM     84  C   UNL A   1      44.921  26.147  27.929  1.00  0.00     0.059 A 
ATOM     85  F   UNL A   1      45.299  25.185  30.116  1.00  0.00    -0.206 F 
ATOM     86  C   UNL A   1      44.949  27.122  26.893  1.00  0.00     0.060 A 
BRANCH  86  87
ATOM     87  S   UNL A   1      44.982  27.131  25.081  1.00  0.00     0.124 S 
ATOM     88  O   UNL A   1      45.355  25.757  24.755  1.00  0.00    -0.237 OA
ATOM     89  O   UNL A   1      43.593  27.443  24.728  1.00  0.00    -0.237 OA
ATOM     90  O   UNL A   1      45.969  28.139  24.754  1.00  0.00    -0.744 OA
ENDBRANCH  86  87
ENDBRANCH  54  79
BRANCH  66  91
ATOM     91  C   UNL A   1      43.271  34.002  30.353  1.00  0.00     0.058 A 
ATOM     92  C   UNL A   1      43.184  35.315  30.833  1.00  0.00     0.135 A 
ATOM     93  C   UNL A   1      43.575  33.850  28.992  1.00  0.00     0.135 A 
ATOM     94  F   UNL A   1      43.228  35.588  32.148  1.00  0.00    -0.206 F 
ATOM     95  C   UNL A   1      42.939  36.362  29.970  1.00  0.00     0.059 A 
ATOM     96  C   UNL A   1      43.491  34.913  28.115  1.00  0.00     0.059 A 
ATOM     97  F   UNL A   1      43.917  32.666  28.468  1.00  0.00    -0.206 F 
ATOM     98  C   UNL A   1      43.048  36.133  28.604  1.00  0.00     0.060 A 
BRANCH  98  99
ATOM     99  S   UNL A   1      42.597  37.453  27.484  1.00  0.00     0.124 S 
ATOM    100  O   UNL A   1      42.040  36.702  26.363  1.00  0.00    -0.237 OA
ATOM    101  O   UNL A   1      41.635  38.208  28.280  1.00  0.00    -0.237 OA
ATOM    102  O   UNL A   1      43.865  38.125  27.226  1.00  0.00    -0.744 OA
ENDBRANCH  98  99
ENDBRANCH  66  91
ENDBRANCH  40  41
ENDBRANCH  33  35
ENDBRANCH  32  33
ENDBRANCH  31  32
ENDBRANCH  30  31
ENDBRANCH   1  30
TORSDOF 20
ENDMDL
MODEL 2
REMARK VINA RESULT:     -12.0      4.301      9.565
REMARK SMILES COc1cc2ccccc2cc1C(=O)Nc1cc(C(=O)OCCOCCOC(=O)c2ccc(-c3c4nc(c(-c5c(F)cc(S(=O)(=O)[O-])cc5F)c5ccc([nH]5)c(-c5c(F)cc(S(=O)(=O)[O-])cc5F)c5nc(c(-c6c(F)cc(S(=O)(=O)[O-])cc6F)c6ccc3[nH]6)C=C5)C=C4)cc2)ccc1C
REMARK SMILES IDX 24 1 23 2 22 3 21 4 19 5 20 6 18 7 16 8 17 9 98 10 97 11
REMARK SMILES IDX 99 12 96 13 15 14 13 15 14 16 12 18 3 19 4 20 5 21 11 22
REMARK SMILES IDX 6 23 10 24 7 25 9 26 8 27 2 28 1 29 25 30 26 31 27 32 28 33
REMARK SMILES IDX 29 34 30 35 31 36 95 37 32 38 94 39 33 40 34 41 35 42 88 43
REMARK SMILES IDX 36 44 93 45 87 46 89 47 37 48 92 49 86 50 85 51 38 53 72 54
REMARK SMILES IDX 51 55 71 56 52 57 55 58 70 59 90 60 53 61 54 62 69 64 91 65
REMARK SMILES IDX 56 66 39 67 40 68 49 69 41 70 42 71 48 72 50 73 43 74 44 75
REMARK SMILES IDX 45 76 46 77 47 78 73 79 74 80 83 81 75 82 76 83 82 84 84 85
REMARK SMILES IDX 77 86 78 87 79 88 80 89 81 90 57 91 58 92 67 93 59 94 60 95
REMARK SMILES IDX 66 96 68 97 61 98 62 99 63 100 64 101 65 102
REMARK H PARENT 15 17 89 52 55 63
REMARK Flexibility Score: inf
ROOT
ATOM      1  O   UNL A   1      33.409  28.275  27.423  1.00  0.00    -0.374 OA
ENDROOT
BRANCH   1   2
ATOM      2  C   UNL A   1      33.450  27.495  26.235  1.00  0.00     0.202 C 
BRANCH   2   3
ATOM      3  C   UNL A   1      32.319  26.583  26.461  1.00  0.00     0.261 C 
BRANCH   3   4
ATOM      4  O   UNL A   1      32.723  25.261  26.601  1.00  0.00    -0.460 OA
BRANCH   4   5
ATOM      5  C   UNL A   1      31.775  24.297  26.757  1.00  0.00     0.338 C 
ATOM      6  O   UNL A   1      30.565  24.306  26.837  1.00  0.00    -0.246 OA
BRANCH   5   7
ATOM      7  C   UNL A   1      32.583  23.108  26.873  1.00  0.00     0.062 A 
ATOM      8  C   UNL A   1      32.720  21.189  25.672  1.00  0.00     0.045 A 
ATOM      9  C   UNL A   1      31.962  21.934  26.490  1.00  0.00     0.042 A 
ATOM     10  C   UNL A   1      34.105  21.192  25.790  1.00  0.00    -0.027 A 
ATOM     11  C   UNL A   1      34.725  22.199  26.544  1.00  0.00     0.006 A 
ATOM     12  C   UNL A   1      34.916  20.271  24.953  1.00  0.00     0.046 C 
ATOM     13  C   UNL A   1      33.956  23.250  26.992  1.00  0.00     0.016 A 
BRANCH   8  14
ATOM     14  N   UNL A   1      32.141  20.944  24.443  1.00  0.00    -0.322 N 
ATOM     15  C   UNL A   1      32.130  21.801  23.345  1.00  0.00     0.259 C 
ATOM     16  O   UNL A   1      31.593  21.268  22.359  1.00  0.00    -0.269 OA
ATOM     17  H   UNL A   1      31.692  20.075  24.331  1.00  0.00     0.170 HD
BRANCH  15  18
ATOM     18  C   UNL A   1      32.551  23.338  23.280  1.00  0.00     0.082 A 
ATOM     19  C   UNL A   1      33.757  24.394  22.928  1.00  0.00     0.132 A 
ATOM     20  C   UNL A   1      33.569  26.214  22.756  1.00  0.00     0.056 A 
ATOM     21  C   UNL A   1      31.977  27.259  22.882  1.00  0.00    -0.015 A 
ATOM     22  C   UNL A   1      31.243  24.095  23.380  1.00  0.00     0.026 A 
ATOM     23  C   UNL A   1      31.092  28.776  22.620  1.00  0.00     0.009 A 
ATOM     24  C   UNL A   1      30.661  26.087  23.405  1.00  0.00    -0.017 A 
ATOM     25  C   UNL A   1      29.344  29.146  22.679  1.00  0.00     0.001 A 
ATOM     26  C   UNL A   1      28.622  26.459  23.613  1.00  0.00     0.009 A 
ATOM     27  C   UNL A   1      28.085  28.064  23.146  1.00  0.00     0.001 A 
BRANCH  19  28
ATOM     28  O   UNL A   1      34.906  23.854  22.333  1.00  0.00    -0.496 OA
ATOM     29  C   UNL A   1      35.876  23.367  23.278  1.00  0.00     0.278 C 
ENDBRANCH  19  28
ENDBRANCH  15  18
ENDBRANCH   8  14
ENDBRANCH   5   7
ENDBRANCH   4   5
ENDBRANCH   3   4
ENDBRANCH   2   3
ENDBRANCH   1   2
BRANCH   1  30
ATOM     30  C   UNL A   1      33.573  29.640  27.487  1.00  0.00     0.202 C 
BRANCH  30  31
ATOM     31  C   UNL A   1      35.030  29.846  27.358  1.00  0.00     0.261 C 
BRANCH  31  32
ATOM     32  O   UNL A   1      35.777  29.719  28.652  1.00  0.00    -0.460 OA
BRANCH  32  33
ATOM     33  C   UNL A   1      37.079  29.864  29.123  1.00  0.00     0.338 C 
ATOM     34  O   UNL A   1      37.301  30.832  29.852  1.00  0.00    -0.246 OA
BRANCH  33  35
ATOM     35  C   UNL A   1      38.239  28.876  28.893  1.00  0.00     0.060 A 
ATOM     36  C   UNL A   1      38.996  28.283  29.909  1.00  0.00     0.016 A 
ATOM     37  C   UNL A   1      38.798  28.674  27.671  1.00  0.00     0.016 A 
ATOM     38  C   UNL A   1      40.429  28.148  29.777  1.00  0.00     0.010 A 
ATOM     39  C   UNL A   1      40.213  28.784  27.631  1.00  0.00     0.010 A 
ATOM     40  C   UNL A   1      41.111  28.805  28.763  1.00  0.00    -0.014 A 
BRANCH  40  41
ATOM     41  C   UNL A   1      42.783  29.376  28.424  1.00  0.00     0.031 A 
ATOM     42  C   UNL A   1      43.151  27.500  28.319  1.00  0.00     0.074 A 
ATOM     43  C   UNL A   1      43.666  30.858  27.976  1.00  0.00     0.049 A 
ATOM     44  N   UNL A   1      44.137  26.812  27.793  1.00  0.00    -0.248 NA
ATOM     45  C   UNL A   1      42.195  26.337  28.732  1.00  0.00     0.031 C 
ATOM     46  C   UNL A   1      45.764  30.825  27.610  1.00  0.00     0.029 A 
ATOM     47  N   UNL A   1      43.819  32.663  28.838  1.00  0.00    -0.354 N 
ATOM     48  C   UNL A   1      43.865  25.435  27.534  1.00  0.00     0.074 A 
ATOM     49  C   UNL A   1      42.566  25.229  28.055  1.00  0.00     0.031 C 
ATOM     50  C   UNL A   1      46.673  31.903  28.036  1.00  0.00     0.029 A 
ATOM     51  C   UNL A   1      45.829  32.757  29.135  1.00  0.00     0.049 A 
ATOM     52  H   UNL A   1      43.117  33.319  29.056  1.00  0.00     0.167 HD
ATOM     53  C   UNL A   1      44.798  24.631  26.906  1.00  0.00     0.037 A 
ATOM     54  C   UNL A   1      46.137  31.365  30.302  1.00  0.00     0.037 A 
ATOM     55  C   UNL A   1      46.042  25.374  27.006  1.00  0.00     0.049 A 
ATOM     56  C   UNL A   1      47.422  30.399  30.066  1.00  0.00     0.074 A 
ATOM     57  C   UNL A   1      46.626  26.260  26.132  1.00  0.00     0.029 A 
ATOM     58  N   UNL A   1      46.593  25.593  28.259  1.00  0.00    -0.354 N 
ATOM     59  N   UNL A   1      47.580  29.489  29.125  1.00  0.00    -0.248 NA
ATOM     60  C   UNL A   1      48.506  30.363  31.042  1.00  0.00     0.031 C 
ATOM     61  C   UNL A   1      47.429  27.133  26.916  1.00  0.00     0.029 A 
ATOM     62  C   UNL A   1      47.418  26.712  28.239  1.00  0.00     0.049 A 
ATOM     63  H   UNL A   1      46.423  25.036  29.053  1.00  0.00     0.167 HD
ATOM     64  C   UNL A   1      48.319  28.486  29.688  1.00  0.00     0.074 A 
ATOM     65  C   UNL A   1      49.041  29.168  30.756  1.00  0.00     0.031 C 
ATOM     66  C   UNL A   1      48.083  27.151  29.459  1.00  0.00     0.037 A 
BRANCH  53  67
ATOM     67  C   UNL A   1      44.809  23.255  26.117  1.00  0.00     0.058 A 
ATOM     68  C   UNL A   1      43.737  22.340  26.373  1.00  0.00     0.135 A 
ATOM     69  C   UNL A   1      45.792  22.686  25.267  1.00  0.00     0.135 A 
ATOM     70  F   UNL A   1      42.675  22.698  27.105  1.00  0.00    -0.206 F 
ATOM     71  C   UNL A   1      43.673  21.008  25.928  1.00  0.00     0.059 A 
ATOM     72  C   UNL A   1      45.732  21.332  24.773  1.00  0.00     0.059 A 
ATOM     73  F   UNL A   1      46.858  23.406  24.881  1.00  0.00    -0.206 F 
ATOM     74  C   UNL A   1      44.678  20.492  25.137  1.00  0.00     0.060 A 
BRANCH  74  75
ATOM     75  S   UNL A   1      44.533  18.742  24.650  1.00  0.00     0.124 S 
ATOM     76  O   UNL A   1      45.617  18.117  25.405  1.00  0.00    -0.237 OA
ATOM     77  O   UNL A   1      43.186  18.396  25.096  1.00  0.00    -0.237 OA
ATOM     78  O   UNL A   1      44.719  18.763  23.203  1.00  0.00    -0.744 OA
ENDBRANCH  74  75
ENDBRANCH  53  67
BRANCH  54  79
ATOM     79  C   UNL A   1      44.089  30.976  30.962  1.00  0.00     0.058 A 
ATOM     80  C   UNL A   1      43.746  29.385  31.668  1.00  0.00     0.135 A 
ATOM     81  C   UNL A   1      42.718  31.374  31.145  1.00  0.00     0.135 A 
ATOM     82  F   UNL A   1      44.380  28.219  31.277  1.00  0.00    -0.206 F 
ATOM     83  C   UNL A   1      42.984  28.861  32.677  1.00  0.00     0.059 A 
ATOM     84  C   UNL A   1      41.622  30.542  31.929  1.00  0.00     0.059 A 
ATOM     85  F   UNL A   1      42.199  32.501  30.633  1.00  0.00    -0.206 F 
ATOM     86  C   UNL A   1      41.811  29.435  32.803  1.00  0.00     0.060 A 
BRANCH  86  87
ATOM     87  S   UNL A   1      40.807  28.485  33.976  1.00  0.00     0.124 S 
ATOM     88  O   UNL A   1      39.956  27.682  33.102  1.00  0.00    -0.237 OA
ATOM     89  O   UNL A   1      41.806  27.684  34.691  1.00  0.00    -0.237 OA
ATOM     90  O   UNL A   1      40.123  29.499  34.752  1.00  0.00    -0.744 OA
ENDBRANCH  86  87
ENDBRANCH  54  79
BRANCH  66  91
ATOM     91  C   UNL A   1      48.615  26.149  30.440  1.00  0.00     0.058 A 
ATOM     92  C   UNL A   1      48.002  25.923  31.679  1.00  0.00     0.135 A 
ATOM     93  C   UNL A   1      49.830  25.485  30.211  1.00  0.00     0.135 A 
ATOM     94  F   UNL A   1      46.709  26.223  31.889  1.00  0.00    -0.206 F 
ATOM     95  C   UNL A   1      48.741  25.485  32.758  1.00  0.00     0.059 A 
ATOM     96  C   UNL A   1      50.532  24.896  31.245  1.00  0.00     0.059 A 
ATOM     97  F   UNL A   1      50.391  25.428  28.997  1.00  0.00    -0.206 F 
ATOM     98  C   UNL A   1      50.030  25.018  32.532  1.00  0.00     0.060 A 
BRANCH  98  99
ATOM     99  S   UNL A   1      51.033  24.581  33.945  1.00  0.00     0.124 S 
ATOM    100  O   UNL A   1      50.628  23.197  34.171  1.00  0.00    -0.237 OA
ATOM    101  O   UNL A   1      52.384  24.768  33.426  1.00  0.00    -0.237 OA
ATOM    102  O   UNL A   1      50.614  25.536  34.966  1.00  0.00    -0.744 OA
ENDBRANCH  98  99
ENDBRANCH  66  91
ENDBRANCH  40  41
ENDBRANCH  33  35
ENDBRANCH  32  33
ENDBRANCH  31  32
ENDBRANCH  30  31
ENDBRANCH   1  30
TORSDOF 20
ENDMDL
MODEL 3
REMARK VINA RESULT:     -11.6      2.671      4.584
REMARK SMILES COc1cc2ccccc2cc1C(=O)Nc1cc(C(=O)OCCOCCOC(=O)c2ccc(-c3c4nc(c(-c5c(F)cc(S(=O)(=O)[O-])cc5F)c5ccc([nH]5)c(-c5c(F)cc(S(=O)(=O)[O-])cc5F)c5nc(c(-c6c(F)cc(S(=O)(=O)[O-])cc6F)c6ccc3[nH]6)C=C5)C=C4)cc2)ccc1C
REMARK SMILES IDX 24 1 23 2 22 3 21 4 19 5 20 6 18 7 16 8 17 9 98 10 97 11
REMARK SMILES IDX 99 12 96 13 15 14 13 15 14 16 12 18 3 19 4 20 5 21 11 22
REMARK SMILES IDX 6 23 10 24 7 25 9 26 8 27 2 28 1 29 25 30 26 31 27 32 28 33
REMARK SMILES IDX 29 34 30 35 31 36 95 37 32 38 94 39 33 40 34 41 35 42 88 43
REMARK SMILES IDX 36 44 93 45 87 46 89 47 37 48 92 49 86 50 85 51 38 53 72 54
REMARK SMILES IDX 51 55 71 56 52 57 55 58 70 59 90 60 53 61 54 62 69 64 91 65
REMARK SMILES IDX 56 66 39 67 40 68 49 69 41 70 42 71 48 72 50 73 43 74 44 75
REMARK SMILES IDX 45 76 46 77 47 78 73 79 74 80 83 81 75 82 76 83 82 84 84 85
REMARK SMILES IDX 77 86 78 87 79 88 80 89 81 90 57 91 58 92 67 93 59 94 60 95
REMARK SMILES IDX 66 96 68 97 61 98 62 99 63 100 64 101 65 102
REMARK H PARENT 15 17 89 52 55 63
REMARK Flexibility Score: inf
ROOT
ATOM      1  O   UNL A   1      39.520  21.338  26.089  1.00  0.00    -0.374 OA
ENDROOT
BRANCH   1   2
ATOM      2  C   UNL A   1      38.307  22.022  25.808  1.00  0.00     0.202 C 
BRANCH   2   3
ATOM      3  C   UNL A   1      37.585  21.004  25.031  1.00  0.00     0.261 C 
BRANCH   3   4
ATOM      4  O   UNL A   1      36.282  21.386  24.736  1.00  0.00    -0.460 OA
BRANCH   4   5
ATOM      5  C   UNL A   1      36.078  22.396  23.847  1.00  0.00     0.338 C 
ATOM      6  O   UNL A   1      36.711  22.841  22.913  1.00  0.00    -0.246 OA
BRANCH   5   7
ATOM      7  C   UNL A   1      34.827  22.944  24.308  1.00  0.00     0.062 A 
ATOM      8  C   UNL A   1      33.335  24.400  23.415  1.00  0.00     0.045 A 
ATOM      9  C   UNL A   1      34.570  24.243  23.912  1.00  0.00     0.042 A 
ATOM     10  C   UNL A   1      32.276  23.638  23.892  1.00  0.00    -0.027 A 
ATOM     11  C   UNL A   1      32.546  22.498  24.663  1.00  0.00     0.006 A 
ATOM     12  C   UNL A   1      30.897  23.911  23.411  1.00  0.00     0.046 C 
ATOM     13  C   UNL A   1      33.852  22.072  24.768  1.00  0.00     0.016 A 
BRANCH   8  14
ATOM     14  N   UNL A   1      33.311  24.860  22.113  1.00  0.00    -0.322 N 
ATOM     15  C   UNL A   1      33.019  26.156  21.697  1.00  0.00     0.259 C 
ATOM     16  O   UNL A   1      33.149  26.279  20.467  1.00  0.00    -0.269 OA
ATOM     17  H   UNL A   1      33.523  24.206  21.409  1.00  0.00     0.170 HD
BRANCH  15  18
ATOM     18  C   UNL A   1      32.417  27.362  22.550  1.00  0.00     0.082 A 
ATOM     19  C   UNL A   1      31.066  28.224  22.905  1.00  0.00     0.132 A 
ATOM     20  C   UNL A   1      30.893  29.424  24.286  1.00  0.00     0.056 A 
ATOM     21  C   UNL A   1      32.176  29.890  25.619  1.00  0.00    -0.015 A 
ATOM     22  C   UNL A   1      33.484  27.667  23.581  1.00  0.00     0.026 A 
ATOM     23  C   UNL A   1      32.598  30.638  27.174  1.00  0.00     0.009 A 
ATOM     24  C   UNL A   1      33.723  29.022  25.135  1.00  0.00    -0.017 A 
ATOM     25  C   UNL A   1      34.073  30.523  28.176  1.00  0.00     0.001 A 
ATOM     26  C   UNL A   1      35.522  28.929  26.183  1.00  0.00     0.009 A 
ATOM     27  C   UNL A   1      35.530  29.700  27.760  1.00  0.00     0.001 A 
BRANCH  19  28
ATOM     28  O   UNL A   1      29.858  27.733  22.387  1.00  0.00    -0.496 OA
ATOM     29  C   UNL A   1      28.963  27.217  23.389  1.00  0.00     0.278 C 
ENDBRANCH  19  28
ENDBRANCH  15  18
ENDBRANCH   8  14
ENDBRANCH   5   7
ENDBRANCH   4   5
ENDBRANCH   3   4
ENDBRANCH   2   3
ENDBRANCH   1   2
BRANCH   1  30
ATOM     30  C   UNL A   1      40.698  21.931  26.484  1.00  0.00     0.202 C 
BRANCH  30  31
ATOM     31  C   UNL A   1      40.280  23.185  27.145  1.00  0.00     0.261 C 
BRANCH  31  32
ATOM     32  O   UNL A   1      40.460  24.407  26.296  1.00  0.00    -0.460 OA
BRANCH  32  33
ATOM     33  C   UNL A   1      40.856  25.733  26.446  1.00  0.00     0.338 C 
ATOM     34  O   UNL A   1      41.822  26.103  25.779  1.00  0.00    -0.246 OA
BRANCH  33  35
ATOM     35  C   UNL A   1      40.139  26.799  27.297  1.00  0.00     0.060 A 
ATOM     36  C   UNL A   1      40.419  28.170  27.262  1.00  0.00     0.016 A 
ATOM     37  C   UNL A   1      39.333  26.482  28.344  1.00  0.00     0.016 A 
ATOM     38  C   UNL A   1      40.470  28.943  28.481  1.00  0.00     0.010 A 
ATOM     39  C   UNL A   1      39.629  27.157  29.558  1.00  0.00     0.010 A 
ATOM     40  C   UNL A   1      40.480  28.313  29.718  1.00  0.00    -0.014 A 
BRANCH  40  41
ATOM     41  C   UNL A   1      40.995  28.678  31.404  1.00  0.00     0.031 A 
ATOM     42  C   UNL A   1      39.885  30.218  31.160  1.00  0.00     0.074 A 
ATOM     43  C   UNL A   1      41.770  27.894  32.804  1.00  0.00     0.049 A 
ATOM     44  N   UNL A   1      39.327  31.058  32.000  1.00  0.00    -0.248 NA
ATOM     45  C   UNL A   1      39.255  30.713  29.820  1.00  0.00     0.031 C 
ATOM     46  C   UNL A   1      42.012  28.926  34.652  1.00  0.00     0.029 A 
ATOM     47  N   UNL A   1      43.545  26.991  33.046  1.00  0.00    -0.354 N 
ATOM     48  C   UNL A   1      38.236  31.820  31.485  1.00  0.00     0.074 A 
ATOM     49  C   UNL A   1      38.173  31.464  30.117  1.00  0.00     0.031 C 
ATOM     50  C   UNL A   1      43.214  28.800  35.493  1.00  0.00     0.029 A 
ATOM     51  C   UNL A   1      44.342  28.143  34.520  1.00  0.00     0.049 A 
ATOM     52  H   UNL A   1      43.923  26.209  32.582  1.00  0.00     0.167 HD
ATOM     53  C   UNL A   1      37.517  32.676  32.300  1.00  0.00     0.037 A 
ATOM     54  C   UNL A   1      44.472  29.799  33.723  1.00  0.00     0.037 A 
ATOM     55  C   UNL A   1      38.357  32.851  33.470  1.00  0.00     0.049 A 
ATOM     56  C   UNL A   1      44.044  31.122  34.563  1.00  0.00     0.074 A 
ATOM     57  C   UNL A   1      38.376  32.174  34.667  1.00  0.00     0.029 A 
ATOM     58  N   UNL A   1      39.581  33.489  33.328  1.00  0.00    -0.354 N 
ATOM     59  N   UNL A   1      42.826  31.506  34.891  1.00  0.00    -0.248 NA
ATOM     60  C   UNL A   1      45.040  32.131  34.908  1.00  0.00     0.031 C 
ATOM     61  C   UNL A   1      39.700  32.283  35.174  1.00  0.00     0.029 A 
ATOM     62  C   UNL A   1      40.448  33.110  34.347  1.00  0.00     0.049 A 
ATOM     63  H   UNL A   1      39.805  34.120  32.607  1.00  0.00     0.167 HD
ATOM     64  C   UNL A   1      42.842  32.873  34.870  1.00  0.00     0.074 A 
ATOM     65  C   UNL A   1      44.245  33.191  35.106  1.00  0.00     0.031 C 
ATOM     66  C   UNL A   1      41.807  33.636  34.381  1.00  0.00     0.037 A 
BRANCH  53  67
ATOM     67  C   UNL A   1      36.096  33.382  32.285  1.00  0.00     0.058 A 
ATOM     68  C   UNL A   1      35.704  34.048  31.079  1.00  0.00     0.135 A 
ATOM     69  C   UNL A   1      35.160  33.594  33.329  1.00  0.00     0.135 A 
ATOM     70  F   UNL A   1      36.419  33.930  29.953  1.00  0.00    -0.206 F 
ATOM     71  C   UNL A   1      34.586  34.887  30.933  1.00  0.00     0.059 A 
ATOM     72  C   UNL A   1      33.990  34.426  33.193  1.00  0.00     0.059 A 
ATOM     73  F   UNL A   1      35.335  33.016  34.529  1.00  0.00    -0.206 F 
ATOM     74  C   UNL A   1      33.730  35.093  31.994  1.00  0.00     0.060 A 
BRANCH  74  75
ATOM     75  S   UNL A   1      32.336  36.235  31.726  1.00  0.00     0.124 S 
ATOM     76  O   UNL A   1      32.871  37.503  32.217  1.00  0.00    -0.237 OA
ATOM     77  O   UNL A   1      32.138  36.163  30.281  1.00  0.00    -0.237 OA
ATOM     78  O   UNL A   1      31.257  35.667  32.527  1.00  0.00    -0.744 OA
ENDBRANCH  74  75
ENDBRANCH  53  67
BRANCH  54  79
ATOM     79  C   UNL A   1      44.213  29.222  31.630  1.00  0.00     0.058 A 
ATOM     80  C   UNL A   1      43.657  30.472  30.500  1.00  0.00     0.135 A 
ATOM     81  C   UNL A   1      44.260  28.255  30.566  1.00  0.00     0.135 A 
ATOM     82  F   UNL A   1      42.794  31.495  30.852  1.00  0.00    -0.206 F 
ATOM     83  C   UNL A   1      43.888  30.851  29.206  1.00  0.00     0.059 A 
ATOM     84  C   UNL A   1      44.050  28.575  29.029  1.00  0.00     0.059 A 
ATOM     85  F   UNL A   1      44.458  26.942  30.766  1.00  0.00    -0.206 F 
ATOM     86  C   UNL A   1      44.051  29.843  28.383  1.00  0.00     0.060 A 
BRANCH  86  87
ATOM     87  S   UNL A   1      44.079  30.463  26.680  1.00  0.00     0.124 S 
ATOM     88  O   UNL A   1      44.017  31.911  26.859  1.00  0.00    -0.237 OA
ATOM     89  O   UNL A   1      45.382  30.005  26.184  1.00  0.00    -0.237 OA
ATOM     90  O   UNL A   1      42.913  29.860  26.069  1.00  0.00    -0.744 OA
ENDBRANCH  86  87
ENDBRANCH  54  79
BRANCH  66  91
ATOM     91  C   UNL A   1      42.086  35.054  33.981  1.00  0.00     0.058 A 
ATOM     92  C   UNL A   1      42.641  35.379  32.737  1.00  0.00     0.135 A 
ATOM     93  C   UNL A   1      41.924  36.109  34.891  1.00  0.00     0.135 A 
ATOM     94  F   UNL A   1      42.543  34.550  31.684  1.00  0.00    -0.206 F 
ATOM     95  C   UNL A   1      43.401  36.519  32.585  1.00  0.00     0.059 A 
ATOM     96  C   UNL A   1      42.549  37.326  34.698  1.00  0.00     0.059 A 
ATOM     97  F   UNL A   1      41.199  35.979  36.009  1.00  0.00    -0.206 F 
ATOM     98  C   UNL A   1      43.385  37.467  33.601  1.00  0.00     0.060 A 
BRANCH  98  99
ATOM     99  S   UNL A   1      44.477  38.876  33.464  1.00  0.00     0.124 S 
ATOM    100  O   UNL A   1      45.783  38.248  33.641  1.00  0.00    -0.237 OA
ATOM    101  O   UNL A   1      44.183  39.355  32.117  1.00  0.00    -0.237 OA
ATOM    102  O   UNL A   1      44.042  39.747  34.550  1.00  0.00    -0.744 OA
ENDBRANCH  98  99
ENDBRANCH  66  91
ENDBRANCH  40  41
ENDBRANCH  33  35
ENDBRANCH  32  33
ENDBRANCH  31  32
ENDBRANCH  30  31
ENDBRANCH   1  30
TORSDOF 20
ENDMDL
