MODEL 1
REMARK VINA RESULT:     -11.3      0.000      0.000
REMARK SMILES CC[NH+]1CC[NH+]([C@@H]2CC(=O)N(c3ccc(C(=O)OCCOCCOC(=O)c4ccc(-c5c6nc(c(-c7c(F)cc(S(=O)(=O)[O-])cc7F)c7ccc([nH]7)c(-c7c(F)cc(S(=O)(=O)[O-])cc7F)c7nc(c(-c8c(F)cc(S(=O)(=O)[O-])cc8F)c8ccc5[nH]8)C=C7)C=C6)cc4)cc3)C2=O)CC1
REMARK SMILES IDX 21 1 20 2 19 3 18 4 16 5 17 6 15 7 12 8 13 9 94 10 14 11
REMARK SMILES IDX 93 12 11 13 7 14 8 15 95 16 9 17 96 18 10 19 6 20 3 21 4 22
REMARK SMILES IDX 98 23 5 25 97 26 2 28 1 29 22 30 23 31 24 32 25 33 26 34
REMARK SMILES IDX 27 35 28 36 92 37 29 38 91 39 30 40 31 41 32 42 85 43 33 44
REMARK SMILES IDX 90 45 84 46 86 47 34 48 89 49 83 50 82 51 35 53 69 54 48 55
REMARK SMILES IDX 68 56 49 57 52 58 67 59 87 60 50 61 51 62 66 64 88 65 53 66
REMARK SMILES IDX 36 67 37 68 46 69 38 70 39 71 45 72 47 73 40 74 41 75 42 76
REMARK SMILES IDX 43 77 44 78 70 79 71 80 80 81 72 82 73 83 79 84 81 85 74 86
REMARK SMILES IDX 75 87 76 88 77 89 78 90 54 91 55 92 64 93 56 94 57 95 63 96
REMARK SMILES IDX 65 97 58 98 59 99 60 100 61 101 62 102
REMARK H PARENT 3 24 6 27 86 52 52 63
REMARK Flexibility Score: inf
ROOT
ATOM      1  O   UNL A   1      35.474  33.202  28.971  1.00  0.00    -0.374 OA
ENDROOT
BRANCH   1   2
ATOM      2  C   UNL A   1      35.309  32.219  27.946  1.00  0.00     0.202 C 
BRANCH   2   3
ATOM      3  C   UNL A   1      33.908  31.618  27.787  1.00  0.00     0.261 C 
BRANCH   3   4
ATOM      4  O   UNL A   1      33.892  30.578  26.797  1.00  0.00    -0.460 OA
BRANCH   4   5
ATOM      5  C   UNL A   1      32.664  30.230  26.353  1.00  0.00     0.338 C 
ATOM      6  O   UNL A   1      31.706  30.969  26.167  1.00  0.00    -0.246 OA
BRANCH   5   7
ATOM      7  C   UNL A   1      32.672  28.817  25.917  1.00  0.00     0.060 A 
ATOM      8  C   UNL A   1      32.870  26.144  25.075  1.00  0.00     0.052 A 
ATOM      9  C   UNL A   1      33.820  26.688  25.951  1.00  0.00     0.028 A 
ATOM     10  C   UNL A   1      31.785  26.941  24.681  1.00  0.00     0.028 A 
ATOM     11  C   UNL A   1      33.742  28.024  26.341  1.00  0.00     0.018 A 
ATOM     12  C   UNL A   1      31.666  28.265  25.123  1.00  0.00     0.018 A 
BRANCH   8  13
ATOM     13  N   UNL A   1      33.101  24.865  24.509  1.00  0.00    -0.245 N 
ATOM     14  C   UNL A   1      33.646  22.573  24.467  1.00  0.00     0.285 C 
ATOM     15  C   UNL A   1      34.061  23.220  23.150  1.00  0.00     0.176 C 
ATOM     16  C   UNL A   1      32.851  23.677  25.158  1.00  0.00     0.292 C 
ATOM     17  C   UNL A   1      33.742  24.675  23.310  1.00  0.00     0.240 C 
ATOM     18  O   UNL A   1      32.148  23.504  26.148  1.00  0.00    -0.267 OA
ATOM     19  O   UNL A   1      34.081  25.512  22.485  1.00  0.00    -0.274 OA
BRANCH  14  20
ATOM     20  N   UNL A   1      34.659  21.987  25.380  1.00  0.00    -0.315 N 
ATOM     21  N   UNL A   1      37.481  23.018  25.062  1.00  0.00    -0.326 N 
ATOM     22  C   UNL A   1      37.009  21.832  24.321  1.00  0.00     0.324 C 
ATOM     23  C   UNL A   1      36.389  23.774  25.697  1.00  0.00     0.324 C 
ATOM     24  H   UNL A   1      37.884  23.620  24.342  1.00  0.00     0.348 HD
ATOM     25  C   UNL A   1      35.683  21.141  24.753  1.00  0.00     0.325 C 
ATOM     26  C   UNL A   1      35.308  22.890  26.335  1.00  0.00     0.325 C 
ATOM     27  H   UNL A   1      34.030  21.388  25.916  1.00  0.00     0.349 HD
BRANCH  21  28
ATOM     28  C   UNL A   1      38.562  22.739  26.009  1.00  0.00     0.259 C 
ATOM     29  C   UNL A   1      39.065  24.037  26.649  1.00  0.00     0.071 C 
ENDBRANCH  21  28
ENDBRANCH  14  20
ENDBRANCH   8  13
ENDBRANCH   5   7
ENDBRANCH   4   5
ENDBRANCH   3   4
ENDBRANCH   2   3
ENDBRANCH   1   2
BRANCH   1  30
ATOM     30  C   UNL A   1      34.614  33.111  30.106  1.00  0.00     0.202 C 
BRANCH  30  31
ATOM     31  C   UNL A   1      35.087  32.241  31.278  1.00  0.00     0.261 C 
BRANCH  31  32
ATOM     32  O   UNL A   1      36.488  31.927  31.196  1.00  0.00    -0.460 OA
BRANCH  32  33
ATOM     33  C   UNL A   1      36.762  30.617  30.991  1.00  0.00     0.338 C 
ATOM     34  O   UNL A   1      35.971  29.683  31.027  1.00  0.00    -0.246 OA
BRANCH  33  35
ATOM     35  C   UNL A   1      38.151  30.460  30.524  1.00  0.00     0.060 A 
ATOM     36  C   UNL A   1      38.355  30.271  29.151  1.00  0.00     0.016 A 
ATOM     37  C   UNL A   1      39.227  30.433  31.413  1.00  0.00     0.016 A 
ATOM     38  C   UNL A   1      39.633  30.004  28.666  1.00  0.00     0.010 A 
ATOM     39  C   UNL A   1      40.509  30.157  30.924  1.00  0.00     0.010 A 
ATOM     40  C   UNL A   1      40.712  29.906  29.554  1.00  0.00    -0.014 A 
BRANCH  40  41
ATOM     41  C   UNL A   1      42.023  29.409  29.068  1.00  0.00     0.031 A 
ATOM     42  C   UNL A   1      43.178  30.369  28.975  1.00  0.00     0.074 A 
ATOM     43  C   UNL A   1      42.186  28.116  28.735  1.00  0.00     0.049 A 
ATOM     44  N   UNL A   1      44.393  30.163  28.536  1.00  0.00    -0.248 NA
ATOM     45  C   UNL A   1      42.930  31.744  29.437  1.00  0.00     0.031 C 
ATOM     46  C   UNL A   1      41.152  27.086  28.817  1.00  0.00     0.029 A 
ATOM     47  N   UNL A   1      43.285  27.452  28.250  1.00  0.00    -0.354 N 
ATOM     48  C   UNL A   1      45.051  31.382  28.658  1.00  0.00     0.074 A 
ATOM     49  C   UNL A   1      44.090  32.330  29.182  1.00  0.00     0.031 C 
ATOM     50  C   UNL A   1      41.662  25.920  28.386  1.00  0.00     0.029 A 
ATOM     51  C   UNL A   1      43.047  26.128  27.966  1.00  0.00     0.049 A 
ATOM     52  H   UNL A   1      44.160  27.882  28.119  1.00  0.00     0.167 HD
ATOM     53  C   UNL A   1      46.339  31.682  28.366  1.00  0.00     0.037 A 
ATOM     54  C   UNL A   1      43.847  25.198  27.407  1.00  0.00     0.037 A 
ATOM     55  C   UNL A   1      47.289  30.731  27.848  1.00  0.00     0.049 A 
ATOM     56  C   UNL A   1      45.258  25.571  27.031  1.00  0.00     0.074 A 
ATOM     57  C   UNL A   1      48.624  30.929  27.541  1.00  0.00     0.029 A 
ATOM     58  N   UNL A   1      47.004  29.406  27.551  1.00  0.00    -0.354 N 
ATOM     59  N   UNL A   1      45.875  26.721  27.173  1.00  0.00    -0.248 NA
ATOM     60  C   UNL A   1      46.085  24.518  26.423  1.00  0.00     0.031 C 
ATOM     61  C   UNL A   1      49.132  29.740  27.008  1.00  0.00     0.029 A 
ATOM     62  C   UNL A   1      48.130  28.783  27.039  1.00  0.00     0.049 A 
ATOM     63  H   UNL A   1      46.130  28.972  27.684  1.00  0.00     0.167 HD
ATOM     64  C   UNL A   1      47.169  26.520  26.701  1.00  0.00     0.074 A 
ATOM     65  C   UNL A   1      47.248  25.138  26.278  1.00  0.00     0.031 C 
ATOM     66  C   UNL A   1      48.199  27.401  26.628  1.00  0.00     0.037 A 
BRANCH  53  67
ATOM     67  C   UNL A   1      46.792  33.101  28.577  1.00  0.00     0.058 A 
ATOM     68  C   UNL A   1      46.658  34.079  27.579  1.00  0.00     0.135 A 
ATOM     69  C   UNL A   1      47.338  33.497  29.810  1.00  0.00     0.135 A 
ATOM     70  F   UNL A   1      46.160  33.754  26.376  1.00  0.00    -0.206 F 
ATOM     71  C   UNL A   1      47.073  35.392  27.786  1.00  0.00     0.059 A 
ATOM     72  C   UNL A   1      47.732  34.810  30.049  1.00  0.00     0.059 A 
ATOM     73  F   UNL A   1      47.491  32.603  30.799  1.00  0.00    -0.206 F 
ATOM     74  C   UNL A   1      47.608  35.747  29.024  1.00  0.00     0.060 A 
BRANCH  74  75
ATOM     75  S   UNL A   1      48.137  37.455  29.278  1.00  0.00     0.124 S 
ATOM     76  O   UNL A   1      48.960  37.329  30.478  1.00  0.00    -0.237 OA
ATOM     77  O   UNL A   1      48.858  37.745  28.043  1.00  0.00    -0.237 OA
ATOM     78  O   UNL A   1      46.881  38.178  29.453  1.00  0.00    -0.744 OA
ENDBRANCH  74  75
ENDBRANCH  53  67
BRANCH  54  79
ATOM     79  C   UNL A   1      43.328  23.826  27.157  1.00  0.00     0.058 A 
ATOM     80  C   UNL A   1      42.824  23.459  25.901  1.00  0.00     0.135 A 
ATOM     81  C   UNL A   1      43.329  22.855  28.170  1.00  0.00     0.135 A 
ATOM     82  F   UNL A   1      42.791  24.354  24.902  1.00  0.00    -0.206 F 
ATOM     83  C   UNL A   1      42.326  22.182  25.661  1.00  0.00     0.059 A 
ATOM     84  C   UNL A   1      42.863  21.564  27.947  1.00  0.00     0.059 A 
ATOM     85  F   UNL A   1      43.810  23.153  29.388  1.00  0.00    -0.206 F 
ATOM     86  C   UNL A   1      42.354  21.239  26.690  1.00  0.00     0.060 A 
BRANCH  86  87
ATOM     87  S   UNL A   1      41.751  19.570  26.353  1.00  0.00     0.124 S 
ATOM     88  O   UNL A   1      42.514  19.217  25.162  1.00  0.00    -0.237 OA
ATOM     89  O   UNL A   1      42.112  18.863  27.578  1.00  0.00    -0.237 OA
ATOM     90  O   UNL A   1      40.319  19.766  26.150  1.00  0.00    -0.744 OA
ENDBRANCH  86  87
ENDBRANCH  54  79
BRANCH  66  91
ATOM     91  C   UNL A   1      49.516  26.891  26.108  1.00  0.00     0.058 A 
ATOM     92  C   UNL A   1      49.909  27.074  24.773  1.00  0.00     0.135 A 
ATOM     93  C   UNL A   1      50.423  26.259  26.975  1.00  0.00     0.135 A 
ATOM     94  F   UNL A   1      49.079  27.667  23.900  1.00  0.00    -0.206 F 
ATOM     95  C   UNL A   1      51.142  26.627  24.310  1.00  0.00     0.059 A 
ATOM     96  C   UNL A   1      51.674  25.831  26.541  1.00  0.00     0.059 A 
ATOM     97  F   UNL A   1      50.104  26.067  28.265  1.00  0.00    -0.206 F 
ATOM     98  C   UNL A   1      52.020  26.009  25.203  1.00  0.00     0.060 A 
BRANCH  98  99
ATOM     99  S   UNL A   1      53.630  25.464  24.596  1.00  0.00     0.124 S 
ATOM    100  O   UNL A   1      53.612  25.960  23.225  1.00  0.00    -0.237 OA
ATOM    101  O   UNL A   1      54.552  26.141  25.503  1.00  0.00    -0.237 OA
ATOM    102  O   UNL A   1      53.575  24.012  24.739  1.00  0.00    -0.744 OA
ENDBRANCH  98  99
ENDBRANCH  66  91
ENDBRANCH  40  41
ENDBRANCH  33  35
ENDBRANCH  32  33
ENDBRANCH  31  32
ENDBRANCH  30  31
ENDBRANCH   1  30
TORSDOF 20
ENDMDL
MODEL 2
REMARK VINA RESULT:     -10.9      6.023     11.975
REMARK SMILES CC[NH+]1CC[NH+]([C@@H]2CC(=O)N(c3ccc(C(=O)OCCOCCOC(=O)c4ccc(-c5c6nc(c(-c7c(F)cc(S(=O)(=O)[O-])cc7F)c7ccc([nH]7)c(-c7c(F)cc(S(=O)(=O)[O-])cc7F)c7nc(c(-c8c(F)cc(S(=O)(=O)[O-])cc8F)c8ccc5[nH]8)C=C7)C=C6)cc4)cc3)C2=O)CC1
REMARK SMILES IDX 21 1 20 2 19 3 18 4 16 5 17 6 15 7 12 8 13 9 94 10 14 11
REMARK SMILES IDX 93 12 11 13 7 14 8 15 95 16 9 17 96 18 10 19 6 20 3 21 4 22
REMARK SMILES IDX 98 23 5 25 97 26 2 28 1 29 22 30 23 31 24 32 25 33 26 34
REMARK SMILES IDX 27 35 28 36 92 37 29 38 91 39 30 40 31 41 32 42 85 43 33 44
REMARK SMILES IDX 90 45 84 46 86 47 34 48 89 49 83 50 82 51 35 53 69 54 48 55
REMARK SMILES IDX 68 56 49 57 52 58 67 59 87 60 50 61 51 62 66 64 88 65 53 66
REMARK SMILES IDX 36 67 37 68 46 69 38 70 39 71 45 72 47 73 40 74 41 75 42 76
REMARK SMILES IDX 43 77 44 78 70 79 71 80 80 81 72 82 73 83 79 84 81 85 74 86
REMARK SMILES IDX 75 87 76 88 77 89 78 90 54 91 55 92 64 93 56 94 57 95 63 96
REMARK SMILES IDX 65 97 58 98 59 99 60 100 61 101 62 102
REMARK H PARENT 3 24 6 27 86 52 52 63
REMARK Flexibility Score: inf
ROOT
ATOM      1  O   UNL A   1      43.116  21.412  26.446  1.00  0.00    -0.374 OA
ENDROOT
BRANCH   1   2
ATOM      2  C   UNL A   1      42.170  20.386  26.137  1.00  0.00     0.202 C 
BRANCH   2   3
ATOM      3  C   UNL A   1      40.797  20.492  26.808  1.00  0.00     0.261 C 
BRANCH   3   4
ATOM      4  O   UNL A   1      39.798  20.965  25.890  1.00  0.00    -0.460 OA
BRANCH   4   5
ATOM      5  C   UNL A   1      39.205  22.128  26.239  1.00  0.00     0.338 C 
ATOM      6  O   UNL A   1      39.715  23.074  26.824  1.00  0.00    -0.246 OA
BRANCH   5   7
ATOM      7  C   UNL A   1      37.857  22.201  25.636  1.00  0.00     0.060 A 
ATOM      8  C   UNL A   1      35.251  22.467  24.618  1.00  0.00     0.052 A 
ATOM      9  C   UNL A   1      35.960  23.591  25.067  1.00  0.00     0.028 A 
ATOM     10  C   UNL A   1      35.894  21.220  24.626  1.00  0.00     0.028 A 
ATOM     11  C   UNL A   1      37.238  23.455  25.605  1.00  0.00     0.018 A 
ATOM     12  C   UNL A   1      37.204  21.089  25.105  1.00  0.00     0.018 A 
BRANCH   8  13
ATOM     13  N   UNL A   1      33.877  22.596  24.299  1.00  0.00    -0.245 N 
ATOM     14  C   UNL A   1      31.944  23.565  23.363  1.00  0.00     0.285 C 
ATOM     15  C   UNL A   1      31.569  22.802  24.628  1.00  0.00     0.176 C 
ATOM     16  C   UNL A   1      33.402  23.175  23.143  1.00  0.00     0.292 C 
ATOM     17  C   UNL A   1      32.866  22.294  25.179  1.00  0.00     0.240 C 
ATOM     18  O   UNL A   1      34.027  23.391  22.110  1.00  0.00    -0.267 OA
ATOM     19  O   UNL A   1      32.944  21.755  26.274  1.00  0.00    -0.274 OA
BRANCH  14  20
ATOM     20  N   UNL A   1      31.761  25.035  23.277  1.00  0.00    -0.315 N 
ATOM     21  N   UNL A   1      31.368  26.474  25.905  1.00  0.00    -0.326 N 
ATOM     22  C   UNL A   1      30.219  25.974  25.124  1.00  0.00     0.324 C 
ATOM     23  C   UNL A   1      32.659  25.947  25.433  1.00  0.00     0.324 C 
ATOM     24  H   UNL A   1      31.215  26.100  26.843  1.00  0.00     0.348 HD
ATOM     25  C   UNL A   1      30.434  25.545  23.643  1.00  0.00     0.325 C 
ATOM     26  C   UNL A   1      32.784  25.879  23.905  1.00  0.00     0.325 C 
ATOM     27  H   UNL A   1      31.876  25.130  22.267  1.00  0.00     0.349 HD
BRANCH  21  28
ATOM     28  C   UNL A   1      31.402  27.931  26.050  1.00  0.00     0.259 C 
ATOM     29  C   UNL A   1      32.266  28.331  27.251  1.00  0.00     0.071 C 
ENDBRANCH  21  28
ENDBRANCH  14  20
ENDBRANCH   8  13
ENDBRANCH   5   7
ENDBRANCH   4   5
ENDBRANCH   3   4
ENDBRANCH   2   3
ENDBRANCH   1   2
BRANCH   1  30
ATOM     30  C   UNL A   1      43.674  22.137  25.350  1.00  0.00     0.202 C 
BRANCH  30  31
ATOM     31  C   UNL A   1      43.026  23.481  24.996  1.00  0.00     0.261 C 
BRANCH  31  32
ATOM     32  O   UNL A   1      43.062  24.412  26.091  1.00  0.00    -0.460 OA
BRANCH  32  33
ATOM     33  C   UNL A   1      42.200  25.450  25.980  1.00  0.00     0.338 C 
ATOM     34  O   UNL A   1      41.446  25.685  25.045  1.00  0.00    -0.246 OA
BRANCH  33  35
ATOM     35  C   UNL A   1      42.143  26.196  27.249  1.00  0.00     0.060 A 
ATOM     36  C   UNL A   1      41.085  25.910  28.122  1.00  0.00     0.016 A 
ATOM     37  C   UNL A   1      43.065  27.200  27.554  1.00  0.00     0.016 A 
ATOM     38  C   UNL A   1      40.916  26.662  29.282  1.00  0.00     0.010 A 
ATOM     39  C   UNL A   1      42.888  27.958  28.717  1.00  0.00     0.010 A 
ATOM     40  C   UNL A   1      41.793  27.717  29.567  1.00  0.00    -0.014 A 
BRANCH  40  41
ATOM     41  C   UNL A   1      41.485  28.649  30.679  1.00  0.00     0.031 A 
ATOM     42  C   UNL A   1      42.308  28.581  31.938  1.00  0.00     0.074 A 
ATOM     43  C   UNL A   1      40.501  29.559  30.561  1.00  0.00     0.049 A 
ATOM     44  N   UNL A   1      42.185  29.264  33.046  1.00  0.00    -0.248 NA
ATOM     45  C   UNL A   1      43.415  27.611  31.948  1.00  0.00     0.031 C 
ATOM     46  C   UNL A   1      39.661  29.744  29.379  1.00  0.00     0.029 A 
ATOM     47  N   UNL A   1      40.037  30.492  31.453  1.00  0.00    -0.354 N 
ATOM     48  C   UNL A   1      43.190  28.801  33.889  1.00  0.00     0.074 A 
ATOM     49  C   UNL A   1      43.892  27.757  33.175  1.00  0.00     0.031 C 
ATOM     50  C   UNL A   1      38.775  30.724  29.622  1.00  0.00     0.029 A 
ATOM     51  C   UNL A   1      38.961  31.211  30.988  1.00  0.00     0.049 A 
ATOM     52  H   UNL A   1      40.436  30.633  32.342  1.00  0.00     0.167 HD
ATOM     53  C   UNL A   1      43.503  29.215  35.140  1.00  0.00     0.037 A 
ATOM     54  C   UNL A   1      38.200  32.138  31.603  1.00  0.00     0.037 A 
ATOM     55  C   UNL A   1      42.799  30.258  35.842  1.00  0.00     0.049 A 
ATOM     56  C   UNL A   1      38.526  32.538  33.020  1.00  0.00     0.074 A 
ATOM     57  C   UNL A   1      43.052  30.767  37.104  1.00  0.00     0.029 A 
ATOM     58  N   UNL A   1      41.701  30.947  35.347  1.00  0.00    -0.354 N 
ATOM     59  N   UNL A   1      39.494  32.109  33.797  1.00  0.00    -0.248 NA
ATOM     60  C   UNL A   1      37.662  33.551  33.642  1.00  0.00     0.031 C 
ATOM     61  C   UNL A   1      42.074  31.724  37.394  1.00  0.00     0.029 A 
ATOM     62  C   UNL A   1      41.248  31.856  36.290  1.00  0.00     0.049 A 
ATOM     63  H   UNL A   1      41.302  30.810  34.457  1.00  0.00     0.167 HD
ATOM     64  C   UNL A   1      39.371  32.822  34.987  1.00  0.00     0.074 A 
ATOM     65  C   UNL A   1      38.243  33.715  34.822  1.00  0.00     0.031 C 
ATOM     66  C   UNL A   1      40.127  32.746  36.111  1.00  0.00     0.037 A 
BRANCH  53  67
ATOM     67  C   UNL A   1      44.639  28.522  35.843  1.00  0.00     0.058 A 
ATOM     68  C   UNL A   1      45.962  28.981  35.746  1.00  0.00     0.135 A 
ATOM     69  C   UNL A   1      44.394  27.401  36.654  1.00  0.00     0.135 A 
ATOM     70  F   UNL A   1      46.257  30.037  34.971  1.00  0.00    -0.206 F 
ATOM     71  C   UNL A   1      47.005  28.339  36.406  1.00  0.00     0.059 A 
ATOM     72  C   UNL A   1      45.417  26.761  37.347  1.00  0.00     0.059 A 
ATOM     73  F   UNL A   1      43.148  26.918  36.781  1.00  0.00    -0.206 F 
ATOM     74  C   UNL A   1      46.722  27.230  37.204  1.00  0.00     0.060 A 
BRANCH  74  75
ATOM     75  S   UNL A   1      48.087  26.411  38.059  1.00  0.00     0.124 S 
ATOM     76  O   UNL A   1      49.243  27.043  37.432  1.00  0.00    -0.237 OA
ATOM     77  O   UNL A   1      47.844  26.774  39.451  1.00  0.00    -0.237 OA
ATOM     78  O   UNL A   1      47.893  25.001  37.737  1.00  0.00    -0.744 OA
ENDBRANCH  74  75
ENDBRANCH  53  67
BRANCH  54  79
ATOM     79  C   UNL A   1      37.046  32.744  30.887  1.00  0.00     0.058 A 
ATOM     80  C   UNL A   1      37.220  33.832  30.020  1.00  0.00     0.135 A 
ATOM     81  C   UNL A   1      35.744  32.245  31.056  1.00  0.00     0.135 A 
ATOM     82  F   UNL A   1      38.442  34.353  29.833  1.00  0.00    -0.206 F 
ATOM     83  C   UNL A   1      36.145  34.414  29.355  1.00  0.00     0.059 A 
ATOM     84  C   UNL A   1      34.658  32.792  30.381  1.00  0.00     0.059 A 
ATOM     85  F   UNL A   1      35.525  31.200  31.868  1.00  0.00    -0.206 F 
ATOM     86  C   UNL A   1      34.867  33.883  29.539  1.00  0.00     0.060 A 
BRANCH  86  87
ATOM     87  S   UNL A   1      33.486  34.614  28.632  1.00  0.00     0.124 S 
ATOM     88  O   UNL A   1      34.129  35.750  27.983  1.00  0.00    -0.237 OA
ATOM     89  O   UNL A   1      33.084  33.518  27.755  1.00  0.00    -0.237 OA
ATOM     90  O   UNL A   1      32.532  34.945  29.686  1.00  0.00    -0.744 OA
ENDBRANCH  86  87
ENDBRANCH  54  79
BRANCH  66  91
ATOM     91  C   UNL A   1      39.788  33.680  37.243  1.00  0.00     0.058 A 
ATOM     92  C   UNL A   1      38.842  33.345  38.223  1.00  0.00     0.135 A 
ATOM     93  C   UNL A   1      40.464  34.904  37.377  1.00  0.00     0.135 A 
ATOM     94  F   UNL A   1      38.162  32.190  38.140  1.00  0.00    -0.206 F 
ATOM     95  C   UNL A   1      38.559  34.201  39.282  1.00  0.00     0.059 A 
ATOM     96  C   UNL A   1      40.220  35.762  38.445  1.00  0.00     0.059 A 
ATOM     97  F   UNL A   1      41.388  35.269  36.474  1.00  0.00    -0.206 F 
ATOM     98  C   UNL A   1      39.256  35.407  39.387  1.00  0.00     0.060 A 
BRANCH  98  99
ATOM     99  S   UNL A   1      38.903  36.492  40.785  1.00  0.00     0.124 S 
ATOM    100  O   UNL A   1      37.930  35.703  41.533  1.00  0.00    -0.237 OA
ATOM    101  O   UNL A   1      40.215  36.637  41.408  1.00  0.00    -0.237 OA
ATOM    102  O   UNL A   1      38.379  37.701  40.155  1.00  0.00    -0.744 OA
ENDBRANCH  98  99
ENDBRANCH  66  91
ENDBRANCH  40  41
ENDBRANCH  33  35
ENDBRANCH  32  33
ENDBRANCH  31  32
ENDBRANCH  30  31
ENDBRANCH   1  30
TORSDOF 20
ENDMDL
MODEL 3
REMARK VINA RESULT:     -10.8      6.080     12.005
REMARK SMILES CC[NH+]1CC[NH+]([C@@H]2CC(=O)N(c3ccc(C(=O)OCCOCCOC(=O)c4ccc(-c5c6nc(c(-c7c(F)cc(S(=O)(=O)[O-])cc7F)c7ccc([nH]7)c(-c7c(F)cc(S(=O)(=O)[O-])cc7F)c7nc(c(-c8c(F)cc(S(=O)(=O)[O-])cc8F)c8ccc5[nH]8)C=C7)C=C6)cc4)cc3)C2=O)CC1
REMARK SMILES IDX 21 1 20 2 19 3 18 4 16 5 17 6 15 7 12 8 13 9 94 10 14 11
REMARK SMILES IDX 93 12 11 13 7 14 8 15 95 16 9 17 96 18 10 19 6 20 3 21 4 22
REMARK SMILES IDX 98 23 5 25 97 26 2 28 1 29 22 30 23 31 24 32 25 33 26 34
REMARK SMILES IDX 27 35 28 36 92 37 29 38 91 39 30 40 31 41 32 42 85 43 33 44
REMARK SMILES IDX 90 45 84 46 86 47 34 48 89 49 83 50 82 51 35 53 69 54 48 55
REMARK SMILES IDX 68 56 49 57 52 58 67 59 87 60 50 61 51 62 66 64 88 65 53 66
REMARK SMILES IDX 36 67 37 68 46 69 38 70 39 71 45 72 47 73 40 74 41 75 42 76
REMARK SMILES IDX 43 77 44 78 70 79 71 80 80 81 72 82 73 83 79 84 81 85 74 86
REMARK SMILES IDX 75 87 76 88 77 89 78 90 54 91 55 92 64 93 56 94 57 95 63 96
REMARK SMILES IDX 65 97 58 98 59 99 60 100 61 101 62 102
REMARK H PARENT 3 24 6 27 86 52 52 63
REMARK Flexibility Score: inf
ROOT
ATOM      1  O   UNL A   1      44.101  21.982  26.037  1.00  0.00    -0.374 OA
ENDROOT
BRANCH   1   2
ATOM      2  C   UNL A   1      43.780  20.635  25.681  1.00  0.00     0.202 C 
BRANCH   2   3
ATOM      3  C   UNL A   1      42.368  20.150  26.024  1.00  0.00     0.261 C 
BRANCH   3   4
ATOM      4  O   UNL A   1      41.379  21.142  25.702  1.00  0.00    -0.460 OA
BRANCH   4   5
ATOM      5  C   UNL A   1      40.737  21.675  26.765  1.00  0.00     0.338 C 
ATOM      6  O   UNL A   1      41.204  21.913  27.871  1.00  0.00    -0.246 OA
BRANCH   5   7
ATOM      7  C   UNL A   1      39.392  22.133  26.357  1.00  0.00     0.060 A 
ATOM      8  C   UNL A   1      36.851  22.897  25.431  1.00  0.00     0.052 A 
ATOM      9  C   UNL A   1      37.291  21.573  25.295  1.00  0.00     0.028 A 
ATOM     10  C   UNL A   1      37.677  23.815  26.097  1.00  0.00     0.028 A 
ATOM     11  C   UNL A   1      38.565  21.202  25.722  1.00  0.00     0.018 A 
ATOM     12  C   UNL A   1      38.932  23.430  26.587  1.00  0.00     0.018 A 
BRANCH   8  13
ATOM     13  N   UNL A   1      35.658  23.302  24.782  1.00  0.00    -0.245 N 
ATOM     14  C   UNL A   1      33.338  23.489  24.415  1.00  0.00     0.285 C 
ATOM     15  C   UNL A   1      34.070  23.533  23.079  1.00  0.00     0.176 C 
ATOM     16  C   UNL A   1      34.473  23.560  25.433  1.00  0.00     0.292 C 
ATOM     17  C   UNL A   1      35.516  23.332  23.416  1.00  0.00     0.240 C 
ATOM     18  O   UNL A   1      34.315  23.776  26.629  1.00  0.00    -0.267 OA
ATOM     19  O   UNL A   1      36.370  23.172  22.556  1.00  0.00    -0.274 OA
BRANCH  14  20
ATOM     20  N   UNL A   1      32.398  22.385  24.734  1.00  0.00    -0.315 N 
ATOM     21  N   UNL A   1      33.078  19.688  23.555  1.00  0.00    -0.326 N 
ATOM     22  C   UNL A   1      32.206  20.640  22.840  1.00  0.00     0.324 C 
ATOM     23  C   UNL A   1      33.783  20.295  24.696  1.00  0.00     0.324 C 
ATOM     24  H   UNL A   1      33.786  19.431  22.866  1.00  0.00     0.348 HD
ATOM     25  C   UNL A   1      31.615  21.857  23.610  1.00  0.00     0.325 C 
ATOM     26  C   UNL A   1      32.920  21.262  25.519  1.00  0.00     0.325 C 
ATOM     27  H   UNL A   1      31.771  22.910  25.345  1.00  0.00     0.349 HD
BRANCH  21  28
ATOM     28  C   UNL A   1      32.413  18.440  23.937  1.00  0.00     0.259 C 
ATOM     29  C   UNL A   1      33.128  17.237  23.313  1.00  0.00     0.071 C 
ENDBRANCH  21  28
ENDBRANCH  14  20
ENDBRANCH   8  13
ENDBRANCH   5   7
ENDBRANCH   4   5
ENDBRANCH   3   4
ENDBRANCH   2   3
ENDBRANCH   1   2
BRANCH   1  30
ATOM     30  C   UNL A   1      44.434  22.876  24.975  1.00  0.00     0.202 C 
BRANCH  30  31
ATOM     31  C   UNL A   1      43.761  24.254  24.981  1.00  0.00     0.261 C 
BRANCH  31  32
ATOM     32  O   UNL A   1      42.836  24.408  26.071  1.00  0.00    -0.460 OA
BRANCH  32  33
ATOM     33  C   UNL A   1      42.009  25.475  25.964  1.00  0.00     0.338 C 
ATOM     34  O   UNL A   1      41.256  25.733  25.034  1.00  0.00    -0.246 OA
BRANCH  33  35
ATOM     35  C   UNL A   1      41.988  26.225  27.232  1.00  0.00     0.060 A 
ATOM     36  C   UNL A   1      40.926  25.980  28.112  1.00  0.00     0.016 A 
ATOM     37  C   UNL A   1      42.948  27.194  27.529  1.00  0.00     0.016 A 
ATOM     38  C   UNL A   1      40.792  26.740  29.271  1.00  0.00     0.010 A 
ATOM     39  C   UNL A   1      42.807  27.961  28.691  1.00  0.00     0.010 A 
ATOM     40  C   UNL A   1      41.709  27.762  29.548  1.00  0.00    -0.014 A 
BRANCH  40  41
ATOM     41  C   UNL A   1      41.443  28.708  30.660  1.00  0.00     0.031 A 
ATOM     42  C   UNL A   1      42.295  28.636  31.899  1.00  0.00     0.074 A 
ATOM     43  C   UNL A   1      40.471  29.632  30.559  1.00  0.00     0.049 A 
ATOM     44  N   UNL A   1      42.211  29.330  33.005  1.00  0.00    -0.248 NA
ATOM     45  C   UNL A   1      43.388  27.649  31.889  1.00  0.00     0.031 C 
ATOM     46  C   UNL A   1      39.605  29.822  29.396  1.00  0.00     0.029 A 
ATOM     47  N   UNL A   1      40.043  30.579  31.455  1.00  0.00    -0.354 N 
ATOM     48  C   UNL A   1      43.229  28.857  33.826  1.00  0.00     0.074 A 
ATOM     49  C   UNL A   1      43.897  27.796  33.103  1.00  0.00     0.031 C 
ATOM     50  C   UNL A   1      38.740  30.817  29.654  1.00  0.00     0.029 A 
ATOM     51  C   UNL A   1      38.968  31.312  31.011  1.00  0.00     0.049 A 
ATOM     52  H   UNL A   1      40.466  30.721  32.333  1.00  0.00     0.167 HD
ATOM     53  C   UNL A   1      43.578  29.275  35.066  1.00  0.00     0.037 A 
ATOM     54  C   UNL A   1      38.236  32.255  31.637  1.00  0.00     0.037 A 
ATOM     55  C   UNL A   1      42.909  30.334  35.777  1.00  0.00     0.049 A 
ATOM     56  C   UNL A   1      38.604  32.660  33.042  1.00  0.00     0.074 A 
ATOM     57  C   UNL A   1      43.200  30.849  37.028  1.00  0.00     0.029 A 
ATOM     58  N   UNL A   1      41.810  31.036  35.304  1.00  0.00    -0.354 N 
ATOM     59  N   UNL A   1      39.583  32.222  33.799  1.00  0.00    -0.248 NA
ATOM     60  C   UNL A   1      37.770  33.691  33.677  1.00  0.00     0.031 C 
ATOM     61  C   UNL A   1      42.245  31.823  37.335  1.00  0.00     0.029 A 
ATOM     62  C   UNL A   1      41.394  31.959  36.250  1.00  0.00     0.049 A 
ATOM     63  H   UNL A   1      41.387  30.899  34.425  1.00  0.00     0.167 HD
ATOM     64  C   UNL A   1      39.501  32.945  34.985  1.00  0.00     0.074 A 
ATOM     65  C   UNL A   1      38.383  33.855  34.841  1.00  0.00     0.031 C 
ATOM     66  C   UNL A   1      40.283  32.866  36.091  1.00  0.00     0.037 A 
BRANCH  53  67
ATOM     67  C   UNL A   1      44.720  28.570  35.746  1.00  0.00     0.058 A 
ATOM     68  C   UNL A   1      46.050  28.992  35.594  1.00  0.00     0.135 A 
ATOM     69  C   UNL A   1      44.476  27.475  36.592  1.00  0.00     0.135 A 
ATOM     70  F   UNL A   1      46.344  30.022  34.784  1.00  0.00    -0.206 F 
ATOM     71  C   UNL A   1      47.100  28.339  36.233  1.00  0.00     0.059 A 
ATOM     72  C   UNL A   1      45.506  26.825  37.265  1.00  0.00     0.059 A 
ATOM     73  F   UNL A   1      43.224  27.027  36.773  1.00  0.00    -0.206 F 
ATOM     74  C   UNL A   1      46.817  27.256  37.067  1.00  0.00     0.060 A 
BRANCH  74  75
ATOM     75  S   UNL A   1      48.189  26.422  37.894  1.00  0.00     0.124 S 
ATOM     76  O   UNL A   1      48.404  25.276  37.016  1.00  0.00    -0.237 OA
ATOM     77  O   UNL A   1      49.232  27.442  37.870  1.00  0.00    -0.237 OA
ATOM     78  O   UNL A   1      47.652  26.109  39.213  1.00  0.00    -0.744 OA
ENDBRANCH  74  75
ENDBRANCH  53  67
BRANCH  54  79
ATOM     79  C   UNL A   1      37.074  32.873  30.945  1.00  0.00     0.058 A 
ATOM     80  C   UNL A   1      35.759  32.511  31.269  1.00  0.00     0.135 A 
ATOM     81  C   UNL A   1      37.257  33.842  29.945  1.00  0.00     0.135 A 
ATOM     82  F   UNL A   1      35.531  31.582  32.210  1.00  0.00    -0.206 F 
ATOM     83  C   UNL A   1      34.666  33.075  30.620  1.00  0.00     0.059 A 
ATOM     84  C   UNL A   1      36.180  34.441  29.301  1.00  0.00     0.059 A 
ATOM     85  F   UNL A   1      38.495  34.231  29.603  1.00  0.00    -0.206 F 
ATOM     86  C   UNL A   1      34.887  34.044  29.639  1.00  0.00     0.060 A 
BRANCH  86  87
ATOM     87  S   UNL A   1      33.459  34.806  28.837  1.00  0.00     0.124 S 
ATOM     88  O   UNL A   1      32.540  34.962  29.958  1.00  0.00    -0.237 OA
ATOM     89  O   UNL A   1      34.032  36.038  28.302  1.00  0.00    -0.237 OA
ATOM     90  O   UNL A   1      33.071  33.818  27.835  1.00  0.00    -0.744 OA
ENDBRANCH  86  87
ENDBRANCH  54  79
BRANCH  66  91
ATOM     91  C   UNL A   1      39.986  33.813  37.224  1.00  0.00     0.058 A 
ATOM     92  C   UNL A   1      40.424  35.146  37.210  1.00  0.00     0.135 A 
ATOM     93  C   UNL A   1      39.204  33.392  38.312  1.00  0.00     0.135 A 
ATOM     94  F   UNL A   1      41.179  35.600  36.197  1.00  0.00    -0.206 F 
ATOM     95  C   UNL A   1      40.118  36.022  38.247  1.00  0.00     0.059 A 
ATOM     96  C   UNL A   1      38.860  34.259  39.345  1.00  0.00     0.059 A 
ATOM     97  F   UNL A   1      38.749  32.130  38.371  1.00  0.00    -0.206 F 
ATOM     98  C   UNL A   1      39.332  35.569  39.310  1.00  0.00     0.060 A 
BRANCH  98  99
ATOM     99  S   UNL A   1      38.915  36.726  40.631  1.00  0.00     0.124 S 
ATOM    100  O   UNL A   1      38.500  37.902  39.874  1.00  0.00    -0.237 OA
ATOM    101  O   UNL A   1      37.851  36.020  41.340  1.00  0.00    -0.237 OA
ATOM    102  O   UNL A   1      40.166  36.865  41.371  1.00  0.00    -0.744 OA
ENDBRANCH  98  99
ENDBRANCH  66  91
ENDBRANCH  40  41
ENDBRANCH  33  35
ENDBRANCH  32  33
ENDBRANCH  31  32
ENDBRANCH  30  31
ENDBRANCH   1  30
TORSDOF 20
ENDMDL
