MODEL 1
REMARK VINA RESULT:     -11.8      0.000      0.000
REMARK SMILES C[NH+]1CCN(C(=O)c2ccc3c(c2)N(CC(=O)OCCOCCOC(=O)c2ccc(-c4c5nc(c(-c6c(F)cc(S(=O)(=O)[O-])cc6F)c6ccc([nH]6)c(-c6c(F)cc(S(=O)(=O)[O-])cc6F)c6nc(c(-c7c(F)cc(S(=O)(=O)[O-])cc7F)c7ccc4[nH]7)C=C6)C=C5)cc2)C(=O)CO3)CC1
REMARK SMILES IDX 22 1 21 2 20 3 19 4 18 5 16 6 17 7 15 8 14 9 8 10 9 11 13 12
REMARK SMILES IDX 10 13 12 14 11 15 96 16 93 17 95 18 94 19 6 20 1 21 2 22
REMARK SMILES IDX 3 23 98 24 4 26 97 27 5 28 7 29 23 30 24 31 25 32 26 33
REMARK SMILES IDX 27 34 28 35 92 36 29 37 91 38 30 39 31 40 32 41 85 42 33 43
REMARK SMILES IDX 90 44 84 45 86 46 34 47 89 48 83 49 82 50 35 52 69 53 48 54
REMARK SMILES IDX 68 55 49 56 52 57 67 58 87 59 50 60 51 61 66 63 88 64 53 65
REMARK SMILES IDX 36 66 37 67 46 68 38 69 39 70 45 71 47 72 40 73 41 74 42 75
REMARK SMILES IDX 43 76 44 77 70 78 71 79 80 80 72 81 73 82 79 83 81 84 74 85
REMARK SMILES IDX 75 86 76 87 77 88 78 89 54 90 55 91 64 92 56 93 57 94 63 95
REMARK SMILES IDX 65 96 58 97 59 98 60 99 61 100 62 101
REMARK H PARENT 2 25 86 51 52 62
REMARK Flexibility Score: inf
ROOT
ATOM      1  C   UNL A   1      32.647  28.834  25.908  1.00  0.00     0.202 C 
ENDROOT
BRANCH   1   2
ATOM      2  O   UNL A   1      33.234  29.208  24.671  1.00  0.00    -0.374 OA
BRANCH   2   3
ATOM      3  C   UNL A   1      34.062  28.185  24.102  1.00  0.00     0.202 C 
BRANCH   3   4
ATOM      4  C   UNL A   1      33.418  27.374  22.953  1.00  0.00     0.261 C 
BRANCH   4   5
ATOM      5  O   UNL A   1      33.701  25.956  23.055  1.00  0.00    -0.462 OA
BRANCH   5   6
ATOM      6  C   UNL A   1      32.997  25.128  22.238  1.00  0.00     0.326 C 
ATOM      7  O   UNL A   1      33.195  25.028  21.030  1.00  0.00    -0.250 OA
BRANCH   6   8
ATOM      8  C   UNL A   1      31.868  24.329  22.927  1.00  0.00     0.248 C 
BRANCH   8   9
ATOM      9  N   UNL A   1      31.716  24.266  24.389  1.00  0.00    -0.295 N 
ATOM     10  C   UNL A   1      33.737  21.258  25.537  1.00  0.00     0.042 A 
ATOM     11  C   UNL A   1      33.576  21.363  26.920  1.00  0.00     0.018 A 
ATOM     12  C   UNL A   1      33.006  22.121  24.682  1.00  0.00     0.044 A 
ATOM     13  C   UNL A   1      32.729  22.345  27.443  1.00  0.00     0.049 A 
ATOM     14  C   UNL A   1      32.228  23.189  25.200  1.00  0.00     0.087 A 
ATOM     15  C   UNL A   1      32.078  23.258  26.597  1.00  0.00     0.143 A 
ATOM     16  O   UNL A   1      31.425  24.256  27.265  1.00  0.00    -0.482 OA
ATOM     17  C   UNL A   1      31.021  25.314  24.984  1.00  0.00     0.265 C 
ATOM     18  C   UNL A   1      30.674  25.133  26.457  1.00  0.00     0.330 C 
ATOM     19  O   UNL A   1      30.624  26.297  24.357  1.00  0.00    -0.270 OA
BRANCH  10  20
ATOM     20  C   UNL A   1      34.536  20.118  24.999  1.00  0.00     0.254 C 
ATOM     21  C   UNL A   1      32.669  15.082  25.571  1.00  0.00     0.332 C 
ATOM     22  N   UNL A   1      32.973  16.227  24.713  1.00  0.00    -0.334 N 
ATOM     23  C   UNL A   1      34.417  16.562  24.766  1.00  0.00     0.283 C 
ATOM     24  C   UNL A   1      32.156  17.394  25.112  1.00  0.00     0.283 C 
ATOM     25  H   UNL A   1      32.744  15.978  23.751  1.00  0.00     0.347 HD
ATOM     26  C   UNL A   1      34.784  17.860  24.005  1.00  0.00     0.181 C 
ATOM     27  C   UNL A   1      32.536  18.647  24.301  1.00  0.00     0.181 C 
ATOM     28  N   UNL A   1      33.949  18.974  24.453  1.00  0.00    -0.327 N 
ATOM     29  O   UNL A   1      35.756  20.269  25.063  1.00  0.00    -0.269 OA
ENDBRANCH  10  20
ENDBRANCH   8   9
ENDBRANCH   6   8
ENDBRANCH   5   6
ENDBRANCH   4   5
ENDBRANCH   3   4
ENDBRANCH   2   3
ENDBRANCH   1   2
BRANCH   1  30
ATOM     30  C   UNL A   1      33.467  28.985  27.175  1.00  0.00     0.261 C 
BRANCH  30  31
ATOM     31  O   UNL A   1      34.511  29.875  26.956  1.00  0.00    -0.460 OA
BRANCH  31  32
ATOM     32  C   UNL A   1      34.789  30.663  28.010  1.00  0.00     0.338 C 
ATOM     33  O   UNL A   1      34.090  31.458  28.602  1.00  0.00    -0.246 OA
BRANCH  32  34
ATOM     34  C   UNL A   1      36.129  30.207  28.315  1.00  0.00     0.060 A 
ATOM     35  C   UNL A   1      36.377  29.688  29.580  1.00  0.00     0.016 A 
ATOM     36  C   UNL A   1      37.038  30.116  27.247  1.00  0.00     0.016 A 
ATOM     37  C   UNL A   1      37.600  29.088  29.796  1.00  0.00     0.010 A 
ATOM     38  C   UNL A   1      38.223  29.464  27.445  1.00  0.00     0.010 A 
ATOM     39  C   UNL A   1      38.516  29.007  28.734  1.00  0.00    -0.014 A 
BRANCH  39  40
ATOM     40  C   UNL A   1      39.907  28.657  28.995  1.00  0.00     0.031 A 
ATOM     41  C   UNL A   1      40.766  29.741  29.564  1.00  0.00     0.074 A 
ATOM     42  C   UNL A   1      40.346  27.438  28.662  1.00  0.00     0.049 A 
ATOM     43  N   UNL A   1      42.052  29.751  29.754  1.00  0.00    -0.248 NA
ATOM     44  C   UNL A   1      40.089  31.003  29.934  1.00  0.00     0.031 C 
ATOM     45  C   UNL A   1      39.527  26.365  28.089  1.00  0.00     0.029 A 
ATOM     46  N   UNL A   1      41.598  26.907  28.739  1.00  0.00    -0.354 N 
ATOM     47  C   UNL A   1      42.337  31.010  30.263  1.00  0.00     0.074 A 
ATOM     48  C   UNL A   1      41.109  31.765  30.290  1.00  0.00     0.031 C 
ATOM     49  C   UNL A   1      40.309  25.295  27.868  1.00  0.00     0.029 A 
ATOM     50  C   UNL A   1      41.677  25.629  28.247  1.00  0.00     0.049 A 
ATOM     51  H   UNL A   1      42.368  27.392  29.112  1.00  0.00     0.167 HD
ATOM     52  C   UNL A   1      43.528  31.471  30.695  1.00  0.00     0.037 A 
ATOM     53  C   UNL A   1      42.760  24.846  28.110  1.00  0.00     0.037 A 
ATOM     54  C   UNL A   1      44.719  30.673  30.655  1.00  0.00     0.049 A 
ATOM     55  C   UNL A   1      44.084  25.401  28.569  1.00  0.00     0.074 A 
ATOM     56  C   UNL A   1      45.995  31.006  31.059  1.00  0.00     0.029 A 
ATOM     57  N   UNL A   1      44.766  29.367  30.184  1.00  0.00    -0.354 N 
ATOM     58  N   UNL A   1      44.349  26.585  29.072  1.00  0.00    -0.248 NA
ATOM     59  C   UNL A   1      45.250  24.520  28.450  1.00  0.00     0.031 C 
ATOM     60  C   UNL A   1      46.823  29.911  30.801  1.00  0.00     0.029 A 
ATOM     61  C   UNL A   1      46.051  28.877  30.285  1.00  0.00     0.049 A 
ATOM     62  H   UNL A   1      43.996  28.866  29.829  1.00  0.00     0.167 HD
ATOM     63  C   UNL A   1      45.704  26.575  29.376  1.00  0.00     0.074 A 
ATOM     64  C   UNL A   1      46.201  25.268  28.992  1.00  0.00     0.031 C 
ATOM     65  C   UNL A   1      46.474  27.547  29.925  1.00  0.00     0.037 A 
BRANCH  52  66
ATOM     66  C   UNL A   1      43.582  32.866  31.243  1.00  0.00     0.058 A 
ATOM     67  C   UNL A   1      43.244  33.142  32.579  1.00  0.00     0.135 A 
ATOM     68  C   UNL A   1      44.000  33.935  30.438  1.00  0.00     0.135 A 
ATOM     69  F   UNL A   1      42.802  32.162  33.383  1.00  0.00    -0.206 F 
ATOM     70  C   UNL A   1      43.316  34.431  33.094  1.00  0.00     0.059 A 
ATOM     71  C   UNL A   1      44.106  35.229  30.941  1.00  0.00     0.059 A 
ATOM     72  F   UNL A   1      44.311  33.729  29.148  1.00  0.00    -0.206 F 
ATOM     73  C   UNL A   1      43.757  35.466  32.270  1.00  0.00     0.060 A 
BRANCH  73  74
ATOM     74  S   UNL A   1      43.890  37.124  32.970  1.00  0.00     0.124 S 
ATOM     75  O   UNL A   1      43.700  37.958  31.787  1.00  0.00    -0.237 OA
ATOM     76  O   UNL A   1      42.798  37.139  33.939  1.00  0.00    -0.237 OA
ATOM     77  O   UNL A   1      45.233  37.145  33.543  1.00  0.00    -0.744 OA
ENDBRANCH  73  74
ENDBRANCH  52  66
BRANCH  53  78
ATOM     78  C   UNL A   1      42.633  23.481  27.542  1.00  0.00     0.058 A 
ATOM     79  C   UNL A   1      42.279  22.395  28.355  1.00  0.00     0.135 A 
ATOM     80  C   UNL A   1      42.861  23.232  26.180  1.00  0.00     0.135 A 
ATOM     81  F   UNL A   1      42.038  22.584  29.661  1.00  0.00    -0.206 F 
ATOM     82  C   UNL A   1      42.196  21.103  27.848  1.00  0.00     0.059 A 
ATOM     83  C   UNL A   1      42.757  21.953  25.643  1.00  0.00     0.059 A 
ATOM     84  F   UNL A   1      43.172  24.242  25.352  1.00  0.00    -0.206 F 
ATOM     85  C   UNL A   1      42.445  20.890  26.491  1.00  0.00     0.060 A 
BRANCH  85  86
ATOM     86  S   UNL A   1      42.344  19.207  25.846  1.00  0.00     0.124 S 
ATOM     87  O   UNL A   1      40.903  19.047  25.680  1.00  0.00    -0.237 OA
ATOM     88  O   UNL A   1      43.123  19.303  24.616  1.00  0.00    -0.237 OA
ATOM     89  O   UNL A   1      42.951  18.406  26.905  1.00  0.00    -0.744 OA
ENDBRANCH  85  86
ENDBRANCH  53  78
BRANCH  65  90
ATOM     90  C   UNL A   1      47.904  27.207  30.216  1.00  0.00     0.058 A 
ATOM     91  C   UNL A   1      48.935  27.532  29.326  1.00  0.00     0.135 A 
ATOM     92  C   UNL A   1      48.246  26.650  31.460  1.00  0.00     0.135 A 
ATOM     93  F   UNL A   1      48.650  28.061  28.125  1.00  0.00    -0.206 F 
ATOM     94  C   UNL A   1      50.265  27.311  29.657  1.00  0.00     0.059 A 
ATOM     95  C   UNL A   1      49.570  26.447  31.822  1.00  0.00     0.059 A 
ATOM     96  F   UNL A   1      47.289  26.336  32.347  1.00  0.00    -0.206 F 
ATOM     97  C   UNL A   1      50.572  26.779  30.912  1.00  0.00     0.060 A 
BRANCH  97  98
ATOM     98  S   UNL A   1      52.308  26.573  31.357  1.00  0.00     0.124 S 
ATOM     99  O   UNL A   1      52.280  25.299  32.067  1.00  0.00    -0.237 OA
ATOM    100  O   UNL A   1      52.963  26.561  30.053  1.00  0.00    -0.237 OA
ATOM    101  O   UNL A   1      52.588  27.746  32.181  1.00  0.00    -0.744 OA
ENDBRANCH  97  98
ENDBRANCH  65  90
ENDBRANCH  39  40
ENDBRANCH  32  34
ENDBRANCH  31  32
ENDBRANCH  30  31
ENDBRANCH   1  30
TORSDOF 19
ENDMDL
MODEL 2
REMARK VINA RESULT:     -11.7      1.424      2.305
REMARK SMILES C[NH+]1CCN(C(=O)c2ccc3c(c2)N(CC(=O)OCCOCCOC(=O)c2ccc(-c4c5nc(c(-c6c(F)cc(S(=O)(=O)[O-])cc6F)c6ccc([nH]6)c(-c6c(F)cc(S(=O)(=O)[O-])cc6F)c6nc(c(-c7c(F)cc(S(=O)(=O)[O-])cc7F)c7ccc4[nH]7)C=C6)C=C5)cc2)C(=O)CO3)CC1
REMARK SMILES IDX 22 1 21 2 20 3 19 4 18 5 16 6 17 7 15 8 14 9 8 10 9 11 13 12
REMARK SMILES IDX 10 13 12 14 11 15 96 16 93 17 95 18 94 19 6 20 1 21 2 22
REMARK SMILES IDX 3 23 98 24 4 26 97 27 5 28 7 29 23 30 24 31 25 32 26 33
REMARK SMILES IDX 27 34 28 35 92 36 29 37 91 38 30 39 31 40 32 41 85 42 33 43
REMARK SMILES IDX 90 44 84 45 86 46 34 47 89 48 83 49 82 50 35 52 69 53 48 54
REMARK SMILES IDX 68 55 49 56 52 57 67 58 87 59 50 60 51 61 66 63 88 64 53 65
REMARK SMILES IDX 36 66 37 67 46 68 38 69 39 70 45 71 47 72 40 73 41 74 42 75
REMARK SMILES IDX 43 76 44 77 70 78 71 79 80 80 72 81 73 82 79 83 81 84 74 85
REMARK SMILES IDX 75 86 76 87 77 88 78 89 54 90 55 91 64 92 56 93 57 94 63 95
REMARK SMILES IDX 65 96 58 97 59 98 60 99 61 100 62 101
REMARK H PARENT 2 25 86 51 52 62
REMARK Flexibility Score: inf
ROOT
ATOM      1  C   UNL A   1      32.772  29.173  26.003  1.00  0.00     0.202 C 
ENDROOT
BRANCH   1   2
ATOM      2  O   UNL A   1      33.465  28.459  24.991  1.00  0.00    -0.374 OA
BRANCH   2   3
ATOM      3  C   UNL A   1      33.260  28.992  23.677  1.00  0.00     0.202 C 
BRANCH   3   4
ATOM      4  C   UNL A   1      34.294  28.549  22.614  1.00  0.00     0.261 C 
BRANCH   4   5
ATOM      5  O   UNL A   1      33.680  27.819  21.521  1.00  0.00    -0.462 OA
BRANCH   5   6
ATOM      6  C   UNL A   1      33.387  26.510  21.745  1.00  0.00     0.326 C 
ATOM      7  O   UNL A   1      34.232  25.650  21.975  1.00  0.00    -0.250 OA
BRANCH   6   8
ATOM      8  C   UNL A   1      31.888  26.147  21.647  1.00  0.00     0.248 C 
BRANCH   8   9
ATOM      9  N   UNL A   1      31.010  26.066  22.824  1.00  0.00    -0.295 N 
ATOM     10  C   UNL A   1      32.117  22.989  24.763  1.00  0.00     0.042 A 
ATOM     11  C   UNL A   1      31.273  23.078  25.873  1.00  0.00     0.018 A 
ATOM     12  C   UNL A   1      31.938  23.884  23.678  1.00  0.00     0.044 A 
ATOM     13  C   UNL A   1      30.294  24.074  25.917  1.00  0.00     0.049 A 
ATOM     14  C   UNL A   1      31.021  24.965  23.755  1.00  0.00     0.087 A 
ATOM     15  C   UNL A   1      30.180  25.017  24.881  1.00  0.00     0.143 A 
ATOM     16  O   UNL A   1      29.292  26.021  25.148  1.00  0.00    -0.482 OA
ATOM     17  C   UNL A   1      30.125  27.124  23.010  1.00  0.00     0.265 C 
ATOM     18  C   UNL A   1      29.072  26.930  24.094  1.00  0.00     0.330 C 
ATOM     19  O   UNL A   1      30.119  28.126  22.294  1.00  0.00    -0.270 OA
BRANCH  10  20
ATOM     20  C   UNL A   1      33.061  21.837  24.678  1.00  0.00     0.254 C 
ATOM     21  C   UNL A   1      38.298  22.632  25.732  1.00  0.00     0.332 C 
ATOM     22  N   UNL A   1      37.005  22.064  26.112  1.00  0.00    -0.334 N 
ATOM     23  C   UNL A   1      36.526  21.103  25.090  1.00  0.00     0.283 C 
ATOM     24  C   UNL A   1      36.014  23.144  26.312  1.00  0.00     0.283 C 
ATOM     25  H   UNL A   1      37.121  21.558  26.989  1.00  0.00     0.347 HD
ATOM     26  C   UNL A   1      35.091  20.581  25.349  1.00  0.00     0.181 C 
ATOM     27  C   UNL A   1      34.614  22.571  26.601  1.00  0.00     0.181 C 
ATOM     28  N   UNL A   1      34.162  21.696  25.526  1.00  0.00    -0.327 N 
ATOM     29  O   UNL A   1      32.789  21.012  23.806  1.00  0.00    -0.269 OA
ENDBRANCH  10  20
ENDBRANCH   8   9
ENDBRANCH   6   8
ENDBRANCH   5   6
ENDBRANCH   4   5
ENDBRANCH   3   4
ENDBRANCH   2   3
ENDBRANCH   1   2
BRANCH   1  30
ATOM     30  C   UNL A   1      33.458  30.360  26.653  1.00  0.00     0.261 C 
BRANCH  30  31
ATOM     31  O   UNL A   1      34.453  29.914  27.513  1.00  0.00    -0.460 OA
BRANCH  31  32
ATOM     32  C   UNL A   1      34.877  30.843  28.387  1.00  0.00     0.338 C 
ATOM     33  O   UNL A   1      34.280  31.759  28.911  1.00  0.00    -0.246 OA
BRANCH  32  34
ATOM     34  C   UNL A   1      36.226  30.370  28.619  1.00  0.00     0.060 A 
ATOM     35  C   UNL A   1      36.519  29.788  29.847  1.00  0.00     0.016 A 
ATOM     36  C   UNL A   1      37.094  30.329  27.514  1.00  0.00     0.016 A 
ATOM     37  C   UNL A   1      37.747  29.176  29.987  1.00  0.00     0.010 A 
ATOM     38  C   UNL A   1      38.283  29.665  27.635  1.00  0.00     0.010 A 
ATOM     39  C   UNL A   1      38.622  29.145  28.889  1.00  0.00    -0.014 A 
BRANCH  39  40
ATOM     40  C   UNL A   1      40.020  28.779  29.080  1.00  0.00     0.031 A 
ATOM     41  C   UNL A   1      40.923  29.859  29.586  1.00  0.00     0.074 A 
ATOM     42  C   UNL A   1      40.424  27.550  28.740  1.00  0.00     0.049 A 
ATOM     43  N   UNL A   1      42.217  29.853  29.707  1.00  0.00    -0.248 NA
ATOM     44  C   UNL A   1      40.283  31.134  29.974  1.00  0.00     0.031 C 
ATOM     45  C   UNL A   1      39.562  26.481  28.227  1.00  0.00     0.029 A 
ATOM     46  N   UNL A   1      41.672  27.003  28.758  1.00  0.00    -0.354 N 
ATOM     47  C   UNL A   1      42.545  31.116  30.181  1.00  0.00     0.074 A 
ATOM     48  C   UNL A   1      41.331  31.887  30.264  1.00  0.00     0.031 C 
ATOM     49  C   UNL A   1      40.317  25.397  27.980  1.00  0.00     0.029 A 
ATOM     50  C   UNL A   1      41.708  25.717  28.280  1.00  0.00     0.049 A 
ATOM     51  H   UNL A   1      42.468  27.482  29.082  1.00  0.00     0.167 HD
ATOM     52  C   UNL A   1      43.764  31.566  30.542  1.00  0.00     0.037 A 
ATOM     53  C   UNL A   1      42.771  24.918  28.097  1.00  0.00     0.037 A 
ATOM     54  C   UNL A   1      44.940  30.750  30.450  1.00  0.00     0.049 A 
ATOM     55  C   UNL A   1      44.125  25.460  28.476  1.00  0.00     0.074 A 
ATOM     56  C   UNL A   1      46.241  31.072  30.780  1.00  0.00     0.029 A 
ATOM     57  N   UNL A   1      44.945  29.438  29.995  1.00  0.00    -0.354 N 
ATOM     58  N   UNL A   1      44.433  26.647  28.947  1.00  0.00    -0.248 NA
ATOM     59  C   UNL A   1      45.271  24.561  28.307  1.00  0.00     0.031 C 
ATOM     60  C   UNL A   1      47.039  29.962  30.493  1.00  0.00     0.029 A 
ATOM     61  C   UNL A   1      46.228  28.932  30.034  1.00  0.00     0.049 A 
ATOM     62  H   UNL A   1      44.151  28.943  29.690  1.00  0.00     0.167 HD
ATOM     63  C   UNL A   1      45.802  26.623  29.178  1.00  0.00     0.074 A 
ATOM     64  C   UNL A   1      46.261  25.304  28.787  1.00  0.00     0.031 C 
ATOM     65  C   UNL A   1      46.613  27.591  29.671  1.00  0.00     0.037 A 
BRANCH  52  66
ATOM     66  C   UNL A   1      43.866  32.967  31.067  1.00  0.00     0.058 A 
ATOM     67  C   UNL A   1      44.107  34.055  30.210  1.00  0.00     0.135 A 
ATOM     68  C   UNL A   1      43.697  33.233  32.433  1.00  0.00     0.135 A 
ATOM     69  F   UNL A   1      44.313  33.852  28.899  1.00  0.00    -0.206 F 
ATOM     70  C   UNL A   1      44.179  35.356  30.692  1.00  0.00     0.059 A 
ATOM     71  C   UNL A   1      43.738  34.532  32.933  1.00  0.00     0.059 A 
ATOM     72  F   UNL A   1      43.489  32.228  33.298  1.00  0.00    -0.206 F 
ATOM     73  C   UNL A   1      43.984  35.586  32.054  1.00  0.00     0.060 A 
BRANCH  73  74
ATOM     74  S   UNL A   1      44.033  37.287  32.653  1.00  0.00     0.124 S 
ATOM     75  O   UNL A   1      42.959  37.280  33.642  1.00  0.00    -0.237 OA
ATOM     76  O   UNL A   1      45.388  37.387  33.189  1.00  0.00    -0.237 OA
ATOM     77  O   UNL A   1      43.777  38.079  31.454  1.00  0.00    -0.744 OA
ENDBRANCH  73  74
ENDBRANCH  52  66
BRANCH  53  78
ATOM     78  C   UNL A   1      42.597  23.547  27.556  1.00  0.00     0.058 A 
ATOM     79  C   UNL A   1      42.396  22.456  28.414  1.00  0.00     0.135 A 
ATOM     80  C   UNL A   1      42.625  23.297  26.176  1.00  0.00     0.135 A 
ATOM     81  F   UNL A   1      42.348  22.646  29.741  1.00  0.00    -0.206 F 
ATOM     82  C   UNL A   1      42.271  21.160  27.927  1.00  0.00     0.059 A 
ATOM     83  C   UNL A   1      42.475  22.012  25.662  1.00  0.00     0.059 A 
ATOM     84  F   UNL A   1      42.782  24.310  25.309  1.00  0.00    -0.206 F 
ATOM     85  C   UNL A   1      42.320  20.947  26.549  1.00  0.00     0.060 A 
BRANCH  85  86
ATOM     86  S   UNL A   1      42.167  19.258  25.928  1.00  0.00     0.124 S 
ATOM     87  O   UNL A   1      43.021  19.305  24.747  1.00  0.00    -0.237 OA
ATOM     88  O   UNL A   1      42.669  18.472  27.051  1.00  0.00    -0.237 OA
ATOM     89  O   UNL A   1      40.736  19.126  25.669  1.00  0.00    -0.744 OA
ENDBRANCH  85  86
ENDBRANCH  53  78
BRANCH  65  90
ATOM     90  C   UNL A   1      48.051  27.235  29.890  1.00  0.00     0.058 A 
ATOM     91  C   UNL A   1      49.046  27.585  28.967  1.00  0.00     0.135 A 
ATOM     92  C   UNL A   1      48.443  26.637  31.099  1.00  0.00     0.135 A 
ATOM     93  F   UNL A   1      48.714  28.153  27.797  1.00  0.00    -0.206 F 
ATOM     94  C   UNL A   1      50.388  27.347  29.234  1.00  0.00     0.059 A 
ATOM     95  C   UNL A   1      49.781  26.417  31.397  1.00  0.00     0.059 A 
ATOM     96  F   UNL A   1      47.523  26.299  32.016  1.00  0.00    -0.206 F 
ATOM     97  C   UNL A   1      50.745  26.773  30.457  1.00  0.00     0.060 A 
BRANCH  97  98
ATOM     98  S   UNL A   1      52.497  26.545  30.821  1.00  0.00     0.124 S 
ATOM     99  O   UNL A   1      53.038  26.265  29.496  1.00  0.00    -0.237 OA
ATOM    100  O   UNL A   1      52.863  27.836  31.397  1.00  0.00    -0.237 OA
ATOM    101  O   UNL A   1      52.506  25.424  31.755  1.00  0.00    -0.744 OA
ENDBRANCH  97  98
ENDBRANCH  65  90
ENDBRANCH  39  40
ENDBRANCH  32  34
ENDBRANCH  31  32
ENDBRANCH  30  31
ENDBRANCH   1  30
TORSDOF 19
ENDMDL
MODEL 3
REMARK VINA RESULT:     -11.5      3.355      5.949
REMARK SMILES C[NH+]1CCN(C(=O)c2ccc3c(c2)N(CC(=O)OCCOCCOC(=O)c2ccc(-c4c5nc(c(-c6c(F)cc(S(=O)(=O)[O-])cc6F)c6ccc([nH]6)c(-c6c(F)cc(S(=O)(=O)[O-])cc6F)c6nc(c(-c7c(F)cc(S(=O)(=O)[O-])cc7F)c7ccc4[nH]7)C=C6)C=C5)cc2)C(=O)CO3)CC1
REMARK SMILES IDX 22 1 21 2 20 3 19 4 18 5 16 6 17 7 15 8 14 9 8 10 9 11 13 12
REMARK SMILES IDX 10 13 12 14 11 15 96 16 93 17 95 18 94 19 6 20 1 21 2 22
REMARK SMILES IDX 3 23 98 24 4 26 97 27 5 28 7 29 23 30 24 31 25 32 26 33
REMARK SMILES IDX 27 34 28 35 92 36 29 37 91 38 30 39 31 40 32 41 85 42 33 43
REMARK SMILES IDX 90 44 84 45 86 46 34 47 89 48 83 49 82 50 35 52 69 53 48 54
REMARK SMILES IDX 68 55 49 56 52 57 67 58 87 59 50 60 51 61 66 63 88 64 53 65
REMARK SMILES IDX 36 66 37 67 46 68 38 69 39 70 45 71 47 72 40 73 41 74 42 75
REMARK SMILES IDX 43 76 44 77 70 78 71 79 80 80 72 81 73 82 79 83 81 84 74 85
REMARK SMILES IDX 75 86 76 87 77 88 78 89 54 90 55 91 64 92 56 93 57 94 63 95
REMARK SMILES IDX 65 96 58 97 59 98 60 99 61 100 62 101
REMARK H PARENT 2 25 86 51 52 62
REMARK Flexibility Score: inf
ROOT
ATOM      1  C   UNL A   1      34.557  29.041  27.409  1.00  0.00     0.202 C 
ENDROOT
BRANCH   1   2
ATOM      2  O   UNL A   1      33.220  28.566  27.397  1.00  0.00    -0.374 OA
BRANCH   2   3
ATOM      3  C   UNL A   1      33.050  27.366  26.632  1.00  0.00     0.202 C 
BRANCH   3   4
ATOM      4  C   UNL A   1      31.777  26.549  26.957  1.00  0.00     0.261 C 
BRANCH   4   5
ATOM      5  O   UNL A   1      31.964  25.127  26.736  1.00  0.00    -0.462 OA
BRANCH   5   6
ATOM      6  C   UNL A   1      30.866  24.412  26.376  1.00  0.00     0.326 C 
ATOM      7  O   UNL A   1      30.157  23.802  27.172  1.00  0.00    -0.250 OA
BRANCH   6   8
ATOM      8  C   UNL A   1      30.576  24.371  24.859  1.00  0.00     0.248 C 
BRANCH   8   9
ATOM      9  N   UNL A   1      31.573  24.753  23.848  1.00  0.00    -0.295 N 
ATOM     10  C   UNL A   1      31.373  28.537  23.539  1.00  0.00     0.042 A 
ATOM     11  C   UNL A   1      32.406  28.766  22.628  1.00  0.00     0.018 A 
ATOM     12  C   UNL A   1      30.989  27.205  23.836  1.00  0.00     0.044 A 
ATOM     13  C   UNL A   1      33.074  27.681  22.055  1.00  0.00     0.049 A 
ATOM     14  C   UNL A   1      31.726  26.096  23.346  1.00  0.00     0.087 A 
ATOM     15  C   UNL A   1      32.753  26.363  22.421  1.00  0.00     0.143 A 
ATOM     16  O   UNL A   1      33.603  25.427  21.904  1.00  0.00    -0.482 OA
ATOM     17  C   UNL A   1      32.385  23.732  23.363  1.00  0.00     0.265 C 
ATOM     18  C   UNL A   1      33.255  24.086  22.163  1.00  0.00     0.330 C 
ATOM     19  O   UNL A   1      32.352  22.583  23.804  1.00  0.00    -0.270 OA
BRANCH  10  20
ATOM     20  C   UNL A   1      30.586  29.705  24.032  1.00  0.00     0.254 C 
ATOM     21  C   UNL A   1      27.901  32.766  20.484  1.00  0.00     0.332 C 
ATOM     22  N   UNL A   1      27.891  31.787  21.571  1.00  0.00    -0.334 N 
ATOM     23  C   UNL A   1      28.529  32.339  22.790  1.00  0.00     0.283 C 
ATOM     24  C   UNL A   1      28.574  30.547  21.145  1.00  0.00     0.283 C 
ATOM     25  H   UNL A   1      26.921  31.567  21.796  1.00  0.00     0.347 HD
ATOM     26  C   UNL A   1      28.694  31.304  23.930  1.00  0.00     0.181 C 
ATOM     27  C   UNL A   1      28.679  29.539  22.305  1.00  0.00     0.181 C 
ATOM     28  N   UNL A   1      29.385  30.110  23.446  1.00  0.00    -0.327 N 
ATOM     29  O   UNL A   1      31.074  30.280  25.006  1.00  0.00    -0.269 OA
ENDBRANCH  10  20
ENDBRANCH   8   9
ENDBRANCH   6   8
ENDBRANCH   5   6
ENDBRANCH   4   5
ENDBRANCH   3   4
ENDBRANCH   2   3
ENDBRANCH   1   2
BRANCH   1  30
ATOM     30  C   UNL A   1      34.867  30.317  28.169  1.00  0.00     0.261 C 
BRANCH  30  31
ATOM     31  O   UNL A   1      36.233  30.400  28.409  1.00  0.00    -0.460 OA
BRANCH  31  32
ATOM     32  C   UNL A   1      36.623  29.818  29.557  1.00  0.00     0.338 C 
ATOM     33  O   UNL A   1      35.992  29.560  30.560  1.00  0.00    -0.246 OA
BRANCH  32  34
ATOM     34  C   UNL A   1      37.987  29.477  29.213  1.00  0.00     0.060 A 
ATOM     35  C   UNL A   1      38.380  29.585  27.885  1.00  0.00     0.016 A 
ATOM     36  C   UNL A   1      38.886  29.268  30.274  1.00  0.00     0.016 A 
ATOM     37  C   UNL A   1      39.722  29.439  27.601  1.00  0.00     0.010 A 
ATOM     38  C   UNL A   1      40.223  29.189  29.998  1.00  0.00     0.010 A 
ATOM     39  C   UNL A   1      40.621  29.219  28.657  1.00  0.00    -0.014 A 
BRANCH  39  40
ATOM     40  C   UNL A   1      41.979  28.769  28.377  1.00  0.00     0.031 A 
ATOM     41  C   UNL A   1      43.033  29.830  28.345  1.00  0.00     0.074 A 
ATOM     42  C   UNL A   1      42.196  27.477  28.107  1.00  0.00     0.049 A 
ATOM     43  N   UNL A   1      44.278  29.736  27.984  1.00  0.00    -0.248 NA
ATOM     44  C   UNL A   1      42.618  31.194  28.739  1.00  0.00     0.031 C 
ATOM     45  C   UNL A   1      41.177  26.423  28.117  1.00  0.00     0.029 A 
ATOM     46  N   UNL A   1      43.345  26.838  27.751  1.00  0.00    -0.354 N 
ATOM     47  C   UNL A   1      44.792  31.020  28.104  1.00  0.00     0.074 A 
ATOM     48  C   UNL A   1      43.717  31.892  28.505  1.00  0.00     0.031 C 
ATOM     49  C   UNL A   1      41.757  25.259  27.781  1.00  0.00     0.029 A 
ATOM     50  C   UNL A   1      43.167  25.502  27.498  1.00  0.00     0.049 A 
ATOM     51  H   UNL A   1      44.217  27.291  27.684  1.00  0.00     0.167 HD
ATOM     52  C   UNL A   1      46.069  31.414  27.921  1.00  0.00     0.037 A 
ATOM     53  C   UNL A   1      44.064  24.601  27.064  1.00  0.00     0.037 A 
ATOM     54  C   UNL A   1      47.104  30.501  27.531  1.00  0.00     0.049 A 
ATOM     55  C   UNL A   1      45.475  25.078  26.833  1.00  0.00     0.074 A 
ATOM     56  C   UNL A   1      48.442  30.757  27.309  1.00  0.00     0.029 A 
ATOM     57  N   UNL A   1      46.905  29.143  27.314  1.00  0.00    -0.354 N 
ATOM     58  N   UNL A   1      45.967  26.288  26.970  1.00  0.00    -0.248 NA
ATOM     59  C   UNL A   1      46.452  24.075  26.397  1.00  0.00     0.031 C 
ATOM     60  C   UNL A   1      49.046  29.558  26.924  1.00  0.00     0.029 A 
ATOM     61  C   UNL A   1      48.096  28.545  26.959  1.00  0.00     0.049 A 
ATOM     62  H   UNL A   1      46.042  28.678  27.401  1.00  0.00     0.167 HD
ATOM     63  C   UNL A   1      47.322  26.184  26.685  1.00  0.00     0.074 A 
ATOM     64  C   UNL A   1      47.567  24.792  26.362  1.00  0.00     0.031 C 
ATOM     65  C   UNL A   1      48.283  27.141  26.692  1.00  0.00     0.037 A 
BRANCH  52  66
ATOM     66  C   UNL A   1      46.395  32.859  28.149  1.00  0.00     0.058 A 
ATOM     67  C   UNL A   1      46.841  33.322  29.399  1.00  0.00     0.135 A 
ATOM     68  C   UNL A   1      46.288  33.790  27.105  1.00  0.00     0.135 A 
ATOM     69  F   UNL A   1      46.926  32.481  30.441  1.00  0.00    -0.206 F 
ATOM     70  C   UNL A   1      47.165  34.658  29.605  1.00  0.00     0.059 A 
ATOM     71  C   UNL A   1      46.634  35.127  27.282  1.00  0.00     0.059 A 
ATOM     72  F   UNL A   1      45.844  33.405  25.898  1.00  0.00    -0.206 F 
ATOM     73  C   UNL A   1      47.068  35.551  28.538  1.00  0.00     0.060 A 
BRANCH  73  74
ATOM     74  S   UNL A   1      47.540  37.271  28.812  1.00  0.00     0.124 S 
ATOM     75  O   UNL A   1      48.684  37.407  27.916  1.00  0.00    -0.237 OA
ATOM     76  O   UNL A   1      46.333  37.989  28.413  1.00  0.00    -0.237 OA
ATOM     77  O   UNL A   1      47.850  37.316  30.238  1.00  0.00    -0.744 OA
ENDBRANCH  73  74
ENDBRANCH  52  66
BRANCH  53  78
ATOM     78  C   UNL A   1      43.665  23.189  26.843  1.00  0.00     0.058 A 
ATOM     79  C   UNL A   1      43.602  22.654  25.548  1.00  0.00     0.135 A 
ATOM     80  C   UNL A   1      43.342  22.345  27.916  1.00  0.00     0.135 A 
ATOM     81  F   UNL A   1      43.915  23.418  24.491  1.00  0.00    -0.206 F 
ATOM     82  C   UNL A   1      43.191  21.346  25.320  1.00  0.00     0.059 A 
ATOM     83  C   UNL A   1      42.954  21.023  27.715  1.00  0.00     0.059 A 
ATOM     84  F   UNL A   1      43.417  22.797  29.178  1.00  0.00    -0.206 F 
ATOM     85  C   UNL A   1      42.861  20.540  26.411  1.00  0.00     0.060 A 
BRANCH  85  86
ATOM     86  S   UNL A   1      42.319  18.846  26.102  1.00  0.00     0.124 S 
ATOM     87  O   UNL A   1      43.262  18.423  25.072  1.00  0.00    -0.237 OA
ATOM     88  O   UNL A   1      42.483  18.227  27.413  1.00  0.00    -0.237 OA
ATOM     89  O   UNL A   1      40.937  19.012  25.662  1.00  0.00    -0.744 OA
ENDBRANCH  85  86
ENDBRANCH  53  78
BRANCH  65  90
ATOM     90  C   UNL A   1      49.689  26.702  26.421  1.00  0.00     0.058 A 
ATOM     91  C   UNL A   1      50.468  26.077  27.404  1.00  0.00     0.135 A 
ATOM     92  C   UNL A   1      50.213  26.809  25.122  1.00  0.00     0.135 A 
ATOM     93  F   UNL A   1      50.008  25.959  28.659  1.00  0.00    -0.206 F 
ATOM     94  C   UNL A   1      51.729  25.576  27.109  1.00  0.00     0.059 A 
ATOM     95  C   UNL A   1      51.459  26.289  24.799  1.00  0.00     0.059 A 
ATOM     96  F   UNL A   1      49.494  27.388  24.148  1.00  0.00    -0.206 F 
ATOM     97  C   UNL A   1      52.210  25.677  25.801  1.00  0.00     0.060 A 
BRANCH  97  98
ATOM     98  S   UNL A   1      53.815  24.949  25.415  1.00  0.00     0.124 S 
ATOM     99  O   UNL A   1      54.151  25.625  24.167  1.00  0.00    -0.237 OA
ATOM    100  O   UNL A   1      54.613  25.326  26.578  1.00  0.00    -0.237 OA
ATOM    101  O   UNL A   1      53.521  23.524  25.300  1.00  0.00    -0.744 OA
ENDBRANCH  97  98
ENDBRANCH  65  90
ENDBRANCH  39  40
ENDBRANCH  32  34
ENDBRANCH  31  32
ENDBRANCH  30  31
ENDBRANCH   1  30
TORSDOF 19
ENDMDL
