MODEL 1
REMARK VINA RESULT:     -10.0      0.000      0.000
REMARK SMILES C#CC[N@H+](CC(=O)OCCOCCOC(=O)c1ccc(-c2c3nc(c(-c4c(F)cc(S(=O)(=O)[O-])cc4F)c4ccc([nH]4)c(-c4c(F)cc(S(=O)(=O)[O-])cc4F)c4nc(c(-c5c(F)cc(S(=O)(=O)[O-])cc5F)c5ccc2[nH]5)C=C4)C=C3)cc1)[C@H](C)c1cc(C)ccc1C
REMARK SMILES IDX 11 1 10 2 9 3 8 4 6 5 7 6 5 7 4 8 3 10 2 11 1 12 83 13 84 14
REMARK SMILES IDX 85 15 86 16 91 17 87 18 90 19 92 20 88 21 89 22 12 23 13 24
REMARK SMILES IDX 14 25 15 26 16 27 17 28 18 29 82 30 19 31 81 32 20 33 21 34
REMARK SMILES IDX 22 35 75 36 23 37 80 38 74 39 76 40 24 41 79 42 73 43 72 44
REMARK SMILES IDX 25 46 59 47 38 48 58 49 39 50 42 51 57 52 77 53 40 54 41 55
REMARK SMILES IDX 56 57 78 58 43 59 26 60 27 61 36 62 28 63 29 64 35 65 37 66
REMARK SMILES IDX 30 67 31 68 32 69 33 70 34 71 60 72 61 73 70 74 62 75 63 76
REMARK SMILES IDX 69 77 71 78 64 79 65 80 66 81 67 82 68 83 44 84 45 85 54 86
REMARK SMILES IDX 46 87 47 88 53 89 55 90 48 91 49 92 50 93 51 94 52 95
REMARK H PARENT 4 9 76 45 42 56
REMARK Flexibility Score: inf
ROOT
ATOM      1  O   UNL A   1      36.265  20.711  25.012  1.00  0.00    -0.374 OA
ENDROOT
BRANCH   1   2
ATOM      2  C   UNL A   1      35.273  21.472  25.696  1.00  0.00     0.202 C 
BRANCH   2   3
ATOM      3  C   UNL A   1      34.039  21.916  24.910  1.00  0.00     0.261 C 
BRANCH   3   4
ATOM      4  O   UNL A   1      33.861  23.337  24.986  1.00  0.00    -0.459 OA
BRANCH   4   5
ATOM      5  C   UNL A   1      34.213  24.027  23.879  1.00  0.00     0.361 C 
ATOM      6  O   UNL A   1      34.771  23.529  22.904  1.00  0.00    -0.245 OA
BRANCH   5   7
ATOM      7  C   UNL A   1      33.933  25.519  23.955  1.00  0.00     0.387 C 
BRANCH   7   8
ATOM      8  N   UNL A   1      32.576  26.079  23.581  1.00  0.00    -0.310 N 
ATOM      9  H   UNL A   1      32.204  25.650  22.735  1.00  0.00     0.349 HD
BRANCH   8  10
ATOM     10  C   UNL A   1      31.592  25.769  24.642  1.00  0.00     0.354 C 
BRANCH  10  11
ATOM     11  C   UNL A   1      30.189  26.058  24.304  1.00  0.00    -0.047 C 
ATOM     12  C   UNL A   1      29.033  26.311  24.077  1.00  0.00     0.010 C 
ENDBRANCH  10  11
ENDBRANCH   8  10
BRANCH   8  13
ATOM     13  C   UNL A   1      32.750  27.566  23.312  1.00  0.00     0.213 C 
ATOM     14  C   UNL A   1      33.886  27.909  22.327  1.00  0.00     0.081 C 
BRANCH  13  15
ATOM     15  C   UNL A   1      32.611  28.542  24.506  1.00  0.00     0.012 A 
ATOM     16  C   UNL A   1      33.667  28.506  25.464  1.00  0.00     0.013 A 
ATOM     17  C   UNL A   1      31.549  29.453  24.753  1.00  0.00    -0.042 A 
ATOM     18  C   UNL A   1      33.692  29.330  26.605  1.00  0.00    -0.051 A 
ATOM     19  C   UNL A   1      31.597  30.275  25.904  1.00  0.00     0.004 A 
ATOM     20  C   UNL A   1      30.370  29.754  23.865  1.00  0.00     0.045 C 
ATOM     21  C   UNL A   1      34.841  29.287  27.567  1.00  0.00     0.044 C 
ATOM     22  C   UNL A   1      32.644  30.216  26.815  1.00  0.00     0.004 A 
ENDBRANCH  13  15
ENDBRANCH   8  13
ENDBRANCH   7   8
ENDBRANCH   5   7
ENDBRANCH   4   5
ENDBRANCH   3   4
ENDBRANCH   2   3
ENDBRANCH   1   2
BRANCH   1  23
ATOM     23  C   UNL A   1      37.487  21.351  24.645  1.00  0.00     0.202 C 
BRANCH  23  24
ATOM     24  C   UNL A   1      38.588  21.512  25.701  1.00  0.00     0.261 C 
BRANCH  24  25
ATOM     25  O   UNL A   1      38.789  22.872  26.113  1.00  0.00    -0.460 OA
BRANCH  25  26
ATOM     26  C   UNL A   1      40.075  23.204  26.383  1.00  0.00     0.338 C 
ATOM     27  O   UNL A   1      41.082  22.648  25.980  1.00  0.00    -0.246 OA
BRANCH  26  28
ATOM     28  C   UNL A   1      40.099  24.497  27.091  1.00  0.00     0.060 A 
ATOM     29  C   UNL A   1      41.106  25.418  26.768  1.00  0.00     0.016 A 
ATOM     30  C   UNL A   1      39.179  24.775  28.098  1.00  0.00     0.016 A 
ATOM     31  C   UNL A   1      41.221  26.609  27.485  1.00  0.00     0.010 A 
ATOM     32  C   UNL A   1      39.299  25.962  28.821  1.00  0.00     0.010 A 
ATOM     33  C   UNL A   1      40.341  26.867  28.542  1.00  0.00    -0.014 A 
BRANCH  33  34
ATOM     34  C   UNL A   1      40.582  27.992  29.476  1.00  0.00     0.031 A 
ATOM     35  C   UNL A   1      41.735  27.888  30.436  1.00  0.00     0.074 A 
ATOM     36  C   UNL A   1      39.769  29.063  29.500  1.00  0.00     0.049 A 
ATOM     37  N   UNL A   1      42.034  28.645  31.458  1.00  0.00    -0.248 NA
ATOM     38  C   UNL A   1      42.667  26.769  30.220  1.00  0.00     0.031 C 
ATOM     39  C   UNL A   1      38.655  29.299  28.583  1.00  0.00     0.029 A 
ATOM     40  N   UNL A   1      39.739  30.138  30.352  1.00  0.00    -0.354 N 
ATOM     41  C   UNL A   1      43.173  28.083  32.022  1.00  0.00     0.074 A 
ATOM     42  C   UNL A   1      43.495  26.906  31.246  1.00  0.00     0.031 C 
ATOM     43  C   UNL A   1      38.034  30.437  28.939  1.00  0.00     0.029 A 
ATOM     44  C   UNL A   1      38.671  30.977  30.139  1.00  0.00     0.049 A 
ATOM     45  H   UNL A   1      40.417  30.293  31.049  1.00  0.00     0.167 HD
ATOM     46  C   UNL A   1      43.884  28.514  33.090  1.00  0.00     0.037 A 
ATOM     47  C   UNL A   1      38.234  32.032  30.856  1.00  0.00     0.037 A 
ATOM     48  C   UNL A   1      43.548  29.686  33.854  1.00  0.00     0.049 A 
ATOM     49  C   UNL A   1      38.987  32.442  32.098  1.00  0.00     0.074 A 
ATOM     50  C   UNL A   1      44.209  30.218  34.947  1.00  0.00     0.029 A 
ATOM     51  N   UNL A   1      42.452  30.503  33.613  1.00  0.00    -0.354 N 
ATOM     52  N   UNL A   1      40.066  31.909  32.622  1.00  0.00    -0.248 NA
ATOM     53  C   UNL A   1      38.466  33.594  32.848  1.00  0.00     0.031 C 
ATOM     54  C   UNL A   1      43.476  31.314  35.409  1.00  0.00     0.029 A 
ATOM     55  C   UNL A   1      42.404  31.517  34.553  1.00  0.00     0.049 A 
ATOM     56  H   UNL A   1      41.806  30.380  32.881  1.00  0.00     0.167 HD
ATOM     57  C   UNL A   1      40.378  32.689  33.732  1.00  0.00     0.074 A 
ATOM     58  C   UNL A   1      39.371  33.726  33.809  1.00  0.00     0.031 C 
ATOM     59  C   UNL A   1      41.411  32.564  34.600  1.00  0.00     0.037 A 
BRANCH  46  60
ATOM     60  C   UNL A   1      45.075  27.698  33.520  1.00  0.00     0.058 A 
ATOM     61  C   UNL A   1      46.375  27.991  33.080  1.00  0.00     0.135 A 
ATOM     62  C   UNL A   1      44.916  26.632  34.421  1.00  0.00     0.135 A 
ATOM     63  F   UNL A   1      46.587  28.988  32.205  1.00  0.00    -0.206 F 
ATOM     64  C   UNL A   1      47.471  27.241  33.497  1.00  0.00     0.059 A 
ATOM     65  C   UNL A   1      46.002  25.892  34.879  1.00  0.00     0.059 A 
ATOM     66  F   UNL A   1      43.695  26.305  34.874  1.00  0.00    -0.206 F 
ATOM     67  C   UNL A   1      47.274  26.195  34.399  1.00  0.00     0.060 A 
BRANCH  67  68
ATOM     68  S   UNL A   1      48.708  25.241  34.937  1.00  0.00     0.124 S 
ATOM     69  O   UNL A   1      48.693  25.478  36.376  1.00  0.00    -0.237 OA
ATOM     70  O   UNL A   1      48.358  23.890  34.513  1.00  0.00    -0.237 OA
ATOM     71  O   UNL A   1      49.818  25.855  34.213  1.00  0.00    -0.744 OA
ENDBRANCH  67  68
ENDBRANCH  46  60
BRANCH  47  72
ATOM     72  C   UNL A   1      37.010  32.766  30.433  1.00  0.00     0.058 A 
ATOM     73  C   UNL A   1      35.789  32.579  31.096  1.00  0.00     0.135 A 
ATOM     74  C   UNL A   1      37.035  33.669  29.356  1.00  0.00     0.135 A 
ATOM     75  F   UNL A   1      35.709  31.720  32.123  1.00  0.00    -0.206 F 
ATOM     76  C   UNL A   1      34.633  33.242  30.699  1.00  0.00     0.059 A 
ATOM     77  C   UNL A   1      35.899  34.369  28.961  1.00  0.00     0.059 A 
ATOM     78  F   UNL A   1      38.179  33.895  28.692  1.00  0.00    -0.206 F 
ATOM     79  C   UNL A   1      34.700  34.140  29.632  1.00  0.00     0.060 A 
BRANCH  79  80
ATOM     80  S   UNL A   1      33.201  35.028  29.157  1.00  0.00     0.124 S 
ATOM     81  O   UNL A   1      33.749  36.282  28.652  1.00  0.00    -0.237 OA
ATOM     82  O   UNL A   1      32.622  34.135  28.159  1.00  0.00    -0.237 OA
ATOM     83  O   UNL A   1      32.456  35.125  30.409  1.00  0.00    -0.744 OA
ENDBRANCH  79  80
ENDBRANCH  47  72
BRANCH  59  84
ATOM     84  C   UNL A   1      41.573  33.609  35.673  1.00  0.00     0.058 A 
ATOM     85  C   UNL A   1      42.193  34.842  35.428  1.00  0.00     0.135 A 
ATOM     86  C   UNL A   1      40.990  33.408  36.936  1.00  0.00     0.135 A 
ATOM     87  F   UNL A   1      42.776  35.085  34.244  1.00  0.00    -0.206 F 
ATOM     88  C   UNL A   1      42.228  35.842  36.398  1.00  0.00     0.059 A 
ATOM     89  C   UNL A   1      40.983  34.404  37.907  1.00  0.00     0.059 A 
ATOM     90  F   UNL A   1      40.377  32.247  37.221  1.00  0.00    -0.206 F 
ATOM     91  C   UNL A   1      41.607  35.618  37.630  1.00  0.00     0.060 A 
BRANCH  91  92
ATOM     92  S   UNL A   1      41.582  36.955  38.842  1.00  0.00     0.124 S 
ATOM     93  O   UNL A   1      41.767  36.224  40.091  1.00  0.00    -0.237 OA
ATOM     94  O   UNL A   1      42.710  37.779  38.416  1.00  0.00    -0.237 OA
ATOM     95  O   UNL A   1      40.266  37.559  38.657  1.00  0.00    -0.744 OA
ENDBRANCH  91  92
ENDBRANCH  59  84
ENDBRANCH  33  34
ENDBRANCH  26  28
ENDBRANCH  25  26
ENDBRANCH  24  25
ENDBRANCH  23  24
ENDBRANCH   1  23
TORSDOF 22
ENDMDL
MODEL 2
REMARK VINA RESULT:      -9.7      4.222     10.243
REMARK SMILES C#CC[N@H+](CC(=O)OCCOCCOC(=O)c1ccc(-c2c3nc(c(-c4c(F)cc(S(=O)(=O)[O-])cc4F)c4ccc([nH]4)c(-c4c(F)cc(S(=O)(=O)[O-])cc4F)c4nc(c(-c5c(F)cc(S(=O)(=O)[O-])cc5F)c5ccc2[nH]5)C=C4)C=C3)cc1)[C@H](C)c1cc(C)ccc1C
REMARK SMILES IDX 11 1 10 2 9 3 8 4 6 5 7 6 5 7 4 8 3 10 2 11 1 12 83 13 84 14
REMARK SMILES IDX 85 15 86 16 91 17 87 18 90 19 92 20 88 21 89 22 12 23 13 24
REMARK SMILES IDX 14 25 15 26 16 27 17 28 18 29 82 30 19 31 81 32 20 33 21 34
REMARK SMILES IDX 22 35 75 36 23 37 80 38 74 39 76 40 24 41 79 42 73 43 72 44
REMARK SMILES IDX 25 46 59 47 38 48 58 49 39 50 42 51 57 52 77 53 40 54 41 55
REMARK SMILES IDX 56 57 78 58 43 59 26 60 27 61 36 62 28 63 29 64 35 65 37 66
REMARK SMILES IDX 30 67 31 68 32 69 33 70 34 71 60 72 61 73 70 74 62 75 63 76
REMARK SMILES IDX 69 77 71 78 64 79 65 80 66 81 67 82 68 83 44 84 45 85 54 86
REMARK SMILES IDX 46 87 47 88 53 89 55 90 48 91 49 92 50 93 51 94 52 95
REMARK H PARENT 4 9 76 45 42 56
REMARK Flexibility Score: inf
ROOT
ATOM      1  O   UNL A   1      31.419  29.731  25.834  1.00  0.00    -0.374 OA
ENDROOT
BRANCH   1   2
ATOM      2  C   UNL A   1      31.403  29.641  24.412  1.00  0.00     0.202 C 
BRANCH   2   3
ATOM      3  C   UNL A   1      30.795  28.390  23.777  1.00  0.00     0.261 C 
BRANCH   3   4
ATOM      4  O   UNL A   1      30.550  27.378  24.763  1.00  0.00    -0.459 OA
BRANCH   4   5
ATOM      5  C   UNL A   1      29.970  26.247  24.304  1.00  0.00     0.361 C 
ATOM      6  O   UNL A   1      28.767  26.130  24.080  1.00  0.00    -0.245 OA
BRANCH   5   7
ATOM      7  C   UNL A   1      30.921  25.072  24.151  1.00  0.00     0.387 C 
BRANCH   7   8
ATOM      8  N   UNL A   1      32.326  25.126  24.713  1.00  0.00    -0.310 N 
ATOM      9  H   UNL A   1      32.681  26.080  24.766  1.00  0.00     0.349 HD
BRANCH   8  10
ATOM     10  C   UNL A   1      32.332  24.629  26.107  1.00  0.00     0.354 C 
BRANCH  10  11
ATOM     11  C   UNL A   1      31.244  23.700  26.450  1.00  0.00    -0.047 C 
ATOM     12  C   UNL A   1      30.384  22.900  26.721  1.00  0.00     0.010 C 
ENDBRANCH  10  11
ENDBRANCH   8  10
BRANCH   8  13
ATOM     13  C   UNL A   1      33.229  24.344  23.771  1.00  0.00     0.213 C 
ATOM     14  C   UNL A   1      32.770  24.341  22.299  1.00  0.00     0.081 C 
BRANCH  13  15
ATOM     15  C   UNL A   1      33.810  22.998  24.271  1.00  0.00     0.012 A 
ATOM     16  C   UNL A   1      33.054  21.835  23.941  1.00  0.00     0.013 A 
ATOM     17  C   UNL A   1      34.998  22.802  25.025  1.00  0.00    -0.042 A 
ATOM     18  C   UNL A   1      33.445  20.537  24.320  1.00  0.00    -0.051 A 
ATOM     19  C   UNL A   1      35.374  21.487  25.392  1.00  0.00     0.004 A 
ATOM     20  C   UNL A   1      36.017  23.837  25.424  1.00  0.00     0.045 C 
ATOM     21  C   UNL A   1      32.641  19.336  23.919  1.00  0.00     0.044 C 
ATOM     22  C   UNL A   1      34.615  20.375  25.050  1.00  0.00     0.004 A 
ENDBRANCH  13  15
ENDBRANCH   8  13
ENDBRANCH   7   8
ENDBRANCH   5   7
ENDBRANCH   4   5
ENDBRANCH   3   4
ENDBRANCH   2   3
ENDBRANCH   1   2
BRANCH   1  23
ATOM     23  C   UNL A   1      32.237  30.727  26.448  1.00  0.00     0.202 C 
BRANCH  23  24
ATOM     24  C   UNL A   1      33.225  30.305  27.543  1.00  0.00     0.261 C 
BRANCH  24  25
ATOM     25  O   UNL A   1      34.513  30.927  27.420  1.00  0.00    -0.460 OA
BRANCH  25  26
ATOM     26  C   UNL A   1      35.109  31.246  28.595  1.00  0.00     0.338 C 
ATOM     27  O   UNL A   1      34.630  31.883  29.517  1.00  0.00    -0.246 OA
BRANCH  26  28
ATOM     28  C   UNL A   1      36.388  30.521  28.697  1.00  0.00     0.060 A 
ATOM     29  C   UNL A   1      36.839  30.134  29.968  1.00  0.00     0.016 A 
ATOM     30  C   UNL A   1      37.161  30.277  27.565  1.00  0.00     0.016 A 
ATOM     31  C   UNL A   1      38.090  29.536  30.115  1.00  0.00     0.010 A 
ATOM     32  C   UNL A   1      38.416  29.687  27.713  1.00  0.00     0.010 A 
ATOM     33  C   UNL A   1      38.901  29.346  28.990  1.00  0.00    -0.014 A 
BRANCH  33  34
ATOM     34  C   UNL A   1      40.320  28.946  29.134  1.00  0.00     0.031 A 
ATOM     35  C   UNL A   1      41.319  29.991  29.548  1.00  0.00     0.074 A 
ATOM     36  C   UNL A   1      40.721  27.691  28.861  1.00  0.00     0.049 A 
ATOM     37  N   UNL A   1      42.624  29.932  29.564  1.00  0.00    -0.248 NA
ATOM     38  C   UNL A   1      40.768  31.283  29.992  1.00  0.00     0.031 C 
ATOM     39  C   UNL A   1      39.838  26.581  28.505  1.00  0.00     0.029 A 
ATOM     40  N   UNL A   1      41.981  27.150  28.812  1.00  0.00    -0.354 N 
ATOM     41  C   UNL A   1      43.052  31.182  29.994  1.00  0.00     0.074 A 
ATOM     42  C   UNL A   1      41.869  31.988  30.203  1.00  0.00     0.031 C 
ATOM     43  C   UNL A   1      40.588  25.496  28.248  1.00  0.00     0.029 A 
ATOM     44  C   UNL A   1      42.002  25.849  28.367  1.00  0.00     0.049 A 
ATOM     45  H   UNL A   1      42.791  27.646  29.069  1.00  0.00     0.167 HD
ATOM     46  C   UNL A   1      44.319  31.615  30.197  1.00  0.00     0.037 A 
ATOM     47  C   UNL A   1      43.043  25.053  28.052  1.00  0.00     0.037 A 
ATOM     48  C   UNL A   1      45.486  30.800  29.981  1.00  0.00     0.049 A 
ATOM     49  C   UNL A   1      44.448  25.583  28.196  1.00  0.00     0.074 A 
ATOM     50  C   UNL A   1      46.814  31.136  30.168  1.00  0.00     0.029 A 
ATOM     51  N   UNL A   1      45.465  29.491  29.520  1.00  0.00    -0.354 N 
ATOM     52  N   UNL A   1      44.845  26.764  28.609  1.00  0.00    -0.248 NA
ATOM     53  C   UNL A   1      45.547  24.677  27.833  1.00  0.00     0.031 C 
ATOM     54  C   UNL A   1      47.599  30.057  29.756  1.00  0.00     0.029 A 
ATOM     55  C   UNL A   1      46.759  29.017  29.392  1.00  0.00     0.049 A 
ATOM     56  H   UNL A   1      44.652  28.976  29.316  1.00  0.00     0.167 HD
ATOM     57  C   UNL A   1      46.236  26.725  28.600  1.00  0.00     0.074 A 
ATOM     58  C   UNL A   1      46.613  25.407  28.135  1.00  0.00     0.031 C 
ATOM     59  C   UNL A   1      47.120  27.689  28.956  1.00  0.00     0.037 A 
BRANCH  46  60
ATOM     60  C   UNL A   1      44.515  33.039  30.642  1.00  0.00     0.058 A 
ATOM     61  C   UNL A   1      44.597  33.391  31.999  1.00  0.00     0.135 A 
ATOM     62  C   UNL A   1      44.665  34.064  29.693  1.00  0.00     0.135 A 
ATOM     63  F   UNL A   1      44.444  32.456  32.951  1.00  0.00    -0.206 F 
ATOM     64  C   UNL A   1      44.795  34.709  32.399  1.00  0.00     0.059 A 
ATOM     65  C   UNL A   1      44.899  35.383  30.070  1.00  0.00     0.059 A 
ATOM     66  F   UNL A   1      44.593  33.787  28.381  1.00  0.00    -0.206 F 
ATOM     67  C   UNL A   1      44.948  35.698  31.426  1.00  0.00     0.060 A 
BRANCH  67  68
ATOM     68  S   UNL A   1      45.215  37.399  31.964  1.00  0.00     0.124 S 
ATOM     69  O   UNL A   1      46.552  37.316  32.543  1.00  0.00    -0.237 OA
ATOM     70  O   UNL A   1      45.112  38.140  30.711  1.00  0.00    -0.237 OA
ATOM     71  O   UNL A   1      44.134  37.630  32.917  1.00  0.00    -0.744 OA
ENDBRANCH  67  68
ENDBRANCH  46  60
BRANCH  47  72
ATOM     72  C   UNL A   1      42.800  23.672  27.548  1.00  0.00     0.058 A 
ATOM     73  C   UNL A   1      42.592  22.606  28.434  1.00  0.00     0.135 A 
ATOM     74  C   UNL A   1      42.772  23.390  26.172  1.00  0.00     0.135 A 
ATOM     75  F   UNL A   1      42.620  22.820  29.759  1.00  0.00    -0.206 F 
ATOM     76  C   UNL A   1      42.385  21.308  27.980  1.00  0.00     0.059 A 
ATOM     77  C   UNL A   1      42.534  22.106  25.692  1.00  0.00     0.059 A 
ATOM     78  F   UNL A   1      42.954  24.375  25.278  1.00  0.00    -0.206 F 
ATOM     79  C   UNL A   1      42.352  21.069  26.605  1.00  0.00     0.060 A 
BRANCH  79  80
ATOM     80  S   UNL A   1      42.036  19.388  26.028  1.00  0.00     0.124 S 
ATOM     81  O   UNL A   1      42.847  19.334  24.818  1.00  0.00    -0.237 OA
ATOM     82  O   UNL A   1      42.509  18.587  27.152  1.00  0.00    -0.237 OA
ATOM     83  O   UNL A   1      40.591  19.370  25.820  1.00  0.00    -0.744 OA
ENDBRANCH  79  80
ENDBRANCH  47  72
BRANCH  59  84
ATOM     84  C   UNL A   1      48.588  27.352  28.941  1.00  0.00     0.058 A 
ATOM     85  C   UNL A   1      49.388  27.541  27.805  1.00  0.00     0.135 A 
ATOM     86  C   UNL A   1      49.222  26.942  30.127  1.00  0.00     0.135 A 
ATOM     87  F   UNL A   1      48.835  27.921  26.642  1.00  0.00    -0.206 F 
ATOM     88  C   UNL A   1      50.765  27.337  27.845  1.00  0.00     0.059 A 
ATOM     89  C   UNL A   1      50.599  26.764  30.199  1.00  0.00     0.059 A 
ATOM     90  F   UNL A   1      48.504  26.752  31.246  1.00  0.00    -0.206 F 
ATOM     91  C   UNL A   1      51.364  26.963  29.051  1.00  0.00     0.060 A 
BRANCH  91  92
ATOM     92  S   UNL A   1      53.160  26.790  29.109  1.00  0.00     0.124 S 
ATOM     93  O   UNL A   1      53.417  25.983  27.921  1.00  0.00    -0.237 OA
ATOM     94  O   UNL A   1      53.606  28.178  29.042  1.00  0.00    -0.237 OA
ATOM     95  O   UNL A   1      53.397  26.121  30.384  1.00  0.00    -0.744 OA
ENDBRANCH  91  92
ENDBRANCH  59  84
ENDBRANCH  33  34
ENDBRANCH  26  28
ENDBRANCH  25  26
ENDBRANCH  24  25
ENDBRANCH  23  24
ENDBRANCH   1  23
TORSDOF 22
ENDMDL
MODEL 3
REMARK VINA RESULT:      -9.6      0.973      2.045
REMARK SMILES C#CC[N@H+](CC(=O)OCCOCCOC(=O)c1ccc(-c2c3nc(c(-c4c(F)cc(S(=O)(=O)[O-])cc4F)c4ccc([nH]4)c(-c4c(F)cc(S(=O)(=O)[O-])cc4F)c4nc(c(-c5c(F)cc(S(=O)(=O)[O-])cc5F)c5ccc2[nH]5)C=C4)C=C3)cc1)[C@H](C)c1cc(C)ccc1C
REMARK SMILES IDX 11 1 10 2 9 3 8 4 6 5 7 6 5 7 4 8 3 10 2 11 1 12 83 13 84 14
REMARK SMILES IDX 85 15 86 16 91 17 87 18 90 19 92 20 88 21 89 22 12 23 13 24
REMARK SMILES IDX 14 25 15 26 16 27 17 28 18 29 82 30 19 31 81 32 20 33 21 34
REMARK SMILES IDX 22 35 75 36 23 37 80 38 74 39 76 40 24 41 79 42 73 43 72 44
REMARK SMILES IDX 25 46 59 47 38 48 58 49 39 50 42 51 57 52 77 53 40 54 41 55
REMARK SMILES IDX 56 57 78 58 43 59 26 60 27 61 36 62 28 63 29 64 35 65 37 66
REMARK SMILES IDX 30 67 31 68 32 69 33 70 34 71 60 72 61 73 70 74 62 75 63 76
REMARK SMILES IDX 69 77 71 78 64 79 65 80 66 81 67 82 68 83 44 84 45 85 54 86
REMARK SMILES IDX 46 87 47 88 53 89 55 90 48 91 49 92 50 93 51 94 52 95
REMARK H PARENT 4 9 76 45 42 56
REMARK Flexibility Score: inf
ROOT
ATOM      1  O   UNL A   1      36.023  20.624  24.926  1.00  0.00    -0.374 OA
ENDROOT
BRANCH   1   2
ATOM      2  C   UNL A   1      35.122  21.446  25.665  1.00  0.00     0.202 C 
BRANCH   2   3
ATOM      3  C   UNL A   1      33.999  22.148  24.902  1.00  0.00     0.261 C 
BRANCH   3   4
ATOM      4  O   UNL A   1      34.079  23.571  25.061  1.00  0.00    -0.459 OA
BRANCH   4   5
ATOM      5  C   UNL A   1      34.348  24.268  23.935  1.00  0.00     0.361 C 
ATOM      6  O   UNL A   1      34.909  23.796  22.948  1.00  0.00    -0.245 OA
BRANCH   5   7
ATOM      7  C   UNL A   1      33.968  25.739  24.001  1.00  0.00     0.387 C 
BRANCH   7   8
ATOM      8  N   UNL A   1      32.711  26.252  23.331  1.00  0.00    -0.310 N 
ATOM      9  H   UNL A   1      32.898  27.055  22.731  1.00  0.00     0.349 HD
BRANCH   8  10
ATOM     10  C   UNL A   1      32.157  25.214  22.434  1.00  0.00     0.354 C 
BRANCH  10  11
ATOM     11  C   UNL A   1      32.412  25.420  20.999  1.00  0.00    -0.047 C 
ATOM     12  C   UNL A   1      32.587  25.550  19.814  1.00  0.00     0.010 C 
ENDBRANCH  10  11
ENDBRANCH   8  10
BRANCH   8  13
ATOM     13  C   UNL A   1      31.755  26.701  24.427  1.00  0.00     0.213 C 
ATOM     14  C   UNL A   1      30.829  25.590  24.961  1.00  0.00     0.081 C 
BRANCH  13  15
ATOM     15  C   UNL A   1      31.087  28.090  24.283  1.00  0.00     0.012 A 
ATOM     16  C   UNL A   1      29.944  28.144  23.432  1.00  0.00     0.013 A 
ATOM     17  C   UNL A   1      31.493  29.306  24.895  1.00  0.00    -0.042 A 
ATOM     18  C   UNL A   1      29.223  29.329  23.197  1.00  0.00    -0.051 A 
ATOM     19  C   UNL A   1      30.750  30.485  24.648  1.00  0.00     0.004 A 
ATOM     20  C   UNL A   1      32.598  29.508  25.899  1.00  0.00     0.045 C 
ATOM     21  C   UNL A   1      28.003  29.335  22.325  1.00  0.00     0.044 C 
ATOM     22  C   UNL A   1      29.638  30.501  23.815  1.00  0.00     0.004 A 
ENDBRANCH  13  15
ENDBRANCH   8  13
ENDBRANCH   7   8
ENDBRANCH   5   7
ENDBRANCH   4   5
ENDBRANCH   3   4
ENDBRANCH   2   3
ENDBRANCH   1   2
BRANCH   1  23
ATOM     23  C   UNL A   1      37.297  21.158  24.565  1.00  0.00     0.202 C 
BRANCH  23  24
ATOM     24  C   UNL A   1      38.349  21.376  25.659  1.00  0.00     0.261 C 
BRANCH  24  25
ATOM     25  O   UNL A   1      38.634  22.760  25.909  1.00  0.00    -0.460 OA
BRANCH  25  26
ATOM     26  C   UNL A   1      39.915  23.025  26.267  1.00  0.00     0.338 C 
ATOM     27  O   UNL A   1      40.913  22.399  25.955  1.00  0.00    -0.246 OA
BRANCH  26  28
ATOM     28  C   UNL A   1      39.965  24.336  26.939  1.00  0.00     0.060 A 
ATOM     29  C   UNL A   1      40.850  25.307  26.448  1.00  0.00     0.016 A 
ATOM     30  C   UNL A   1      39.194  24.585  28.072  1.00  0.00     0.016 A 
ATOM     31  C   UNL A   1      40.997  26.521  27.117  1.00  0.00     0.010 A 
ATOM     32  C   UNL A   1      39.348  25.797  28.745  1.00  0.00     0.010 A 
ATOM     33  C   UNL A   1      40.274  26.755  28.293  1.00  0.00    -0.014 A 
BRANCH  33  34
ATOM     34  C   UNL A   1      40.584  27.917  29.158  1.00  0.00     0.031 A 
ATOM     35  C   UNL A   1      41.804  27.851  30.035  1.00  0.00     0.074 A 
ATOM     36  C   UNL A   1      39.775  28.991  29.197  1.00  0.00     0.049 A 
ATOM     37  N   UNL A   1      42.178  28.649  30.998  1.00  0.00    -0.248 NA
ATOM     38  C   UNL A   1      42.718  26.720  29.799  1.00  0.00     0.031 C 
ATOM     39  C   UNL A   1      38.597  29.192  28.354  1.00  0.00     0.029 A 
ATOM     40  N   UNL A   1      39.808  30.102  30.002  1.00  0.00    -0.354 N 
ATOM     41  C   UNL A   1      43.355  28.108  31.501  1.00  0.00     0.074 A 
ATOM     42  C   UNL A   1      43.619  26.897  30.754  1.00  0.00     0.031 C 
ATOM     43  C   UNL A   1      38.004  30.346  28.706  1.00  0.00     0.029 A 
ATOM     44  C   UNL A   1      38.727  30.935  29.833  1.00  0.00     0.049 A 
ATOM     45  H   UNL A   1      40.535  30.284  30.640  1.00  0.00     0.167 HD
ATOM     46  C   UNL A   1      44.143  28.581  32.495  1.00  0.00     0.037 A 
ATOM     47  C   UNL A   1      38.345  32.020  30.534  1.00  0.00     0.037 A 
ATOM     48  C   UNL A   1      43.863  29.786  33.231  1.00  0.00     0.049 A 
ATOM     49  C   UNL A   1      39.187  32.480  31.699  1.00  0.00     0.074 A 
ATOM     50  C   UNL A   1      44.603  30.361  34.249  1.00  0.00     0.029 A 
ATOM     51  N   UNL A   1      42.753  30.595  33.037  1.00  0.00    -0.354 N 
ATOM     52  N   UNL A   1      40.301  31.966  32.165  1.00  0.00    -0.248 NA
ATOM     53  C   UNL A   1      38.722  33.664  32.435  1.00  0.00     0.031 C 
ATOM     54  C   UNL A   1      43.906  31.478  34.716  1.00  0.00     0.029 A 
ATOM     55  C   UNL A   1      42.775  31.649  33.934  1.00  0.00     0.049 A 
ATOM     56  H   UNL A   1      42.055  30.443  32.360  1.00  0.00     0.167 HD
ATOM     57  C   UNL A   1      40.694  32.791  33.214  1.00  0.00     0.074 A 
ATOM     58  C   UNL A   1      39.696  33.834  33.321  1.00  0.00     0.031 C 
ATOM     59  C   UNL A   1      41.788  32.699  34.009  1.00  0.00     0.037 A 
BRANCH  46  60
ATOM     60  C   UNL A   1      45.361  27.780  32.870  1.00  0.00     0.058 A 
ATOM     61  C   UNL A   1      46.591  27.944  32.213  1.00  0.00     0.135 A 
ATOM     62  C   UNL A   1      45.308  26.865  33.935  1.00  0.00     0.135 A 
ATOM     63  F   UNL A   1      46.698  28.792  31.176  1.00  0.00    -0.206 F 
ATOM     64  C   UNL A   1      47.716  27.211  32.579  1.00  0.00     0.059 A 
ATOM     65  C   UNL A   1      46.429  26.148  34.341  1.00  0.00     0.059 A 
ATOM     66  F   UNL A   1      44.158  26.666  34.599  1.00  0.00    -0.206 F 
ATOM     67  C   UNL A   1      47.625  26.317  33.647  1.00  0.00     0.060 A 
BRANCH  67  68
ATOM     68  S   UNL A   1      49.097  25.384  34.114  1.00  0.00     0.124 S 
ATOM     69  O   UNL A   1      50.078  25.889  33.160  1.00  0.00    -0.237 OA
ATOM     70  O   UNL A   1      49.294  25.791  35.502  1.00  0.00    -0.237 OA
ATOM     71  O   UNL A   1      48.695  23.993  33.922  1.00  0.00    -0.744 OA
ENDBRANCH  67  68
ENDBRANCH  46  60
BRANCH  47  72
ATOM     72  C   UNL A   1      37.093  32.740  30.171  1.00  0.00     0.058 A 
ATOM     73  C   UNL A   1      35.862  32.384  30.741  1.00  0.00     0.135 A 
ATOM     74  C   UNL A   1      37.100  33.797  29.245  1.00  0.00     0.135 A 
ATOM     75  F   UNL A   1      35.800  31.374  31.622  1.00  0.00    -0.206 F 
ATOM     76  C   UNL A   1      34.682  33.033  30.396  1.00  0.00     0.059 A 
ATOM     77  C   UNL A   1      35.938  34.484  28.908  1.00  0.00     0.059 A 
ATOM     78  F   UNL A   1      38.251  34.188  28.676  1.00  0.00    -0.206 F 
ATOM     79  C   UNL A   1      34.731  34.087  29.482  1.00  0.00     0.060 A 
BRANCH  79  80
ATOM     80  S   UNL A   1      33.198  34.951  29.078  1.00  0.00     0.124 S 
ATOM     81  O   UNL A   1      33.700  36.234  28.600  1.00  0.00    -0.237 OA
ATOM     82  O   UNL A   1      32.613  34.075  28.067  1.00  0.00    -0.237 OA
ATOM     83  O   UNL A   1      32.487  34.987  30.352  1.00  0.00    -0.744 OA
ENDBRANCH  79  80
ENDBRANCH  47  72
BRANCH  59  84
ATOM     84  C   UNL A   1      42.028  33.788  35.022  1.00  0.00     0.058 A 
ATOM     85  C   UNL A   1      41.600  33.681  36.352  1.00  0.00     0.135 A 
ATOM     86  C   UNL A   1      42.805  34.907  34.672  1.00  0.00     0.135 A 
ATOM     87  F   UNL A   1      40.846  32.641  36.739  1.00  0.00    -0.206 F 
ATOM     88  C   UNL A   1      41.934  34.644  37.302  1.00  0.00     0.059 A 
ATOM     89  C   UNL A   1      43.179  35.862  35.611  1.00  0.00     0.059 A 
ATOM     90  F   UNL A   1      43.248  35.056  33.412  1.00  0.00    -0.206 F 
ATOM     91  C   UNL A   1      42.737  35.723  36.924  1.00  0.00     0.060 A 
BRANCH  91  92
ATOM     92  S   UNL A   1      43.236  36.913  38.186  1.00  0.00     0.124 S 
ATOM     93  O   UNL A   1      43.975  37.891  37.395  1.00  0.00    -0.237 OA
ATOM     94  O   UNL A   1      41.951  37.364  38.712  1.00  0.00    -0.237 OA
ATOM     95  O   UNL A   1      44.040  36.117  39.108  1.00  0.00    -0.744 OA
ENDBRANCH  91  92
ENDBRANCH  59  84
ENDBRANCH  33  34
ENDBRANCH  26  28
ENDBRANCH  25  26
ENDBRANCH  24  25
ENDBRANCH  23  24
ENDBRANCH   1  23
TORSDOF 22
ENDMDL
