MODEL 1
REMARK VINA RESULT:     -12.9      0.000      0.000
REMARK SMILES Cc1ccc(-c2cc(C(=O)OCCOCCOC(=O)c3ccc(-c4c5nc(c(-c6c(F)cc(S(=O)(=O)[O-])cc6F)c6ccc([nH]6)c(-c6c(F)cc(S(=O)(=O)[O-])cc6F)c6nc(c(-c7c(F)cc(S(=O)(=O)[O-])cc7F)c7ccc4[nH]7)C=C6)C=C5)cc3)c3c(-c4cccc([N+](=O)[O-])c4)[nH]nc3n2)cc1
REMARK SMILES IDX 15 1 14 2 13 3 12 4 11 5 9 6 10 7 8 8 6 9 7 10 100 11 99 12
REMARK SMILES IDX 86 13 98 14 87 15 97 16 5 18 1 19 2 20 3 21 102 22 4 23
REMARK SMILES IDX 101 24 88 25 89 26 96 27 90 28 92 29 91 30 93 31 94 32 95 33
REMARK SMILES IDX 16 34 17 35 18 36 19 37 20 38 21 39 85 40 22 41 84 42 23 43
REMARK SMILES IDX 24 44 25 45 78 46 26 47 83 48 77 49 79 50 27 51 82 52 76 53
REMARK SMILES IDX 75 54 28 56 62 57 41 58 61 59 42 60 45 61 60 62 80 63 43 64
REMARK SMILES IDX 44 65 59 67 81 68 46 69 29 70 30 71 39 72 31 73 32 74 38 75
REMARK SMILES IDX 40 76 33 77 34 78 35 79 36 80 37 81 63 82 64 83 73 84 65 85
REMARK SMILES IDX 66 86 72 87 74 88 67 89 68 90 69 91 70 92 71 93 47 94 48 95
REMARK SMILES IDX 57 96 49 97 50 98 56 99 58 100 51 101 52 102 53 103 54 104
REMARK SMILES IDX 55 105
REMARK H PARENT 97 17 79 55 45 66
REMARK Flexibility Score: inf
ROOT
ATOM      1  C   UNL A   1      37.179  21.182  25.011  1.00  0.00     0.202 C 
ENDROOT
BRANCH   1   2
ATOM      2  O   UNL A   1      36.155  21.619  24.171  1.00  0.00    -0.374 OA
BRANCH   2   3
ATOM      3  C   UNL A   1      36.399  22.838  23.503  1.00  0.00     0.202 C 
BRANCH   3   4
ATOM      4  C   UNL A   1      35.024  23.347  23.269  1.00  0.00     0.261 C 
BRANCH   4   5
ATOM      5  O   UNL A   1      34.735  24.477  24.133  1.00  0.00    -0.460 OA
BRANCH   5   6
ATOM      6  C   UNL A   1      34.383  24.435  25.453  1.00  0.00     0.339 C 
ATOM      7  O   UNL A   1      34.811  23.752  26.338  1.00  0.00    -0.246 OA
BRANCH   6   8
ATOM      8  C   UNL A   1      33.334  25.435  25.607  1.00  0.00     0.075 A 
ATOM      9  C   UNL A   1      32.723  27.663  26.467  1.00  0.00     0.074 A 
ATOM     10  C   UNL A   1      33.668  26.693  26.112  1.00  0.00     0.045 A 
ATOM     11  N   UNL A   1      31.372  27.524  26.343  1.00  0.00    -0.226 NA
ATOM     12  C   UNL A   1      31.008  26.338  25.760  1.00  0.00     0.182 A 
ATOM     13  C   UNL A   1      31.961  25.317  25.398  1.00  0.00     0.061 A 
ATOM     14  N   UNL A   1      29.764  25.947  25.477  1.00  0.00    -0.154 NA
ATOM     15  C   UNL A   1      31.221  24.276  24.854  1.00  0.00     0.076 A 
ATOM     16  N   UNL A   1      29.926  24.740  24.898  1.00  0.00    -0.275 N 
ATOM     17  H   UNL A   1      29.170  24.227  24.530  1.00  0.00     0.190 HD
BRANCH   9  18
ATOM     18  C   UNL A   1      33.298  28.879  27.075  1.00  0.00     0.000 A 
ATOM     19  C   UNL A   1      35.075  32.720  28.026  1.00  0.00     0.044 C 
ATOM     20  C   UNL A   1      34.457  31.392  27.700  1.00  0.00    -0.051 A 
ATOM     21  C   UNL A   1      35.239  30.228  27.666  1.00  0.00     0.004 A 
ATOM     22  C   UNL A   1      33.094  31.297  27.420  1.00  0.00     0.004 A 
ATOM     23  C   UNL A   1      34.666  28.985  27.357  1.00  0.00     0.010 A 
ATOM     24  C   UNL A   1      32.524  30.059  27.123  1.00  0.00     0.010 A 
ENDBRANCH   9  18
BRANCH  15  25
ATOM     25  C   UNL A   1      31.533  22.963  24.279  1.00  0.00     0.007 A 
ATOM     26  C   UNL A   1      31.527  22.767  22.889  1.00  0.00     0.011 A 
ATOM     27  C   UNL A   1      31.882  21.887  25.107  1.00  0.00     0.096 A 
ATOM     28  C   UNL A   1      31.898  21.535  22.333  1.00  0.00     0.008 A 
ATOM     29  C   UNL A   1      32.281  20.661  24.542  1.00  0.00     0.270 A 
ATOM     30  C   UNL A   1      32.290  20.480  23.154  1.00  0.00     0.085 A 
BRANCH  29  31
ATOM     31  N   UNL A   1      32.744  19.571  25.413  1.00  0.00     0.062 N 
ATOM     32  O   UNL A   1      32.189  18.467  25.310  1.00  0.00    -0.258 OA
ATOM     33  O   UNL A   1      33.667  19.815  26.205  1.00  0.00    -0.258 OA
ENDBRANCH  29  31
ENDBRANCH  15  25
ENDBRANCH   6   8
ENDBRANCH   5   6
ENDBRANCH   4   5
ENDBRANCH   3   4
ENDBRANCH   2   3
ENDBRANCH   1   2
BRANCH   1  34
ATOM     34  C   UNL A   1      37.908  22.397  25.557  1.00  0.00     0.261 C 
BRANCH  34  35
ATOM     35  O   UNL A   1      38.862  22.020  26.591  1.00  0.00    -0.460 OA
BRANCH  35  36
ATOM     36  C   UNL A   1      40.120  22.573  26.565  1.00  0.00     0.338 C 
ATOM     37  O   UNL A   1      41.131  21.943  26.307  1.00  0.00    -0.246 OA
BRANCH  36  38
ATOM     38  C   UNL A   1      40.076  24.058  26.792  1.00  0.00     0.060 A 
ATOM     39  C   UNL A   1      40.602  24.999  25.882  1.00  0.00     0.016 A 
ATOM     40  C   UNL A   1      39.687  24.490  28.047  1.00  0.00     0.016 A 
ATOM     41  C   UNL A   1      40.911  26.317  26.301  1.00  0.00     0.010 A 
ATOM     42  C   UNL A   1      40.066  25.745  28.470  1.00  0.00     0.010 A 
ATOM     43  C   UNL A   1      40.725  26.660  27.634  1.00  0.00    -0.014 A 
BRANCH  43  44
ATOM     44  C   UNL A   1      41.155  27.876  28.353  1.00  0.00     0.031 A 
ATOM     45  C   UNL A   1      40.158  28.973  28.439  1.00  0.00     0.074 A 
ATOM     46  C   UNL A   1      42.187  27.847  29.239  1.00  0.00     0.049 A 
ATOM     47  N   UNL A   1      40.346  30.058  29.096  1.00  0.00    -0.248 NA
ATOM     48  C   UNL A   1      38.854  28.956  27.771  1.00  0.00     0.031 C 
ATOM     49  C   UNL A   1      42.334  28.567  30.512  1.00  0.00     0.029 A 
ATOM     50  N   UNL A   1      43.341  27.065  29.223  1.00  0.00    -0.354 N 
ATOM     51  C   UNL A   1      39.138  30.698  29.228  1.00  0.00     0.074 A 
ATOM     52  C   UNL A   1      38.277  30.054  28.274  1.00  0.00     0.031 C 
ATOM     53  C   UNL A   1      43.578  28.396  31.001  1.00  0.00     0.029 A 
ATOM     54  C   UNL A   1      44.337  27.658  30.004  1.00  0.00     0.049 A 
ATOM     55  H   UNL A   1      43.439  26.217  28.732  1.00  0.00     0.167 HD
ATOM     56  C   UNL A   1      39.019  31.606  30.239  1.00  0.00     0.037 A 
ATOM     57  C   UNL A   1      45.524  27.989  29.431  1.00  0.00     0.037 A 
ATOM     58  C   UNL A   1      40.342  31.847  30.841  1.00  0.00     0.049 A 
ATOM     59  C   UNL A   1      45.560  29.492  29.388  1.00  0.00     0.074 A 
ATOM     60  C   UNL A   1      40.925  31.521  32.052  1.00  0.00     0.029 A 
ATOM     61  N   UNL A   1      41.388  32.252  30.007  1.00  0.00    -0.354 N 
ATOM     62  N   UNL A   1      44.470  30.215  29.396  1.00  0.00    -0.248 NA
ATOM     63  C   UNL A   1      46.768  30.292  29.534  1.00  0.00     0.031 C 
ATOM     64  C   UNL A   1      42.342  31.641  31.897  1.00  0.00     0.029 A 
ATOM     65  C   UNL A   1      42.620  32.073  30.605  1.00  0.00     0.049 A 
ATOM     66  H   UNL A   1      41.262  32.622  29.103  1.00  0.00     0.167 HD
ATOM     67  C   UNL A   1      44.786  31.505  29.680  1.00  0.00     0.074 A 
ATOM     68  C   UNL A   1      46.241  31.519  29.707  1.00  0.00     0.031 C 
ATOM     69  C   UNL A   1      43.847  32.467  29.909  1.00  0.00     0.037 A 
BRANCH  56  70
ATOM     70  C   UNL A   1      37.724  32.172  30.799  1.00  0.00     0.058 A 
ATOM     71  C   UNL A   1      37.584  33.569  30.968  1.00  0.00     0.135 A 
ATOM     72  C   UNL A   1      36.618  31.423  31.264  1.00  0.00     0.135 A 
ATOM     73  F   UNL A   1      38.562  34.413  30.608  1.00  0.00    -0.206 F 
ATOM     74  C   UNL A   1      36.452  34.166  31.534  1.00  0.00     0.059 A 
ATOM     75  C   UNL A   1      35.458  31.999  31.793  1.00  0.00     0.059 A 
ATOM     76  F   UNL A   1      36.624  30.086  31.295  1.00  0.00    -0.206 F 
ATOM     77  C   UNL A   1      35.386  33.374  31.935  1.00  0.00     0.060 A 
BRANCH  77  78
ATOM     78  S   UNL A   1      33.928  34.158  32.650  1.00  0.00     0.124 S 
ATOM     79  O   UNL A   1      33.279  34.718  31.469  1.00  0.00    -0.237 OA
ATOM     80  O   UNL A   1      33.249  33.031  33.279  1.00  0.00    -0.237 OA
ATOM     81  O   UNL A   1      34.490  35.141  33.574  1.00  0.00    -0.744 OA
ENDBRANCH  77  78
ENDBRANCH  56  70
BRANCH  57  82
ATOM     82  C   UNL A   1      45.967  26.960  28.427  1.00  0.00     0.058 A 
ATOM     83  C   UNL A   1      46.399  25.711  28.937  1.00  0.00     0.135 A 
ATOM     84  C   UNL A   1      45.489  26.958  27.105  1.00  0.00     0.135 A 
ATOM     85  F   UNL A   1      46.822  25.623  30.211  1.00  0.00    -0.206 F 
ATOM     86  C   UNL A   1      46.244  24.511  28.231  1.00  0.00     0.059 A 
ATOM     87  C   UNL A   1      45.281  25.761  26.398  1.00  0.00     0.059 A 
ATOM     88  F   UNL A   1      45.048  28.096  26.549  1.00  0.00    -0.206 F 
ATOM     89  C   UNL A   1      45.618  24.538  26.985  1.00  0.00     0.060 A 
BRANCH  89  90
ATOM     90  S   UNL A   1      44.926  22.983  26.312  1.00  0.00     0.124 S 
ATOM     91  O   UNL A   1      44.001  22.577  27.361  1.00  0.00    -0.237 OA
ATOM     92  O   UNL A   1      44.308  23.416  25.059  1.00  0.00    -0.237 OA
ATOM     93  O   UNL A   1      46.114  22.155  26.140  1.00  0.00    -0.744 OA
ENDBRANCH  89  90
ENDBRANCH  57  82
BRANCH  69  94
ATOM     94  C   UNL A   1      44.069  33.901  29.511  1.00  0.00     0.058 A 
ATOM     95  C   UNL A   1      44.043  34.340  28.174  1.00  0.00     0.135 A 
ATOM     96  C   UNL A   1      44.140  34.924  30.485  1.00  0.00     0.135 A 
ATOM     97  F   UNL A   1      43.812  33.503  27.151  1.00  0.00    -0.206 F 
ATOM     98  C   UNL A   1      44.207  35.670  27.823  1.00  0.00     0.059 A 
ATOM     99  C   UNL A   1      44.213  36.271  30.157  1.00  0.00     0.059 A 
ATOM    100  F   UNL A   1      44.114  34.661  31.799  1.00  0.00    -0.206 F 
ATOM    101  C   UNL A   1      44.297  36.628  28.822  1.00  0.00     0.060 A 
BRANCH 101 102
ATOM    102  S   UNL A   1      44.516  38.343  28.349  1.00  0.00     0.124 S 
ATOM    103  O   UNL A   1      43.717  38.402  27.128  1.00  0.00    -0.237 OA
ATOM    104  O   UNL A   1      43.969  39.059  29.498  1.00  0.00    -0.237 OA
ATOM    105  O   UNL A   1      45.959  38.465  28.169  1.00  0.00    -0.744 OA
ENDBRANCH 101 102
ENDBRANCH  69  94
ENDBRANCH  43  44
ENDBRANCH  36  38
ENDBRANCH  35  36
ENDBRANCH  34  35
ENDBRANCH   1  34
TORSDOF 20
ENDMDL
MODEL 2
REMARK VINA RESULT:     -12.8      3.651      9.944
REMARK SMILES Cc1ccc(-c2cc(C(=O)OCCOCCOC(=O)c3ccc(-c4c5nc(c(-c6c(F)cc(S(=O)(=O)[O-])cc6F)c6ccc([nH]6)c(-c6c(F)cc(S(=O)(=O)[O-])cc6F)c6nc(c(-c7c(F)cc(S(=O)(=O)[O-])cc7F)c7ccc4[nH]7)C=C6)C=C5)cc3)c3c(-c4cccc([N+](=O)[O-])c4)[nH]nc3n2)cc1
REMARK SMILES IDX 15 1 14 2 13 3 12 4 11 5 9 6 10 7 8 8 6 9 7 10 100 11 99 12
REMARK SMILES IDX 86 13 98 14 87 15 97 16 5 18 1 19 2 20 3 21 102 22 4 23
REMARK SMILES IDX 101 24 88 25 89 26 96 27 90 28 92 29 91 30 93 31 94 32 95 33
REMARK SMILES IDX 16 34 17 35 18 36 19 37 20 38 21 39 85 40 22 41 84 42 23 43
REMARK SMILES IDX 24 44 25 45 78 46 26 47 83 48 77 49 79 50 27 51 82 52 76 53
REMARK SMILES IDX 75 54 28 56 62 57 41 58 61 59 42 60 45 61 60 62 80 63 43 64
REMARK SMILES IDX 44 65 59 67 81 68 46 69 29 70 30 71 39 72 31 73 32 74 38 75
REMARK SMILES IDX 40 76 33 77 34 78 35 79 36 80 37 81 63 82 64 83 73 84 65 85
REMARK SMILES IDX 66 86 72 87 74 88 67 89 68 90 69 91 70 92 71 93 47 94 48 95
REMARK SMILES IDX 57 96 49 97 50 98 56 99 58 100 51 101 52 102 53 103 54 104
REMARK SMILES IDX 55 105
REMARK H PARENT 97 17 79 55 45 66
REMARK Flexibility Score: inf
ROOT
ATOM      1  C   UNL A   1      31.957  30.799  26.243  1.00  0.00     0.202 C 
ENDROOT
BRANCH   1   2
ATOM      2  O   UNL A   1      32.895  29.838  25.868  1.00  0.00    -0.374 OA
BRANCH   2   3
ATOM      3  C   UNL A   1      32.598  29.130  24.684  1.00  0.00     0.202 C 
BRANCH   3   4
ATOM      4  C   UNL A   1      33.686  28.121  24.642  1.00  0.00     0.261 C 
BRANCH   4   5
ATOM      5  O   UNL A   1      33.608  27.224  25.781  1.00  0.00    -0.460 OA
BRANCH   5   6
ATOM      6  C   UNL A   1      32.857  26.086  25.882  1.00  0.00     0.339 C 
ATOM      7  O   UNL A   1      31.866  25.878  26.520  1.00  0.00    -0.246 OA
BRANCH   6   8
ATOM      8  C   UNL A   1      33.510  25.112  25.017  1.00  0.00     0.075 A 
ATOM      9  C   UNL A   1      35.458  23.641  24.676  1.00  0.00     0.074 A 
ATOM     10  C   UNL A   1      34.653  24.457  25.480  1.00  0.00     0.045 A 
ATOM     11  N   UNL A   1      35.224  23.356  23.363  1.00  0.00    -0.226 NA
ATOM     12  C   UNL A   1      34.056  23.903  22.898  1.00  0.00     0.182 A 
ATOM     13  C   UNL A   1      33.216  24.759  23.702  1.00  0.00     0.061 A 
ATOM     14  N   UNL A   1      33.551  23.761  21.672  1.00  0.00    -0.154 NA
ATOM     15  C   UNL A   1      32.148  25.119  22.892  1.00  0.00     0.076 A 
ATOM     16  N   UNL A   1      32.396  24.455  21.712  1.00  0.00    -0.275 N 
ATOM     17  H   UNL A   1      31.772  24.483  20.951  1.00  0.00     0.190 HD
BRANCH   9  18
ATOM     18  C   UNL A   1      36.673  23.136  25.346  1.00  0.00     0.000 A 
ATOM     19  C   UNL A   1      40.664  22.050  26.651  1.00  0.00     0.044 C 
ATOM     20  C   UNL A   1      39.283  22.427  26.204  1.00  0.00    -0.051 A 
ATOM     21  C   UNL A   1      38.492  21.521  25.482  1.00  0.00     0.004 A 
ATOM     22  C   UNL A   1      38.766  23.689  26.497  1.00  0.00     0.004 A 
ATOM     23  C   UNL A   1      37.201  21.872  25.057  1.00  0.00     0.010 A 
ATOM     24  C   UNL A   1      37.478  24.032  26.082  1.00  0.00     0.010 A 
ENDBRANCH   9  18
BRANCH  15  25
ATOM     25  C   UNL A   1      30.941  25.936  23.058  1.00  0.00     0.007 A 
ATOM     26  C   UNL A   1      29.896  25.514  23.896  1.00  0.00     0.011 A 
ATOM     27  C   UNL A   1      30.825  27.175  22.412  1.00  0.00     0.096 A 
ATOM     28  C   UNL A   1      28.776  26.327  24.116  1.00  0.00     0.008 A 
ATOM     29  C   UNL A   1      29.711  27.999  22.660  1.00  0.00     0.270 A 
ATOM     30  C   UNL A   1      28.683  27.579  23.511  1.00  0.00     0.085 A 
BRANCH  29  31
ATOM     31  N   UNL A   1      29.646  29.340  22.061  1.00  0.00     0.062 N 
ATOM     32  O   UNL A   1      28.543  29.904  22.012  1.00  0.00    -0.258 OA
ATOM     33  O   UNL A   1      30.701  29.836  21.635  1.00  0.00    -0.258 OA
ENDBRANCH  29  31
ENDBRANCH  15  25
ENDBRANCH   6   8
ENDBRANCH   5   6
ENDBRANCH   4   5
ENDBRANCH   3   4
ENDBRANCH   2   3
ENDBRANCH   1   2
BRANCH   1  34
ATOM     34  C   UNL A   1      32.625  31.783  27.188  1.00  0.00     0.261 C 
BRANCH  34  35
ATOM     35  O   UNL A   1      33.638  31.127  28.002  1.00  0.00    -0.460 OA
BRANCH  35  36
ATOM     36  C   UNL A   1      34.933  31.587  27.948  1.00  0.00     0.338 C 
ATOM     37  O   UNL A   1      35.234  32.720  27.615  1.00  0.00    -0.246 OA
BRANCH  36  38
ATOM     38  C   UNL A   1      35.907  30.558  28.446  1.00  0.00     0.060 A 
ATOM     39  C   UNL A   1      35.821  29.960  29.721  1.00  0.00     0.016 A 
ATOM     40  C   UNL A   1      37.048  30.355  27.691  1.00  0.00     0.016 A 
ATOM     41  C   UNL A   1      36.948  29.329  30.303  1.00  0.00     0.010 A 
ATOM     42  C   UNL A   1      38.162  29.816  28.294  1.00  0.00     0.010 A 
ATOM     43  C   UNL A   1      38.155  29.341  29.616  1.00  0.00    -0.014 A 
BRANCH  43  44
ATOM     44  C   UNL A   1      39.499  28.946  30.083  1.00  0.00     0.031 A 
ATOM     45  C   UNL A   1      40.025  27.662  29.555  1.00  0.00     0.074 A 
ATOM     46  C   UNL A   1      40.370  29.861  30.589  1.00  0.00     0.049 A 
ATOM     47  N   UNL A   1      41.203  27.218  29.798  1.00  0.00    -0.248 NA
ATOM     48  C   UNL A   1      39.257  26.742  28.712  1.00  0.00     0.031 C 
ATOM     49  C   UNL A   1      41.829  29.937  30.427  1.00  0.00     0.029 A 
ATOM     50  N   UNL A   1      40.107  31.015  31.325  1.00  0.00    -0.354 N 
ATOM     51  C   UNL A   1      41.469  26.195  28.923  1.00  0.00     0.074 A 
ATOM     52  C   UNL A   1      40.189  25.843  28.371  1.00  0.00     0.031 C 
ATOM     53  C   UNL A   1      42.336  30.893  31.232  1.00  0.00     0.029 A 
ATOM     54  C   UNL A   1      41.242  31.397  32.047  1.00  0.00     0.049 A 
ATOM     55  H   UNL A   1      39.246  31.493  31.335  1.00  0.00     0.167 HD
ATOM     56  C   UNL A   1      42.779  25.885  28.703  1.00  0.00     0.037 A 
ATOM     57  C   UNL A   1      41.171  31.488  33.401  1.00  0.00     0.037 A 
ATOM     58  C   UNL A   1      43.625  26.617  29.662  1.00  0.00     0.049 A 
ATOM     59  C   UNL A   1      41.998  30.352  33.938  1.00  0.00     0.074 A 
ATOM     60  C   UNL A   1      44.511  27.673  29.556  1.00  0.00     0.029 A 
ATOM     61  N   UNL A   1      43.362  26.470  31.026  1.00  0.00    -0.354 N 
ATOM     62  N   UNL A   1      42.233  29.270  33.241  1.00  0.00    -0.248 NA
ATOM     63  C   UNL A   1      42.777  30.409  35.168  1.00  0.00     0.031 C 
ATOM     64  C   UNL A   1      44.695  28.217  30.866  1.00  0.00     0.029 A 
ATOM     65  C   UNL A   1      43.949  27.473  31.773  1.00  0.00     0.049 A 
ATOM     66  H   UNL A   1      42.824  25.739  31.410  1.00  0.00     0.167 HD
ATOM     67  C   UNL A   1      43.249  28.576  33.814  1.00  0.00     0.074 A 
ATOM     68  C   UNL A   1      43.525  29.297  35.047  1.00  0.00     0.031 C 
ATOM     69  C   UNL A   1      43.822  27.484  33.231  1.00  0.00     0.037 A 
BRANCH  56  70
ATOM     70  C   UNL A   1      43.332  25.058  27.553  1.00  0.00     0.058 A 
ATOM     71  C   UNL A   1      44.206  23.980  27.822  1.00  0.00     0.135 A 
ATOM     72  C   UNL A   1      43.125  25.300  26.175  1.00  0.00     0.135 A 
ATOM     73  F   UNL A   1      44.531  23.647  29.080  1.00  0.00    -0.206 F 
ATOM     74  C   UNL A   1      44.808  23.210  26.821  1.00  0.00     0.059 A 
ATOM     75  C   UNL A   1      43.681  24.517  25.157  1.00  0.00     0.059 A 
ATOM     76  F   UNL A   1      42.425  26.350  25.732  1.00  0.00    -0.206 F 
ATOM     77  C   UNL A   1      44.532  23.477  25.488  1.00  0.00     0.060 A 
BRANCH  77  78
ATOM     78  S   UNL A   1      45.305  22.467  24.210  1.00  0.00     0.124 S 
ATOM     79  O   UNL A   1      44.206  22.284  23.267  1.00  0.00    -0.237 OA
ATOM     80  O   UNL A   1      46.397  23.322  23.760  1.00  0.00    -0.237 OA
ATOM     81  O   UNL A   1      45.713  21.263  24.929  1.00  0.00    -0.744 OA
ENDBRANCH  77  78
ENDBRANCH  56  70
BRANCH  57  82
ATOM     82  C   UNL A   1      39.853  32.052  33.856  1.00  0.00     0.058 A 
ATOM     83  C   UNL A   1      39.679  33.452  33.737  1.00  0.00     0.135 A 
ATOM     84  C   UNL A   1      38.677  31.280  33.863  1.00  0.00     0.135 A 
ATOM     85  F   UNL A   1      40.758  34.253  33.671  1.00  0.00    -0.206 F 
ATOM     86  C   UNL A   1      38.430  34.043  33.505  1.00  0.00     0.059 A 
ATOM     87  C   UNL A   1      37.422  31.846  33.585  1.00  0.00     0.059 A 
ATOM     88  F   UNL A   1      38.752  29.944  33.959  1.00  0.00    -0.206 F 
ATOM     89  C   UNL A   1      37.311  33.222  33.362  1.00  0.00     0.060 A 
BRANCH  89  90
ATOM     90  S   UNL A   1      35.823  33.895  32.538  1.00  0.00     0.124 S 
ATOM     91  O   UNL A   1      35.899  35.311  32.869  1.00  0.00    -0.237 OA
ATOM     92  O   UNL A   1      36.049  33.562  31.132  1.00  0.00    -0.237 OA
ATOM     93  O   UNL A   1      34.744  33.141  33.167  1.00  0.00    -0.744 OA
ENDBRANCH  89  90
ENDBRANCH  57  82
BRANCH  69  94
ATOM     94  C   UNL A   1      44.357  26.340  34.051  1.00  0.00     0.058 A 
ATOM     95  C   UNL A   1      43.536  25.505  34.831  1.00  0.00     0.135 A 
ATOM     96  C   UNL A   1      45.706  25.930  33.935  1.00  0.00     0.135 A 
ATOM     97  F   UNL A   1      42.206  25.669  34.898  1.00  0.00    -0.206 F 
ATOM     98  C   UNL A   1      44.034  24.429  35.547  1.00  0.00     0.059 A 
ATOM     99  C   UNL A   1      46.206  24.802  34.572  1.00  0.00     0.059 A 
ATOM    100  F   UNL A   1      46.590  26.594  33.178  1.00  0.00    -0.206 F 
ATOM    101  C   UNL A   1      45.373  24.088  35.416  1.00  0.00     0.060 A 
BRANCH 101 102
ATOM    102  S   UNL A   1      46.001  22.697  36.356  1.00  0.00     0.124 S 
ATOM    103  O   UNL A   1      47.441  22.915  36.251  1.00  0.00    -0.237 OA
ATOM    104  O   UNL A   1      45.421  22.923  37.677  1.00  0.00    -0.237 OA
ATOM    105  O   UNL A   1      45.481  21.539  35.638  1.00  0.00    -0.744 OA
ENDBRANCH 101 102
ENDBRANCH  69  94
ENDBRANCH  43  44
ENDBRANCH  36  38
ENDBRANCH  35  36
ENDBRANCH  34  35
ENDBRANCH   1  34
TORSDOF 20
ENDMDL
MODEL 3
REMARK VINA RESULT:     -12.8      3.673     10.160
REMARK SMILES Cc1ccc(-c2cc(C(=O)OCCOCCOC(=O)c3ccc(-c4c5nc(c(-c6c(F)cc(S(=O)(=O)[O-])cc6F)c6ccc([nH]6)c(-c6c(F)cc(S(=O)(=O)[O-])cc6F)c6nc(c(-c7c(F)cc(S(=O)(=O)[O-])cc7F)c7ccc4[nH]7)C=C6)C=C5)cc3)c3c(-c4cccc([N+](=O)[O-])c4)[nH]nc3n2)cc1
REMARK SMILES IDX 15 1 14 2 13 3 12 4 11 5 9 6 10 7 8 8 6 9 7 10 100 11 99 12
REMARK SMILES IDX 86 13 98 14 87 15 97 16 5 18 1 19 2 20 3 21 102 22 4 23
REMARK SMILES IDX 101 24 88 25 89 26 96 27 90 28 92 29 91 30 93 31 94 32 95 33
REMARK SMILES IDX 16 34 17 35 18 36 19 37 20 38 21 39 85 40 22 41 84 42 23 43
REMARK SMILES IDX 24 44 25 45 78 46 26 47 83 48 77 49 79 50 27 51 82 52 76 53
REMARK SMILES IDX 75 54 28 56 62 57 41 58 61 59 42 60 45 61 60 62 80 63 43 64
REMARK SMILES IDX 44 65 59 67 81 68 46 69 29 70 30 71 39 72 31 73 32 74 38 75
REMARK SMILES IDX 40 76 33 77 34 78 35 79 36 80 37 81 63 82 64 83 73 84 65 85
REMARK SMILES IDX 66 86 72 87 74 88 67 89 68 90 69 91 70 92 71 93 47 94 48 95
REMARK SMILES IDX 57 96 49 97 50 98 56 99 58 100 51 101 52 102 53 103 54 104
REMARK SMILES IDX 55 105
REMARK H PARENT 97 17 79 55 45 66
REMARK Flexibility Score: inf
ROOT
ATOM      1  C   UNL A   1      33.205  28.962  27.264  1.00  0.00     0.202 C 
ENDROOT
BRANCH   1   2
ATOM      2  O   UNL A   1      33.983  28.224  26.372  1.00  0.00    -0.374 OA
BRANCH   2   3
ATOM      3  C   UNL A   1      33.588  26.882  26.190  1.00  0.00     0.202 C 
BRANCH   3   4
ATOM      4  C   UNL A   1      32.215  26.880  26.752  1.00  0.00     0.261 C 
BRANCH   4   5
ATOM      5  O   UNL A   1      31.520  25.649  26.424  1.00  0.00    -0.460 OA
BRANCH   5   6
ATOM      6  C   UNL A   1      30.607  25.461  25.424  1.00  0.00     0.339 C 
ATOM      7  O   UNL A   1      29.443  25.736  25.388  1.00  0.00    -0.246 OA
BRANCH   6   8
ATOM      8  C   UNL A   1      31.347  24.833  24.337  1.00  0.00     0.075 A 
ATOM      9  C   UNL A   1      32.518  22.816  23.538  1.00  0.00     0.074 A 
ATOM     10  C   UNL A   1      31.664  23.476  24.430  1.00  0.00     0.045 A 
ATOM     11  N   UNL A   1      33.122  23.390  22.459  1.00  0.00    -0.226 NA
ATOM     12  C   UNL A   1      32.758  24.699  22.277  1.00  0.00     0.182 A 
ATOM     13  C   UNL A   1      31.892  25.406  23.189  1.00  0.00     0.061 A 
ATOM     14  N   UNL A   1      33.157  25.499  21.287  1.00  0.00    -0.154 NA
ATOM     15  C   UNL A   1      31.768  26.693  22.683  1.00  0.00     0.076 A 
ATOM     16  N   UNL A   1      32.516  26.661  21.528  1.00  0.00    -0.275 N 
ATOM     17  H   UNL A   1      32.579  27.432  20.919  1.00  0.00     0.190 HD
BRANCH   9  18
ATOM     18  C   UNL A   1      32.793  21.408  23.889  1.00  0.00     0.000 A 
ATOM     19  C   UNL A   1      34.260  17.351  24.335  1.00  0.00     0.044 C 
ATOM     20  C   UNL A   1      33.753  18.755  24.185  1.00  0.00    -0.051 A 
ATOM     21  C   UNL A   1      32.656  19.035  23.358  1.00  0.00     0.004 A 
ATOM     22  C   UNL A   1      34.370  19.805  24.865  1.00  0.00     0.004 A 
ATOM     23  C   UNL A   1      32.181  20.347  23.211  1.00  0.00     0.010 A 
ATOM     24  C   UNL A   1      33.890  21.108  24.726  1.00  0.00     0.010 A 
ENDBRANCH   9  18
BRANCH  15  25
ATOM     25  C   UNL A   1      31.045  27.906  23.080  1.00  0.00     0.007 A 
ATOM     26  C   UNL A   1      31.615  28.822  23.977  1.00  0.00     0.011 A 
ATOM     27  C   UNL A   1      29.783  28.192  22.540  1.00  0.00     0.096 A 
ATOM     28  C   UNL A   1      30.960  30.018  24.300  1.00  0.00     0.008 A 
ATOM     29  C   UNL A   1      29.143  29.408  22.846  1.00  0.00     0.270 A 
ATOM     30  C   UNL A   1      29.728  30.324  23.727  1.00  0.00     0.085 A 
BRANCH  29  31
ATOM     31  N   UNL A   1      27.870  29.747  22.195  1.00  0.00     0.062 N 
ATOM     32  O   UNL A   1      26.842  29.747  22.889  1.00  0.00    -0.258 OA
ATOM     33  O   UNL A   1      27.891  30.017  20.984  1.00  0.00    -0.258 OA
ENDBRANCH  29  31
ENDBRANCH  15  25
ENDBRANCH   6   8
ENDBRANCH   5   6
ENDBRANCH   4   5
ENDBRANCH   3   4
ENDBRANCH   2   3
ENDBRANCH   1   2
BRANCH   1  34
ATOM     34  C   UNL A   1      33.287  30.428  26.877  1.00  0.00     0.261 C 
BRANCH  34  35
ATOM     35  O   UNL A   1      33.814  31.233  27.971  1.00  0.00    -0.460 OA
BRANCH  35  36
ATOM     36  C   UNL A   1      35.112  31.680  27.900  1.00  0.00     0.338 C 
ATOM     37  O   UNL A   1      35.419  32.819  27.592  1.00  0.00    -0.246 OA
BRANCH  36  38
ATOM     38  C   UNL A   1      36.085  30.626  28.346  1.00  0.00     0.060 A 
ATOM     39  C   UNL A   1      35.996  29.962  29.588  1.00  0.00     0.016 A 
ATOM     40  C   UNL A   1      37.228  30.463  27.585  1.00  0.00     0.016 A 
ATOM     41  C   UNL A   1      37.121  29.302  30.139  1.00  0.00     0.010 A 
ATOM     42  C   UNL A   1      38.341  29.893  28.162  1.00  0.00     0.010 A 
ATOM     43  C   UNL A   1      38.331  29.350  29.457  1.00  0.00    -0.014 A 
BRANCH  43  44
ATOM     44  C   UNL A   1      39.673  28.931  29.906  1.00  0.00     0.031 A 
ATOM     45  C   UNL A   1      40.143  27.608  29.421  1.00  0.00     0.074 A 
ATOM     46  C   UNL A   1      40.586  29.837  30.349  1.00  0.00     0.049 A 
ATOM     47  N   UNL A   1      41.312  27.137  29.653  1.00  0.00    -0.248 NA
ATOM     48  C   UNL A   1      39.323  26.679  28.639  1.00  0.00     0.031 C 
ATOM     49  C   UNL A   1      42.042  29.858  30.146  1.00  0.00     0.029 A 
ATOM     50  N   UNL A   1      40.380  31.030  31.040  1.00  0.00    -0.354 N 
ATOM     51  C   UNL A   1      41.521  26.068  28.817  1.00  0.00     0.074 A 
ATOM     52  C   UNL A   1      40.216  25.736  28.314  1.00  0.00     0.031 C 
ATOM     53  C   UNL A   1      42.601  30.830  30.895  1.00  0.00     0.029 A 
ATOM     54  C   UNL A   1      41.546  31.404  31.714  1.00  0.00     0.049 A 
ATOM     55  H   UNL A   1      39.536  31.536  31.050  1.00  0.00     0.167 HD
ATOM     56  C   UNL A   1      42.814  25.706  28.577  1.00  0.00     0.037 A 
ATOM     57  C   UNL A   1      41.515  31.556  33.065  1.00  0.00     0.037 A 
ATOM     58  C   UNL A   1      43.709  26.450  29.481  1.00  0.00     0.049 A 
ATOM     59  C   UNL A   1      42.320  30.418  33.630  1.00  0.00     0.074 A 
ATOM     60  C   UNL A   1      44.626  27.471  29.306  1.00  0.00     0.029 A 
ATOM     61  N   UNL A   1      43.479  26.370  30.857  1.00  0.00    -0.354 N 
ATOM     62  N   UNL A   1      42.500  29.300  32.975  1.00  0.00    -0.248 NA
ATOM     63  C   UNL A   1      43.133  30.501  34.835  1.00  0.00     0.031 C 
ATOM     64  C   UNL A   1      44.862  28.064  30.586  1.00  0.00     0.029 A 
ATOM     65  C   UNL A   1      44.118  27.385  31.543  1.00  0.00     0.049 A 
ATOM     66  H   UNL A   1      42.928  25.675  31.286  1.00  0.00     0.167 HD
ATOM     67  C   UNL A   1      43.509  28.597  33.551  1.00  0.00     0.074 A 
ATOM     68  C   UNL A   1      43.841  29.361  34.744  1.00  0.00     0.031 C 
ATOM     69  C   UNL A   1      44.031  27.462  33.003  1.00  0.00     0.037 A 
BRANCH  56  70
ATOM     70  C   UNL A   1      43.310  24.812  27.451  1.00  0.00     0.058 A 
ATOM     71  C   UNL A   1      44.160  23.722  27.744  1.00  0.00     0.135 A 
ATOM     72  C   UNL A   1      43.068  24.999  26.070  1.00  0.00     0.135 A 
ATOM     73  F   UNL A   1      44.512  23.436  29.006  1.00  0.00    -0.206 F 
ATOM     74  C   UNL A   1      44.710  22.890  26.762  1.00  0.00     0.059 A 
ATOM     75  C   UNL A   1      43.571  24.155  25.073  1.00  0.00     0.059 A 
ATOM     76  F   UNL A   1      42.386  26.048  25.600  1.00  0.00    -0.206 F 
ATOM     77  C   UNL A   1      44.402  23.106  25.427  1.00  0.00     0.060 A 
BRANCH  77  78
ATOM     78  S   UNL A   1      45.107  22.017  24.174  1.00  0.00     0.124 S 
ATOM     79  O   UNL A   1      46.470  22.526  24.068  1.00  0.00    -0.237 OA
ATOM     80  O   UNL A   1      44.962  20.704  24.790  1.00  0.00    -0.237 OA
ATOM     81  O   UNL A   1      44.264  22.253  23.005  1.00  0.00    -0.744 OA
ENDBRANCH  77  78
ENDBRANCH  56  70
BRANCH  57  82
ATOM     82  C   UNL A   1      40.228  32.182  33.528  1.00  0.00     0.058 A 
ATOM     83  C   UNL A   1      40.051  33.560  33.255  1.00  0.00     0.135 A 
ATOM     84  C   UNL A   1      39.053  31.428  33.697  1.00  0.00     0.135 A 
ATOM     85  F   UNL A   1      41.126  34.337  33.031  1.00  0.00    -0.206 F 
ATOM     86  C   UNL A   1      38.792  34.132  33.031  1.00  0.00     0.059 A 
ATOM     87  C   UNL A   1      37.785  31.970  33.430  1.00  0.00     0.059 A 
ATOM     88  F   UNL A   1      39.131  30.112  33.945  1.00  0.00    -0.206 F 
ATOM     89  C   UNL A   1      37.665  33.311  33.054  1.00  0.00     0.060 A 
BRANCH  89  90
ATOM     90  S   UNL A   1      36.130  33.897  32.247  1.00  0.00     0.124 S 
ATOM     91  O   UNL A   1      35.955  35.217  32.836  1.00  0.00    -0.237 OA
ATOM     92  O   UNL A   1      36.482  33.882  30.827  1.00  0.00    -0.237 OA
ATOM     93  O   UNL A   1      35.160  32.881  32.635  1.00  0.00    -0.744 OA
ENDBRANCH  89  90
ENDBRANCH  57  82
BRANCH  69  94
ATOM     94  C   UNL A   1      44.551  26.338  33.858  1.00  0.00     0.058 A 
ATOM     95  C   UNL A   1      43.721  25.548  34.676  1.00  0.00     0.135 A 
ATOM     96  C   UNL A   1      45.890  25.895  33.743  1.00  0.00     0.135 A 
ATOM     97  F   UNL A   1      42.396  25.743  34.751  1.00  0.00    -0.206 F 
ATOM     98  C   UNL A   1      44.205  24.489  35.426  1.00  0.00     0.059 A 
ATOM     99  C   UNL A   1      46.373  24.781  34.415  1.00  0.00     0.059 A 
ATOM    100  F   UNL A   1      46.779  26.513  32.953  1.00  0.00    -0.206 F 
ATOM    101  C   UNL A   1      45.535  24.116  35.293  1.00  0.00     0.060 A 
BRANCH 101 102
ATOM    102  S   UNL A   1      46.144  22.746  36.276  1.00  0.00     0.124 S 
ATOM    103  O   UNL A   1      47.570  22.790  35.966  1.00  0.00    -0.237 OA
ATOM    104  O   UNL A   1      45.779  23.146  37.632  1.00  0.00    -0.237 OA
ATOM    105  O   UNL A   1      45.415  21.598  35.748  1.00  0.00    -0.744 OA
ENDBRANCH 101 102
ENDBRANCH  69  94
ENDBRANCH  43  44
ENDBRANCH  36  38
ENDBRANCH  35  36
ENDBRANCH  34  35
ENDBRANCH   1  34
TORSDOF 20
ENDMDL
