MODEL 1
REMARK VINA RESULT:     -10.5      0.000      0.000
REMARK SMILES CC[N@@H+]1CCO[C@@H](Cn2cc(C(=O)OCCOCCOC(=O)c3ccc(-c4c5nc(c(-c6c(F)cc(S(=O)(=O)[O-])cc6F)c6ccc([nH]6)c(-c6c(F)cc(S(=O)(=O)[O-])cc6F)c6nc(c(-c7c(F)cc(S(=O)(=O)[O-])cc7F)c7ccc4[nH]7)C=C6)C=C5)cc3)nn2)C1
REMARK SMILES IDX 17 1 16 2 15 3 14 4 12 5 13 6 11 7 9 8 10 9 90 10 89 11 8 12
REMARK SMILES IDX 7 13 3 14 4 15 91 16 5 18 6 19 2 20 1 21 18 22 19 23 20 24
REMARK SMILES IDX 21 25 22 26 23 27 24 28 88 29 25 30 87 31 26 32 27 33 28 34
REMARK SMILES IDX 81 35 29 36 86 37 80 38 82 39 30 40 85 41 79 42 78 43 31 45
REMARK SMILES IDX 65 46 44 47 64 48 45 49 48 50 63 51 83 52 46 53 47 54 62 56
REMARK SMILES IDX 84 57 49 58 32 59 33 60 42 61 34 62 35 63 41 64 43 65 36 66
REMARK SMILES IDX 37 67 38 68 39 69 40 70 66 71 67 72 76 73 68 74 69 75 75 76
REMARK SMILES IDX 77 77 70 78 71 79 72 80 73 81 74 82 50 83 51 84 60 85 52 86
REMARK SMILES IDX 53 87 59 88 61 89 54 90 55 91 56 92 57 93 58 94
REMARK H PARENT 3 17 82 44 48 55
REMARK Flexibility Score: inf
ROOT
ATOM      1  O   UNL A   1      40.098  21.838  26.746  1.00  0.00    -0.374 OA
ENDROOT
BRANCH   1   2
ATOM      2  C   UNL A   1      39.046  21.643  25.803  1.00  0.00     0.202 C 
BRANCH   2   3
ATOM      3  C   UNL A   1      37.996  22.747  25.657  1.00  0.00     0.261 C 
BRANCH   3   4
ATOM      4  O   UNL A   1      36.866  22.324  24.874  1.00  0.00    -0.458 OA
BRANCH   4   5
ATOM      5  C   UNL A   1      35.702  22.187  25.569  1.00  0.00     0.360 C 
ATOM      6  O   UNL A   1      35.466  21.254  26.346  1.00  0.00    -0.244 OA
BRANCH   5   7
ATOM      7  C   UNL A   1      34.781  23.290  25.375  1.00  0.00     0.190 A 
ATOM      8  N   UNL A   1      33.465  24.795  24.549  1.00  0.00    -0.249 N 
ATOM      9  C   UNL A   1      34.646  24.146  24.294  1.00  0.00     0.147 A 
ATOM     10  N   UNL A   1      33.051  24.564  25.806  1.00  0.00    -0.066 NA
ATOM     11  N   UNL A   1      33.818  23.607  26.304  1.00  0.00    -0.123 NA
BRANCH   8  12
ATOM     12  C   UNL A   1      32.512  25.288  23.571  1.00  0.00     0.184 C 
BRANCH  12  13
ATOM     13  C   UNL A   1      32.424  26.819  23.624  1.00  0.00     0.194 C 
ATOM     14  N   UNL A   1      31.239  28.781  24.647  1.00  0.00    -0.331 N 
ATOM     15  C   UNL A   1      32.565  29.425  24.752  1.00  0.00     0.291 C 
ATOM     16  C   UNL A   1      31.419  27.321  24.687  1.00  0.00     0.296 C 
ATOM     17  H   UNL A   1      30.658  29.007  25.454  1.00  0.00     0.348 HD
ATOM     18  C   UNL A   1      33.634  28.830  23.808  1.00  0.00     0.222 C 
ATOM     19  O   UNL A   1      33.714  27.394  23.902  1.00  0.00    -0.365 OA
BRANCH  14  20
ATOM     20  C   UNL A   1      30.420  29.334  23.558  1.00  0.00     0.258 C 
ATOM     21  C   UNL A   1      29.145  28.608  23.134  1.00  0.00     0.071 C 
ENDBRANCH  14  20
ENDBRANCH  12  13
ENDBRANCH   8  12
ENDBRANCH   5   7
ENDBRANCH   4   5
ENDBRANCH   3   4
ENDBRANCH   2   3
ENDBRANCH   1   2
BRANCH   1  22
ATOM     22  C   UNL A   1      40.944  20.754  27.113  1.00  0.00     0.202 C 
BRANCH  22  23
ATOM     23  C   UNL A   1      41.631  19.946  26.021  1.00  0.00     0.261 C 
BRANCH  23  24
ATOM     24  O   UNL A   1      43.046  19.946  26.125  1.00  0.00    -0.460 OA
BRANCH  24  25
ATOM     25  C   UNL A   1      43.646  20.605  25.109  1.00  0.00     0.338 C 
ATOM     26  O   UNL A   1      44.096  20.118  24.077  1.00  0.00    -0.246 OA
BRANCH  25  27
ATOM     27  C   UNL A   1      43.851  21.997  25.501  1.00  0.00     0.060 A 
ATOM     28  C   UNL A   1      44.674  22.228  26.606  1.00  0.00     0.016 A 
ATOM     29  C   UNL A   1      43.023  22.994  24.965  1.00  0.00     0.016 A 
ATOM     30  C   UNL A   1      44.533  23.413  27.291  1.00  0.00     0.010 A 
ATOM     31  C   UNL A   1      42.864  24.163  25.664  1.00  0.00     0.010 A 
ATOM     32  C   UNL A   1      43.572  24.327  26.853  1.00  0.00    -0.014 A 
BRANCH  32  33
ATOM     33  C   UNL A   1      43.422  25.568  27.585  1.00  0.00     0.031 A 
ATOM     34  C   UNL A   1      44.554  26.493  27.332  1.00  0.00     0.074 A 
ATOM     35  C   UNL A   1      42.292  25.853  28.259  1.00  0.00     0.049 A 
ATOM     36  N   UNL A   1      45.428  26.935  28.173  1.00  0.00    -0.248 NA
ATOM     37  C   UNL A   1      44.880  26.799  25.923  1.00  0.00     0.031 C 
ATOM     38  C   UNL A   1      41.047  25.076  28.281  1.00  0.00     0.029 A 
ATOM     39  N   UNL A   1      41.959  26.961  28.972  1.00  0.00    -0.354 N 
ATOM     40  C   UNL A   1      46.239  27.793  27.436  1.00  0.00     0.074 A 
ATOM     41  C   UNL A   1      46.020  27.476  26.053  1.00  0.00     0.031 C 
ATOM     42  C   UNL A   1      40.045  25.852  28.754  1.00  0.00     0.029 A 
ATOM     43  C   UNL A   1      40.592  27.131  29.172  1.00  0.00     0.049 A 
ATOM     44  H   UNL A   1      42.631  27.594  29.318  1.00  0.00     0.167 HD
ATOM     45  C   UNL A   1      46.763  28.911  28.005  1.00  0.00     0.037 A 
ATOM     46  C   UNL A   1      39.970  28.276  29.563  1.00  0.00     0.037 A 
ATOM     47  C   UNL A   1      46.797  28.788  29.441  1.00  0.00     0.049 A 
ATOM     48  C   UNL A   1      41.019  29.170  30.127  1.00  0.00     0.074 A 
ATOM     49  C   UNL A   1      47.358  27.880  30.320  1.00  0.00     0.029 A 
ATOM     50  N   UNL A   1      45.851  29.475  30.159  1.00  0.00    -0.354 N 
ATOM     51  N   UNL A   1      41.658  28.934  31.240  1.00  0.00    -0.248 NA
ATOM     52  C   UNL A   1      41.685  30.085  29.211  1.00  0.00     0.031 C 
ATOM     53  C   UNL A   1      46.407  27.747  31.373  1.00  0.00     0.029 A 
ATOM     54  C   UNL A   1      45.358  28.632  31.122  1.00  0.00     0.049 A 
ATOM     55  H   UNL A   1      45.574  30.408  30.009  1.00  0.00     0.167 HD
ATOM     56  C   UNL A   1      42.969  29.304  30.982  1.00  0.00     0.074 A 
ATOM     57  C   UNL A   1      42.909  30.081  29.746  1.00  0.00     0.031 C 
ATOM     58  C   UNL A   1      44.008  28.702  31.633  1.00  0.00     0.037 A 
BRANCH  45  59
ATOM     59  C   UNL A   1      46.826  30.247  27.296  1.00  0.00     0.058 A 
ATOM     60  C   UNL A   1      48.033  30.973  27.319  1.00  0.00     0.135 A 
ATOM     61  C   UNL A   1      45.693  30.971  26.853  1.00  0.00     0.135 A 
ATOM     62  F   UNL A   1      49.171  30.391  27.731  1.00  0.00    -0.206 F 
ATOM     63  C   UNL A   1      48.095  32.330  27.002  1.00  0.00     0.059 A 
ATOM     64  C   UNL A   1      45.744  32.307  26.478  1.00  0.00     0.059 A 
ATOM     65  F   UNL A   1      44.457  30.459  26.848  1.00  0.00    -0.206 F 
ATOM     66  C   UNL A   1      46.940  32.990  26.595  1.00  0.00     0.060 A 
BRANCH  66  67
ATOM     67  S   UNL A   1      46.992  34.757  26.267  1.00  0.00     0.124 S 
ATOM     68  O   UNL A   1      47.775  35.237  27.399  1.00  0.00    -0.237 OA
ATOM     69  O   UNL A   1      47.649  34.800  24.966  1.00  0.00    -0.237 OA
ATOM     70  O   UNL A   1      45.583  35.138  26.264  1.00  0.00    -0.744 OA
ENDBRANCH  66  67
ENDBRANCH  45  59
BRANCH  46  71
ATOM     71  C   UNL A   1      38.632  28.803  29.166  1.00  0.00     0.058 A 
ATOM     72  C   UNL A   1      37.622  29.003  30.129  1.00  0.00     0.135 A 
ATOM     73  C   UNL A   1      38.409  29.399  27.910  1.00  0.00     0.135 A 
ATOM     74  F   UNL A   1      37.751  28.482  31.360  1.00  0.00    -0.206 F 
ATOM     75  C   UNL A   1      36.501  29.804  29.885  1.00  0.00     0.059 A 
ATOM     76  C   UNL A   1      37.292  30.190  27.639  1.00  0.00     0.059 A 
ATOM     77  F   UNL A   1      39.321  29.317  26.930  1.00  0.00    -0.206 F 
ATOM     78  C   UNL A   1      36.358  30.416  28.642  1.00  0.00     0.060 A 
BRANCH  78  79
ATOM     79  S   UNL A   1      35.027  31.615  28.386  1.00  0.00     0.124 S 
ATOM     80  O   UNL A   1      34.034  30.819  27.673  1.00  0.00    -0.237 OA
ATOM     81  O   UNL A   1      34.684  31.992  29.753  1.00  0.00    -0.237 OA
ATOM     82  O   UNL A   1      35.666  32.666  27.598  1.00  0.00    -0.744 OA
ENDBRANCH  78  79
ENDBRANCH  46  71
BRANCH  58  83
ATOM     83  C   UNL A   1      43.703  27.901  32.870  1.00  0.00     0.058 A 
ATOM     84  C   UNL A   1      43.592  26.499  32.927  1.00  0.00     0.135 A 
ATOM     85  C   UNL A   1      43.626  28.597  34.088  1.00  0.00     0.135 A 
ATOM     86  F   UNL A   1      43.767  25.747  31.830  1.00  0.00    -0.206 F 
ATOM     87  C   UNL A   1      43.351  25.832  34.130  1.00  0.00     0.059 A 
ATOM     88  C   UNL A   1      43.425  27.950  35.300  1.00  0.00     0.059 A 
ATOM     89  F   UNL A   1      43.788  29.931  34.110  1.00  0.00    -0.206 F 
ATOM     90  C   UNL A   1      43.264  26.568  35.312  1.00  0.00     0.060 A 
BRANCH  90  91
ATOM     91  S   UNL A   1      42.976  25.710  36.873  1.00  0.00     0.124 S 
ATOM     92  O   UNL A   1      44.205  24.939  37.030  1.00  0.00    -0.237 OA
ATOM     93  O   UNL A   1      42.794  26.813  37.812  1.00  0.00    -0.237 OA
ATOM     94  O   UNL A   1      41.774  24.920  36.614  1.00  0.00    -0.744 OA
ENDBRANCH  90  91
ENDBRANCH  58  83
ENDBRANCH  32  33
ENDBRANCH  25  27
ENDBRANCH  24  25
ENDBRANCH  23  24
ENDBRANCH  22  23
ENDBRANCH   1  22
TORSDOF 20
ENDMDL
MODEL 2
REMARK VINA RESULT:     -10.3      1.488      2.082
REMARK SMILES CC[N@@H+]1CCO[C@@H](Cn2cc(C(=O)OCCOCCOC(=O)c3ccc(-c4c5nc(c(-c6c(F)cc(S(=O)(=O)[O-])cc6F)c6ccc([nH]6)c(-c6c(F)cc(S(=O)(=O)[O-])cc6F)c6nc(c(-c7c(F)cc(S(=O)(=O)[O-])cc7F)c7ccc4[nH]7)C=C6)C=C5)cc3)nn2)C1
REMARK SMILES IDX 17 1 16 2 15 3 14 4 12 5 13 6 11 7 9 8 10 9 90 10 89 11 8 12
REMARK SMILES IDX 7 13 3 14 4 15 91 16 5 18 6 19 2 20 1 21 18 22 19 23 20 24
REMARK SMILES IDX 21 25 22 26 23 27 24 28 88 29 25 30 87 31 26 32 27 33 28 34
REMARK SMILES IDX 81 35 29 36 86 37 80 38 82 39 30 40 85 41 79 42 78 43 31 45
REMARK SMILES IDX 65 46 44 47 64 48 45 49 48 50 63 51 83 52 46 53 47 54 62 56
REMARK SMILES IDX 84 57 49 58 32 59 33 60 42 61 34 62 35 63 41 64 43 65 36 66
REMARK SMILES IDX 37 67 38 68 39 69 40 70 66 71 67 72 76 73 68 74 69 75 75 76
REMARK SMILES IDX 77 77 70 78 71 79 72 80 73 81 74 82 50 83 51 84 60 85 52 86
REMARK SMILES IDX 53 87 59 88 61 89 54 90 55 91 56 92 57 93 58 94
REMARK H PARENT 3 17 82 44 48 55
REMARK Flexibility Score: inf
ROOT
ATOM      1  O   UNL A   1      40.842  22.170  27.141  1.00  0.00    -0.374 OA
ENDROOT
BRANCH   1   2
ATOM      2  C   UNL A   1      39.578  22.600  26.642  1.00  0.00     0.202 C 
BRANCH   2   3
ATOM      3  C   UNL A   1      38.884  21.732  25.590  1.00  0.00     0.261 C 
BRANCH   3   4
ATOM      4  O   UNL A   1      37.505  21.483  25.912  1.00  0.00    -0.458 OA
BRANCH   4   5
ATOM      5  C   UNL A   1      36.622  22.387  25.403  1.00  0.00     0.360 C 
ATOM      6  O   UNL A   1      36.845  23.086  24.407  1.00  0.00    -0.244 OA
BRANCH   5   7
ATOM      7  C   UNL A   1      35.346  22.400  26.093  1.00  0.00     0.190 A 
ATOM      8  N   UNL A   1      33.392  22.913  26.865  1.00  0.00    -0.249 N 
ATOM      9  C   UNL A   1      34.601  23.476  26.545  1.00  0.00     0.147 A 
ATOM     10  N   UNL A   1      33.474  21.571  26.872  1.00  0.00    -0.066 NA
ATOM     11  N   UNL A   1      34.647  21.245  26.354  1.00  0.00    -0.123 NA
BRANCH   8  12
ATOM     12  C   UNL A   1      32.086  23.540  26.774  1.00  0.00     0.184 C 
BRANCH  12  13
ATOM     13  C   UNL A   1      31.927  24.268  25.433  1.00  0.00     0.194 C 
ATOM     14  N   UNL A   1      31.515  23.989  22.973  1.00  0.00    -0.331 N 
ATOM     15  C   UNL A   1      30.635  25.173  23.067  1.00  0.00     0.291 C 
ATOM     16  C   UNL A   1      31.539  23.313  24.280  1.00  0.00     0.296 C 
ATOM     17  H   UNL A   1      31.138  23.304  22.318  1.00  0.00     0.348 HD
ATOM     18  C   UNL A   1      30.898  26.060  24.304  1.00  0.00     0.222 C 
ATOM     19  O   UNL A   1      30.930  25.302  25.530  1.00  0.00    -0.365 OA
BRANCH  14  20
ATOM     20  C   UNL A   1      32.809  24.289  22.339  1.00  0.00     0.258 C 
ATOM     21  C   UNL A   1      33.062  25.685  21.773  1.00  0.00     0.071 C 
ENDBRANCH  14  20
ENDBRANCH  12  13
ENDBRANCH   8  12
ENDBRANCH   5   7
ENDBRANCH   4   5
ENDBRANCH   3   4
ENDBRANCH   2   3
ENDBRANCH   1   2
BRANCH   1  22
ATOM     22  C   UNL A   1      41.176  20.787  27.155  1.00  0.00     0.202 C 
BRANCH  22  23
ATOM     23  C   UNL A   1      42.417  20.315  26.410  1.00  0.00     0.261 C 
BRANCH  23  24
ATOM     24  O   UNL A   1      42.808  21.185  25.359  1.00  0.00    -0.460 OA
BRANCH  24  25
ATOM     25  C   UNL A   1      44.103  21.560  25.444  1.00  0.00     0.338 C 
ATOM     26  O   UNL A   1      45.089  20.843  25.308  1.00  0.00    -0.246 OA
BRANCH  25  27
ATOM     27  C   UNL A   1      44.169  22.943  25.908  1.00  0.00     0.060 A 
ATOM     28  C   UNL A   1      44.903  23.184  27.072  1.00  0.00     0.016 A 
ATOM     29  C   UNL A   1      43.295  23.896  25.365  1.00  0.00     0.016 A 
ATOM     30  C   UNL A   1      44.625  24.319  27.798  1.00  0.00     0.010 A 
ATOM     31  C   UNL A   1      42.999  25.013  26.103  1.00  0.00     0.010 A 
ATOM     32  C   UNL A   1      43.619  25.174  27.341  1.00  0.00    -0.014 A 
BRANCH  32  33
ATOM     33  C   UNL A   1      43.324  26.361  28.116  1.00  0.00     0.031 A 
ATOM     34  C   UNL A   1      44.424  27.355  28.037  1.00  0.00     0.074 A 
ATOM     35  C   UNL A   1      42.115  26.551  28.677  1.00  0.00     0.049 A 
ATOM     36  N   UNL A   1      45.178  27.789  28.990  1.00  0.00    -0.248 NA
ATOM     37  C   UNL A   1      44.880  27.757  26.690  1.00  0.00     0.031 C 
ATOM     38  C   UNL A   1      40.919  25.714  28.523  1.00  0.00     0.029 A 
ATOM     39  N   UNL A   1      41.648  27.599  29.406  1.00  0.00    -0.354 N 
ATOM     40  C   UNL A   1      46.014  28.728  28.390  1.00  0.00     0.074 A 
ATOM     41  C   UNL A   1      45.960  28.481  26.977  1.00  0.00     0.031 C 
ATOM     42  C   UNL A   1      39.832  26.411  28.924  1.00  0.00     0.029 A 
ATOM     43  C   UNL A   1      40.259  27.689  29.465  1.00  0.00     0.049 A 
ATOM     44  H   UNL A   1      42.243  28.243  29.855  1.00  0.00     0.167 HD
ATOM     45  C   UNL A   1      46.412  29.835  29.071  1.00  0.00     0.037 A 
ATOM     46  C   UNL A   1      39.537  28.778  29.844  1.00  0.00     0.037 A 
ATOM     47  C   UNL A   1      46.300  29.631  30.493  1.00  0.00     0.049 A 
ATOM     48  C   UNL A   1      40.470  29.688  30.565  1.00  0.00     0.074 A 
ATOM     49  C   UNL A   1      46.814  28.704  31.381  1.00  0.00     0.029 A 
ATOM     50  N   UNL A   1      45.246  30.228  31.139  1.00  0.00    -0.354 N 
ATOM     51  N   UNL A   1      40.999  29.420  31.727  1.00  0.00    -0.248 NA
ATOM     52  C   UNL A   1      41.177  30.687  29.777  1.00  0.00     0.031 C 
ATOM     53  C   UNL A   1      45.765  28.463  32.315  1.00  0.00     0.029 A 
ATOM     54  C   UNL A   1      44.702  29.308  31.997  1.00  0.00     0.049 A 
ATOM     55  H   UNL A   1      44.936  31.154  31.009  1.00  0.00     0.167 HD
ATOM     56  C   UNL A   1      42.308  29.869  31.634  1.00  0.00     0.074 A 
ATOM     57  C   UNL A   1      42.336  30.712  30.441  1.00  0.00     0.031 C 
ATOM     58  C   UNL A   1      43.303  29.282  32.361  1.00  0.00     0.037 A 
BRANCH  45  59
ATOM     59  C   UNL A   1      46.476  31.211  28.444  1.00  0.00     0.058 A 
ATOM     60  C   UNL A   1      45.329  31.720  27.802  1.00  0.00     0.135 A 
ATOM     61  C   UNL A   1      47.675  31.920  28.192  1.00  0.00     0.135 A 
ATOM     62  F   UNL A   1      44.138  31.122  27.961  1.00  0.00    -0.206 F 
ATOM     63  C   UNL A   1      45.384  32.798  26.918  1.00  0.00     0.059 A 
ATOM     64  C   UNL A   1      47.740  33.031  27.361  1.00  0.00     0.059 A 
ATOM     65  F   UNL A   1      48.866  31.526  28.654  1.00  0.00    -0.206 F 
ATOM     66  C   UNL A   1      46.599  33.438  26.696  1.00  0.00     0.060 A 
BRANCH  66  67
ATOM     67  S   UNL A   1      46.696  34.772  25.495  1.00  0.00     0.124 S 
ATOM     68  O   UNL A   1      48.044  34.593  24.971  1.00  0.00    -0.237 OA
ATOM     69  O   UNL A   1      45.604  34.439  24.588  1.00  0.00    -0.237 OA
ATOM     70  O   UNL A   1      46.485  35.968  26.306  1.00  0.00    -0.744 OA
ENDBRANCH  66  67
ENDBRANCH  45  59
BRANCH  46  71
ATOM     71  C   UNL A   1      38.222  29.260  29.333  1.00  0.00     0.058 A 
ATOM     72  C   UNL A   1      37.155  29.515  30.217  1.00  0.00     0.135 A 
ATOM     73  C   UNL A   1      38.071  29.765  28.026  1.00  0.00     0.135 A 
ATOM     74  F   UNL A   1      37.212  29.083  31.486  1.00  0.00    -0.206 F 
ATOM     75  C   UNL A   1      36.044  30.284  29.851  1.00  0.00     0.059 A 
ATOM     76  C   UNL A   1      36.966  30.522  27.634  1.00  0.00     0.059 A 
ATOM     77  F   UNL A   1      39.041  29.625  27.111  1.00  0.00    -0.206 F 
ATOM     78  C   UNL A   1      35.972  30.806  28.561  1.00  0.00     0.060 A 
BRANCH  78  79
ATOM     79  S   UNL A   1      34.650  31.969  28.142  1.00  0.00     0.124 S 
ATOM     80  O   UNL A   1      33.787  31.155  27.294  1.00  0.00    -0.237 OA
ATOM     81  O   UNL A   1      34.116  32.315  29.454  1.00  0.00    -0.237 OA
ATOM     82  O   UNL A   1      35.356  33.050  27.458  1.00  0.00    -0.744 OA
ENDBRANCH  78  79
ENDBRANCH  46  71
BRANCH  58  83
ATOM     83  C   UNL A   1      42.913  28.397  33.515  1.00  0.00     0.058 A 
ATOM     84  C   UNL A   1      43.006  26.993  33.532  1.00  0.00     0.135 A 
ATOM     85  C   UNL A   1      42.526  29.026  34.709  1.00  0.00     0.135 A 
ATOM     86  F   UNL A   1      43.477  26.318  32.473  1.00  0.00    -0.206 F 
ATOM     87  C   UNL A   1      42.664  26.250  34.665  1.00  0.00     0.059 A 
ATOM     88  C   UNL A   1      42.218  28.309  35.858  1.00  0.00     0.059 A 
ATOM     89  F   UNL A   1      42.481  30.367  34.778  1.00  0.00    -0.206 F 
ATOM     90  C   UNL A   1      42.266  26.918  35.823  1.00  0.00     0.060 A 
BRANCH  90  91
ATOM     91  S   UNL A   1      41.846  25.966  37.298  1.00  0.00     0.124 S 
ATOM     92  O   UNL A   1      41.752  24.610  36.770  1.00  0.00    -0.237 OA
ATOM     93  O   UNL A   1      42.981  26.229  38.178  1.00  0.00    -0.237 OA
ATOM     94  O   UNL A   1      40.581  26.554  37.735  1.00  0.00    -0.744 OA
ENDBRANCH  90  91
ENDBRANCH  58  83
ENDBRANCH  32  33
ENDBRANCH  25  27
ENDBRANCH  24  25
ENDBRANCH  23  24
ENDBRANCH  22  23
ENDBRANCH   1  22
TORSDOF 20
ENDMDL
MODEL 3
REMARK VINA RESULT:     -10.2      1.552      2.185
REMARK SMILES CC[N@@H+]1CCO[C@@H](Cn2cc(C(=O)OCCOCCOC(=O)c3ccc(-c4c5nc(c(-c6c(F)cc(S(=O)(=O)[O-])cc6F)c6ccc([nH]6)c(-c6c(F)cc(S(=O)(=O)[O-])cc6F)c6nc(c(-c7c(F)cc(S(=O)(=O)[O-])cc7F)c7ccc4[nH]7)C=C6)C=C5)cc3)nn2)C1
REMARK SMILES IDX 17 1 16 2 15 3 14 4 12 5 13 6 11 7 9 8 10 9 90 10 89 11 8 12
REMARK SMILES IDX 7 13 3 14 4 15 91 16 5 18 6 19 2 20 1 21 18 22 19 23 20 24
REMARK SMILES IDX 21 25 22 26 23 27 24 28 88 29 25 30 87 31 26 32 27 33 28 34
REMARK SMILES IDX 81 35 29 36 86 37 80 38 82 39 30 40 85 41 79 42 78 43 31 45
REMARK SMILES IDX 65 46 44 47 64 48 45 49 48 50 63 51 83 52 46 53 47 54 62 56
REMARK SMILES IDX 84 57 49 58 32 59 33 60 42 61 34 62 35 63 41 64 43 65 36 66
REMARK SMILES IDX 37 67 38 68 39 69 40 70 66 71 67 72 76 73 68 74 69 75 75 76
REMARK SMILES IDX 77 77 70 78 71 79 72 80 73 81 74 82 50 83 51 84 60 85 52 86
REMARK SMILES IDX 53 87 59 88 61 89 54 90 55 91 56 92 57 93 58 94
REMARK H PARENT 3 17 82 44 48 55
REMARK Flexibility Score: inf
ROOT
ATOM      1  O   UNL A   1      42.334  19.236  25.970  1.00  0.00    -0.374 OA
ENDROOT
BRANCH   1   2
ATOM      2  C   UNL A   1      42.187  20.395  26.786  1.00  0.00     0.202 C 
BRANCH   2   3
ATOM      3  C   UNL A   1      40.770  20.868  27.120  1.00  0.00     0.261 C 
BRANCH   3   4
ATOM      4  O   UNL A   1      40.169  21.597  26.037  1.00  0.00    -0.458 OA
BRANCH   4   5
ATOM      5  C   UNL A   1      38.954  21.132  25.632  1.00  0.00     0.360 C 
ATOM      6  O   UNL A   1      38.727  19.950  25.346  1.00  0.00    -0.244 OA
BRANCH   5   7
ATOM      7  C   UNL A   1      37.915  22.144  25.642  1.00  0.00     0.190 A 
ATOM      8  N   UNL A   1      36.034  23.209  25.717  1.00  0.00    -0.249 N 
ATOM      9  C   UNL A   1      36.596  22.056  25.231  1.00  0.00     0.147 A 
ATOM     10  N   UNL A   1      36.981  24.061  26.146  1.00  0.00    -0.066 NA
ATOM     11  N   UNL A   1      38.129  23.403  26.153  1.00  0.00    -0.123 NA
BRANCH   8  12
ATOM     12  C   UNL A   1      34.665  23.392  26.164  1.00  0.00     0.184 C 
BRANCH  12  13
ATOM     13  C   UNL A   1      33.891  24.287  25.188  1.00  0.00     0.194 C 
ATOM     14  N   UNL A   1      32.222  24.331  23.314  1.00  0.00    -0.331 N 
ATOM     15  C   UNL A   1      31.635  25.518  23.971  1.00  0.00     0.291 C 
ATOM     16  C   UNL A   1      32.869  23.496  24.338  1.00  0.00     0.296 C 
ATOM     17  H   UNL A   1      31.496  23.745  22.902  1.00  0.00     0.348 HD
ATOM     18  C   UNL A   1      32.590  26.234  24.952  1.00  0.00     0.222 C 
ATOM     19  O   UNL A   1      33.193  25.328  25.896  1.00  0.00    -0.365 OA
BRANCH  14  20
ATOM     20  C   UNL A   1      33.009  24.672  22.118  1.00  0.00     0.258 C 
ATOM     21  C   UNL A   1      32.545  25.811  21.214  1.00  0.00     0.071 C 
ENDBRANCH  14  20
ENDBRANCH  12  13
ENDBRANCH   8  12
ENDBRANCH   5   7
ENDBRANCH   4   5
ENDBRANCH   3   4
ENDBRANCH   2   3
ENDBRANCH   1   2
BRANCH   1  22
ATOM     22  C   UNL A   1      43.447  18.367  26.150  1.00  0.00     0.202 C 
BRANCH  22  23
ATOM     23  C   UNL A   1      44.608  18.435  25.169  1.00  0.00     0.261 C 
BRANCH  23  24
ATOM     24  O   UNL A   1      45.284  19.683  25.180  1.00  0.00    -0.460 OA
BRANCH  24  25
ATOM     25  C   UNL A   1      44.834  20.532  24.229  1.00  0.00     0.338 C 
ATOM     26  O   UNL A   1      44.502  20.246  23.083  1.00  0.00    -0.246 OA
BRANCH  25  27
ATOM     27  C   UNL A   1      44.967  21.903  24.713  1.00  0.00     0.060 A 
ATOM     28  C   UNL A   1      45.853  22.115  25.773  1.00  0.00     0.016 A 
ATOM     29  C   UNL A   1      44.031  22.869  24.317  1.00  0.00     0.016 A 
ATOM     30  C   UNL A   1      45.679  23.232  26.557  1.00  0.00     0.010 A 
ATOM     31  C   UNL A   1      43.842  23.968  25.114  1.00  0.00     0.010 A 
ATOM     32  C   UNL A   1      44.624  24.099  26.261  1.00  0.00    -0.014 A 
BRANCH  32  33
ATOM     33  C   UNL A   1      44.442  25.267  27.096  1.00  0.00     0.031 A 
ATOM     34  C   UNL A   1      45.534  26.254  26.905  1.00  0.00     0.074 A 
ATOM     35  C   UNL A   1      43.314  25.451  27.809  1.00  0.00     0.049 A 
ATOM     36  N   UNL A   1      46.406  26.657  27.768  1.00  0.00    -0.248 NA
ATOM     37  C   UNL A   1      45.823  26.688  25.523  1.00  0.00     0.031 C 
ATOM     38  C   UNL A   1      42.099  24.628  27.784  1.00  0.00     0.029 A 
ATOM     39  N   UNL A   1      42.953  26.483  28.617  1.00  0.00    -0.354 N 
ATOM     40  C   UNL A   1      47.171  27.605  27.092  1.00  0.00     0.074 A 
ATOM     41  C   UNL A   1      46.938  27.396  25.691  1.00  0.00     0.031 C 
ATOM     42  C   UNL A   1      41.078  25.322  28.336  1.00  0.00     0.029 A 
ATOM     43  C   UNL A   1      41.584  26.582  28.851  1.00  0.00     0.049 A 
ATOM     44  H   UNL A   1      43.607  27.110  29.005  1.00  0.00     0.167 HD
ATOM     45  C   UNL A   1      47.663  28.690  27.746  1.00  0.00     0.037 A 
ATOM     46  C   UNL A   1      40.927  27.666  29.346  1.00  0.00     0.037 A 
ATOM     47  C   UNL A   1      47.727  28.449  29.165  1.00  0.00     0.049 A 
ATOM     48  C   UNL A   1      41.952  28.549  29.967  1.00  0.00     0.074 A 
ATOM     49  C   UNL A   1      48.338  27.494  29.957  1.00  0.00     0.029 A 
ATOM     50  N   UNL A   1      46.769  29.037  29.953  1.00  0.00    -0.354 N 
ATOM     51  N   UNL A   1      42.619  28.246  31.047  1.00  0.00    -0.248 NA
ATOM     52  C   UNL A   1      42.567  29.563  29.122  1.00  0.00     0.031 C 
ATOM     53  C   UNL A   1      47.411  27.237  31.009  1.00  0.00     0.029 A 
ATOM     54  C   UNL A   1      46.326  28.099  30.849  1.00  0.00     0.049 A 
ATOM     55  H   UNL A   1      46.455  29.968  29.886  1.00  0.00     0.167 HD
ATOM     56  C   UNL A   1      43.912  28.687  30.802  1.00  0.00     0.074 A 
ATOM     57  C   UNL A   1      43.800  29.561  29.637  1.00  0.00     0.031 C 
ATOM     58  C   UNL A   1      44.983  28.074  31.384  1.00  0.00     0.037 A 
BRANCH  45  59
ATOM     59  C   UNL A   1      47.663  30.082  27.151  1.00  0.00     0.058 A 
ATOM     60  C   UNL A   1      48.837  30.857  27.233  1.00  0.00     0.135 A 
ATOM     61  C   UNL A   1      46.497  30.789  26.770  1.00  0.00     0.135 A 
ATOM     62  F   UNL A   1      50.001  30.294  27.594  1.00  0.00    -0.206 F 
ATOM     63  C   UNL A   1      48.837  32.237  27.031  1.00  0.00     0.059 A 
ATOM     64  C   UNL A   1      46.487  32.153  26.508  1.00  0.00     0.059 A 
ATOM     65  F   UNL A   1      45.285  30.226  26.723  1.00  0.00    -0.206 F 
ATOM     66  C   UNL A   1      47.652  32.877  26.681  1.00  0.00     0.060 A 
BRANCH  66  67
ATOM     67  S   UNL A   1      47.624  34.665  26.502  1.00  0.00     0.124 S 
ATOM     68  O   UNL A   1      49.045  34.984  26.563  1.00  0.00    -0.237 OA
ATOM     69  O   UNL A   1      46.983  34.826  25.202  1.00  0.00    -0.237 OA
ATOM     70  O   UNL A   1      46.827  35.103  27.645  1.00  0.00    -0.744 OA
ENDBRANCH  66  67
ENDBRANCH  45  59
BRANCH  46  71
ATOM     71  C   UNL A   1      39.564  28.172  29.015  1.00  0.00     0.058 A 
ATOM     72  C   UNL A   1      38.547  28.192  29.991  1.00  0.00     0.135 A 
ATOM     73  C   UNL A   1      39.309  28.916  27.847  1.00  0.00     0.135 A 
ATOM     74  F   UNL A   1      38.703  27.521  31.142  1.00  0.00    -0.206 F 
ATOM     75  C   UNL A   1      37.385  28.961  29.848  1.00  0.00     0.059 A 
ATOM     76  C   UNL A   1      38.152  29.679  27.676  1.00  0.00     0.059 A 
ATOM     77  F   UNL A   1      40.222  29.010  26.870  1.00  0.00    -0.206 F 
ATOM     78  C   UNL A   1      37.210  29.723  28.696  1.00  0.00     0.060 A 
BRANCH  78  79
ATOM     79  S   UNL A   1      35.819  30.876  28.593  1.00  0.00     0.124 S 
ATOM     80  O   UNL A   1      34.811  30.076  27.906  1.00  0.00    -0.237 OA
ATOM     81  O   UNL A   1      35.555  31.169  29.997  1.00  0.00    -0.237 OA
ATOM     82  O   UNL A   1      36.362  31.992  27.821  1.00  0.00    -0.744 OA
ENDBRANCH  78  79
ENDBRANCH  46  71
BRANCH  58  83
ATOM     83  C   UNL A   1      44.731  27.161  32.554  1.00  0.00     0.058 A 
ATOM     84  C   UNL A   1      44.384  25.800  32.466  1.00  0.00     0.135 A 
ATOM     85  C   UNL A   1      44.962  27.679  33.839  1.00  0.00     0.135 A 
ATOM     86  F   UNL A   1      44.258  25.195  31.276  1.00  0.00    -0.206 F 
ATOM     87  C   UNL A   1      44.212  25.012  33.607  1.00  0.00     0.059 A 
ATOM     88  C   UNL A   1      44.833  26.905  34.985  1.00  0.00     0.059 A 
ATOM     89  F   UNL A   1      45.358  28.955  33.987  1.00  0.00    -0.206 F 
ATOM     90  C   UNL A   1      44.434  25.577  34.864  1.00  0.00     0.060 A 
BRANCH  90  91
ATOM     91  S   UNL A   1      44.237  24.559  36.341  1.00  0.00     0.124 S 
ATOM     92  O   UNL A   1      44.102  23.221  35.776  1.00  0.00    -0.237 OA
ATOM     93  O   UNL A   1      45.475  24.818  37.072  1.00  0.00    -0.237 OA
ATOM     94  O   UNL A   1      43.031  25.096  36.968  1.00  0.00    -0.744 OA
ENDBRANCH  90  91
ENDBRANCH  58  83
ENDBRANCH  32  33
ENDBRANCH  25  27
ENDBRANCH  24  25
ENDBRANCH  23  24
ENDBRANCH  22  23
ENDBRANCH   1  22
TORSDOF 20
ENDMDL
