MODEL 1
REMARK VINA RESULT:     -11.5      0.000      0.000
REMARK SMILES O=C(OCCOCCOC(=O)c1ccc([S@@](=O)[C@H]2CCOC3(CCCC3)C2)cc1)c1ccc(-c2c3nc(c(-c4c(F)cc(S(=O)(=O)[O-])cc4F)c4ccc([nH]4)c(-c4c(F)cc(S(=O)(=O)[O-])cc4F)c4nc(c(-c5c(F)cc(S(=O)(=O)[O-])cc5F)c5ccc2[nH]5)C=C4)C=C3)cc1
REMARK SMILES IDX 5 1 4 2 3 3 2 4 1 5 30 6 31 7 95 8 32 9 94 10 33 11 34 12
REMARK SMILES IDX 35 13 88 14 36 15 93 16 87 17 89 18 37 19 92 20 86 21 85 22
REMARK SMILES IDX 38 24 72 25 51 26 71 27 52 28 55 29 70 30 90 31 53 32 54 33
REMARK SMILES IDX 69 35 91 36 56 37 39 38 40 39 49 40 41 41 42 42 48 43 50 44
REMARK SMILES IDX 43 45 44 46 45 47 46 48 47 49 73 50 74 51 83 52 75 53 76 54
REMARK SMILES IDX 82 55 84 56 77 57 78 58 79 59 80 60 81 61 57 62 58 63 67 64
REMARK SMILES IDX 59 65 60 66 66 67 68 68 61 69 62 70 63 71 64 72 65 73 6 74
REMARK SMILES IDX 7 75 8 76 9 77 10 78 11 79 12 80 13 81 29 82 14 83 28 84
REMARK SMILES IDX 15 85 16 86 17 87 18 88 19 89 27 90 20 91 22 92 21 93 23 94
REMARK SMILES IDX 26 95 24 96 25 97
REMARK H PARENT 89 23 55 34
REMARK Flexibility Score: inf
ROOT
ATOM      1  C   UNL A   1      34.613  34.129  30.206  1.00  0.00     0.202 C 
ENDROOT
BRANCH   1   2
ATOM      2  C   UNL A   1      35.076  33.201  31.336  1.00  0.00     0.261 C 
BRANCH   2   3
ATOM      3  O   UNL A   1      36.323  32.573  30.990  1.00  0.00    -0.460 OA
BRANCH   3   4
ATOM      4  C   UNL A   1      36.700  31.286  31.179  1.00  0.00     0.338 C 
ATOM      5  O   UNL A   1      35.956  30.546  31.819  1.00  0.00    -0.246 OA
BRANCH   4   6
ATOM      6  C   UNL A   1      37.964  30.705  30.631  1.00  0.00     0.060 A 
ATOM      7  C   UNL A   1      39.010  30.203  31.404  1.00  0.00     0.016 A 
ATOM      8  C   UNL A   1      38.068  30.594  29.234  1.00  0.00     0.016 A 
ATOM      9  C   UNL A   1      40.166  29.704  30.828  1.00  0.00     0.010 A 
ATOM     10  C   UNL A   1      39.210  30.045  28.640  1.00  0.00     0.010 A 
ATOM     11  C   UNL A   1      40.277  29.632  29.444  1.00  0.00    -0.014 A 
BRANCH  11  12
ATOM     12  C   UNL A   1      41.591  29.249  28.898  1.00  0.00     0.031 A 
ATOM     13  C   UNL A   1      42.707  30.246  28.986  1.00  0.00     0.074 A 
ATOM     14  C   UNL A   1      41.799  27.977  28.512  1.00  0.00     0.049 A 
ATOM     15  N   UNL A   1      43.953  30.128  28.621  1.00  0.00    -0.248 NA
ATOM     16  C   UNL A   1      42.377  31.551  29.587  1.00  0.00     0.031 C 
ATOM     17  C   UNL A   1      40.786  26.918  28.526  1.00  0.00     0.029 A 
ATOM     18  N   UNL A   1      42.934  27.346  28.083  1.00  0.00    -0.354 N 
ATOM     19  C   UNL A   1      44.548  31.348  28.915  1.00  0.00     0.074 A 
ATOM     20  C   UNL A   1      43.529  32.196  29.490  1.00  0.00     0.031 C 
ATOM     21  C   UNL A   1      41.358  25.759  28.161  1.00  0.00     0.029 A 
ATOM     22  C   UNL A   1      42.755  26.006  27.826  1.00  0.00     0.049 A 
ATOM     23  H   UNL A   1      43.798  27.806  27.969  1.00  0.00     0.167 HD
ATOM     24  C   UNL A   1      45.832  31.719  28.713  1.00  0.00     0.037 A 
ATOM     25  C   UNL A   1      43.627  25.096  27.353  1.00  0.00     0.037 A 
ATOM     26  C   UNL A   1      46.819  30.843  28.145  1.00  0.00     0.049 A 
ATOM     27  C   UNL A   1      45.031  25.557  27.066  1.00  0.00     0.074 A 
ATOM     28  C   UNL A   1      48.135  31.111  27.823  1.00  0.00     0.029 A 
ATOM     29  N   UNL A   1      46.586  29.512  27.816  1.00  0.00    -0.354 N 
ATOM     30  N   UNL A   1      45.567  26.739  27.273  1.00  0.00    -0.248 NA
ATOM     31  C   UNL A   1      45.945  24.575  26.474  1.00  0.00     0.031 C 
ATOM     32  C   UNL A   1      48.686  29.954  27.261  1.00  0.00     0.029 A 
ATOM     33  C   UNL A   1      47.731  28.949  27.283  1.00  0.00     0.049 A 
ATOM     34  H   UNL A   1      45.732  29.040  27.945  1.00  0.00     0.167 HD
ATOM     35  C   UNL A   1      46.890  26.636  26.860  1.00  0.00     0.074 A 
ATOM     36  C   UNL A   1      47.071  25.271  26.401  1.00  0.00     0.031 C 
ATOM     37  C   UNL A   1      47.866  27.577  26.854  1.00  0.00     0.037 A 
BRANCH  24  38
ATOM     38  C   UNL A   1      46.190  33.145  29.026  1.00  0.00     0.058 A 
ATOM     39  C   UNL A   1      46.675  33.540  30.284  1.00  0.00     0.135 A 
ATOM     40  C   UNL A   1      45.998  34.143  28.057  1.00  0.00     0.135 A 
ATOM     41  F   UNL A   1      46.846  32.633  31.258  1.00  0.00    -0.206 F 
ATOM     42  C   UNL A   1      46.922  34.878  30.581  1.00  0.00     0.059 A 
ATOM     43  C   UNL A   1      46.261  35.484  28.324  1.00  0.00     0.059 A 
ATOM     44  F   UNL A   1      45.523  33.825  26.843  1.00  0.00    -0.206 F 
ATOM     45  C   UNL A   1      46.704  35.844  29.595  1.00  0.00     0.060 A 
BRANCH  45  46
ATOM     46  S   UNL A   1      46.993  37.579  30.001  1.00  0.00     0.124 S 
ATOM     47  O   UNL A   1      46.704  37.596  31.432  1.00  0.00    -0.237 OA
ATOM     48  O   UNL A   1      48.396  37.757  29.637  1.00  0.00    -0.237 OA
ATOM     49  O   UNL A   1      46.035  38.290  29.161  1.00  0.00    -0.744 OA
ENDBRANCH  45  46
ENDBRANCH  24  38
BRANCH  25  50
ATOM     50  C   UNL A   1      43.193  23.695  27.094  1.00  0.00     0.058 A 
ATOM     51  C   UNL A   1      42.883  23.250  25.801  1.00  0.00     0.135 A 
ATOM     52  C   UNL A   1      43.078  22.766  28.143  1.00  0.00     0.135 A 
ATOM     53  F   UNL A   1      42.969  24.094  24.761  1.00  0.00    -0.206 F 
ATOM     54  C   UNL A   1      42.458  21.945  25.558  1.00  0.00     0.059 A 
ATOM     55  C   UNL A   1      42.685  21.450  27.922  1.00  0.00     0.059 A 
ATOM     56  F   UNL A   1      43.371  23.133  29.400  1.00  0.00    -0.206 F 
ATOM     57  C   UNL A   1      42.362  21.053  26.627  1.00  0.00     0.060 A 
BRANCH  57  58
ATOM     58  S   UNL A   1      41.834  19.356  26.303  1.00  0.00     0.124 S 
ATOM     59  O   UNL A   1      42.560  19.052  25.076  1.00  0.00    -0.237 OA
ATOM     60  O   UNL A   1      42.284  18.657  27.502  1.00  0.00    -0.237 OA
ATOM     61  O   UNL A   1      40.385  19.475  26.164  1.00  0.00    -0.744 OA
ENDBRANCH  57  58
ENDBRANCH  25  50
BRANCH  37  62
ATOM     62  C   UNL A   1      49.224  27.140  26.387  1.00  0.00     0.058 A 
ATOM     63  C   UNL A   1      50.183  26.632  27.276  1.00  0.00     0.135 A 
ATOM     64  C   UNL A   1      49.545  27.188  25.022  1.00  0.00     0.135 A 
ATOM     65  F   UNL A   1      49.920  26.571  28.592  1.00  0.00    -0.206 F 
ATOM     66  C   UNL A   1      51.429  26.209  26.829  1.00  0.00     0.059 A 
ATOM     67  C   UNL A   1      50.774  26.744  24.549  1.00  0.00     0.059 A 
ATOM     68  F   UNL A   1      48.654  27.654  24.132  1.00  0.00    -0.206 F 
ATOM     69  C   UNL A   1      51.714  26.270  25.463  1.00  0.00     0.060 A 
BRANCH  69  70
ATOM     70  S   UNL A   1      53.324  25.692  24.889  1.00  0.00     0.124 S 
ATOM     71  O   UNL A   1      53.375  24.351  25.460  1.00  0.00    -0.237 OA
ATOM     72  O   UNL A   1      53.181  25.758  23.437  1.00  0.00    -0.237 OA
ATOM     73  O   UNL A   1      54.255  26.659  25.464  1.00  0.00    -0.744 OA
ENDBRANCH  69  70
ENDBRANCH  37  62
ENDBRANCH  11  12
ENDBRANCH   4   6
ENDBRANCH   3   4
ENDBRANCH   2   3
ENDBRANCH   1   2
BRANCH   1  74
ATOM     74  O   UNL A   1      33.503  33.633  29.455  1.00  0.00    -0.374 OA
BRANCH  74  75
ATOM     75  C   UNL A   1      33.746  33.403  28.062  1.00  0.00     0.202 C 
BRANCH  75  76
ATOM     76  C   UNL A   1      34.469  32.070  27.872  1.00  0.00     0.261 C 
BRANCH  76  77
ATOM     77  O   UNL A   1      33.528  31.118  27.350  1.00  0.00    -0.460 OA
BRANCH  77  78
ATOM     78  C   UNL A   1      34.007  29.851  27.262  1.00  0.00     0.338 C 
ATOM     79  O   UNL A   1      34.804  29.303  28.004  1.00  0.00    -0.246 OA
BRANCH  78  80
ATOM     80  C   UNL A   1      33.243  29.140  26.213  1.00  0.00     0.060 A 
ATOM     81  C   UNL A   1      33.678  29.252  24.887  1.00  0.00     0.017 A 
ATOM     82  C   UNL A   1      32.137  28.344  26.523  1.00  0.00     0.017 A 
ATOM     83  C   UNL A   1      33.002  28.576  23.870  1.00  0.00     0.018 A 
ATOM     84  C   UNL A   1      31.457  27.678  25.500  1.00  0.00     0.018 A 
ATOM     85  C   UNL A   1      31.883  27.791  24.169  1.00  0.00     0.039 A 
BRANCH  85  86
ATOM     86  S   UNL A   1      30.846  27.110  22.869  1.00  0.00     0.056 S 
ATOM     87  O   UNL A   1      30.331  25.804  23.396  1.00  0.00    -0.254 OA
BRANCH  86  88
ATOM     88  C   UNL A   1      29.444  28.256  22.794  1.00  0.00     0.089 C 
ATOM     89  C   UNL A   1      28.153  27.732  23.407  1.00  0.00     0.046 C 
ATOM     90  C   UNL A   1      29.740  29.651  23.330  1.00  0.00     0.053 C 
ATOM     91  C   UNL A   1      27.029  28.706  23.080  1.00  0.00     0.162 C 
ATOM     92  C   UNL A   1      28.567  30.592  22.994  1.00  0.00     0.069 C 
ATOM     93  O   UNL A   1      27.339  30.038  23.492  1.00  0.00    -0.375 OA
ATOM     94  C   UNL A   1      28.729  31.972  23.677  1.00  0.00     0.035 C 
ATOM     95  C   UNL A   1      28.479  30.911  21.484  1.00  0.00     0.035 C 
ATOM     96  C   UNL A   1      28.827  32.998  22.554  1.00  0.00     0.003 C 
ATOM     97  C   UNL A   1      28.050  32.369  21.414  1.00  0.00     0.003 C 
ENDBRANCH  86  88
ENDBRANCH  85  86
ENDBRANCH  78  80
ENDBRANCH  77  78
ENDBRANCH  76  77
ENDBRANCH  75  76
ENDBRANCH  74  75
ENDBRANCH   1  74
TORSDOF 19
ENDMDL
MODEL 2
REMARK VINA RESULT:     -11.2      6.240     12.143
REMARK SMILES O=C(OCCOCCOC(=O)c1ccc([S@@](=O)[C@H]2CCOC3(CCCC3)C2)cc1)c1ccc(-c2c3nc(c(-c4c(F)cc(S(=O)(=O)[O-])cc4F)c4ccc([nH]4)c(-c4c(F)cc(S(=O)(=O)[O-])cc4F)c4nc(c(-c5c(F)cc(S(=O)(=O)[O-])cc5F)c5ccc2[nH]5)C=C4)C=C3)cc1
REMARK SMILES IDX 5 1 4 2 3 3 2 4 1 5 30 6 31 7 95 8 32 9 94 10 33 11 34 12
REMARK SMILES IDX 35 13 88 14 36 15 93 16 87 17 89 18 37 19 92 20 86 21 85 22
REMARK SMILES IDX 38 24 72 25 51 26 71 27 52 28 55 29 70 30 90 31 53 32 54 33
REMARK SMILES IDX 69 35 91 36 56 37 39 38 40 39 49 40 41 41 42 42 48 43 50 44
REMARK SMILES IDX 43 45 44 46 45 47 46 48 47 49 73 50 74 51 83 52 75 53 76 54
REMARK SMILES IDX 82 55 84 56 77 57 78 58 79 59 80 60 81 61 57 62 58 63 67 64
REMARK SMILES IDX 59 65 60 66 66 67 68 68 61 69 62 70 63 71 64 72 65 73 6 74
REMARK SMILES IDX 7 75 8 76 9 77 10 78 11 79 12 80 13 81 29 82 14 83 28 84
REMARK SMILES IDX 15 85 16 86 17 87 18 88 19 89 27 90 20 91 22 92 21 93 23 94
REMARK SMILES IDX 26 95 24 96 25 97
REMARK H PARENT 89 23 55 34
REMARK Flexibility Score: inf
ROOT
ATOM      1  C   UNL A   1      40.839  21.166  26.201  1.00  0.00     0.202 C 
ENDROOT
BRANCH   1   2
ATOM      2  C   UNL A   1      40.719  22.280  27.246  1.00  0.00     0.261 C 
BRANCH   2   3
ATOM      3  O   UNL A   1      40.571  23.559  26.603  1.00  0.00    -0.460 OA
BRANCH   3   4
ATOM      4  C   UNL A   1      41.336  24.668  26.744  1.00  0.00     0.338 C 
ATOM      5  O   UNL A   1      42.298  24.815  25.992  1.00  0.00    -0.246 OA
BRANCH   4   6
ATOM      6  C   UNL A   1      41.063  25.739  27.750  1.00  0.00     0.060 A 
ATOM      7  C   UNL A   1      41.865  26.860  27.957  1.00  0.00     0.016 A 
ATOM      8  C   UNL A   1      39.871  25.638  28.488  1.00  0.00     0.016 A 
ATOM      9  C   UNL A   1      41.565  27.799  28.929  1.00  0.00     0.010 A 
ATOM     10  C   UNL A   1      39.530  26.609  29.438  1.00  0.00     0.010 A 
ATOM     11  C   UNL A   1      40.402  27.674  29.681  1.00  0.00    -0.014 A 
BRANCH  11  12
ATOM     12  C   UNL A   1      40.229  28.612  30.805  1.00  0.00     0.031 A 
ATOM     13  C   UNL A   1      41.214  28.548  31.932  1.00  0.00     0.074 A 
ATOM     14  C   UNL A   1      39.322  29.601  30.705  1.00  0.00     0.049 A 
ATOM     15  N   UNL A   1      41.299  29.290  33.000  1.00  0.00    -0.248 NA
ATOM     16  C   UNL A   1      42.263  27.516  31.832  1.00  0.00     0.031 C 
ATOM     17  C   UNL A   1      38.418  29.800  29.568  1.00  0.00     0.029 A 
ATOM     18  N   UNL A   1      39.045  30.649  31.537  1.00  0.00    -0.354 N 
ATOM     19  C   UNL A   1      42.384  28.799  33.715  1.00  0.00     0.074 A 
ATOM     20  C   UNL A   1      42.929  27.693  32.962  1.00  0.00     0.031 C 
ATOM     21  C   UNL A   1      37.713  30.927  29.761  1.00  0.00     0.029 A 
ATOM     22  C   UNL A   1      38.068  31.491  31.057  1.00  0.00     0.049 A 
ATOM     23  H   UNL A   1      39.501  30.789  32.400  1.00  0.00     0.167 HD
ATOM     24  C   UNL A   1      42.869  29.235  34.899  1.00  0.00     0.037 A 
ATOM     25  C   UNL A   1      37.517  32.581  31.622  1.00  0.00     0.037 A 
ATOM     26  C   UNL A   1      42.302  30.345  35.615  1.00  0.00     0.049 A 
ATOM     27  C   UNL A   1      38.026  33.000  32.975  1.00  0.00     0.074 A 
ATOM     28  C   UNL A   1      42.651  30.848  36.853  1.00  0.00     0.029 A 
ATOM     29  N   UNL A   1      41.256  31.129  35.141  1.00  0.00    -0.354 N 
ATOM     30  N   UNL A   1      39.003  32.479  33.684  1.00  0.00    -0.248 NA
ATOM     31  C   UNL A   1      37.359  34.139  33.613  1.00  0.00     0.031 C 
ATOM     32  C   UNL A   1      41.788  31.910  37.146  1.00  0.00     0.029 A 
ATOM     33  C   UNL A   1      40.938  32.104  36.067  1.00  0.00     0.049 A 
ATOM     34  H   UNL A   1      40.809  31.008  34.273  1.00  0.00     0.167 HD
ATOM     35  C   UNL A   1      39.084  33.244  34.842  1.00  0.00     0.074 A 
ATOM     36  C   UNL A   1      38.063  34.268  34.729  1.00  0.00     0.031 C 
ATOM     37  C   UNL A   1      39.920  33.114  35.902  1.00  0.00     0.037 A 
BRANCH  24  38
ATOM     38  C   UNL A   1      43.997  28.450  35.509  1.00  0.00     0.058 A 
ATOM     39  C   UNL A   1      45.345  28.739  35.241  1.00  0.00     0.135 A 
ATOM     40  C   UNL A   1      43.716  27.355  36.341  1.00  0.00     0.135 A 
ATOM     41  F   UNL A   1      45.670  29.754  34.425  1.00  0.00    -0.206 F 
ATOM     42  C   UNL A   1      46.373  27.948  35.748  1.00  0.00     0.059 A 
ATOM     43  C   UNL A   1      44.728  26.565  36.880  1.00  0.00     0.059 A 
ATOM     44  F   UNL A   1      42.446  27.024  36.620  1.00  0.00    -0.206 F 
ATOM     45  C   UNL A   1      46.053  26.858  36.562  1.00  0.00     0.060 A 
BRANCH  45  46
ATOM     46  S   UNL A   1      47.390  25.818  37.185  1.00  0.00     0.124 S 
ATOM     47  O   UNL A   1      46.788  24.491  37.109  1.00  0.00    -0.237 OA
ATOM     48  O   UNL A   1      48.463  26.082  36.231  1.00  0.00    -0.237 OA
ATOM     49  O   UNL A   1      47.616  26.326  38.535  1.00  0.00    -0.744 OA
ENDBRANCH  45  46
ENDBRANCH  24  38
BRANCH  25  50
ATOM     50  C   UNL A   1      36.419  33.316  30.936  1.00  0.00     0.058 A 
ATOM     51  C   UNL A   1      35.085  33.203  31.356  1.00  0.00     0.135 A 
ATOM     52  C   UNL A   1      36.682  34.152  29.837  1.00  0.00     0.135 A 
ATOM     53  F   UNL A   1      34.774  32.414  32.396  1.00  0.00    -0.206 F 
ATOM     54  C   UNL A   1      34.052  33.874  30.704  1.00  0.00     0.059 A 
ATOM     55  C   UNL A   1      35.672  34.855  29.187  1.00  0.00     0.059 A 
ATOM     56  F   UNL A   1      37.940  34.306  29.396  1.00  0.00    -0.206 F 
ATOM     57  C   UNL A   1      34.357  34.698  29.619  1.00  0.00     0.060 A 
BRANCH  57  58
ATOM     58  S   UNL A   1      33.017  35.584  28.793  1.00  0.00     0.124 S 
ATOM     59  O   UNL A   1      33.752  36.599  28.048  1.00  0.00    -0.237 OA
ATOM     60  O   UNL A   1      32.395  34.531  27.996  1.00  0.00    -0.237 OA
ATOM     61  O   UNL A   1      32.208  36.080  29.903  1.00  0.00    -0.744 OA
ENDBRANCH  57  58
ENDBRANCH  25  50
BRANCH  37  62
ATOM     62  C   UNL A   1      39.794  34.139  36.991  1.00  0.00     0.058 A 
ATOM     63  C   UNL A   1      40.374  35.412  36.879  1.00  0.00     0.135 A 
ATOM     64  C   UNL A   1      39.039  33.854  38.139  1.00  0.00     0.135 A 
ATOM     65  F   UNL A   1      41.108  35.728  35.800  1.00  0.00    -0.206 F 
ATOM     66  C   UNL A   1      40.232  36.360  37.884  1.00  0.00     0.059 A 
ATOM     67  C   UNL A   1      38.859  34.797  39.144  1.00  0.00     0.059 A 
ATOM     68  F   UNL A   1      38.454  32.654  38.284  1.00  0.00    -0.206 F 
ATOM     69  C   UNL A   1      39.472  36.042  39.013  1.00  0.00     0.060 A 
BRANCH  69  70
ATOM     70  S   UNL A   1      39.270  37.290  40.299  1.00  0.00     0.124 S 
ATOM     71  O   UNL A   1      38.529  36.548  41.313  1.00  0.00    -0.237 OA
ATOM     72  O   UNL A   1      40.652  37.620  40.637  1.00  0.00    -0.237 OA
ATOM     73  O   UNL A   1      38.527  38.352  39.627  1.00  0.00    -0.744 OA
ENDBRANCH  69  70
ENDBRANCH  37  62
ENDBRANCH  11  12
ENDBRANCH   4   6
ENDBRANCH   3   4
ENDBRANCH   2   3
ENDBRANCH   1   2
BRANCH   1  74
ATOM     74  O   UNL A   1      39.637  20.424  25.990  1.00  0.00    -0.374 OA
BRANCH  74  75
ATOM     75  C   UNL A   1      38.560  21.143  25.376  1.00  0.00     0.202 C 
BRANCH  75  76
ATOM     76  C   UNL A   1      37.434  20.178  25.004  1.00  0.00     0.261 C 
BRANCH  76  77
ATOM     77  O   UNL A   1      36.201  20.706  25.522  1.00  0.00    -0.460 OA
BRANCH  77  78
ATOM     78  C   UNL A   1      35.087  20.129  25.003  1.00  0.00     0.338 C 
ATOM     79  O   UNL A   1      34.951  18.978  24.626  1.00  0.00    -0.246 OA
BRANCH  78  80
ATOM     80  C   UNL A   1      33.963  21.079  25.153  1.00  0.00     0.060 A 
ATOM     81  C   UNL A   1      33.792  21.711  26.391  1.00  0.00     0.017 A 
ATOM     82  C   UNL A   1      33.108  21.378  24.090  1.00  0.00     0.017 A 
ATOM     83  C   UNL A   1      32.760  22.635  26.568  1.00  0.00     0.018 A 
ATOM     84  C   UNL A   1      32.069  22.296  24.275  1.00  0.00     0.018 A 
ATOM     85  C   UNL A   1      31.888  22.927  25.513  1.00  0.00     0.039 A 
BRANCH  85  86
ATOM     86  S   UNL A   1      30.411  23.917  25.771  1.00  0.00     0.056 S 
ATOM     87  O   UNL A   1      30.173  23.923  27.251  1.00  0.00    -0.254 OA
BRANCH  86  88
ATOM     88  C   UNL A   1      30.926  25.589  25.297  1.00  0.00     0.089 C 
ATOM     89  C   UNL A   1      30.031  26.270  24.271  1.00  0.00     0.046 C 
ATOM     90  C   UNL A   1      31.173  26.529  26.471  1.00  0.00     0.053 C 
ATOM     91  C   UNL A   1      30.702  27.561  23.821  1.00  0.00     0.162 C 
ATOM     92  C   UNL A   1      31.832  27.826  25.962  1.00  0.00     0.069 C 
ATOM     93  O   UNL A   1      31.027  28.407  24.925  1.00  0.00    -0.375 OA
ATOM     94  C   UNL A   1      31.933  28.890  27.081  1.00  0.00     0.035 C 
ATOM     95  C   UNL A   1      33.290  27.605  25.499  1.00  0.00     0.035 C 
ATOM     96  C   UNL A   1      33.420  29.161  27.283  1.00  0.00     0.003 C 
ATOM     97  C   UNL A   1      34.034  28.861  25.929  1.00  0.00     0.003 C 
ENDBRANCH  86  88
ENDBRANCH  85  86
ENDBRANCH  78  80
ENDBRANCH  77  78
ENDBRANCH  76  77
ENDBRANCH  75  76
ENDBRANCH  74  75
ENDBRANCH   1  74
TORSDOF 19
ENDMDL
MODEL 3
REMARK VINA RESULT:     -11.1      5.947     11.863
REMARK SMILES O=C(OCCOCCOC(=O)c1ccc([S@@](=O)[C@H]2CCOC3(CCCC3)C2)cc1)c1ccc(-c2c3nc(c(-c4c(F)cc(S(=O)(=O)[O-])cc4F)c4ccc([nH]4)c(-c4c(F)cc(S(=O)(=O)[O-])cc4F)c4nc(c(-c5c(F)cc(S(=O)(=O)[O-])cc5F)c5ccc2[nH]5)C=C4)C=C3)cc1
REMARK SMILES IDX 5 1 4 2 3 3 2 4 1 5 30 6 31 7 95 8 32 9 94 10 33 11 34 12
REMARK SMILES IDX 35 13 88 14 36 15 93 16 87 17 89 18 37 19 92 20 86 21 85 22
REMARK SMILES IDX 38 24 72 25 51 26 71 27 52 28 55 29 70 30 90 31 53 32 54 33
REMARK SMILES IDX 69 35 91 36 56 37 39 38 40 39 49 40 41 41 42 42 48 43 50 44
REMARK SMILES IDX 43 45 44 46 45 47 46 48 47 49 73 50 74 51 83 52 75 53 76 54
REMARK SMILES IDX 82 55 84 56 77 57 78 58 79 59 80 60 81 61 57 62 58 63 67 64
REMARK SMILES IDX 59 65 60 66 66 67 68 68 61 69 62 70 63 71 64 72 65 73 6 74
REMARK SMILES IDX 7 75 8 76 9 77 10 78 11 79 12 80 13 81 29 82 14 83 28 84
REMARK SMILES IDX 15 85 16 86 17 87 18 88 19 89 27 90 20 91 22 92 21 93 23 94
REMARK SMILES IDX 26 95 24 96 25 97
REMARK H PARENT 89 23 55 34
REMARK Flexibility Score: inf
ROOT
ATOM      1  C   UNL A   1      42.577  21.729  26.154  1.00  0.00     0.202 C 
ENDROOT
BRANCH   1   2
ATOM      2  C   UNL A   1      43.260  22.902  25.441  1.00  0.00     0.261 C 
BRANCH   2   3
ATOM      3  O   UNL A   1      42.432  24.077  25.501  1.00  0.00    -0.460 OA
BRANCH   3   4
ATOM      4  C   UNL A   1      42.810  25.367  25.666  1.00  0.00     0.338 C 
ATOM      5  O   UNL A   1      43.556  25.871  24.828  1.00  0.00    -0.246 OA
BRANCH   4   6
ATOM      6  C   UNL A   1      42.351  26.225  26.801  1.00  0.00     0.060 A 
ATOM      7  C   UNL A   1      42.732  27.551  27.001  1.00  0.00     0.016 A 
ATOM      8  C   UNL A   1      41.411  25.670  27.686  1.00  0.00     0.016 A 
ATOM      9  C   UNL A   1      42.289  28.277  28.093  1.00  0.00     0.010 A 
ATOM     10  C   UNL A   1      40.915  26.412  28.765  1.00  0.00     0.010 A 
ATOM     11  C   UNL A   1      41.387  27.709  28.987  1.00  0.00    -0.014 A 
BRANCH  11  12
ATOM     12  C   UNL A   1      41.086  28.474  30.210  1.00  0.00     0.031 A 
ATOM     13  C   UNL A   1      42.039  28.361  31.361  1.00  0.00     0.074 A 
ATOM     14  C   UNL A   1      40.088  29.376  30.196  1.00  0.00     0.049 A 
ATOM     15  N   UNL A   1      42.016  28.965  32.516  1.00  0.00    -0.248 NA
ATOM     16  C   UNL A   1      43.189  27.457  31.177  1.00  0.00     0.031 C 
ATOM     17  C   UNL A   1      39.202  29.631  29.056  1.00  0.00     0.029 A 
ATOM     18  N   UNL A   1      39.681  30.277  31.140  1.00  0.00    -0.354 N 
ATOM     19  C   UNL A   1      43.124  28.493  33.209  1.00  0.00     0.074 A 
ATOM     20  C   UNL A   1      43.801  27.550  32.347  1.00  0.00     0.031 C 
ATOM     21  C   UNL A   1      38.382  30.651  29.357  1.00  0.00     0.029 A 
ATOM     22  C   UNL A   1      38.640  31.075  30.728  1.00  0.00     0.049 A 
ATOM     23  H   UNL A   1      40.095  30.349  32.032  1.00  0.00     0.167 HD
ATOM     24  C   UNL A   1      43.527  28.818  34.458  1.00  0.00     0.037 A 
ATOM     25  C   UNL A   1      37.965  32.026  31.401  1.00  0.00     0.037 A 
ATOM     26  C   UNL A   1      42.830  29.767  35.282  1.00  0.00     0.049 A 
ATOM     27  C   UNL A   1      38.389  32.315  32.815  1.00  0.00     0.074 A 
ATOM     28  C   UNL A   1      43.090  30.138  36.587  1.00  0.00     0.029 A 
ATOM     29  N   UNL A   1      41.725  30.501  34.866  1.00  0.00    -0.354 N 
ATOM     30  N   UNL A   1      39.392  31.804  33.495  1.00  0.00    -0.248 NA
ATOM     31  C   UNL A   1      37.591  33.293  33.562  1.00  0.00     0.031 C 
ATOM     32  C   UNL A   1      42.116  31.066  36.973  1.00  0.00     0.029 A 
ATOM     33  C   UNL A   1      41.283  31.314  35.892  1.00  0.00     0.049 A 
ATOM     34  H   UNL A   1      41.318  30.450  33.971  1.00  0.00     0.167 HD
ATOM     35  C   UNL A   1      39.361  32.418  34.741  1.00  0.00     0.074 A 
ATOM     36  C   UNL A   1      38.245  33.345  34.714  1.00  0.00     0.031 C 
ATOM     37  C   UNL A   1      40.173  32.235  35.811  1.00  0.00     0.037 A 
BRANCH  24  38
ATOM     38  C   UNL A   1      44.710  28.074  35.012  1.00  0.00     0.058 A 
ATOM     39  C   UNL A   1      44.590  26.807  35.608  1.00  0.00     0.135 A 
ATOM     40  C   UNL A   1      45.983  28.665  34.985  1.00  0.00     0.135 A 
ATOM     41  F   UNL A   1      43.391  26.209  35.691  1.00  0.00    -0.206 F 
ATOM     42  C   UNL A   1      45.683  26.171  36.190  1.00  0.00     0.059 A 
ATOM     43  C   UNL A   1      47.095  28.037  35.538  1.00  0.00     0.059 A 
ATOM     44  F   UNL A   1      46.153  29.879  34.440  1.00  0.00    -0.206 F 
ATOM     45  C   UNL A   1      46.931  26.798  36.156  1.00  0.00     0.060 A 
BRANCH  45  46
ATOM     46  S   UNL A   1      48.335  25.981  36.945  1.00  0.00     0.124 S 
ATOM     47  O   UNL A   1      49.397  26.223  35.973  1.00  0.00    -0.237 OA
ATOM     48  O   UNL A   1      48.454  26.709  38.205  1.00  0.00    -0.237 OA
ATOM     49  O   UNL A   1      47.899  24.594  37.063  1.00  0.00    -0.744 OA
ENDBRANCH  45  46
ENDBRANCH  24  38
BRANCH  25  50
ATOM     50  C   UNL A   1      36.819  32.733  30.766  1.00  0.00     0.058 A 
ATOM     51  C   UNL A   1      37.015  33.769  29.840  1.00  0.00     0.135 A 
ATOM     52  C   UNL A   1      35.492  32.387  31.076  1.00  0.00     0.135 A 
ATOM     53  F   UNL A   1      38.260  34.146  29.511  1.00  0.00    -0.206 F 
ATOM     54  C   UNL A   1      35.945  34.446  29.259  1.00  0.00     0.059 A 
ATOM     55  C   UNL A   1      34.406  33.028  30.487  1.00  0.00     0.059 A 
ATOM     56  F   UNL A   1      35.242  31.398  31.947  1.00  0.00    -0.206 F 
ATOM     57  C   UNL A   1      34.643  34.067  29.591  1.00  0.00     0.060 A 
BRANCH  57  58
ATOM     58  S   UNL A   1      33.259  34.932  28.816  1.00  0.00     0.124 S 
ATOM     59  O   UNL A   1      32.464  35.313  29.977  1.00  0.00    -0.237 OA
ATOM     60  O   UNL A   1      33.929  36.022  28.114  1.00  0.00    -0.237 OA
ATOM     61  O   UNL A   1      32.666  33.912  27.954  1.00  0.00    -0.744 OA
ENDBRANCH  57  58
ENDBRANCH  25  50
BRANCH  37  62
ATOM     62  C   UNL A   1      39.913  33.094  37.013  1.00  0.00     0.058 A 
ATOM     63  C   UNL A   1      38.942  32.755  37.968  1.00  0.00     0.135 A 
ATOM     64  C   UNL A   1      40.683  34.246  37.232  1.00  0.00     0.135 A 
ATOM     65  F   UNL A   1      38.178  31.664  37.798  1.00  0.00    -0.206 F 
ATOM     66  C   UNL A   1      38.725  33.548  39.088  1.00  0.00     0.059 A 
ATOM     67  C   UNL A   1      40.504  35.038  38.360  1.00  0.00     0.059 A 
ATOM     68  F   UNL A   1      41.634  34.603  36.353  1.00  0.00    -0.206 F 
ATOM     69  C   UNL A   1      39.512  34.687  39.275  1.00  0.00     0.060 A 
BRANCH  69  70
ATOM     70  S   UNL A   1      39.241  35.694  40.747  1.00  0.00     0.124 S 
ATOM     71  O   UNL A   1      40.458  35.431  41.509  1.00  0.00    -0.237 OA
ATOM     72  O   UNL A   1      39.120  37.038  40.190  1.00  0.00    -0.237 OA
ATOM     73  O   UNL A   1      38.013  35.144  41.312  1.00  0.00    -0.744 OA
ENDBRANCH  69  70
ENDBRANCH  37  62
ENDBRANCH  11  12
ENDBRANCH   4   6
ENDBRANCH   3   4
ENDBRANCH   2   3
ENDBRANCH   1   2
BRANCH   1  74
ATOM     74  O   UNL A   1      41.765  22.109  27.267  1.00  0.00    -0.374 OA
BRANCH  74  75
ATOM     75  C   UNL A   1      40.430  21.589  27.270  1.00  0.00     0.202 C 
BRANCH  75  76
ATOM     76  C   UNL A   1      39.699  22.021  25.999  1.00  0.00     0.261 C 
BRANCH  76  77
ATOM     77  O   UNL A   1      38.312  21.667  26.136  1.00  0.00    -0.460 OA
BRANCH  77  78
ATOM     78  C   UNL A   1      37.831  20.899  25.125  1.00  0.00     0.338 C 
ATOM     79  O   UNL A   1      38.205  19.788  24.791  1.00  0.00    -0.246 OA
BRANCH  78  80
ATOM     80  C   UNL A   1      36.610  21.545  24.596  1.00  0.00     0.060 A 
ATOM     81  C   UNL A   1      35.370  21.122  25.090  1.00  0.00     0.017 A 
ATOM     82  C   UNL A   1      36.674  22.575  23.655  1.00  0.00     0.017 A 
ATOM     83  C   UNL A   1      34.194  21.724  24.637  1.00  0.00     0.018 A 
ATOM     84  C   UNL A   1      35.494  23.168  23.196  1.00  0.00     0.018 A 
ATOM     85  C   UNL A   1      34.249  22.744  23.682  1.00  0.00     0.039 A 
BRANCH  85  86
ATOM     86  S   UNL A   1      32.758  23.369  22.897  1.00  0.00     0.056 S 
ATOM     87  O   UNL A   1      31.848  22.187  22.745  1.00  0.00    -0.254 OA
BRANCH  86  88
ATOM     88  C   UNL A   1      32.033  24.454  24.156  1.00  0.00     0.089 C 
ATOM     89  C   UNL A   1      31.236  23.739  25.238  1.00  0.00     0.046 C 
ATOM     90  C   UNL A   1      33.020  25.422  24.798  1.00  0.00     0.053 C 
ATOM     91  C   UNL A   1      30.522  24.782  26.086  1.00  0.00     0.162 C 
ATOM     92  C   UNL A   1      32.253  26.442  25.662  1.00  0.00     0.069 C 
ATOM     93  O   UNL A   1      31.428  25.752  26.614  1.00  0.00    -0.375 OA
ATOM     94  C   UNL A   1      33.216  27.331  26.485  1.00  0.00     0.035 C 
ATOM     95  C   UNL A   1      31.433  27.439  24.810  1.00  0.00     0.035 C 
ATOM     96  C   UNL A   1      32.988  28.762  26.013  1.00  0.00     0.003 C 
ATOM     97  C   UNL A   1      31.548  28.768  25.541  1.00  0.00     0.003 C 
ENDBRANCH  86  88
ENDBRANCH  85  86
ENDBRANCH  78  80
ENDBRANCH  77  78
ENDBRANCH  76  77
ENDBRANCH  75  76
ENDBRANCH  74  75
ENDBRANCH   1  74
TORSDOF 19
ENDMDL
