MODEL 1
REMARK VINA RESULT:     -11.6      0.000      0.000
REMARK SMILES Cc1nnc(-c2ccccc2-c2cc(NCC(=O)OCCOCCOC(=O)c3ccc(-c4c5nc(c(-c6c(F)cc(S(=O)(=O)[O-])cc6F)c6ccc([nH]6)c(-c6c(F)cc(S(=O)(=O)[O-])cc6F)c6nc(c(-c7c(F)cc(S(=O)(=O)[O-])cc7F)c7ccc4[nH]7)C=C6)C=C5)cc3)nc3[nH]ccc23)o1
REMARK SMILES IDX 21 1 20 2 19 3 17 4 18 5 16 6 15 7 14 9 12 10 13 11 99 12
REMARK SMILES IDX 95 13 98 14 94 15 96 16 97 17 11 19 6 20 7 21 8 22 10 23
REMARK SMILES IDX 9 24 5 25 1 26 2 27 3 28 100 29 4 30 22 31 23 32 24 33 25 34
REMARK SMILES IDX 26 35 27 36 28 37 29 38 93 39 30 40 92 41 31 42 32 43 33 44
REMARK SMILES IDX 86 45 34 46 91 47 85 48 87 49 35 50 90 51 84 52 83 53 36 55
REMARK SMILES IDX 70 56 49 57 69 58 50 59 53 60 68 61 88 62 51 63 52 64 67 66
REMARK SMILES IDX 89 67 54 68 37 69 38 70 47 71 39 72 40 73 46 74 48 75 41 76
REMARK SMILES IDX 42 77 43 78 44 79 45 80 71 81 72 82 81 83 73 84 74 85 80 86
REMARK SMILES IDX 82 87 75 88 76 89 77 90 78 91 79 92 55 93 56 94 65 95 57 96
REMARK SMILES IDX 58 97 64 98 66 99 59 100 60 101 61 102 62 103 63 104
REMARK H PARENT 15 8 96 18 87 54 53 65
REMARK Flexibility Score: inf
ROOT
ATOM      1  C   UNL A   1      42.399  20.276  26.112  1.00  0.00     0.202 C 
ENDROOT
BRANCH   1   2
ATOM      2  C   UNL A   1      40.940  20.432  26.552  1.00  0.00     0.261 C 
BRANCH   2   3
ATOM      3  O   UNL A   1      40.318  21.591  25.974  1.00  0.00    -0.462 OA
BRANCH   3   4
ATOM      4  C   UNL A   1      40.041  22.597  26.845  1.00  0.00     0.325 C 
ATOM      5  O   UNL A   1      40.520  22.693  27.973  1.00  0.00    -0.250 OA
BRANCH   4   6
ATOM      6  C   UNL A   1      39.104  23.665  26.296  1.00  0.00     0.237 C 
BRANCH   6   7
ATOM      7  N   UNL A   1      38.070  23.217  25.353  1.00  0.00    -0.359 N 
ATOM      8  H   UNL A   1      38.319  22.859  24.469  1.00  0.00     0.162 HD
BRANCH   7   9
ATOM      9  C   UNL A   1      36.737  23.308  25.728  1.00  0.00     0.129 A 
ATOM     10  C   UNL A   1      34.604  24.523  25.669  1.00  0.00    -0.003 A 
ATOM     11  C   UNL A   1      35.962  24.394  25.295  1.00  0.00     0.056 A 
ATOM     12  C   UNL A   1      34.084  23.474  26.460  1.00  0.00     0.027 A 
ATOM     13  C   UNL A   1      34.950  22.448  26.809  1.00  0.00     0.140 A 
ATOM     14  C   UNL A   1      32.823  23.133  27.038  1.00  0.00     0.030 A 
ATOM     15  N   UNL A   1      36.243  22.324  26.495  1.00  0.00    -0.213 NA
ATOM     16  N   UNL A   1      34.264  21.528  27.551  1.00  0.00    -0.346 N 
ATOM     17  C   UNL A   1      32.968  21.936  27.710  1.00  0.00     0.085 A 
ATOM     18  H   UNL A   1      34.646  20.698  27.917  1.00  0.00     0.167 HD
BRANCH  10  19
ATOM     19  C   UNL A   1      33.728  25.657  25.297  1.00  0.00    -0.005 A 
ATOM     20  C   UNL A   1      32.918  25.683  24.144  1.00  0.00     0.047 A 
ATOM     21  C   UNL A   1      32.026  26.753  23.918  1.00  0.00     0.014 A 
ATOM     22  C   UNL A   1      31.942  27.819  24.805  1.00  0.00     0.001 A 
ATOM     23  C   UNL A   1      33.649  26.777  26.157  1.00  0.00     0.009 A 
ATOM     24  C   UNL A   1      32.768  27.839  25.920  1.00  0.00     0.001 A 
BRANCH  20  25
ATOM     25  C   UNL A   1      32.933  24.646  23.139  1.00  0.00     0.248 A 
ATOM     26  C   UNL A   1      32.141  21.282  22.482  1.00  0.00     0.113 C 
ATOM     27  C   UNL A   1      32.650  22.663  22.453  1.00  0.00     0.213 A 
ATOM     28  N   UNL A   1      33.383  23.275  21.547  1.00  0.00    -0.113 NA
ATOM     29  O   UNL A   1      32.324  23.472  23.503  1.00  0.00    -0.421 OA
ATOM     30  N   UNL A   1      33.546  24.571  21.980  1.00  0.00    -0.108 NA
ENDBRANCH  20  25
ENDBRANCH  10  19
ENDBRANCH   7   9
ENDBRANCH   6   7
ENDBRANCH   4   6
ENDBRANCH   3   4
ENDBRANCH   2   3
ENDBRANCH   1   2
BRANCH   1  31
ATOM     31  O   UNL A   1      42.926  21.228  25.188  1.00  0.00    -0.374 OA
BRANCH  31  32
ATOM     32  C   UNL A   1      43.499  22.427  25.700  1.00  0.00     0.202 C 
BRANCH  32  33
ATOM     33  C   UNL A   1      43.136  23.759  25.031  1.00  0.00     0.261 C 
BRANCH  33  34
ATOM     34  O   UNL A   1      43.405  24.897  25.856  1.00  0.00    -0.460 OA
BRANCH  34  35
ATOM     35  C   UNL A   1      42.389  25.792  25.936  1.00  0.00     0.338 C 
ATOM     36  O   UNL A   1      41.574  26.041  25.056  1.00  0.00    -0.246 OA
BRANCH  35  37
ATOM     37  C   UNL A   1      42.323  26.399  27.285  1.00  0.00     0.060 A 
ATOM     38  C   UNL A   1      41.344  25.949  28.175  1.00  0.00     0.016 A 
ATOM     39  C   UNL A   1      43.172  27.440  27.662  1.00  0.00     0.016 A 
ATOM     40  C   UNL A   1      41.125  26.631  29.371  1.00  0.00     0.010 A 
ATOM     41  C   UNL A   1      42.927  28.154  28.834  1.00  0.00     0.010 A 
ATOM     42  C   UNL A   1      41.868  27.782  29.665  1.00  0.00    -0.014 A 
BRANCH  42  43
ATOM     43  C   UNL A   1      41.498  28.626  30.818  1.00  0.00     0.031 A 
ATOM     44  C   UNL A   1      42.275  28.522  32.098  1.00  0.00     0.074 A 
ATOM     45  C   UNL A   1      40.462  29.472  30.706  1.00  0.00     0.049 A 
ATOM     46  N   UNL A   1      42.215  29.275  33.165  1.00  0.00    -0.248 NA
ATOM     47  C   UNL A   1      43.244  27.418  32.193  1.00  0.00     0.031 C 
ATOM     48  C   UNL A   1      39.608  29.599  29.527  1.00  0.00     0.029 A 
ATOM     49  N   UNL A   1      39.954  30.378  31.597  1.00  0.00    -0.354 N 
ATOM     50  C   UNL A   1      43.161  28.763  34.045  1.00  0.00     0.074 A 
ATOM     51  C   UNL A   1      43.739  27.596  33.412  1.00  0.00     0.031 C 
ATOM     52  C   UNL A   1      38.681  30.541  29.764  1.00  0.00     0.029 A 
ATOM     53  C   UNL A   1      38.883  31.082  31.107  1.00  0.00     0.049 A 
ATOM     54  H   UNL A   1      40.320  30.511  32.501  1.00  0.00     0.167 HD
ATOM     55  C   UNL A   1      43.521  29.239  35.263  1.00  0.00     0.037 A 
ATOM     56  C   UNL A   1      38.164  32.067  31.674  1.00  0.00     0.037 A 
ATOM     57  C   UNL A   1      42.890  30.373  35.893  1.00  0.00     0.049 A 
ATOM     58  C   UNL A   1      38.564  32.566  33.036  1.00  0.00     0.074 A 
ATOM     59  C   UNL A   1      43.195  30.972  37.101  1.00  0.00     0.029 A 
ATOM     60  N   UNL A   1      41.801  31.062  35.371  1.00  0.00    -0.354 N 
ATOM     61  N   UNL A   1      39.542  32.161  33.812  1.00  0.00    -0.248 NA
ATOM     62  C   UNL A   1      37.779  33.679  33.588  1.00  0.00     0.031 C 
ATOM     63  C   UNL A   1      42.257  31.984  37.338  1.00  0.00     0.029 A 
ATOM     64  C   UNL A   1      41.406  32.061  36.247  1.00  0.00     0.049 A 
ATOM     65  H   UNL A   1      41.372  30.869  34.506  1.00  0.00     0.167 HD
ATOM     66  C   UNL A   1      39.513  32.990  34.927  1.00  0.00     0.074 A 
ATOM     67  C   UNL A   1      38.427  33.926  34.718  1.00  0.00     0.031 C 
ATOM     68  C   UNL A   1      40.318  32.984  36.022  1.00  0.00     0.037 A 
BRANCH  55  69
ATOM     69  C   UNL A   1      44.645  28.543  35.986  1.00  0.00     0.058 A 
ATOM     70  C   UNL A   1      44.403  27.466  36.856  1.00  0.00     0.135 A 
ATOM     71  C   UNL A   1      45.984  28.921  35.781  1.00  0.00     0.135 A 
ATOM     72  F   UNL A   1      43.146  27.061  37.098  1.00  0.00    -0.206 F 
ATOM     73  C   UNL A   1      45.439  26.814  37.520  1.00  0.00     0.059 A 
ATOM     74  C   UNL A   1      47.038  28.263  36.411  1.00  0.00     0.059 A 
ATOM     75  F   UNL A   1      46.281  29.939  34.958  1.00  0.00    -0.206 F 
ATOM     76  C   UNL A   1      46.753  27.221  37.293  1.00  0.00     0.060 A 
BRANCH  76  77
ATOM     77  S   UNL A   1      48.082  26.370  38.172  1.00  0.00     0.124 S 
ATOM     78  O   UNL A   1      47.471  25.071  38.437  1.00  0.00    -0.237 OA
ATOM     79  O   UNL A   1      49.160  26.373  37.188  1.00  0.00    -0.237 OA
ATOM     80  O   UNL A   1      48.306  27.208  39.346  1.00  0.00    -0.744 OA
ENDBRANCH  76  77
ENDBRANCH  55  69
BRANCH  56  81
ATOM     81  C   UNL A   1      37.048  32.686  30.915  1.00  0.00     0.058 A 
ATOM     82  C   UNL A   1      35.723  32.289  31.135  1.00  0.00     0.135 A 
ATOM     83  C   UNL A   1      37.279  33.716  29.991  1.00  0.00     0.135 A 
ATOM     84  F   UNL A   1      35.453  31.310  32.013  1.00  0.00    -0.206 F 
ATOM     85  C   UNL A   1      34.663  32.876  30.453  1.00  0.00     0.059 A 
ATOM     86  C   UNL A   1      36.235  34.338  29.314  1.00  0.00     0.059 A 
ATOM     87  F   UNL A   1      38.529  34.148  29.761  1.00  0.00    -0.206 F 
ATOM     88  C   UNL A   1      34.929  33.904  29.547  1.00  0.00     0.060 A 
BRANCH  88  89
ATOM     89  S   UNL A   1      33.541  34.691  28.704  1.00  0.00     0.124 S 
ATOM     90  O   UNL A   1      33.139  33.651  27.764  1.00  0.00    -0.237 OA
ATOM     91  O   UNL A   1      32.620  34.946  29.807  1.00  0.00    -0.237 OA
ATOM     92  O   UNL A   1      34.140  35.882  28.109  1.00  0.00    -0.744 OA
ENDBRANCH  88  89
ENDBRANCH  56  81
BRANCH  68  93
ATOM     93  C   UNL A   1      40.075  34.046  37.060  1.00  0.00     0.058 A 
ATOM     94  C   UNL A   1      40.634  35.330  36.955  1.00  0.00     0.135 A 
ATOM     95  C   UNL A   1      39.236  33.786  38.157  1.00  0.00     0.135 A 
ATOM     96  F   UNL A   1      41.447  35.632  35.930  1.00  0.00    -0.206 F 
ATOM     97  C   UNL A   1      40.397  36.308  37.917  1.00  0.00     0.059 A 
ATOM     98  C   UNL A   1      38.959  34.759  39.113  1.00  0.00     0.059 A 
ATOM     99  F   UNL A   1      38.667  32.580  38.302  1.00  0.00    -0.206 F 
ATOM    100  C   UNL A   1      39.556  36.012  38.992  1.00  0.00     0.060 A 
BRANCH 100 101
ATOM    101  S   UNL A   1      39.236  37.298  40.218  1.00  0.00     0.124 S 
ATOM    102  O   UNL A   1      38.565  36.543  41.270  1.00  0.00    -0.237 OA
ATOM    103  O   UNL A   1      40.581  37.769  40.534  1.00  0.00    -0.237 OA
ATOM    104  O   UNL A   1      38.398  38.253  39.498  1.00  0.00    -0.744 OA
ENDBRANCH 100 101
ENDBRANCH  68  93
ENDBRANCH  42  43
ENDBRANCH  35  37
ENDBRANCH  34  35
ENDBRANCH  33  34
ENDBRANCH  32  33
ENDBRANCH  31  32
ENDBRANCH   1  31
TORSDOF 21
ENDMDL
MODEL 2
REMARK VINA RESULT:     -11.4      6.072     11.911
REMARK SMILES Cc1nnc(-c2ccccc2-c2cc(NCC(=O)OCCOCCOC(=O)c3ccc(-c4c5nc(c(-c6c(F)cc(S(=O)(=O)[O-])cc6F)c6ccc([nH]6)c(-c6c(F)cc(S(=O)(=O)[O-])cc6F)c6nc(c(-c7c(F)cc(S(=O)(=O)[O-])cc7F)c7ccc4[nH]7)C=C6)C=C5)cc3)nc3[nH]ccc23)o1
REMARK SMILES IDX 21 1 20 2 19 3 17 4 18 5 16 6 15 7 14 9 12 10 13 11 99 12
REMARK SMILES IDX 95 13 98 14 94 15 96 16 97 17 11 19 6 20 7 21 8 22 10 23
REMARK SMILES IDX 9 24 5 25 1 26 2 27 3 28 100 29 4 30 22 31 23 32 24 33 25 34
REMARK SMILES IDX 26 35 27 36 28 37 29 38 93 39 30 40 92 41 31 42 32 43 33 44
REMARK SMILES IDX 86 45 34 46 91 47 85 48 87 49 35 50 90 51 84 52 83 53 36 55
REMARK SMILES IDX 70 56 49 57 69 58 50 59 53 60 68 61 88 62 51 63 52 64 67 66
REMARK SMILES IDX 89 67 54 68 37 69 38 70 47 71 39 72 40 73 46 74 48 75 41 76
REMARK SMILES IDX 42 77 43 78 44 79 45 80 71 81 72 82 81 83 73 84 74 85 80 86
REMARK SMILES IDX 82 87 75 88 76 89 77 90 78 91 79 92 55 93 56 94 65 95 57 96
REMARK SMILES IDX 58 97 64 98 66 99 59 100 60 101 61 102 62 103 63 104
REMARK H PARENT 15 8 96 18 87 54 53 65
REMARK Flexibility Score: inf
ROOT
ATOM      1  C   UNL A   1      34.941  33.521  28.790  1.00  0.00     0.202 C 
ENDROOT
BRANCH   1   2
ATOM      2  C   UNL A   1      35.420  32.267  28.054  1.00  0.00     0.261 C 
BRANCH   2   3
ATOM      3  O   UNL A   1      34.641  31.108  28.390  1.00  0.00    -0.462 OA
BRANCH   3   4
ATOM      4  C   UNL A   1      33.643  30.805  27.517  1.00  0.00     0.325 C 
ATOM      5  O   UNL A   1      32.706  31.554  27.245  1.00  0.00    -0.250 OA
BRANCH   4   6
ATOM      6  C   UNL A   1      33.793  29.452  26.834  1.00  0.00     0.237 C 
BRANCH   6   7
ATOM      7  N   UNL A   1      33.659  29.430  25.371  1.00  0.00    -0.359 N 
ATOM      8  H   UNL A   1      33.600  30.270  24.860  1.00  0.00     0.162 HD
BRANCH   7   9
ATOM      9  C   UNL A   1      33.617  28.204  24.721  1.00  0.00     0.129 A 
ATOM     10  C   UNL A   1      34.017  25.781  24.755  1.00  0.00    -0.003 A 
ATOM     11  C   UNL A   1      34.035  27.044  25.391  1.00  0.00     0.056 A 
ATOM     12  C   UNL A   1      33.515  25.768  23.433  1.00  0.00     0.027 A 
ATOM     13  C   UNL A   1      33.119  26.981  22.889  1.00  0.00     0.140 A 
ATOM     14  C   UNL A   1      33.267  24.788  22.424  1.00  0.00     0.030 A 
ATOM     15  N   UNL A   1      33.160  28.188  23.460  1.00  0.00    -0.213 NA
ATOM     16  N   UNL A   1      32.650  26.762  21.625  1.00  0.00    -0.346 N 
ATOM     17  C   UNL A   1      32.743  25.432  21.321  1.00  0.00     0.085 A 
ATOM     18  H   UNL A   1      32.299  27.458  21.023  1.00  0.00     0.167 HD
BRANCH  10  19
ATOM     19  C   UNL A   1      34.482  24.518  25.369  1.00  0.00    -0.005 A 
ATOM     20  C   UNL A   1      33.658  23.654  26.119  1.00  0.00     0.047 A 
ATOM     21  C   UNL A   1      34.148  22.412  26.576  1.00  0.00     0.014 A 
ATOM     22  C   UNL A   1      35.457  22.020  26.328  1.00  0.00     0.001 A 
ATOM     23  C   UNL A   1      35.821  24.107  25.170  1.00  0.00     0.009 A 
ATOM     24  C   UNL A   1      36.301  22.877  25.636  1.00  0.00     0.001 A 
BRANCH  20  25
ATOM     25  C   UNL A   1      32.289  23.961  26.460  1.00  0.00     0.248 A 
ATOM     26  C   UNL A   1      29.153  22.577  27.248  1.00  0.00     0.113 C 
ATOM     27  C   UNL A   1      30.277  23.454  26.882  1.00  0.00     0.213 A 
ATOM     28  N   UNL A   1      30.295  24.745  26.632  1.00  0.00    -0.113 NA
ATOM     29  O   UNL A   1      31.512  22.880  26.790  1.00  0.00    -0.421 OA
ATOM     30  N   UNL A   1      31.607  25.081  26.382  1.00  0.00    -0.108 NA
ENDBRANCH  20  25
ENDBRANCH  10  19
ENDBRANCH   7   9
ENDBRANCH   6   7
ENDBRANCH   4   6
ENDBRANCH   3   4
ENDBRANCH   2   3
ENDBRANCH   1   2
BRANCH   1  31
ATOM     31  O   UNL A   1      35.505  33.803  30.071  1.00  0.00    -0.374 OA
BRANCH  31  32
ATOM     32  C   UNL A   1      34.843  33.301  31.229  1.00  0.00     0.202 C 
BRANCH  32  33
ATOM     33  C   UNL A   1      35.323  31.975  31.832  1.00  0.00     0.261 C 
BRANCH  33  34
ATOM     34  O   UNL A   1      36.721  31.740  31.636  1.00  0.00    -0.460 OA
BRANCH  34  35
ATOM     35  C   UNL A   1      37.031  30.495  31.198  1.00  0.00     0.338 C 
ATOM     36  O   UNL A   1      36.290  29.519  31.210  1.00  0.00    -0.246 OA
BRANCH  35  37
ATOM     37  C   UNL A   1      38.388  30.465  30.605  1.00  0.00     0.060 A 
ATOM     38  C   UNL A   1      38.510  30.421  29.213  1.00  0.00     0.016 A 
ATOM     39  C   UNL A   1      39.533  30.420  31.400  1.00  0.00     0.016 A 
ATOM     40  C   UNL A   1      39.756  30.191  28.632  1.00  0.00     0.010 A 
ATOM     41  C   UNL A   1      40.773  30.143  30.827  1.00  0.00     0.010 A 
ATOM     42  C   UNL A   1      40.877  29.975  29.444  1.00  0.00    -0.014 A 
BRANCH  42  43
ATOM     43  C   UNL A   1      42.147  29.521  28.846  1.00  0.00     0.031 A 
ATOM     44  C   UNL A   1      43.279  30.492  28.670  1.00  0.00     0.074 A 
ATOM     45  C   UNL A   1      42.270  28.242  28.457  1.00  0.00     0.049 A 
ATOM     46  N   UNL A   1      44.516  30.265  28.315  1.00  0.00    -0.248 NA
ATOM     47  C   UNL A   1      42.974  31.911  28.921  1.00  0.00     0.031 C 
ATOM     48  C   UNL A   1      41.208  27.240  28.528  1.00  0.00     0.029 A 
ATOM     49  N   UNL A   1      43.338  27.573  27.925  1.00  0.00    -0.354 N 
ATOM     50  C   UNL A   1      45.150  31.501  28.333  1.00  0.00     0.074 A 
ATOM     51  C   UNL A   1      44.145  32.486  28.676  1.00  0.00     0.031 C 
ATOM     52  C   UNL A   1      41.682  26.073  28.063  1.00  0.00     0.029 A 
ATOM     53  C   UNL A   1      43.079  26.250  27.669  1.00  0.00     0.049 A 
ATOM     54  H   UNL A   1      44.207  27.999  27.743  1.00  0.00     0.167 HD
ATOM     55  C   UNL A   1      46.457  31.780  28.102  1.00  0.00     0.037 A 
ATOM     56  C   UNL A   1      43.888  25.288  27.190  1.00  0.00     0.037 A 
ATOM     57  C   UNL A   1      47.425  30.785  27.709  1.00  0.00     0.049 A 
ATOM     58  C   UNL A   1      45.329  25.621  26.916  1.00  0.00     0.074 A 
ATOM     59  C   UNL A   1      48.782  30.938  27.488  1.00  0.00     0.029 A 
ATOM     60  N   UNL A   1      47.128  29.452  27.451  1.00  0.00    -0.354 N 
ATOM     61  N   UNL A   1      45.955  26.767  27.057  1.00  0.00    -0.248 NA
ATOM     62  C   UNL A   1      46.183  24.523  26.445  1.00  0.00     0.031 C 
ATOM     63  C   UNL A   1      49.294  29.715  27.040  1.00  0.00     0.029 A 
ATOM     64  C   UNL A   1      48.271  28.780  27.046  1.00  0.00     0.049 A 
ATOM     65  H   UNL A   1      46.237  29.044  27.542  1.00  0.00     0.167 HD
ATOM     66  C   UNL A   1      47.283  26.520  26.726  1.00  0.00     0.074 A 
ATOM     67  C   UNL A   1      47.370  25.113  26.388  1.00  0.00     0.031 C 
ATOM     68  C   UNL A   1      48.337  27.376  26.711  1.00  0.00     0.037 A 
BRANCH  55  69
ATOM     69  C   UNL A   1      46.914  33.206  28.271  1.00  0.00     0.058 A 
ATOM     70  C   UNL A   1      46.853  34.127  27.211  1.00  0.00     0.135 A 
ATOM     71  C   UNL A   1      47.376  33.677  29.513  1.00  0.00     0.135 A 
ATOM     72  F   UNL A   1      46.426  33.737  25.999  1.00  0.00    -0.206 F 
ATOM     73  C   UNL A   1      47.265  35.448  27.365  1.00  0.00     0.059 A 
ATOM     74  C   UNL A   1      47.765  35.002  29.697  1.00  0.00     0.059 A 
ATOM     75  F   UNL A   1      47.452  32.848  30.565  1.00  0.00    -0.206 F 
ATOM     76  C   UNL A   1      47.722  35.876  28.611  1.00  0.00     0.060 A 
BRANCH  76  77
ATOM     77  S   UNL A   1      48.262  37.591  28.788  1.00  0.00     0.124 S 
ATOM     78  O   UNL A   1      47.944  38.134  27.471  1.00  0.00    -0.237 OA
ATOM     79  O   UNL A   1      47.431  38.069  29.887  1.00  0.00    -0.237 OA
ATOM     80  O   UNL A   1      49.686  37.471  29.089  1.00  0.00    -0.744 OA
ENDBRANCH  76  77
ENDBRANCH  55  69
BRANCH  56  81
ATOM     81  C   UNL A   1      43.362  23.910  27.017  1.00  0.00     0.058 A 
ATOM     82  C   UNL A   1      43.173  23.070  28.123  1.00  0.00     0.135 A 
ATOM     83  C   UNL A   1      42.998  23.423  25.753  1.00  0.00     0.135 A 
ATOM     84  F   UNL A   1      43.505  23.494  29.352  1.00  0.00    -0.206 F 
ATOM     85  C   UNL A   1      42.657  21.787  27.982  1.00  0.00     0.059 A 
ATOM     86  C   UNL A   1      42.456  22.152  25.589  1.00  0.00     0.059 A 
ATOM     87  F   UNL A   1      43.139  24.197  24.666  1.00  0.00    -0.206 F 
ATOM     88  C   UNL A   1      42.298  21.338  26.711  1.00  0.00     0.060 A 
BRANCH  88  89
ATOM     89  S   UNL A   1      41.584  19.688  26.549  1.00  0.00     0.124 S 
ATOM     90  O   UNL A   1      42.138  19.252  25.272  1.00  0.00    -0.237 OA
ATOM     91  O   UNL A   1      42.103  19.014  27.734  1.00  0.00    -0.237 OA
ATOM     92  O   UNL A   1      40.146  19.941  26.559  1.00  0.00    -0.744 OA
ENDBRANCH  88  89
ENDBRANCH  56  81
BRANCH  68  93
ATOM     93  C   UNL A   1      49.682  26.805  26.352  1.00  0.00     0.058 A 
ATOM     94  C   UNL A   1      50.491  26.156  27.299  1.00  0.00     0.135 A 
ATOM     95  C   UNL A   1      50.152  26.874  25.029  1.00  0.00     0.135 A 
ATOM     96  F   UNL A   1      50.095  26.065  28.579  1.00  0.00    -0.206 F 
ATOM     97  C   UNL A   1      51.731  25.624  26.955  1.00  0.00     0.059 A 
ATOM     98  C   UNL A   1      51.373  26.321  24.656  1.00  0.00     0.059 A 
ATOM     99  F   UNL A   1      49.415  27.473  24.081  1.00  0.00    -0.206 F 
ATOM    100  C   UNL A   1      52.161  25.711  25.629  1.00  0.00     0.060 A 
BRANCH 100 101
ATOM    101  S   UNL A   1      53.759  24.993  25.192  1.00  0.00     0.124 S 
ATOM    102  O   UNL A   1      54.007  25.597  23.887  1.00  0.00    -0.237 OA
ATOM    103  O   UNL A   1      54.617  25.457  26.278  1.00  0.00    -0.237 OA
ATOM    104  O   UNL A   1      53.495  23.557  25.180  1.00  0.00    -0.744 OA
ENDBRANCH 100 101
ENDBRANCH  68  93
ENDBRANCH  42  43
ENDBRANCH  35  37
ENDBRANCH  34  35
ENDBRANCH  33  34
ENDBRANCH  32  33
ENDBRANCH  31  32
ENDBRANCH   1  31
TORSDOF 21
ENDMDL
MODEL 3
REMARK VINA RESULT:     -11.2      6.049     11.803
REMARK SMILES Cc1nnc(-c2ccccc2-c2cc(NCC(=O)OCCOCCOC(=O)c3ccc(-c4c5nc(c(-c6c(F)cc(S(=O)(=O)[O-])cc6F)c6ccc([nH]6)c(-c6c(F)cc(S(=O)(=O)[O-])cc6F)c6nc(c(-c7c(F)cc(S(=O)(=O)[O-])cc7F)c7ccc4[nH]7)C=C6)C=C5)cc3)nc3[nH]ccc23)o1
REMARK SMILES IDX 21 1 20 2 19 3 17 4 18 5 16 6 15 7 14 9 12 10 13 11 99 12
REMARK SMILES IDX 95 13 98 14 94 15 96 16 97 17 11 19 6 20 7 21 8 22 10 23
REMARK SMILES IDX 9 24 5 25 1 26 2 27 3 28 100 29 4 30 22 31 23 32 24 33 25 34
REMARK SMILES IDX 26 35 27 36 28 37 29 38 93 39 30 40 92 41 31 42 32 43 33 44
REMARK SMILES IDX 86 45 34 46 91 47 85 48 87 49 35 50 90 51 84 52 83 53 36 55
REMARK SMILES IDX 70 56 49 57 69 58 50 59 53 60 68 61 88 62 51 63 52 64 67 66
REMARK SMILES IDX 89 67 54 68 37 69 38 70 47 71 39 72 40 73 46 74 48 75 41 76
REMARK SMILES IDX 42 77 43 78 44 79 45 80 71 81 72 82 81 83 73 84 74 85 80 86
REMARK SMILES IDX 82 87 75 88 76 89 77 90 78 91 79 92 55 93 56 94 65 95 57 96
REMARK SMILES IDX 58 97 64 98 66 99 59 100 60 101 61 102 62 103 63 104
REMARK H PARENT 15 8 96 18 87 54 53 65
REMARK Flexibility Score: inf
ROOT
ATOM      1  C   UNL A   1      33.898  31.595  27.934  1.00  0.00     0.202 C 
ENDROOT
BRANCH   1   2
ATOM      2  C   UNL A   1      33.583  30.218  27.343  1.00  0.00     0.261 C 
BRANCH   2   3
ATOM      3  O   UNL A   1      32.173  30.011  27.166  1.00  0.00    -0.462 OA
BRANCH   3   4
ATOM      4  C   UNL A   1      31.759  28.719  27.258  1.00  0.00     0.325 C 
ATOM      5  O   UNL A   1      31.053  28.277  28.162  1.00  0.00    -0.250 OA
BRANCH   4   6
ATOM      6  C   UNL A   1      32.199  27.833  26.099  1.00  0.00     0.237 C 
BRANCH   6   7
ATOM      7  N   UNL A   1      32.011  26.386  26.264  1.00  0.00    -0.359 N 
ATOM      8  H   UNL A   1      31.488  26.031  27.020  1.00  0.00     0.162 HD
BRANCH   7   9
ATOM      9  C   UNL A   1      32.582  25.526  25.336  1.00  0.00     0.129 A 
ATOM     10  C   UNL A   1      34.274  23.832  24.788  1.00  0.00    -0.003 A 
ATOM     11  C   UNL A   1      33.660  24.710  25.712  1.00  0.00     0.056 A 
ATOM     12  C   UNL A   1      33.703  23.806  23.495  1.00  0.00     0.027 A 
ATOM     13  C   UNL A   1      32.629  24.650  23.255  1.00  0.00     0.140 A 
ATOM     14  C   UNL A   1      33.923  23.097  22.275  1.00  0.00     0.030 A 
ATOM     15  N   UNL A   1      32.057  25.511  24.102  1.00  0.00    -0.213 NA
ATOM     16  N   UNL A   1      32.208  24.469  21.968  1.00  0.00    -0.346 N 
ATOM     17  C   UNL A   1      32.993  23.533  21.352  1.00  0.00     0.085 A 
ATOM     18  H   UNL A   1      31.454  24.941  21.547  1.00  0.00     0.167 HD
BRANCH  10  19
ATOM     19  C   UNL A   1      35.442  22.973  25.085  1.00  0.00    -0.005 A 
ATOM     20  C   UNL A   1      35.381  21.569  25.200  1.00  0.00     0.047 A 
ATOM     21  C   UNL A   1      36.559  20.812  25.374  1.00  0.00     0.014 A 
ATOM     22  C   UNL A   1      37.801  21.425  25.466  1.00  0.00     0.001 A 
ATOM     23  C   UNL A   1      36.718  23.569  25.225  1.00  0.00     0.009 A 
ATOM     24  C   UNL A   1      37.879  22.809  25.406  1.00  0.00     0.001 A 
BRANCH  20  25
ATOM     25  C   UNL A   1      34.146  20.821  25.144  1.00  0.00     0.248 A 
ATOM     26  C   UNL A   1      32.318  18.445  23.306  1.00  0.00     0.113 C 
ATOM     27  C   UNL A   1      32.773  19.488  24.239  1.00  0.00     0.213 A 
ATOM     28  N   UNL A   1      32.117  20.119  25.188  1.00  0.00    -0.113 NA
ATOM     29  O   UNL A   1      34.076  19.884  24.146  1.00  0.00    -0.421 OA
ATOM     30  N   UNL A   1      33.015  20.967  25.795  1.00  0.00    -0.108 NA
ENDBRANCH  20  25
ENDBRANCH  10  19
ENDBRANCH   7   9
ENDBRANCH   6   7
ENDBRANCH   4   6
ENDBRANCH   3   4
ENDBRANCH   2   3
ENDBRANCH   1   2
BRANCH   1  31
ATOM     31  O   UNL A   1      35.128  31.755  28.641  1.00  0.00    -0.374 OA
BRANCH  31  32
ATOM     32  C   UNL A   1      35.149  32.606  29.783  1.00  0.00     0.202 C 
BRANCH  32  33
ATOM     33  C   UNL A   1      35.223  31.965  31.175  1.00  0.00     0.261 C 
BRANCH  33  34
ATOM     34  O   UNL A   1      36.557  31.630  31.571  1.00  0.00    -0.460 OA
BRANCH  34  35
ATOM     35  C   UNL A   1      36.936  30.363  31.270  1.00  0.00     0.338 C 
ATOM     36  O   UNL A   1      36.251  29.355  31.390  1.00  0.00    -0.246 OA
BRANCH  35  37
ATOM     37  C   UNL A   1      38.295  30.344  30.679  1.00  0.00     0.060 A 
ATOM     38  C   UNL A   1      38.419  30.341  29.287  1.00  0.00     0.016 A 
ATOM     39  C   UNL A   1      39.438  30.270  31.474  1.00  0.00     0.016 A 
ATOM     40  C   UNL A   1      39.665  30.123  28.701  1.00  0.00     0.010 A 
ATOM     41  C   UNL A   1      40.678  30.004  30.896  1.00  0.00     0.010 A 
ATOM     42  C   UNL A   1      40.783  29.877  29.508  1.00  0.00    -0.014 A 
BRANCH  42  43
ATOM     43  C   UNL A   1      42.053  29.435  28.899  1.00  0.00     0.031 A 
ATOM     44  C   UNL A   1      43.177  30.414  28.723  1.00  0.00     0.074 A 
ATOM     45  C   UNL A   1      42.180  28.160  28.501  1.00  0.00     0.049 A 
ATOM     46  N   UNL A   1      44.413  30.197  28.359  1.00  0.00    -0.248 NA
ATOM     47  C   UNL A   1      42.866  31.829  28.985  1.00  0.00     0.031 C 
ATOM     48  C   UNL A   1      41.125  27.150  28.572  1.00  0.00     0.029 A 
ATOM     49  N   UNL A   1      43.249  27.500  27.958  1.00  0.00    -0.354 N 
ATOM     50  C   UNL A   1      45.040  31.437  28.381  1.00  0.00     0.074 A 
ATOM     51  C   UNL A   1      44.032  32.413  28.737  1.00  0.00     0.031 C 
ATOM     52  C   UNL A   1      41.604  25.990  28.096  1.00  0.00     0.029 A 
ATOM     53  C   UNL A   1      42.997  26.177  27.694  1.00  0.00     0.049 A 
ATOM     54  H   UNL A   1      44.115  27.932  27.774  1.00  0.00     0.167 HD
ATOM     55  C   UNL A   1      46.344  31.725  28.144  1.00  0.00     0.037 A 
ATOM     56  C   UNL A   1      43.809  25.224  27.204  1.00  0.00     0.037 A 
ATOM     57  C   UNL A   1      47.316  30.738  27.738  1.00  0.00     0.049 A 
ATOM     58  C   UNL A   1      45.246  25.568  26.923  1.00  0.00     0.074 A 
ATOM     59  C   UNL A   1      48.670  30.901  27.509  1.00  0.00     0.029 A 
ATOM     60  N   UNL A   1      47.025  29.405  27.473  1.00  0.00    -0.354 N 
ATOM     61  N   UNL A   1      45.866  26.716  27.068  1.00  0.00    -0.248 NA
ATOM     62  C   UNL A   1      46.104  24.478  26.439  1.00  0.00     0.031 C 
ATOM     63  C   UNL A   1      49.187  29.684  27.050  1.00  0.00     0.029 A 
ATOM     64  C   UNL A   1      48.169  28.743  27.057  1.00  0.00     0.049 A 
ATOM     65  H   UNL A   1      46.137  28.991  27.567  1.00  0.00     0.167 HD
ATOM     66  C   UNL A   1      47.193  26.479  26.727  1.00  0.00     0.074 A 
ATOM     67  C   UNL A   1      47.286  25.075  26.380  1.00  0.00     0.031 C 
ATOM     68  C   UNL A   1      48.242  27.342  26.712  1.00  0.00     0.037 A 
BRANCH  55  69
ATOM     69  C   UNL A   1      46.793  33.153  28.320  1.00  0.00     0.058 A 
ATOM     70  C   UNL A   1      47.320  33.612  29.539  1.00  0.00     0.135 A 
ATOM     71  C   UNL A   1      46.740  34.066  27.253  1.00  0.00     0.135 A 
ATOM     72  F   UNL A   1      47.391  32.789  30.598  1.00  0.00    -0.206 F 
ATOM     73  C   UNL A   1      47.744  34.928  29.704  1.00  0.00     0.059 A 
ATOM     74  C   UNL A   1      47.187  35.379  27.387  1.00  0.00     0.059 A 
ATOM     75  F   UNL A   1      46.252  33.687  26.062  1.00  0.00    -0.206 F 
ATOM     76  C   UNL A   1      47.671  35.805  28.623  1.00  0.00     0.060 A 
BRANCH  76  77
ATOM     77  S   UNL A   1      48.216  37.511  28.860  1.00  0.00     0.124 S 
ATOM     78  O   UNL A   1      47.433  38.211  27.846  1.00  0.00    -0.237 OA
ATOM     79  O   UNL A   1      47.834  37.770  30.245  1.00  0.00    -0.237 OA
ATOM     80  O   UNL A   1      49.653  37.449  28.610  1.00  0.00    -0.744 OA
ENDBRANCH  76  77
ENDBRANCH  55  69
BRANCH  56  81
ATOM     81  C   UNL A   1      43.290  23.844  27.025  1.00  0.00     0.058 A 
ATOM     82  C   UNL A   1      42.925  23.372  25.757  1.00  0.00     0.135 A 
ATOM     83  C   UNL A   1      43.191  22.958  28.108  1.00  0.00     0.135 A 
ATOM     84  F   UNL A   1      43.006  24.184  24.691  1.00  0.00    -0.206 F 
ATOM     85  C   UNL A   1      42.463  22.075  25.568  1.00  0.00     0.059 A 
ATOM     86  C   UNL A   1      42.755  21.647  27.941  1.00  0.00     0.059 A 
ATOM     87  F   UNL A   1      43.549  23.354  29.339  1.00  0.00    -0.206 F 
ATOM     88  C   UNL A   1      42.385  21.218  26.666  1.00  0.00     0.060 A 
BRANCH  88  89
ATOM     89  S   UNL A   1      41.830  19.522  26.398  1.00  0.00     0.124 S 
ATOM     90  O   UNL A   1      42.349  18.852  27.586  1.00  0.00    -0.237 OA
ATOM     91  O   UNL A   1      40.381  19.681  26.337  1.00  0.00    -0.237 OA
ATOM     92  O   UNL A   1      42.468  19.153  25.138  1.00  0.00    -0.744 OA
ENDBRANCH  88  89
ENDBRANCH  56  81
BRANCH  68  93
ATOM     93  C   UNL A   1      49.588  26.781  26.340  1.00  0.00     0.058 A 
ATOM     94  C   UNL A   1      50.116  26.911  25.045  1.00  0.00     0.135 A 
ATOM     95  C   UNL A   1      50.380  26.139  27.307  1.00  0.00     0.135 A 
ATOM     96  F   UNL A   1      49.401  27.511  24.080  1.00  0.00    -0.206 F 
ATOM     97  C   UNL A   1      51.366  26.396  24.714  1.00  0.00     0.059 A 
ATOM     98  C   UNL A   1      51.646  25.645  27.007  1.00  0.00     0.059 A 
ATOM     99  F   UNL A   1      49.930  25.996  28.564  1.00  0.00    -0.206 F 
ATOM    100  C   UNL A   1      52.124  25.766  25.703  1.00  0.00     0.060 A 
BRANCH 100 101
ATOM    101  S   UNL A   1      53.754  25.126  25.265  1.00  0.00     0.124 S 
ATOM    102  O   UNL A   1      53.831  25.461  23.847  1.00  0.00    -0.237 OA
ATOM    103  O   UNL A   1      54.635  25.888  26.145  1.00  0.00    -0.237 OA
ATOM    104  O   UNL A   1      53.654  23.702  25.569  1.00  0.00    -0.744 OA
ENDBRANCH 100 101
ENDBRANCH  68  93
ENDBRANCH  42  43
ENDBRANCH  35  37
ENDBRANCH  34  35
ENDBRANCH  33  34
ENDBRANCH  32  33
ENDBRANCH  31  32
ENDBRANCH   1  31
TORSDOF 21
ENDMDL
