MODEL 1
REMARK VINA RESULT:     -10.4      0.000      0.000
REMARK SMILES C[C@@H]1CCC[C@H]1NC(=O)c1csc(/C=C/C(=O)OCCOCCOC(=O)c2ccc(-c3c4nc(c(-c5c(F)cc(S(=O)(=O)[O-])cc5F)c5ccc([nH]5)c(-c5c(F)cc(S(=O)(=O)[O-])cc5F)c5nc(c(-c6c(F)cc(S(=O)(=O)[O-])cc6F)c6ccc3[nH]6)C=C5)C=C4)cc2)c1
REMARK SMILES IDX 21 1 20 2 19 3 18 4 16 5 17 6 15 7 14 8 13 9 10 10 11 11
REMARK SMILES IDX 93 12 12 13 8 14 7 15 9 17 6 18 1 19 2 20 3 21 4 22 5 23
REMARK SMILES IDX 22 24 23 25 24 26 25 27 26 28 27 29 28 30 92 31 29 32 91 33
REMARK SMILES IDX 30 34 31 35 32 36 85 37 33 38 90 39 84 40 86 41 34 42 89 43
REMARK SMILES IDX 83 44 82 45 35 47 69 48 48 49 68 50 49 51 52 52 67 53 87 54
REMARK SMILES IDX 50 55 51 56 66 58 88 59 53 60 36 61 37 62 46 63 38 64 39 65
REMARK SMILES IDX 45 66 47 67 40 68 41 69 42 70 43 71 44 72 70 73 71 74 80 75
REMARK SMILES IDX 72 76 73 77 79 78 81 79 74 80 75 81 76 82 77 83 78 84 54 85
REMARK SMILES IDX 55 86 64 87 56 88 57 89 63 90 65 91 58 92 59 93 60 94 61 95
REMARK SMILES IDX 62 96
REMARK H PARENT 7 16 86 46 52 57
REMARK Flexibility Score: inf
ROOT
ATOM      1  O   UNL A   1      35.373  33.581  29.045  1.00  0.00    -0.374 OA
ENDROOT
BRANCH   1   2
ATOM      2  C   UNL A   1      35.150  32.780  27.883  1.00  0.00     0.202 C 
BRANCH   2   3
ATOM      3  C   UNL A   1      34.104  31.675  28.049  1.00  0.00     0.261 C 
BRANCH   3   4
ATOM      4  O   UNL A   1      34.183  30.725  26.972  1.00  0.00    -0.460 OA
BRANCH   4   5
ATOM      5  C   UNL A   1      34.661  29.506  27.312  1.00  0.00     0.330 C 
ATOM      6  O   UNL A   1      35.723  29.266  27.867  1.00  0.00    -0.247 OA
BRANCH   5   7
ATOM      7  C   UNL A   1      33.706  28.421  27.012  1.00  0.00     0.095 C 
ATOM      8  C   UNL A   1      33.152  28.145  25.820  1.00  0.00     0.026 C 
BRANCH   8   9
ATOM      9  C   UNL A   1      32.242  27.054  25.635  1.00  0.00     0.028 A 
ATOM     10  C   UNL A   1      31.213  24.918  25.845  1.00  0.00     0.051 A 
ATOM     11  C   UNL A   1      30.302  25.609  25.073  1.00  0.00     0.079 A 
ATOM     12  C   UNL A   1      32.325  25.778  26.173  1.00  0.00     0.033 A 
ATOM     13  S   UNL A   1      30.836  27.165  24.642  1.00  0.00    -0.144 S 
BRANCH  10  14
ATOM     14  C   UNL A   1      31.034  23.569  26.374  1.00  0.00     0.252 C 
ATOM     15  N   UNL A   1      31.606  22.486  25.756  1.00  0.00    -0.349 N 
ATOM     16  H   UNL A   1      31.266  21.614  26.062  1.00  0.00     0.164 HD
ATOM     17  O   UNL A   1      30.366  23.365  27.387  1.00  0.00    -0.269 OA
BRANCH  15  18
ATOM     18  C   UNL A   1      32.635  22.405  24.723  1.00  0.00     0.085 C 
ATOM     19  C   UNL A   1      35.157  22.406  24.456  1.00  0.00     0.010 C 
ATOM     20  C   UNL A   1      33.979  21.963  25.324  1.00  0.00     0.008 C 
ATOM     21  C   UNL A   1      33.856  20.440  25.379  1.00  0.00     0.005 C 
ATOM     22  C   UNL A   1      33.052  20.055  24.142  1.00  0.00     0.002 C 
ATOM     23  C   UNL A   1      32.289  21.310  23.708  1.00  0.00     0.025 C 
ENDBRANCH  15  18
ENDBRANCH  10  14
ENDBRANCH   8   9
ENDBRANCH   5   7
ENDBRANCH   4   5
ENDBRANCH   3   4
ENDBRANCH   2   3
ENDBRANCH   1   2
BRANCH   1  24
ATOM     24  C   UNL A   1      34.415  33.452  30.098  1.00  0.00     0.202 C 
BRANCH  24  25
ATOM     25  C   UNL A   1      34.960  32.886  31.416  1.00  0.00     0.261 C 
BRANCH  25  26
ATOM     26  O   UNL A   1      35.636  31.630  31.216  1.00  0.00    -0.460 OA
BRANCH  26  27
ATOM     27  C   UNL A   1      36.689  31.413  32.037  1.00  0.00     0.338 C 
ATOM     28  O   UNL A   1      36.721  31.573  33.252  1.00  0.00    -0.246 OA
BRANCH  27  29
ATOM     29  C   UNL A   1      37.793  30.772  31.295  1.00  0.00     0.060 A 
ATOM     30  C   UNL A   1      38.740  30.059  32.040  1.00  0.00     0.016 A 
ATOM     31  C   UNL A   1      37.941  30.912  29.912  1.00  0.00     0.016 A 
ATOM     32  C   UNL A   1      39.867  29.530  31.415  1.00  0.00     0.010 A 
ATOM     33  C   UNL A   1      39.077  30.383  29.287  1.00  0.00     0.010 A 
ATOM     34  C   UNL A   1      40.063  29.723  30.042  1.00  0.00    -0.014 A 
BRANCH  34  35
ATOM     35  C   UNL A   1      41.368  29.356  29.436  1.00  0.00     0.031 A 
ATOM     36  C   UNL A   1      42.453  30.397  29.352  1.00  0.00     0.074 A 
ATOM     37  C   UNL A   1      41.602  28.101  29.014  1.00  0.00     0.049 A 
ATOM     38  N   UNL A   1      43.668  30.292  28.880  1.00  0.00    -0.248 NA
ATOM     39  C   UNL A   1      42.123  31.734  29.871  1.00  0.00     0.031 C 
ATOM     40  C   UNL A   1      40.643  26.998  29.070  1.00  0.00     0.029 A 
ATOM     41  N   UNL A   1      42.724  27.543  28.453  1.00  0.00    -0.354 N 
ATOM     42  C   UNL A   1      44.248  31.544  29.044  1.00  0.00     0.074 A 
ATOM     43  C   UNL A   1      43.242  32.404  29.628  1.00  0.00     0.031 C 
ATOM     44  C   UNL A   1      41.218  25.895  28.560  1.00  0.00     0.029 A 
ATOM     45  C   UNL A   1      42.574  26.217  28.121  1.00  0.00     0.049 A 
ATOM     46  H   UNL A   1      43.557  28.045  28.303  1.00  0.00     0.167 HD
ATOM     47  C   UNL A   1      45.509  31.939  28.748  1.00  0.00     0.037 A 
ATOM     48  C   UNL A   1      43.430  25.367  27.521  1.00  0.00     0.037 A 
ATOM     49  C   UNL A   1      46.510  31.084  28.167  1.00  0.00     0.049 A 
ATOM     50  C   UNL A   1      44.810  25.845  27.150  1.00  0.00     0.074 A 
ATOM     51  C   UNL A   1      47.822  31.388  27.842  1.00  0.00     0.029 A 
ATOM     52  N   UNL A   1      46.311  29.755  27.819  1.00  0.00    -0.354 N 
ATOM     53  N   UNL A   1      45.353  27.026  27.334  1.00  0.00    -0.248 NA
ATOM     54  C   UNL A   1      45.697  24.872  26.495  1.00  0.00     0.031 C 
ATOM     55  C   UNL A   1      48.403  30.256  27.261  1.00  0.00     0.029 A 
ATOM     56  C   UNL A   1      47.468  29.232  27.265  1.00  0.00     0.049 A 
ATOM     57  H   UNL A   1      45.471  29.258  27.948  1.00  0.00     0.167 HD
ATOM     58  C   UNL A   1      46.651  26.929  26.843  1.00  0.00     0.074 A 
ATOM     59  C   UNL A   1      46.815  25.573  26.362  1.00  0.00     0.031 C 
ATOM     60  C   UNL A   1      47.619  27.877  26.796  1.00  0.00     0.037 A 
BRANCH  47  61
ATOM     61  C   UNL A   1      45.873  33.371  29.032  1.00  0.00     0.058 A 
ATOM     62  C   UNL A   1      45.666  34.385  28.083  1.00  0.00     0.135 A 
ATOM     63  C   UNL A   1      46.409  33.737  30.276  1.00  0.00     0.135 A 
ATOM     64  F   UNL A   1      45.173  34.086  26.871  1.00  0.00    -0.206 F 
ATOM     65  C   UNL A   1      46.000  35.709  28.350  1.00  0.00     0.059 A 
ATOM     66  C   UNL A   1      46.729  35.059  30.574  1.00  0.00     0.059 A 
ATOM     67  F   UNL A   1      46.630  32.806  31.218  1.00  0.00    -0.206 F 
ATOM     68  C   UNL A   1      46.534  36.035  29.598  1.00  0.00     0.060 A 
BRANCH  68  69
ATOM     69  S   UNL A   1      46.963  37.757  29.931  1.00  0.00     0.124 S 
ATOM     70  O   UNL A   1      47.073  37.753  31.386  1.00  0.00    -0.237 OA
ATOM     71  O   UNL A   1      48.218  37.915  29.201  1.00  0.00    -0.237 OA
ATOM     72  O   UNL A   1      45.830  38.500  29.389  1.00  0.00    -0.744 OA
ENDBRANCH  68  69
ENDBRANCH  47  61
BRANCH  48  73
ATOM     73  C   UNL A   1      43.008  23.971  27.232  1.00  0.00     0.058 A 
ATOM     74  C   UNL A   1      43.046  22.980  28.223  1.00  0.00     0.135 A 
ATOM     75  C   UNL A   1      42.564  23.600  25.953  1.00  0.00     0.135 A 
ATOM     76  F   UNL A   1      43.474  23.284  29.458  1.00  0.00    -0.206 F 
ATOM     77  C   UNL A   1      42.669  21.668  27.957  1.00  0.00     0.059 A 
ATOM     78  C   UNL A   1      42.160  22.299  25.667  1.00  0.00     0.059 A 
ATOM     79  F   UNL A   1      42.501  24.513  24.971  1.00  0.00    -0.206 F 
ATOM     80  C   UNL A   1      42.227  21.337  26.674  1.00  0.00     0.060 A 
BRANCH  80  81
ATOM     81  S   UNL A   1      41.695  19.642  26.349  1.00  0.00     0.124 S 
ATOM     82  O   UNL A   1      42.046  18.981  27.601  1.00  0.00    -0.237 OA
ATOM     83  O   UNL A   1      40.269  19.811  26.092  1.00  0.00    -0.237 OA
ATOM     84  O   UNL A   1      42.492  19.259  25.187  1.00  0.00    -0.744 OA
ENDBRANCH  80  81
ENDBRANCH  48  73
BRANCH  60  85
ATOM     85  C   UNL A   1      48.956  27.475  26.236  1.00  0.00     0.058 A 
ATOM     86  C   UNL A   1      50.004  27.047  27.064  1.00  0.00     0.135 A 
ATOM     87  C   UNL A   1      49.175  27.477  24.849  1.00  0.00     0.135 A 
ATOM     88  F   UNL A   1      49.848  27.031  28.397  1.00  0.00    -0.206 F 
ATOM     89  C   UNL A   1      51.232  26.657  26.538  1.00  0.00     0.059 A 
ATOM     90  C   UNL A   1      50.386  27.068  24.299  1.00  0.00     0.059 A 
ATOM     91  F   UNL A   1      48.201  27.868  24.011  1.00  0.00    -0.206 F 
ATOM     92  C   UNL A   1      51.413  26.672  25.154  1.00  0.00     0.060 A 
BRANCH  92  93
ATOM     93  S   UNL A   1      53.002  26.140  24.481  1.00  0.00     0.124 S 
ATOM     94  O   UNL A   1      53.906  27.146  25.028  1.00  0.00    -0.237 OA
ATOM     95  O   UNL A   1      53.143  24.795  25.032  1.00  0.00    -0.237 OA
ATOM     96  O   UNL A   1      52.796  26.198  23.037  1.00  0.00    -0.744 OA
ENDBRANCH  92  93
ENDBRANCH  60  85
ENDBRANCH  34  35
ENDBRANCH  27  29
ENDBRANCH  26  27
ENDBRANCH  25  26
ENDBRANCH  24  25
ENDBRANCH   1  24
TORSDOF 20
ENDMDL
MODEL 2
REMARK VINA RESULT:     -10.4      1.359      2.109
REMARK SMILES C[C@@H]1CCC[C@H]1NC(=O)c1csc(/C=C/C(=O)OCCOCCOC(=O)c2ccc(-c3c4nc(c(-c5c(F)cc(S(=O)(=O)[O-])cc5F)c5ccc([nH]5)c(-c5c(F)cc(S(=O)(=O)[O-])cc5F)c5nc(c(-c6c(F)cc(S(=O)(=O)[O-])cc6F)c6ccc3[nH]6)C=C5)C=C4)cc2)c1
REMARK SMILES IDX 21 1 20 2 19 3 18 4 16 5 17 6 15 7 14 8 13 9 10 10 11 11
REMARK SMILES IDX 93 12 12 13 8 14 7 15 9 17 6 18 1 19 2 20 3 21 4 22 5 23
REMARK SMILES IDX 22 24 23 25 24 26 25 27 26 28 27 29 28 30 92 31 29 32 91 33
REMARK SMILES IDX 30 34 31 35 32 36 85 37 33 38 90 39 84 40 86 41 34 42 89 43
REMARK SMILES IDX 83 44 82 45 35 47 69 48 48 49 68 50 49 51 52 52 67 53 87 54
REMARK SMILES IDX 50 55 51 56 66 58 88 59 53 60 36 61 37 62 46 63 38 64 39 65
REMARK SMILES IDX 45 66 47 67 40 68 41 69 42 70 43 71 44 72 70 73 71 74 80 75
REMARK SMILES IDX 72 76 73 77 79 78 81 79 74 80 75 81 76 82 77 83 78 84 54 85
REMARK SMILES IDX 55 86 64 87 56 88 57 89 63 90 65 91 58 92 59 93 60 94 61 95
REMARK SMILES IDX 62 96
REMARK H PARENT 7 16 86 46 52 57
REMARK Flexibility Score: inf
ROOT
ATOM      1  O   UNL A   1      33.710  32.504  27.832  1.00  0.00    -0.374 OA
ENDROOT
BRANCH   1   2
ATOM      2  C   UNL A   1      33.521  31.121  27.526  1.00  0.00     0.202 C 
BRANCH   2   3
ATOM      3  C   UNL A   1      32.311  30.813  26.641  1.00  0.00     0.261 C 
BRANCH   3   4
ATOM      4  O   UNL A   1      31.792  29.500  26.916  1.00  0.00    -0.460 OA
BRANCH   4   5
ATOM      5  C   UNL A   1      31.486  28.761  25.825  1.00  0.00     0.330 C 
ATOM      6  O   UNL A   1      31.136  29.182  24.732  1.00  0.00    -0.247 OA
BRANCH   5   7
ATOM      7  C   UNL A   1      31.693  27.317  26.044  1.00  0.00     0.095 C 
ATOM      8  C   UNL A   1      32.022  26.402  25.117  1.00  0.00     0.026 C 
BRANCH   8   9
ATOM      9  C   UNL A   1      32.212  25.019  25.443  1.00  0.00     0.028 A 
ATOM     10  C   UNL A   1      33.145  23.026  26.348  1.00  0.00     0.051 A 
ATOM     11  C   UNL A   1      31.943  22.582  25.835  1.00  0.00     0.079 A 
ATOM     12  C   UNL A   1      33.276  24.446  26.123  1.00  0.00     0.033 A 
ATOM     13  S   UNL A   1      31.089  23.789  24.995  1.00  0.00    -0.144 S 
BRANCH  10  14
ATOM     14  C   UNL A   1      34.089  22.225  27.122  1.00  0.00     0.252 C 
ATOM     15  N   UNL A   1      35.038  21.454  26.500  1.00  0.00    -0.349 N 
ATOM     16  H   UNL A   1      35.487  20.805  27.088  1.00  0.00     0.164 HD
ATOM     17  O   UNL A   1      34.062  22.221  28.352  1.00  0.00    -0.269 OA
BRANCH  15  18
ATOM     18  C   UNL A   1      35.497  21.433  25.115  1.00  0.00     0.085 C 
ATOM     19  C   UNL A   1      36.546  22.942  23.367  1.00  0.00     0.010 C 
ATOM     20  C   UNL A   1      36.491  22.576  24.851  1.00  0.00     0.008 C 
ATOM     21  C   UNL A   1      37.822  22.007  25.344  1.00  0.00     0.005 C 
ATOM     22  C   UNL A   1      37.776  20.521  25.005  1.00  0.00     0.002 C 
ATOM     23  C   UNL A   1      36.299  20.156  24.836  1.00  0.00     0.025 C 
ENDBRANCH  15  18
ENDBRANCH  10  14
ENDBRANCH   8   9
ENDBRANCH   5   7
ENDBRANCH   4   5
ENDBRANCH   3   4
ENDBRANCH   2   3
ENDBRANCH   1   2
BRANCH   1  24
ATOM     24  C   UNL A   1      35.025  32.889  28.240  1.00  0.00     0.202 C 
BRANCH  24  25
ATOM     25  C   UNL A   1      35.350  32.650  29.719  1.00  0.00     0.261 C 
BRANCH  25  26
ATOM     26  O   UNL A   1      35.798  31.301  29.953  1.00  0.00    -0.460 OA
BRANCH  26  27
ATOM     27  C   UNL A   1      36.772  31.177  30.884  1.00  0.00     0.338 C 
ATOM     28  O   UNL A   1      36.695  31.465  32.073  1.00  0.00    -0.246 OA
BRANCH  27  29
ATOM     29  C   UNL A   1      37.934  30.465  30.316  1.00  0.00     0.060 A 
ATOM     30  C   UNL A   1      38.906  30.003  31.212  1.00  0.00     0.016 A 
ATOM     31  C   UNL A   1      38.109  30.304  28.939  1.00  0.00     0.016 A 
ATOM     32  C   UNL A   1      40.081  29.429  30.734  1.00  0.00     0.010 A 
ATOM     33  C   UNL A   1      39.294  29.731  28.460  1.00  0.00     0.010 A 
ATOM     34  C   UNL A   1      40.300  29.325  29.354  1.00  0.00    -0.014 A 
BRANCH  34  35
ATOM     35  C   UNL A   1      41.642  28.925  28.861  1.00  0.00     0.031 A 
ATOM     36  C   UNL A   1      42.738  29.956  28.808  1.00  0.00     0.074 A 
ATOM     37  C   UNL A   1      41.895  27.650  28.512  1.00  0.00     0.049 A 
ATOM     38  N   UNL A   1      43.983  29.823  28.429  1.00  0.00    -0.248 NA
ATOM     39  C   UNL A   1      42.383  31.316  29.242  1.00  0.00     0.031 C 
ATOM     40  C   UNL A   1      40.926  26.556  28.549  1.00  0.00     0.029 A 
ATOM     41  N   UNL A   1      43.049  27.062  28.059  1.00  0.00    -0.354 N 
ATOM     42  C   UNL A   1      44.561  31.079  28.578  1.00  0.00     0.074 A 
ATOM     43  C   UNL A   1      43.522  31.969  29.050  1.00  0.00     0.031 C 
ATOM     44  C   UNL A   1      41.526  25.428  28.131  1.00  0.00     0.029 A 
ATOM     45  C   UNL A   1      42.913  25.724  27.776  1.00  0.00     0.049 A 
ATOM     46  H   UNL A   1      43.895  27.553  27.946  1.00  0.00     0.167 HD
ATOM     47  C   UNL A   1      45.843  31.454  28.355  1.00  0.00     0.037 A 
ATOM     48  C   UNL A   1      43.802  24.843  27.278  1.00  0.00     0.037 A 
ATOM     49  C   UNL A   1      46.875  30.568  27.886  1.00  0.00     0.049 A 
ATOM     50  C   UNL A   1      45.209  25.297  26.985  1.00  0.00     0.074 A 
ATOM     51  C   UNL A   1      48.209  30.850  27.642  1.00  0.00     0.029 A 
ATOM     52  N   UNL A   1      46.691  29.226  27.585  1.00  0.00    -0.354 N 
ATOM     53  N   UNL A   1      45.747  26.482  27.154  1.00  0.00    -0.248 NA
ATOM     54  C   UNL A   1      46.132  24.291  26.439  1.00  0.00     0.031 C 
ATOM     55  C   UNL A   1      48.820  29.690  27.155  1.00  0.00     0.029 A 
ATOM     56  C   UNL A   1      47.880  28.673  27.138  1.00  0.00     0.049 A 
ATOM     57  H   UNL A   1      45.840  28.739  27.675  1.00  0.00     0.167 HD
ATOM     58  C   UNL A   1      47.076  26.357  26.762  1.00  0.00     0.074 A 
ATOM     59  C   UNL A   1      47.262  24.980  26.355  1.00  0.00     0.031 C 
ATOM     60  C   UNL A   1      48.052  27.297  26.742  1.00  0.00     0.037 A 
BRANCH  47  61
ATOM     61  C   UNL A   1      46.197  32.895  28.600  1.00  0.00     0.058 A 
ATOM     62  C   UNL A   1      46.096  33.860  27.586  1.00  0.00     0.135 A 
ATOM     63  C   UNL A   1      46.616  33.320  29.871  1.00  0.00     0.135 A 
ATOM     64  F   UNL A   1      45.717  33.504  26.349  1.00  0.00    -0.206 F 
ATOM     65  C   UNL A   1      46.421  35.193  27.816  1.00  0.00     0.059 A 
ATOM     66  C   UNL A   1      46.924  34.652  30.131  1.00  0.00     0.059 A 
ATOM     67  F   UNL A   1      46.732  32.437  30.875  1.00  0.00    -0.206 F 
ATOM     68  C   UNL A   1      46.837  35.579  29.093  1.00  0.00     0.060 A 
BRANCH  68  69
ATOM     69  S   UNL A   1      47.255  37.312  29.378  1.00  0.00     0.124 S 
ATOM     70  O   UNL A   1      46.489  37.973  28.326  1.00  0.00    -0.237 OA
ATOM     71  O   UNL A   1      46.781  37.530  30.741  1.00  0.00    -0.237 OA
ATOM     72  O   UNL A   1      48.705  37.342  29.211  1.00  0.00    -0.744 OA
ENDBRANCH  68  69
ENDBRANCH  47  61
BRANCH  48  73
ATOM     73  C   UNL A   1      43.391  23.437  27.021  1.00  0.00     0.058 A 
ATOM     74  C   UNL A   1      43.072  22.998  25.728  1.00  0.00     0.135 A 
ATOM     75  C   UNL A   1      43.304  22.506  28.068  1.00  0.00     0.135 A 
ATOM     76  F   UNL A   1      43.130  23.854  24.697  1.00  0.00    -0.206 F 
ATOM     77  C   UNL A   1      42.670  21.689  25.481  1.00  0.00     0.059 A 
ATOM     78  C   UNL A   1      42.927  21.186  27.844  1.00  0.00     0.059 A 
ATOM     79  F   UNL A   1      43.608  22.875  29.323  1.00  0.00    -0.206 F 
ATOM     80  C   UNL A   1      42.602  20.790  26.548  1.00  0.00     0.060 A 
BRANCH  80  81
ATOM     81  S   UNL A   1      42.124  19.081  26.212  1.00  0.00     0.124 S 
ATOM     82  O   UNL A   1      43.058  18.719  25.151  1.00  0.00    -0.237 OA
ATOM     83  O   UNL A   1      42.345  18.440  27.503  1.00  0.00    -0.237 OA
ATOM     84  O   UNL A   1      40.726  19.197  25.810  1.00  0.00    -0.744 OA
ENDBRANCH  80  81
ENDBRANCH  48  73
BRANCH  60  85
ATOM     85  C   UNL A   1      49.422  26.864  26.297  1.00  0.00     0.058 A 
ATOM     86  C   UNL A   1      50.311  26.217  27.170  1.00  0.00     0.135 A 
ATOM     87  C   UNL A   1      49.833  27.060  24.969  1.00  0.00     0.135 A 
ATOM     88  F   UNL A   1      49.969  26.010  28.451  1.00  0.00    -0.206 F 
ATOM     89  C   UNL A   1      51.569  25.801  26.746  1.00  0.00     0.059 A 
ATOM     90  C   UNL A   1      51.077  26.629  24.517  1.00  0.00     0.059 A 
ATOM     91  F   UNL A   1      49.017  27.664  24.090  1.00  0.00    -0.206 F 
ATOM     92  C   UNL A   1      51.944  26.012  25.418  1.00  0.00     0.060 A 
BRANCH  92  93
ATOM     93  S   UNL A   1      53.569  25.444  24.873  1.00  0.00     0.124 S 
ATOM     94  O   UNL A   1      53.563  25.840  23.468  1.00  0.00    -0.237 OA
ATOM     95  O   UNL A   1      54.472  26.196  25.739  1.00  0.00    -0.237 OA
ATOM     96  O   UNL A   1      53.527  24.006  25.121  1.00  0.00    -0.744 OA
ENDBRANCH  92  93
ENDBRANCH  60  85
ENDBRANCH  34  35
ENDBRANCH  27  29
ENDBRANCH  26  27
ENDBRANCH  25  26
ENDBRANCH  24  25
ENDBRANCH   1  24
TORSDOF 20
ENDMDL
MODEL 3
REMARK VINA RESULT:     -10.4      5.766     11.865
REMARK SMILES C[C@@H]1CCC[C@H]1NC(=O)c1csc(/C=C/C(=O)OCCOCCOC(=O)c2ccc(-c3c4nc(c(-c5c(F)cc(S(=O)(=O)[O-])cc5F)c5ccc([nH]5)c(-c5c(F)cc(S(=O)(=O)[O-])cc5F)c5nc(c(-c6c(F)cc(S(=O)(=O)[O-])cc6F)c6ccc3[nH]6)C=C5)C=C4)cc2)c1
REMARK SMILES IDX 21 1 20 2 19 3 18 4 16 5 17 6 15 7 14 8 13 9 10 10 11 11
REMARK SMILES IDX 93 12 12 13 8 14 7 15 9 17 6 18 1 19 2 20 3 21 4 22 5 23
REMARK SMILES IDX 22 24 23 25 24 26 25 27 26 28 27 29 28 30 92 31 29 32 91 33
REMARK SMILES IDX 30 34 31 35 32 36 85 37 33 38 90 39 84 40 86 41 34 42 89 43
REMARK SMILES IDX 83 44 82 45 35 47 69 48 48 49 68 50 49 51 52 52 67 53 87 54
REMARK SMILES IDX 50 55 51 56 66 58 88 59 53 60 36 61 37 62 46 63 38 64 39 65
REMARK SMILES IDX 45 66 47 67 40 68 41 69 42 70 43 71 44 72 70 73 71 74 80 75
REMARK SMILES IDX 72 76 73 77 79 78 81 79 74 80 75 81 76 82 77 83 78 84 54 85
REMARK SMILES IDX 55 86 64 87 56 88 57 89 63 90 65 91 58 92 59 93 60 94 61 95
REMARK SMILES IDX 62 96
REMARK H PARENT 7 16 86 46 52 57
REMARK Flexibility Score: inf
ROOT
ATOM      1  O   UNL A   1      41.593  21.633  26.725  1.00  0.00    -0.374 OA
ENDROOT
BRANCH   1   2
ATOM      2  C   UNL A   1      40.446  21.141  26.030  1.00  0.00     0.202 C 
BRANCH   2   3
ATOM      3  C   UNL A   1      39.154  21.925  26.275  1.00  0.00     0.261 C 
BRANCH   3   4
ATOM      4  O   UNL A   1      38.363  22.004  25.077  1.00  0.00    -0.460 OA
BRANCH   4   5
ATOM      5  C   UNL A   1      37.476  20.997  24.904  1.00  0.00     0.330 C 
ATOM      6  O   UNL A   1      37.729  19.803  24.846  1.00  0.00    -0.247 OA
BRANCH   5   7
ATOM      7  C   UNL A   1      36.080  21.474  24.866  1.00  0.00     0.095 C 
ATOM      8  C   UNL A   1      35.047  20.995  25.578  1.00  0.00     0.026 C 
BRANCH   8   9
ATOM      9  C   UNL A   1      33.728  21.544  25.473  1.00  0.00     0.028 A 
ATOM     10  C   UNL A   1      31.763  22.795  25.959  1.00  0.00     0.051 A 
ATOM     11  C   UNL A   1      31.494  22.304  24.698  1.00  0.00     0.079 A 
ATOM     12  C   UNL A   1      33.070  22.354  26.385  1.00  0.00     0.033 A 
ATOM     13  S   UNL A   1      32.694  21.245  24.124  1.00  0.00    -0.144 S 
BRANCH  10  14
ATOM     14  C   UNL A   1      30.926  23.729  26.707  1.00  0.00     0.252 C 
ATOM     15  N   UNL A   1      31.093  25.085  26.581  1.00  0.00    -0.349 N 
ATOM     16  H   UNL A   1      30.629  25.620  27.265  1.00  0.00     0.164 HD
ATOM     17  O   UNL A   1      30.047  23.328  27.469  1.00  0.00    -0.269 OA
BRANCH  15  18
ATOM     18  C   UNL A   1      31.839  25.872  25.603  1.00  0.00     0.085 C 
ATOM     19  C   UNL A   1      31.517  27.751  23.930  1.00  0.00     0.010 C 
ATOM     20  C   UNL A   1      31.116  27.193  25.297  1.00  0.00     0.008 C 
ATOM     21  C   UNL A   1      31.561  28.110  26.437  1.00  0.00     0.005 C 
ATOM     22  C   UNL A   1      33.004  27.716  26.731  1.00  0.00     0.002 C 
ATOM     23  C   UNL A   1      33.192  26.299  26.182  1.00  0.00     0.025 C 
ENDBRANCH  15  18
ENDBRANCH  10  14
ENDBRANCH   8   9
ENDBRANCH   5   7
ENDBRANCH   4   5
ENDBRANCH   3   4
ENDBRANCH   2   3
ENDBRANCH   1   2
BRANCH   1  24
ATOM     24  C   UNL A   1      42.490  22.450  25.971  1.00  0.00     0.202 C 
BRANCH  24  25
ATOM     25  C   UNL A   1      43.050  23.670  26.712  1.00  0.00     0.261 C 
BRANCH  25  26
ATOM     26  O   UNL A   1      43.153  24.817  25.846  1.00  0.00    -0.460 OA
BRANCH  26  27
ATOM     27  C   UNL A   1      42.090  25.653  25.878  1.00  0.00     0.338 C 
ATOM     28  O   UNL A   1      41.197  25.740  25.043  1.00  0.00    -0.246 OA
BRANCH  27  29
ATOM     29  C   UNL A   1      42.033  26.360  27.172  1.00  0.00     0.060 A 
ATOM     30  C   UNL A   1      40.963  26.059  28.024  1.00  0.00     0.016 A 
ATOM     31  C   UNL A   1      42.965  27.341  27.527  1.00  0.00     0.016 A 
ATOM     32  C   UNL A   1      40.787  26.775  29.206  1.00  0.00     0.010 A 
ATOM     33  C   UNL A   1      42.783  28.062  28.714  1.00  0.00     0.010 A 
ATOM     34  C   UNL A   1      41.674  27.808  29.539  1.00  0.00    -0.014 A 
BRANCH  34  35
ATOM     35  C   UNL A   1      41.347  28.706  30.675  1.00  0.00     0.031 A 
ATOM     36  C   UNL A   1      42.180  28.634  31.927  1.00  0.00     0.074 A 
ATOM     37  C   UNL A   1      40.354  29.609  30.574  1.00  0.00     0.049 A 
ATOM     38  N   UNL A   1      42.082  29.332  33.029  1.00  0.00    -0.248 NA
ATOM     39  C   UNL A   1      43.267  27.643  31.937  1.00  0.00     0.031 C 
ATOM     40  C   UNL A   1      39.498  29.796  29.404  1.00  0.00     0.029 A 
ATOM     41  N   UNL A   1      39.901  30.540  31.475  1.00  0.00    -0.354 N 
ATOM     42  C   UNL A   1      43.093  28.868  33.862  1.00  0.00     0.074 A 
ATOM     43  C   UNL A   1      43.771  27.804  33.153  1.00  0.00     0.031 C 
ATOM     44  C   UNL A   1      38.619  30.780  29.660  1.00  0.00     0.029 A 
ATOM     45  C   UNL A   1      38.834  31.277  31.018  1.00  0.00     0.049 A 
ATOM     46  H   UNL A   1      40.302  30.668  32.365  1.00  0.00     0.167 HD
ATOM     47  C   UNL A   1      43.435  29.297  35.101  1.00  0.00     0.037 A 
ATOM     48  C   UNL A   1      38.109  32.233  31.630  1.00  0.00     0.037 A 
ATOM     49  C   UNL A   1      42.760  30.355  35.805  1.00  0.00     0.049 A 
ATOM     50  C   UNL A   1      38.473  32.656  33.030  1.00  0.00     0.074 A 
ATOM     51  C   UNL A   1      43.040  30.872  37.059  1.00  0.00     0.029 A 
ATOM     52  N   UNL A   1      41.666  31.058  35.320  1.00  0.00    -0.354 N 
ATOM     53  N   UNL A   1      39.447  32.225  33.796  1.00  0.00    -0.248 NA
ATOM     54  C   UNL A   1      37.642  33.701  33.646  1.00  0.00     0.031 C 
ATOM     55  C   UNL A   1      42.091  31.858  37.348  1.00  0.00     0.029 A 
ATOM     56  C   UNL A   1      41.248  31.988  36.257  1.00  0.00     0.049 A 
ATOM     57  H   UNL A   1      41.250  30.916  34.439  1.00  0.00     0.167 HD
ATOM     58  C   UNL A   1      39.363  32.963  34.972  1.00  0.00     0.074 A 
ATOM     59  C   UNL A   1      38.249  33.874  34.813  1.00  0.00     0.031 C 
ATOM     60  C   UNL A   1      40.139  32.894  36.082  1.00  0.00     0.037 A 
BRANCH  47  61
ATOM     61  C   UNL A   1      44.583  28.606  35.782  1.00  0.00     0.058 A 
ATOM     62  C   UNL A   1      45.906  29.050  35.628  1.00  0.00     0.135 A 
ATOM     63  C   UNL A   1      44.356  27.503  36.620  1.00  0.00     0.135 A 
ATOM     64  F   UNL A   1      46.180  30.089  34.823  1.00  0.00    -0.206 F 
ATOM     65  C   UNL A   1      46.967  28.411  36.262  1.00  0.00     0.059 A 
ATOM     66  C   UNL A   1      45.399  26.862  37.283  1.00  0.00     0.059 A 
ATOM     67  F   UNL A   1      43.111  27.036  36.800  1.00  0.00    -0.206 F 
ATOM     68  C   UNL A   1      46.703  27.316  37.086  1.00  0.00     0.060 A 
BRANCH  68  69
ATOM     69  S   UNL A   1      48.088  26.495  37.903  1.00  0.00     0.124 S 
ATOM     70  O   UNL A   1      47.665  25.099  37.861  1.00  0.00    -0.237 OA
ATOM     71  O   UNL A   1      49.213  26.843  37.040  1.00  0.00    -0.237 OA
ATOM     72  O   UNL A   1      48.109  27.105  39.229  1.00  0.00    -0.744 OA
ENDBRANCH  68  69
ENDBRANCH  47  61
BRANCH  48  73
ATOM     73  C   UNL A   1      36.961  32.860  30.924  1.00  0.00     0.058 A 
ATOM     74  C   UNL A   1      35.641  32.473  31.196  1.00  0.00     0.135 A 
ATOM     75  C   UNL A   1      37.163  33.858  29.958  1.00  0.00     0.135 A 
ATOM     76  F   UNL A   1      35.398  31.516  32.104  1.00  0.00    -0.206 F 
ATOM     77  C   UNL A   1      34.561  33.043  30.529  1.00  0.00     0.059 A 
ATOM     78  C   UNL A   1      36.099  34.459  29.292  1.00  0.00     0.059 A 
ATOM     79  F   UNL A   1      38.407  34.271  29.667  1.00  0.00    -0.206 F 
ATOM     80  C   UNL A   1      34.802  34.037  29.578  1.00  0.00     0.060 A 
BRANCH  80  81
ATOM     81  S   UNL A   1      33.392  34.804  28.749  1.00  0.00     0.124 S 
ATOM     82  O   UNL A   1      34.002  36.001  28.182  1.00  0.00    -0.237 OA
ATOM     83  O   UNL A   1      32.999  33.774  27.794  1.00  0.00    -0.237 OA
ATOM     84  O   UNL A   1      32.448  35.031  29.839  1.00  0.00    -0.744 OA
ENDBRANCH  80  81
ENDBRANCH  48  73
BRANCH  60  85
ATOM     85  C   UNL A   1      39.835  33.851  37.201  1.00  0.00     0.058 A 
ATOM     86  C   UNL A   1      39.049  33.475  38.301  1.00  0.00     0.135 A 
ATOM     87  C   UNL A   1      40.374  35.148  37.194  1.00  0.00     0.135 A 
ATOM     88  F   UNL A   1      38.505  32.249  38.354  1.00  0.00    -0.206 F 
ATOM     89  C   UNL A   1      38.787  34.359  39.343  1.00  0.00     0.059 A 
ATOM     90  C   UNL A   1      40.147  36.041  38.237  1.00  0.00     0.059 A 
ATOM     91  F   UNL A   1      41.142  35.555  36.171  1.00  0.00    -0.206 F 
ATOM     92  C   UNL A   1      39.340  35.640  39.301  1.00  0.00     0.060 A 
BRANCH  92  93
ATOM     93  S   UNL A   1      39.016  36.771  40.672  1.00  0.00     0.124 S 
ATOM     94  O   UNL A   1      38.579  37.971  39.966  1.00  0.00    -0.237 OA
ATOM     95  O   UNL A   1      37.982  36.066  41.424  1.00  0.00    -0.237 OA
ATOM     96  O   UNL A   1      40.310  36.872  41.342  1.00  0.00    -0.744 OA
ENDBRANCH  92  93
ENDBRANCH  60  85
ENDBRANCH  34  35
ENDBRANCH  27  29
ENDBRANCH  26  27
ENDBRANCH  25  26
ENDBRANCH  24  25
ENDBRANCH   1  24
TORSDOF 20
ENDMDL
