MODEL 1
REMARK VINA RESULT:     -13.1      0.000      0.000
REMARK SMILES CC(=O)Nc1ccc(/C=C2/CCc3oc(C(=O)OCCOCCOC(=O)c4ccc(-c5c6nc(c(-c7c(F)cc(S(=O)(=O)[O-])cc7F)c7ccc([nH]7)c(-c7c(F)cc(S(=O)(=O)[O-])cc7F)c7nc(c(-c8c(F)cc(S(=O)(=O)[O-])cc8F)c8ccc5[nH]8)C=C7)C=C6)cc4)c(C)c3C2=O)cc1
REMARK SMILES IDX 22 1 21 2 20 3 19 4 18 5 16 6 17 7 15 8 9 9 10 10 11 11
REMARK SMILES IDX 96 12 12 13 95 14 97 15 13 16 93 17 14 18 94 19 8 20 5 21
REMARK SMILES IDX 6 22 99 23 7 24 98 25 4 26 1 27 2 28 3 29 23 31 24 32 25 33
REMARK SMILES IDX 26 34 27 35 28 36 92 37 29 38 91 39 30 40 31 41 32 42 85 43
REMARK SMILES IDX 33 44 90 45 84 46 86 47 34 48 89 49 83 50 82 51 35 53 69 54
REMARK SMILES IDX 48 55 68 56 49 57 52 58 67 59 87 60 50 61 51 62 66 64 88 65
REMARK SMILES IDX 53 66 36 67 37 68 46 69 38 70 39 71 45 72 47 73 40 74 41 75
REMARK SMILES IDX 42 76 43 77 44 78 70 79 71 80 80 81 72 82 73 83 79 84 81 85
REMARK SMILES IDX 74 86 75 87 76 88 77 89 78 90 54 91 55 92 64 93 56 94 57 95
REMARK SMILES IDX 63 96 65 97 58 98 59 99 60 100 61 101 62 102
REMARK H PARENT 4 30 86 52 52 63
REMARK Flexibility Score: inf
ROOT
ATOM      1  C   UNL A   1      40.508  20.125  26.841  1.00  0.00     0.202 C 
ENDROOT
BRANCH   1   2
ATOM      2  O   UNL A   1      40.095  21.451  27.150  1.00  0.00    -0.374 OA
BRANCH   2   3
ATOM      3  C   UNL A   1      39.419  22.216  26.153  1.00  0.00     0.202 C 
BRANCH   3   4
ATOM      4  C   UNL A   1      38.156  21.607  25.535  1.00  0.00     0.261 C 
BRANCH   4   5
ATOM      5  O   UNL A   1      37.012  22.466  25.646  1.00  0.00    -0.457 OA
BRANCH   5   6
ATOM      6  C   UNL A   1      36.329  22.669  24.479  1.00  0.00     0.374 C 
ATOM      7  O   UNL A   1      36.820  22.630  23.363  1.00  0.00    -0.242 OA
BRANCH   6   8
ATOM      8  C   UNL A   1      34.910  22.783  24.749  1.00  0.00     0.215 A 
ATOM      9  C   UNL A   1      30.217  25.402  25.863  1.00  0.00     0.016 C 
ATOM     10  C   UNL A   1      30.719  24.159  25.710  1.00  0.00     0.001 C 
ATOM     11  C   UNL A   1      30.821  23.156  26.855  1.00  0.00     0.048 C 
ATOM     12  C   UNL A   1      31.357  23.654  24.450  1.00  0.00     0.192 C 
ATOM     13  C   UNL A   1      32.294  22.837  27.218  1.00  0.00     0.081 C 
ATOM     14  C   UNL A   1      32.713  23.224  24.715  1.00  0.00     0.067 A 
ATOM     15  O   UNL A   1      30.814  23.627  23.356  1.00  0.00    -0.289 OA
ATOM     16  C   UNL A   1      33.111  22.855  25.979  1.00  0.00     0.116 A 
ATOM     17  C   UNL A   1      33.866  23.132  23.892  1.00  0.00     0.014 A 
ATOM     18  O   UNL A   1      34.432  22.567  26.018  1.00  0.00    -0.453 OA
ATOM     19  C   UNL A   1      33.941  23.408  22.434  1.00  0.00     0.049 C 
BRANCH   9  20
ATOM     20  C   UNL A   1      30.191  26.582  24.963  1.00  0.00    -0.025 A 
ATOM     21  C   UNL A   1      29.907  28.848  23.266  1.00  0.00     0.041 A 
ATOM     22  C   UNL A   1      30.971  28.754  24.156  1.00  0.00     0.027 A 
ATOM     23  C   UNL A   1      29.003  27.792  23.187  1.00  0.00     0.027 A 
ATOM     24  C   UNL A   1      31.081  27.658  25.020  1.00  0.00     0.010 A 
ATOM     25  C   UNL A   1      29.153  26.668  24.018  1.00  0.00     0.010 A 
BRANCH  21  26
ATOM     26  N   UNL A   1      29.845  29.999  22.468  1.00  0.00    -0.326 N 
ATOM     27  C   UNL A   1      27.970  31.164  23.599  1.00  0.00     0.114 C 
ATOM     28  C   UNL A   1      28.945  31.025  22.462  1.00  0.00     0.221 C 
ATOM     29  O   UNL A   1      29.004  31.874  21.571  1.00  0.00    -0.275 OA
ATOM     30  H   UNL A   1      30.569  30.081  21.806  1.00  0.00     0.169 HD
ENDBRANCH  21  26
ENDBRANCH   9  20
ENDBRANCH   6   8
ENDBRANCH   5   6
ENDBRANCH   4   5
ENDBRANCH   3   4
ENDBRANCH   2   3
ENDBRANCH   1   2
BRANCH   1  31
ATOM     31  C   UNL A   1      41.991  19.830  26.693  1.00  0.00     0.261 C 
BRANCH  31  32
ATOM     32  O   UNL A   1      42.506  20.164  25.413  1.00  0.00    -0.460 OA
BRANCH  32  33
ATOM     33  C   UNL A   1      43.807  20.544  25.444  1.00  0.00     0.338 C 
ATOM     34  O   UNL A   1      44.783  19.823  25.342  1.00  0.00    -0.246 OA
BRANCH  33  35
ATOM     35  C   UNL A   1      43.871  21.964  25.800  1.00  0.00     0.060 A 
ATOM     36  C   UNL A   1      44.651  22.311  26.906  1.00  0.00     0.016 A 
ATOM     37  C   UNL A   1      42.990  22.878  25.202  1.00  0.00     0.016 A 
ATOM     38  C   UNL A   1      44.435  23.532  27.508  1.00  0.00     0.010 A 
ATOM     39  C   UNL A   1      42.760  24.086  25.816  1.00  0.00     0.010 A 
ATOM     40  C   UNL A   1      43.440  24.374  26.997  1.00  0.00    -0.014 A 
BRANCH  40  41
ATOM     41  C   UNL A   1      43.250  25.671  27.616  1.00  0.00     0.031 A 
ATOM     42  C   UNL A   1      44.361  26.595  27.288  1.00  0.00     0.074 A 
ATOM     43  C   UNL A   1      42.129  26.006  28.286  1.00  0.00     0.049 A 
ATOM     44  N   UNL A   1      45.290  27.015  28.080  1.00  0.00    -0.248 NA
ATOM     45  C   UNL A   1      44.611  26.902  25.866  1.00  0.00     0.031 C 
ATOM     46  C   UNL A   1      40.892  25.228  28.408  1.00  0.00     0.029 A 
ATOM     47  N   UNL A   1      41.814  27.166  28.924  1.00  0.00    -0.354 N 
ATOM     48  C   UNL A   1      46.065  27.874  27.308  1.00  0.00     0.074 A 
ATOM     49  C   UNL A   1      45.769  27.560  25.939  1.00  0.00     0.031 C 
ATOM     50  C   UNL A   1      39.902  26.029  28.868  1.00  0.00     0.029 A 
ATOM     51  C   UNL A   1      40.455  27.333  29.191  1.00  0.00     0.049 A 
ATOM     52  H   UNL A   1      42.492  27.834  29.178  1.00  0.00     0.167 HD
ATOM     53  C   UNL A   1      46.619  28.985  27.866  1.00  0.00     0.037 A 
ATOM     54  C   UNL A   1      39.841  28.484  29.583  1.00  0.00     0.037 A 
ATOM     55  C   UNL A   1      46.665  28.861  29.304  1.00  0.00     0.049 A 
ATOM     56  C   UNL A   1      40.898  29.379  30.122  1.00  0.00     0.074 A 
ATOM     57  C   UNL A   1      47.224  27.957  30.185  1.00  0.00     0.029 A 
ATOM     58  N   UNL A   1      45.723  29.559  30.019  1.00  0.00    -0.354 N 
ATOM     59  N   UNL A   1      41.556  29.142  31.224  1.00  0.00    -0.248 NA
ATOM     60  C   UNL A   1      41.552  30.286  29.192  1.00  0.00     0.031 C 
ATOM     61  C   UNL A   1      46.281  27.844  31.249  1.00  0.00     0.029 A 
ATOM     62  C   UNL A   1      45.242  28.743  31.008  1.00  0.00     0.049 A 
ATOM     63  H   UNL A   1      45.443  30.487  29.850  1.00  0.00     0.167 HD
ATOM     64  C   UNL A   1      42.868  29.484  30.931  1.00  0.00     0.074 A 
ATOM     65  C   UNL A   1      42.789  30.264  29.697  1.00  0.00     0.031 C 
ATOM     66  C   UNL A   1      43.908  28.853  31.552  1.00  0.00     0.037 A 
BRANCH  53  67
ATOM     67  C   UNL A   1      46.682  30.331  27.171  1.00  0.00     0.058 A 
ATOM     68  C   UNL A   1      47.904  31.037  27.177  1.00  0.00     0.135 A 
ATOM     69  C   UNL A   1      45.554  31.085  26.769  1.00  0.00     0.135 A 
ATOM     70  F   UNL A   1      49.043  30.428  27.541  1.00  0.00    -0.206 F 
ATOM     71  C   UNL A   1      47.982  32.401  26.896  1.00  0.00     0.059 A 
ATOM     72  C   UNL A   1      45.620  32.431  26.434  1.00  0.00     0.059 A 
ATOM     73  F   UNL A   1      44.312  30.592  26.764  1.00  0.00    -0.206 F 
ATOM     74  C   UNL A   1      46.830  33.092  26.539  1.00  0.00     0.060 A 
BRANCH  74  75
ATOM     75  S   UNL A   1      46.909  34.864  26.247  1.00  0.00     0.124 S 
ATOM     76  O   UNL A   1      47.427  34.909  24.884  1.00  0.00    -0.237 OA
ATOM     77  O   UNL A   1      45.514  35.256  26.417  1.00  0.00    -0.237 OA
ATOM     78  O   UNL A   1      47.819  35.335  27.286  1.00  0.00    -0.744 OA
ENDBRANCH  74  75
ENDBRANCH  53  67
BRANCH  54  79
ATOM     79  C   UNL A   1      38.492  29.004  29.214  1.00  0.00     0.058 A 
ATOM     80  C   UNL A   1      37.522  29.284  30.199  1.00  0.00     0.135 A 
ATOM     81  C   UNL A   1      38.230  29.526  27.931  1.00  0.00     0.135 A 
ATOM     82  F   UNL A   1      37.690  28.844  31.456  1.00  0.00    -0.206 F 
ATOM     83  C   UNL A   1      36.399  30.083  29.944  1.00  0.00     0.059 A 
ATOM     84  C   UNL A   1      37.114  30.315  27.651  1.00  0.00     0.059 A 
ATOM     85  F   UNL A   1      39.106  29.366  26.929  1.00  0.00    -0.206 F 
ATOM     86  C   UNL A   1      36.217  30.616  28.669  1.00  0.00     0.060 A 
BRANCH  86  87
ATOM     87  S   UNL A   1      34.883  31.805  28.376  1.00  0.00     0.124 S 
ATOM     88  O   UNL A   1      35.552  32.820  27.570  1.00  0.00    -0.237 OA
ATOM     89  O   UNL A   1      33.889  30.992  27.681  1.00  0.00    -0.237 OA
ATOM     90  O   UNL A   1      34.505  32.227  29.722  1.00  0.00    -0.744 OA
ENDBRANCH  86  87
ENDBRANCH  54  79
BRANCH  66  91
ATOM     91  C   UNL A   1      43.620  28.075  32.809  1.00  0.00     0.058 A 
ATOM     92  C   UNL A   1      43.536  26.674  32.903  1.00  0.00     0.135 A 
ATOM     93  C   UNL A   1      43.540  28.803  34.007  1.00  0.00     0.135 A 
ATOM     94  F   UNL A   1      43.713  25.897  31.824  1.00  0.00    -0.206 F 
ATOM     95  C   UNL A   1      43.321  26.035  34.127  1.00  0.00     0.059 A 
ATOM     96  C   UNL A   1      43.363  28.187  35.238  1.00  0.00     0.059 A 
ATOM     97  F   UNL A   1      43.673  30.140  33.991  1.00  0.00    -0.206 F 
ATOM     98  C   UNL A   1      43.230  26.802  35.290  1.00  0.00     0.060 A 
BRANCH  98  99
ATOM     99  S   UNL A   1      42.975  25.985  36.878  1.00  0.00     0.124 S 
ATOM    100  O   UNL A   1      43.570  26.936  37.811  1.00  0.00    -0.237 OA
ATOM    101  O   UNL A   1      41.521  25.858  36.940  1.00  0.00    -0.237 OA
ATOM    102  O   UNL A   1      43.695  24.722  36.734  1.00  0.00    -0.744 OA
ENDBRANCH  98  99
ENDBRANCH  66  91
ENDBRANCH  40  41
ENDBRANCH  33  35
ENDBRANCH  32  33
ENDBRANCH  31  32
ENDBRANCH   1  31
TORSDOF 19
ENDMDL
MODEL 2
REMARK VINA RESULT:     -12.9      1.501      2.216
REMARK SMILES CC(=O)Nc1ccc(/C=C2/CCc3oc(C(=O)OCCOCCOC(=O)c4ccc(-c5c6nc(c(-c7c(F)cc(S(=O)(=O)[O-])cc7F)c7ccc([nH]7)c(-c7c(F)cc(S(=O)(=O)[O-])cc7F)c7nc(c(-c8c(F)cc(S(=O)(=O)[O-])cc8F)c8ccc5[nH]8)C=C7)C=C6)cc4)c(C)c3C2=O)cc1
REMARK SMILES IDX 22 1 21 2 20 3 19 4 18 5 16 6 17 7 15 8 9 9 10 10 11 11
REMARK SMILES IDX 96 12 12 13 95 14 97 15 13 16 93 17 14 18 94 19 8 20 5 21
REMARK SMILES IDX 6 22 99 23 7 24 98 25 4 26 1 27 2 28 3 29 23 31 24 32 25 33
REMARK SMILES IDX 26 34 27 35 28 36 92 37 29 38 91 39 30 40 31 41 32 42 85 43
REMARK SMILES IDX 33 44 90 45 84 46 86 47 34 48 89 49 83 50 82 51 35 53 69 54
REMARK SMILES IDX 48 55 68 56 49 57 52 58 67 59 87 60 50 61 51 62 66 64 88 65
REMARK SMILES IDX 53 66 36 67 37 68 46 69 38 70 39 71 45 72 47 73 40 74 41 75
REMARK SMILES IDX 42 76 43 77 44 78 70 79 71 80 80 81 72 82 73 83 79 84 81 85
REMARK SMILES IDX 74 86 75 87 76 88 77 89 78 90 54 91 55 92 64 93 56 94 57 95
REMARK SMILES IDX 63 96 65 97 58 98 59 99 60 100 61 101 62 102
REMARK H PARENT 4 30 86 52 52 63
REMARK Flexibility Score: inf
ROOT
ATOM      1  C   UNL A   1      42.016  19.667  26.986  1.00  0.00     0.202 C 
ENDROOT
BRANCH   1   2
ATOM      2  O   UNL A   1      41.863  21.051  27.278  1.00  0.00    -0.374 OA
BRANCH   2   3
ATOM      3  C   UNL A   1      40.548  21.588  27.417  1.00  0.00     0.202 C 
BRANCH   3   4
ATOM      4  C   UNL A   1      39.884  22.158  26.159  1.00  0.00     0.261 C 
BRANCH   4   5
ATOM      5  O   UNL A   1      38.476  21.889  26.102  1.00  0.00    -0.457 OA
BRANCH   5   6
ATOM      6  C   UNL A   1      38.123  20.838  25.302  1.00  0.00     0.374 C 
ATOM      7  O   UNL A   1      38.834  19.880  25.048  1.00  0.00    -0.242 OA
BRANCH   6   8
ATOM      8  C   UNL A   1      36.728  20.950  24.924  1.00  0.00     0.215 A 
ATOM      9  C   UNL A   1      31.563  22.764  25.308  1.00  0.00     0.016 C 
ATOM     10  C   UNL A   1      32.328  21.907  24.600  1.00  0.00     0.001 C 
ATOM     11  C   UNL A   1      32.155  20.392  24.660  1.00  0.00     0.048 C 
ATOM     12  C   UNL A   1      33.518  22.313  23.781  1.00  0.00     0.192 C 
ATOM     13  C   UNL A   1      33.380  19.694  25.306  1.00  0.00     0.081 C 
ATOM     14  C   UNL A   1      34.702  21.620  24.243  1.00  0.00     0.067 A 
ATOM     15  O   UNL A   1      33.492  23.125  22.869  1.00  0.00    -0.289 OA
ATOM     16  C   UNL A   1      34.611  20.432  24.929  1.00  0.00     0.116 A 
ATOM     17  C   UNL A   1      36.082  21.943  24.188  1.00  0.00     0.014 A 
ATOM     18  O   UNL A   1      35.826  19.999  25.334  1.00  0.00    -0.453 OA
ATOM     19  C   UNL A   1      36.692  23.127  23.529  1.00  0.00     0.049 C 
BRANCH   9  20
ATOM     20  C   UNL A   1      31.666  24.225  25.545  1.00  0.00    -0.025 A 
ATOM     21  C   UNL A   1      31.668  27.010  26.129  1.00  0.00     0.041 A 
ATOM     22  C   UNL A   1      32.854  26.286  26.108  1.00  0.00     0.027 A 
ATOM     23  C   UNL A   1      30.479  26.357  25.816  1.00  0.00     0.027 A 
ATOM     24  C   UNL A   1      32.843  24.907  25.865  1.00  0.00     0.010 A 
ATOM     25  C   UNL A   1      30.482  24.984  25.516  1.00  0.00     0.010 A 
BRANCH  21  26
ATOM     26  N   UNL A   1      31.762  28.376  26.426  1.00  0.00    -0.326 N 
ATOM     27  C   UNL A   1      31.322  29.304  24.168  1.00  0.00     0.114 C 
ATOM     28  C   UNL A   1      31.743  29.465  25.603  1.00  0.00     0.221 C 
ATOM     29  O   UNL A   1      31.985  30.580  26.070  1.00  0.00    -0.275 OA
ATOM     30  H   UNL A   1      31.856  28.585  27.384  1.00  0.00     0.169 HD
ENDBRANCH  21  26
ENDBRANCH   9  20
ENDBRANCH   6   8
ENDBRANCH   5   6
ENDBRANCH   4   5
ENDBRANCH   3   4
ENDBRANCH   2   3
ENDBRANCH   1   2
BRANCH   1  31
ATOM     31  C   UNL A   1      42.705  19.258  25.694  1.00  0.00     0.261 C 
BRANCH  31  32
ATOM     32  O   UNL A   1      44.080  19.611  25.654  1.00  0.00    -0.460 OA
BRANCH  32  33
ATOM     33  C   UNL A   1      44.398  20.398  24.597  1.00  0.00     0.338 C 
ATOM     34  O   UNL A   1      44.725  20.030  23.483  1.00  0.00    -0.246 OA
BRANCH  33  35
ATOM     35  C   UNL A   1      44.457  21.790  25.051  1.00  0.00     0.060 A 
ATOM     36  C   UNL A   1      45.311  22.077  26.119  1.00  0.00     0.016 A 
ATOM     37  C   UNL A   1      43.513  22.720  24.589  1.00  0.00     0.016 A 
ATOM     38  C   UNL A   1      45.114  23.245  26.824  1.00  0.00     0.010 A 
ATOM     39  C   UNL A   1      43.304  23.873  25.307  1.00  0.00     0.010 A 
ATOM     40  C   UNL A   1      44.064  24.094  26.452  1.00  0.00    -0.014 A 
BRANCH  40  41
ATOM     41  C   UNL A   1      43.893  25.337  27.178  1.00  0.00     0.031 A 
ATOM     42  C   UNL A   1      45.000  26.283  26.900  1.00  0.00     0.074 A 
ATOM     43  C   UNL A   1      42.789  25.618  27.898  1.00  0.00     0.049 A 
ATOM     44  N   UNL A   1      45.948  26.636  27.701  1.00  0.00    -0.248 NA
ATOM     45  C   UNL A   1      45.218  26.703  25.502  1.00  0.00     0.031 C 
ATOM     46  C   UNL A   1      41.553  24.835  27.986  1.00  0.00     0.029 A 
ATOM     47  N   UNL A   1      42.493  26.724  28.635  1.00  0.00    -0.354 N 
ATOM     48  C   UNL A   1      46.708  27.553  26.983  1.00  0.00     0.074 A 
ATOM     49  C   UNL A   1      46.379  27.351  25.600  1.00  0.00     0.031 C 
ATOM     50  C   UNL A   1      40.576  25.598  28.532  1.00  0.00     0.029 A 
ATOM     51  C   UNL A   1      41.141  26.871  28.946  1.00  0.00     0.049 A 
ATOM     52  H   UNL A   1      43.178  27.368  28.926  1.00  0.00     0.167 HD
ATOM     53  C   UNL A   1      47.279  28.615  27.615  1.00  0.00     0.037 A 
ATOM     54  C   UNL A   1      40.540  27.987  29.444  1.00  0.00     0.037 A 
ATOM     55  C   UNL A   1      47.357  28.376  29.037  1.00  0.00     0.049 A 
ATOM     56  C   UNL A   1      41.612  28.835  30.028  1.00  0.00     0.074 A 
ATOM     57  C   UNL A   1      47.933  27.402  29.830  1.00  0.00     0.029 A 
ATOM     58  N   UNL A   1      46.434  29.015  29.828  1.00  0.00    -0.354 N 
ATOM     59  N   UNL A   1      42.295  28.508  31.091  1.00  0.00    -0.248 NA
ATOM     60  C   UNL A   1      42.248  29.813  29.159  1.00  0.00     0.031 C 
ATOM     61  C   UNL A   1      47.014  27.205  30.903  1.00  0.00     0.029 A 
ATOM     62  C   UNL A   1      45.973  28.123  30.758  1.00  0.00     0.049 A 
ATOM     63  H   UNL A   1      46.153  29.954  29.740  1.00  0.00     0.167 HD
ATOM     64  C   UNL A   1      43.600  28.871  30.796  1.00  0.00     0.074 A 
ATOM     65  C   UNL A   1      43.495  29.748  29.631  1.00  0.00     0.031 C 
ATOM     66  C   UNL A   1      44.652  28.191  31.341  1.00  0.00     0.037 A 
BRANCH  53  67
ATOM     67  C   UNL A   1      47.330  30.013  27.030  1.00  0.00     0.058 A 
ATOM     68  C   UNL A   1      48.534  30.740  27.126  1.00  0.00     0.135 A 
ATOM     69  C   UNL A   1      46.196  30.772  26.655  1.00  0.00     0.135 A 
ATOM     70  F   UNL A   1      49.677  30.128  27.476  1.00  0.00    -0.206 F 
ATOM     71  C   UNL A   1      48.590  32.123  26.956  1.00  0.00     0.059 A 
ATOM     72  C   UNL A   1      46.242  32.141  26.428  1.00  0.00     0.059 A 
ATOM     73  F   UNL A   1      44.967  30.256  26.575  1.00  0.00    -0.206 F 
ATOM     74  C   UNL A   1      47.432  32.817  26.620  1.00  0.00     0.060 A 
BRANCH  74  75
ATOM     75  S   UNL A   1      47.479  34.608  26.469  1.00  0.00     0.124 S 
ATOM     76  O   UNL A   1      46.784  34.810  25.203  1.00  0.00    -0.237 OA
ATOM     77  O   UNL A   1      46.763  35.026  27.669  1.00  0.00    -0.237 OA
ATOM     78  O   UNL A   1      48.908  34.906  26.461  1.00  0.00    -0.744 OA
ENDBRANCH  74  75
ENDBRANCH  53  67
BRANCH  54  79
ATOM     79  C   UNL A   1      39.185  28.538  29.149  1.00  0.00     0.058 A 
ATOM     80  C   UNL A   1      38.220  28.688  30.167  1.00  0.00     0.135 A 
ATOM     81  C   UNL A   1      38.910  29.210  27.941  1.00  0.00     0.135 A 
ATOM     82  F   UNL A   1      38.400  28.099  31.359  1.00  0.00    -0.206 F 
ATOM     83  C   UNL A   1      37.089  29.503  30.018  1.00  0.00     0.059 A 
ATOM     84  C   UNL A   1      37.786  30.018  27.766  1.00  0.00     0.059 A 
ATOM     85  F   UNL A   1      39.779  29.180  26.921  1.00  0.00    -0.206 F 
ATOM     86  C   UNL A   1      36.894  30.186  28.818  1.00  0.00     0.060 A 
BRANCH  86  87
ATOM     87  S   UNL A   1      35.549  31.391  28.680  1.00  0.00     0.124 S 
ATOM     88  O   UNL A   1      34.510  30.612  28.015  1.00  0.00    -0.237 OA
ATOM     89  O   UNL A   1      35.295  31.734  30.076  1.00  0.00    -0.237 OA
ATOM     90  O   UNL A   1      36.136  32.461  27.877  1.00  0.00    -0.744 OA
ENDBRANCH  86  87
ENDBRANCH  54  79
BRANCH  66  91
ATOM     91  C   UNL A   1      44.391  27.315  32.537  1.00  0.00     0.058 A 
ATOM     92  C   UNL A   1      44.259  27.761  33.865  1.00  0.00     0.135 A 
ATOM     93  C   UNL A   1      44.150  25.953  32.292  1.00  0.00     0.135 A 
ATOM     94  F   UNL A   1      44.364  29.063  34.171  1.00  0.00    -0.206 F 
ATOM     95  C   UNL A   1      43.960  26.878  34.907  1.00  0.00     0.059 A 
ATOM     96  C   UNL A   1      43.815  25.066  33.306  1.00  0.00     0.059 A 
ATOM     97  F   UNL A   1      44.201  25.477  31.037  1.00  0.00    -0.206 F 
ATOM     98  C   UNL A   1      43.744  25.530  34.617  1.00  0.00     0.060 A 
BRANCH  98  99
ATOM     99  S   UNL A   1      43.335  24.386  35.951  1.00  0.00     0.124 S 
ATOM    100  O   UNL A   1      43.450  23.090  35.290  1.00  0.00    -0.237 OA
ATOM    101  O   UNL A   1      44.359  24.683  36.949  1.00  0.00    -0.237 OA
ATOM    102  O   UNL A   1      41.979  24.773  36.330  1.00  0.00    -0.744 OA
ENDBRANCH  98  99
ENDBRANCH  66  91
ENDBRANCH  40  41
ENDBRANCH  33  35
ENDBRANCH  32  33
ENDBRANCH  31  32
ENDBRANCH   1  31
TORSDOF 19
ENDMDL
MODEL 3
REMARK VINA RESULT:     -12.2      2.591      3.989
REMARK SMILES CC(=O)Nc1ccc(/C=C2/CCc3oc(C(=O)OCCOCCOC(=O)c4ccc(-c5c6nc(c(-c7c(F)cc(S(=O)(=O)[O-])cc7F)c7ccc([nH]7)c(-c7c(F)cc(S(=O)(=O)[O-])cc7F)c7nc(c(-c8c(F)cc(S(=O)(=O)[O-])cc8F)c8ccc5[nH]8)C=C7)C=C6)cc4)c(C)c3C2=O)cc1
REMARK SMILES IDX 22 1 21 2 20 3 19 4 18 5 16 6 17 7 15 8 9 9 10 10 11 11
REMARK SMILES IDX 96 12 12 13 95 14 97 15 13 16 93 17 14 18 94 19 8 20 5 21
REMARK SMILES IDX 6 22 99 23 7 24 98 25 4 26 1 27 2 28 3 29 23 31 24 32 25 33
REMARK SMILES IDX 26 34 27 35 28 36 92 37 29 38 91 39 30 40 31 41 32 42 85 43
REMARK SMILES IDX 33 44 90 45 84 46 86 47 34 48 89 49 83 50 82 51 35 53 69 54
REMARK SMILES IDX 48 55 68 56 49 57 52 58 67 59 87 60 50 61 51 62 66 64 88 65
REMARK SMILES IDX 53 66 36 67 37 68 46 69 38 70 39 71 45 72 47 73 40 74 41 75
REMARK SMILES IDX 42 76 43 77 44 78 70 79 71 80 80 81 72 82 73 83 79 84 81 85
REMARK SMILES IDX 74 86 75 87 76 88 77 89 78 90 54 91 55 92 64 93 56 94 57 95
REMARK SMILES IDX 63 96 65 97 58 98 59 99 60 100 61 101 62 102
REMARK H PARENT 4 30 86 52 52 63
REMARK Flexibility Score: inf
ROOT
ATOM      1  C   UNL A   1      37.038  21.085  24.725  1.00  0.00     0.202 C 
ENDROOT
BRANCH   1   2
ATOM      2  O   UNL A   1      36.701  19.706  24.825  1.00  0.00    -0.374 OA
BRANCH   2   3
ATOM      3  C   UNL A   1      35.327  19.334  24.929  1.00  0.00     0.202 C 
BRANCH   3   4
ATOM      4  C   UNL A   1      34.290  20.462  24.905  1.00  0.00     0.261 C 
BRANCH   4   5
ATOM      5  O   UNL A   1      33.568  20.581  26.140  1.00  0.00    -0.457 OA
BRANCH   5   6
ATOM      6  C   UNL A   1      33.856  21.702  26.869  1.00  0.00     0.374 C 
ATOM      7  O   UNL A   1      34.709  21.773  27.738  1.00  0.00    -0.242 OA
BRANCH   6   8
ATOM      8  C   UNL A   1      33.109  22.832  26.355  1.00  0.00     0.215 A 
ATOM      9  C   UNL A   1      31.192  27.975  26.328  1.00  0.00     0.016 C 
ATOM     10  C   UNL A   1      31.106  26.815  25.644  1.00  0.00     0.001 C 
ATOM     11  C   UNL A   1      29.830  25.983  25.572  1.00  0.00     0.048 C 
ATOM     12  C   UNL A   1      32.270  26.132  24.986  1.00  0.00     0.192 C 
ATOM     13  C   UNL A   1      29.987  24.617  26.290  1.00  0.00     0.081 C 
ATOM     14  C   UNL A   1      32.428  24.795  25.517  1.00  0.00     0.067 A 
ATOM     15  O   UNL A   1      32.988  26.640  24.140  1.00  0.00    -0.289 OA
ATOM     16  C   UNL A   1      31.375  24.129  26.099  1.00  0.00     0.116 A 
ATOM     17  C   UNL A   1      33.553  23.938  25.632  1.00  0.00     0.014 A 
ATOM     18  O   UNL A   1      31.761  22.932  26.597  1.00  0.00    -0.453 OA
ATOM     19  C   UNL A   1      34.927  24.204  25.130  1.00  0.00     0.049 C 
BRANCH   9  20
ATOM     20  C   UNL A   1      32.347  28.837  26.683  1.00  0.00    -0.025 A 
ATOM     21  C   UNL A   1      34.412  30.621  27.488  1.00  0.00     0.041 A 
ATOM     22  C   UNL A   1      34.640  29.251  27.422  1.00  0.00     0.027 A 
ATOM     23  C   UNL A   1      33.165  31.112  27.111  1.00  0.00     0.027 A 
ATOM     24  C   UNL A   1      33.608  28.373  27.069  1.00  0.00     0.010 A 
ATOM     25  C   UNL A   1      32.150  30.229  26.702  1.00  0.00     0.010 A 
BRANCH  21  26
ATOM     26  N   UNL A   1      35.485  31.425  27.894  1.00  0.00    -0.326 N 
ATOM     27  C   UNL A   1      34.300  33.594  28.099  1.00  0.00     0.114 C 
ATOM     28  C   UNL A   1      35.562  32.776  28.074  1.00  0.00     0.221 C 
ATOM     29  O   UNL A   1      36.657  33.294  28.301  1.00  0.00    -0.275 OA
ATOM     30  H   UNL A   1      36.319  30.936  28.082  1.00  0.00     0.169 HD
ENDBRANCH  21  26
ENDBRANCH   9  20
ENDBRANCH   6   8
ENDBRANCH   5   6
ENDBRANCH   4   5
ENDBRANCH   3   4
ENDBRANCH   2   3
ENDBRANCH   1   2
BRANCH   1  31
ATOM     31  C   UNL A   1      37.571  21.804  25.953  1.00  0.00     0.261 C 
BRANCH  31  32
ATOM     32  O   UNL A   1      38.738  22.571  25.694  1.00  0.00    -0.460 OA
BRANCH  32  33
ATOM     33  C   UNL A   1      39.663  22.483  26.681  1.00  0.00     0.338 C 
ATOM     34  O   UNL A   1      40.013  21.475  27.268  1.00  0.00    -0.246 OA
BRANCH  33  35
ATOM     35  C   UNL A   1      40.066  23.838  27.067  1.00  0.00     0.060 A 
ATOM     36  C   UNL A   1      41.275  23.974  27.753  1.00  0.00     0.016 A 
ATOM     37  C   UNL A   1      39.151  24.898  26.963  1.00  0.00     0.016 A 
ATOM     38  C   UNL A   1      41.500  25.132  28.467  1.00  0.00     0.010 A 
ATOM     39  C   UNL A   1      39.368  26.042  27.694  1.00  0.00     0.010 A 
ATOM     40  C   UNL A   1      40.510  26.121  28.487  1.00  0.00    -0.014 A 
BRANCH  40  41
ATOM     41  C   UNL A   1      40.777  27.348  29.211  1.00  0.00     0.031 A 
ATOM     42  C   UNL A   1      41.832  28.150  28.546  1.00  0.00     0.074 A 
ATOM     43  C   UNL A   1      40.047  27.746  30.271  1.00  0.00     0.049 A 
ATOM     44  N   UNL A   1      43.040  28.346  28.955  1.00  0.00    -0.248 NA
ATOM     45  C   UNL A   1      41.598  28.588  27.156  1.00  0.00     0.031 C 
ATOM     46  C   UNL A   1      38.827  27.130  30.802  1.00  0.00     0.029 A 
ATOM     47  N   UNL A   1      40.184  28.854  31.051  1.00  0.00    -0.354 N 
ATOM     48  C   UNL A   1      43.616  29.180  28.002  1.00  0.00     0.074 A 
ATOM     49  C   UNL A   1      42.796  29.074  26.828  1.00  0.00     0.031 C 
ATOM     50  C   UNL A   1      38.220  27.994  31.649  1.00  0.00     0.029 A 
ATOM     51  C   UNL A   1      39.062  29.166  31.819  1.00  0.00     0.049 A 
ATOM     52  H   UNL A   1      41.008  29.391  31.072  1.00  0.00     0.167 HD
ATOM     53  C   UNL A   1      44.511  30.134  28.377  1.00  0.00     0.037 A 
ATOM     54  C   UNL A   1      38.833  30.333  32.484  1.00  0.00     0.037 A 
ATOM     55  C   UNL A   1      45.053  29.834  29.682  1.00  0.00     0.049 A 
ATOM     56  C   UNL A   1      40.147  31.010  32.640  1.00  0.00     0.074 A 
ATOM     57  C   UNL A   1      45.733  28.765  30.232  1.00  0.00     0.029 A 
ATOM     58  N   UNL A   1      44.565  30.561  30.740  1.00  0.00    -0.354 N 
ATOM     59  N   UNL A   1      41.110  30.558  33.396  1.00  0.00    -0.248 NA
ATOM     60  C   UNL A   1      40.562  31.927  31.589  1.00  0.00     0.031 C 
ATOM     61  C   UNL A   1      45.235  28.652  31.563  1.00  0.00     0.029 A 
ATOM     62  C   UNL A   1      44.345  29.704  31.785  1.00  0.00     0.049 A 
ATOM     63  H   UNL A   1      44.401  31.531  30.747  1.00  0.00     0.167 HD
ATOM     64  C   UNL A   1      42.263  30.756  32.653  1.00  0.00     0.074 A 
ATOM     65  C   UNL A   1      41.875  31.681  31.590  1.00  0.00     0.031 C 
ATOM     66  C   UNL A   1      43.337  29.923  32.798  1.00  0.00     0.037 A 
BRANCH  53  67
ATOM     67  C   UNL A   1      44.542  31.533  27.794  1.00  0.00     0.058 A 
ATOM     68  C   UNL A   1      45.652  31.912  27.010  1.00  0.00     0.135 A 
ATOM     69  C   UNL A   1      43.704  32.597  28.204  1.00  0.00     0.135 A 
ATOM     70  F   UNL A   1      46.521  30.991  26.563  1.00  0.00    -0.206 F 
ATOM     71  C   UNL A   1      45.954  33.246  26.735  1.00  0.00     0.059 A 
ATOM     72  C   UNL A   1      43.958  33.926  27.894  1.00  0.00     0.059 A 
ATOM     73  F   UNL A   1      42.645  32.425  29.000  1.00  0.00    -0.206 F 
ATOM     74  C   UNL A   1      45.106  34.247  27.194  1.00  0.00     0.060 A 
BRANCH  74  75
ATOM     75  S   UNL A   1      45.525  35.971  26.906  1.00  0.00     0.124 S 
ATOM     76  O   UNL A   1      44.212  36.549  26.647  1.00  0.00    -0.237 OA
ATOM     77  O   UNL A   1      46.152  36.340  28.171  1.00  0.00    -0.237 OA
ATOM     78  O   UNL A   1      46.427  35.910  25.760  1.00  0.00    -0.744 OA
ENDBRANCH  74  75
ENDBRANCH  53  67
BRANCH  54  79
ATOM     79  C   UNL A   1      37.549  31.068  32.682  1.00  0.00     0.058 A 
ATOM     80  C   UNL A   1      37.306  31.810  33.857  1.00  0.00     0.135 A 
ATOM     81  C   UNL A   1      36.668  31.312  31.609  1.00  0.00     0.135 A 
ATOM     82  F   UNL A   1      38.100  31.658  34.927  1.00  0.00    -0.206 F 
ATOM     83  C   UNL A   1      36.295  32.777  33.940  1.00  0.00     0.059 A 
ATOM     84  C   UNL A   1      35.649  32.263  31.672  1.00  0.00     0.059 A 
ATOM     85  F   UNL A   1      36.833  30.702  30.427  1.00  0.00    -0.206 F 
ATOM     86  C   UNL A   1      35.485  33.014  32.830  1.00  0.00     0.060 A 
BRANCH  86  87
ATOM     87  S   UNL A   1      34.309  34.391  32.856  1.00  0.00     0.124 S 
ATOM     88  O   UNL A   1      33.047  33.707  33.120  1.00  0.00    -0.237 OA
ATOM     89  O   UNL A   1      34.824  35.220  33.941  1.00  0.00    -0.237 OA
ATOM     90  O   UNL A   1      34.437  34.969  31.520  1.00  0.00    -0.744 OA
ENDBRANCH  86  87
ENDBRANCH  54  79
BRANCH  66  91
ATOM     91  C   UNL A   1      43.398  29.046  34.020  1.00  0.00     0.058 A 
ATOM     92  C   UNL A   1      43.924  29.420  35.270  1.00  0.00     0.135 A 
ATOM     93  C   UNL A   1      42.778  27.789  33.936  1.00  0.00     0.135 A 
ATOM     94  F   UNL A   1      44.436  30.644  35.467  1.00  0.00    -0.206 F 
ATOM     95  C   UNL A   1      43.887  28.555  36.367  1.00  0.00     0.059 A 
ATOM     96  C   UNL A   1      42.697  26.930  35.023  1.00  0.00     0.059 A 
ATOM     97  F   UNL A   1      42.202  27.399  32.786  1.00  0.00    -0.206 F 
ATOM     98  C   UNL A   1      43.275  27.308  36.231  1.00  0.00     0.060 A 
BRANCH  98  99
ATOM     99  S   UNL A   1      43.201  26.193  37.648  1.00  0.00     0.124 S 
ATOM    100  O   UNL A   1      41.774  26.181  37.955  1.00  0.00    -0.237 OA
ATOM    101  O   UNL A   1      43.744  24.951  37.103  1.00  0.00    -0.237 OA
ATOM    102  O   UNL A   1      44.046  26.847  38.644  1.00  0.00    -0.744 OA
ENDBRANCH  98  99
ENDBRANCH  66  91
ENDBRANCH  40  41
ENDBRANCH  33  35
ENDBRANCH  32  33
ENDBRANCH  31  32
ENDBRANCH   1  31
TORSDOF 19
ENDMDL
