MODEL 1
REMARK VINA RESULT:     -11.0      0.000      0.000
REMARK SMILES O=C(Cc1cccn1-c1ccccc1F)OCCOCCOC(=O)c1ccc(-c2c3nc(c(-c4c(F)cc(S(=O)(=O)[O-])cc4F)c4ccc([nH]4)c(-c4c(F)cc(S(=O)(=O)[O-])cc4F)c4nc(c(-c5c(F)cc(S(=O)(=O)[O-])cc5F)c5ccc2[nH]5)C=C4)C=C3)cc1
REMARK SMILES IDX 20 1 19 2 18 3 17 4 16 5 2 6 1 7 3 8 4 9 5 10 8 11 6 12 7 13
REMARK SMILES IDX 9 14 10 15 14 16 11 17 13 18 15 19 12 20 21 21 22 22 23 23
REMARK SMILES IDX 24 24 25 25 26 26 90 27 27 28 89 29 28 30 29 31 30 32 83 33
REMARK SMILES IDX 31 34 88 35 82 36 84 37 32 38 87 39 81 40 80 41 33 43 67 44
REMARK SMILES IDX 46 45 66 46 47 47 50 48 65 49 85 50 48 51 49 52 64 54 86 55
REMARK SMILES IDX 51 56 34 57 35 58 44 59 36 60 37 61 43 62 45 63 38 64 39 65
REMARK SMILES IDX 40 66 41 67 42 68 68 69 69 70 78 71 70 72 71 73 77 74 79 75
REMARK SMILES IDX 72 76 73 77 74 78 75 79 76 80 52 81 53 82 62 83 54 84 55 85
REMARK SMILES IDX 61 86 63 87 56 88 57 89 58 90 59 91 60 92
REMARK H PARENT 84 42 50 53
REMARK Flexibility Score: inf
ROOT
ATOM      1  C   UNL A   1      37.977  21.905  25.713  1.00  0.00     0.202 C 
ENDROOT
BRANCH   1   2
ATOM      2  O   UNL A   1      37.276  23.115  26.026  1.00  0.00    -0.374 OA
BRANCH   2   3
ATOM      3  C   UNL A   1      36.162  23.434  25.192  1.00  0.00     0.202 C 
BRANCH   3   4
ATOM      4  C   UNL A   1      34.925  23.899  25.936  1.00  0.00     0.261 C 
BRANCH   4   5
ATOM      5  O   UNL A   1      34.617  23.075  27.076  1.00  0.00    -0.463 OA
BRANCH   5   6
ATOM      6  C   UNL A   1      33.549  22.255  27.218  1.00  0.00     0.311 C 
ATOM      7  O   UNL A   1      32.612  22.622  27.930  1.00  0.00    -0.252 OA
BRANCH   6   8
ATOM      8  C   UNL A   1      33.539  20.870  26.601  1.00  0.00     0.177 C 
BRANCH   8   9
ATOM      9  C   UNL A   1      32.891  20.804  25.256  1.00  0.00     0.034 A 
ATOM     10  C   UNL A   1      32.351  21.870  24.553  1.00  0.00     0.024 A 
ATOM     11  N   UNL A   1      32.875  19.676  24.430  1.00  0.00    -0.318 N 
ATOM     12  C   UNL A   1      32.116  21.442  23.238  1.00  0.00     0.020 A 
ATOM     13  C   UNL A   1      32.466  20.114  23.178  1.00  0.00     0.091 A 
BRANCH  11  14
ATOM     14  C   UNL A   1      33.248  18.326  24.714  1.00  0.00     0.081 A 
ATOM     15  C   UNL A   1      32.271  17.412  25.149  1.00  0.00     0.030 A 
ATOM     16  C   UNL A   1      34.569  17.884  24.608  1.00  0.00     0.147 A 
ATOM     17  C   UNL A   1      32.615  16.089  25.450  1.00  0.00     0.002 A 
ATOM     18  C   UNL A   1      34.912  16.564  24.907  1.00  0.00     0.041 A 
ATOM     19  F   UNL A   1      35.567  18.722  24.293  1.00  0.00    -0.205 F 
ATOM     20  C   UNL A   1      33.936  15.664  25.329  1.00  0.00     0.003 A 
ENDBRANCH  11  14
ENDBRANCH   8   9
ENDBRANCH   6   8
ENDBRANCH   5   6
ENDBRANCH   4   5
ENDBRANCH   3   4
ENDBRANCH   2   3
ENDBRANCH   1   2
BRANCH   1  21
ATOM     21  C   UNL A   1      39.439  21.885  26.108  1.00  0.00     0.261 C 
BRANCH  21  22
ATOM     22  O   UNL A   1      39.743  20.640  26.710  1.00  0.00    -0.460 OA
BRANCH  22  23
ATOM     23  C   UNL A   1      40.809  19.998  26.212  1.00  0.00     0.338 C 
ATOM     24  O   UNL A   1      40.837  18.885  25.674  1.00  0.00    -0.246 OA
BRANCH  23  25
ATOM     25  C   UNL A   1      41.995  20.779  26.536  1.00  0.00     0.060 A 
ATOM     26  C   UNL A   1      42.157  21.092  27.886  1.00  0.00     0.016 A 
ATOM     27  C   UNL A   1      42.603  21.510  25.503  1.00  0.00     0.016 A 
ATOM     28  C   UNL A   1      42.695  22.312  28.192  1.00  0.00     0.010 A 
ATOM     29  C   UNL A   1      43.067  22.761  25.802  1.00  0.00     0.010 A 
ATOM     30  C   UNL A   1      43.050  23.164  27.139  1.00  0.00    -0.014 A 
BRANCH  30  31
ATOM     31  C   UNL A   1      43.503  24.505  27.477  1.00  0.00     0.031 A 
ATOM     32  C   UNL A   1      42.308  25.415  27.676  1.00  0.00     0.074 A 
ATOM     33  C   UNL A   1      44.855  24.682  27.472  1.00  0.00     0.049 A 
ATOM     34  N   UNL A   1      42.182  26.668  27.385  1.00  0.00    -0.248 NA
ATOM     35  C   UNL A   1      41.016  24.823  28.132  1.00  0.00     0.031 C 
ATOM     36  C   UNL A   1      45.844  23.610  27.215  1.00  0.00     0.029 A 
ATOM     37  N   UNL A   1      45.675  25.767  27.666  1.00  0.00    -0.354 N 
ATOM     38  C   UNL A   1      40.906  27.051  27.828  1.00  0.00     0.074 A 
ATOM     39  C   UNL A   1      40.177  25.855  28.107  1.00  0.00     0.031 C 
ATOM     40  C   UNL A   1      47.096  24.110  27.187  1.00  0.00     0.029 A 
ATOM     41  C   UNL A   1      47.056  25.535  27.448  1.00  0.00     0.049 A 
ATOM     42  H   UNL A   1      45.327  26.647  27.939  1.00  0.00     0.167 HD
ATOM     43  C   UNL A   1      40.578  28.337  28.114  1.00  0.00     0.037 A 
ATOM     44  C   UNL A   1      48.081  26.443  27.431  1.00  0.00     0.037 A 
ATOM     45  C   UNL A   1      41.697  29.196  27.902  1.00  0.00     0.049 A 
ATOM     46  C   UNL A   1      47.470  27.727  27.836  1.00  0.00     0.074 A 
ATOM     47  C   UNL A   1      42.309  29.650  26.764  1.00  0.00     0.029 A 
ATOM     48  N   UNL A   1      42.547  29.376  28.971  1.00  0.00    -0.354 N 
ATOM     49  N   UNL A   1      47.016  28.002  29.025  1.00  0.00    -0.248 NA
ATOM     50  C   UNL A   1      47.234  28.747  26.806  1.00  0.00     0.031 C 
ATOM     51  C   UNL A   1      43.675  29.733  27.114  1.00  0.00     0.029 A 
ATOM     52  C   UNL A   1      43.829  29.459  28.477  1.00  0.00     0.049 A 
ATOM     53  H   UNL A   1      42.284  29.433  29.917  1.00  0.00     0.167 HD
ATOM     54  C   UNL A   1      46.168  29.061  28.794  1.00  0.00     0.074 A 
ATOM     55  C   UNL A   1      46.567  29.640  27.531  1.00  0.00     0.031 C 
ATOM     56  C   UNL A   1      44.927  29.069  29.343  1.00  0.00     0.037 A 
BRANCH  43  57
ATOM     57  C   UNL A   1      39.390  28.884  28.831  1.00  0.00     0.058 A 
ATOM     58  C   UNL A   1      39.238  28.855  30.226  1.00  0.00     0.135 A 
ATOM     59  C   UNL A   1      38.542  29.757  28.117  1.00  0.00     0.135 A 
ATOM     60  F   UNL A   1      40.002  28.065  30.994  1.00  0.00    -0.206 F 
ATOM     61  C   UNL A   1      38.359  29.711  30.883  1.00  0.00     0.059 A 
ATOM     62  C   UNL A   1      37.691  30.649  28.755  1.00  0.00     0.059 A 
ATOM     63  F   UNL A   1      38.589  29.809  26.775  1.00  0.00    -0.206 F 
ATOM     64  C   UNL A   1      37.627  30.637  30.143  1.00  0.00     0.060 A 
BRANCH  64  65
ATOM     65  S   UNL A   1      36.706  31.924  31.009  1.00  0.00     0.124 S 
ATOM     66  O   UNL A   1      36.176  31.186  32.150  1.00  0.00    -0.237 OA
ATOM     67  O   UNL A   1      37.743  32.905  31.310  1.00  0.00    -0.237 OA
ATOM     68  O   UNL A   1      35.718  32.351  30.022  1.00  0.00    -0.744 OA
ENDBRANCH  64  65
ENDBRANCH  43  57
BRANCH  44  69
ATOM     69  C   UNL A   1      49.524  26.479  26.960  1.00  0.00     0.058 A 
ATOM     70  C   UNL A   1      49.809  26.300  25.577  1.00  0.00     0.135 A 
ATOM     71  C   UNL A   1      50.667  26.523  27.772  1.00  0.00     0.135 A 
ATOM     72  F   UNL A   1      48.854  26.420  24.643  1.00  0.00    -0.206 F 
ATOM     73  C   UNL A   1      51.061  25.946  25.081  1.00  0.00     0.059 A 
ATOM     74  C   UNL A   1      51.954  26.223  27.287  1.00  0.00     0.059 A 
ATOM     75  F   UNL A   1      50.596  26.849  29.066  1.00  0.00    -0.206 F 
ATOM     76  C   UNL A   1      52.124  25.853  25.957  1.00  0.00     0.060 A 
BRANCH  76  77
ATOM     77  S   UNL A   1      53.702  25.233  25.343  1.00  0.00     0.124 S 
ATOM     78  O   UNL A   1      54.622  25.736  26.359  1.00  0.00    -0.237 OA
ATOM     79  O   UNL A   1      53.502  23.788  25.334  1.00  0.00    -0.237 OA
ATOM     80  O   UNL A   1      53.815  25.855  24.028  1.00  0.00    -0.744 OA
ENDBRANCH  76  77
ENDBRANCH  44  69
BRANCH  56  81
ATOM     81  C   UNL A   1      44.808  28.284  30.637  1.00  0.00     0.058 A 
ATOM     82  C   UNL A   1      44.165  27.039  30.739  1.00  0.00     0.135 A 
ATOM     83  C   UNL A   1      45.432  28.746  31.807  1.00  0.00     0.135 A 
ATOM     84  F   UNL A   1      43.557  26.510  29.680  1.00  0.00    -0.206 F 
ATOM     85  C   UNL A   1      44.126  26.293  31.917  1.00  0.00     0.059 A 
ATOM     86  C   UNL A   1      45.417  28.017  33.002  1.00  0.00     0.059 A 
ATOM     87  F   UNL A   1      46.068  29.928  31.801  1.00  0.00    -0.206 F 
ATOM     88  C   UNL A   1      44.762  26.788  33.049  1.00  0.00     0.060 A 
BRANCH  88  89
ATOM     89  S   UNL A   1      44.690  25.818  34.572  1.00  0.00     0.124 S 
ATOM     90  O   UNL A   1      46.100  25.564  34.847  1.00  0.00    -0.237 OA
ATOM     91  O   UNL A   1      44.030  26.738  35.495  1.00  0.00    -0.237 OA
ATOM     92  O   UNL A   1      43.908  24.644  34.194  1.00  0.00    -0.744 OA
ENDBRANCH  88  89
ENDBRANCH  56  81
ENDBRANCH  30  31
ENDBRANCH  23  25
ENDBRANCH  22  23
ENDBRANCH  21  22
ENDBRANCH   1  21
TORSDOF 19
ENDMDL
MODEL 2
REMARK VINA RESULT:     -11.0      5.658     10.826
REMARK SMILES O=C(Cc1cccn1-c1ccccc1F)OCCOCCOC(=O)c1ccc(-c2c3nc(c(-c4c(F)cc(S(=O)(=O)[O-])cc4F)c4ccc([nH]4)c(-c4c(F)cc(S(=O)(=O)[O-])cc4F)c4nc(c(-c5c(F)cc(S(=O)(=O)[O-])cc5F)c5ccc2[nH]5)C=C4)C=C3)cc1
REMARK SMILES IDX 20 1 19 2 18 3 17 4 16 5 2 6 1 7 3 8 4 9 5 10 8 11 6 12 7 13
REMARK SMILES IDX 9 14 10 15 14 16 11 17 13 18 15 19 12 20 21 21 22 22 23 23
REMARK SMILES IDX 24 24 25 25 26 26 90 27 27 28 89 29 28 30 29 31 30 32 83 33
REMARK SMILES IDX 31 34 88 35 82 36 84 37 32 38 87 39 81 40 80 41 33 43 67 44
REMARK SMILES IDX 46 45 66 46 47 47 50 48 65 49 85 50 48 51 49 52 64 54 86 55
REMARK SMILES IDX 51 56 34 57 35 58 44 59 36 60 37 61 43 62 45 63 38 64 39 65
REMARK SMILES IDX 40 66 41 67 42 68 68 69 69 70 78 71 70 72 71 73 77 74 79 75
REMARK SMILES IDX 72 76 73 77 74 78 75 79 76 80 52 81 53 82 62 83 54 84 55 85
REMARK SMILES IDX 61 86 63 87 56 88 57 89 58 90 59 91 60 92
REMARK H PARENT 84 42 50 53
REMARK Flexibility Score: inf
ROOT
ATOM      1  C   UNL A   1      33.953  34.283  30.047  1.00  0.00     0.202 C 
ENDROOT
BRANCH   1   2
ATOM      2  O   UNL A   1      34.079  35.684  30.319  1.00  0.00    -0.374 OA
BRANCH   2   3
ATOM      3  C   UNL A   1      33.211  36.213  31.321  1.00  0.00     0.202 C 
BRANCH   3   4
ATOM      4  C   UNL A   1      33.409  35.628  32.706  1.00  0.00     0.261 C 
BRANCH   4   5
ATOM      5  O   UNL A   1      34.704  35.929  33.259  1.00  0.00    -0.463 OA
BRANCH   5   6
ATOM      6  C   UNL A   1      35.724  35.061  33.449  1.00  0.00     0.311 C 
ATOM      7  O   UNL A   1      36.722  35.153  32.732  1.00  0.00    -0.252 OA
BRANCH   6   8
ATOM      8  C   UNL A   1      35.613  33.931  34.455  1.00  0.00     0.177 C 
BRANCH   8   9
ATOM      9  C   UNL A   1      36.660  32.876  34.310  1.00  0.00     0.034 A 
ATOM     10  C   UNL A   1      36.644  31.824  33.408  1.00  0.00     0.024 A 
ATOM     11  N   UNL A   1      37.899  32.883  34.960  1.00  0.00    -0.318 N 
ATOM     12  C   UNL A   1      37.924  31.249  33.396  1.00  0.00     0.020 A 
ATOM     13  C   UNL A   1      38.677  31.924  34.327  1.00  0.00     0.091 A 
BRANCH  11  14
ATOM     14  C   UNL A   1      38.373  33.714  36.021  1.00  0.00     0.081 A 
ATOM     15  C   UNL A   1      39.216  34.801  35.727  1.00  0.00     0.030 A 
ATOM     16  C   UNL A   1      38.055  33.464  37.358  1.00  0.00     0.147 A 
ATOM     17  C   UNL A   1      39.708  35.620  36.751  1.00  0.00     0.002 A 
ATOM     18  C   UNL A   1      38.544  34.282  38.379  1.00  0.00     0.041 A 
ATOM     19  F   UNL A   1      37.338  32.391  37.721  1.00  0.00    -0.205 F 
ATOM     20  C   UNL A   1      39.372  35.361  38.077  1.00  0.00     0.003 A 
ENDBRANCH  11  14
ENDBRANCH   8   9
ENDBRANCH   6   8
ENDBRANCH   5   6
ENDBRANCH   4   5
ENDBRANCH   3   4
ENDBRANCH   2   3
ENDBRANCH   1   2
BRANCH   1  21
ATOM     21  C   UNL A   1      35.234  33.588  29.633  1.00  0.00     0.261 C 
BRANCH  21  22
ATOM     22  O   UNL A   1      35.117  32.201  29.889  1.00  0.00    -0.460 OA
BRANCH  22  23
ATOM     23  C   UNL A   1      34.881  31.429  28.819  1.00  0.00     0.338 C 
ATOM     24  O   UNL A   1      33.944  31.515  28.018  1.00  0.00    -0.246 OA
BRANCH  23  25
ATOM     25  C   UNL A   1      35.858  30.349  28.822  1.00  0.00     0.060 A 
ATOM     26  C   UNL A   1      36.239  29.888  30.082  1.00  0.00     0.016 A 
ATOM     27  C   UNL A   1      36.643  30.169  27.672  1.00  0.00     0.016 A 
ATOM     28  C   UNL A   1      37.541  29.500  30.246  1.00  0.00     0.010 A 
ATOM     29  C   UNL A   1      37.963  29.860  27.850  1.00  0.00     0.010 A 
ATOM     30  C   UNL A   1      38.403  29.588  29.146  1.00  0.00    -0.014 A 
BRANCH  30  31
ATOM     31  C   UNL A   1      39.811  29.292  29.366  1.00  0.00     0.031 A 
ATOM     32  C   UNL A   1      40.554  30.567  29.713  1.00  0.00     0.074 A 
ATOM     33  C   UNL A   1      40.176  27.997  29.149  1.00  0.00     0.049 A 
ATOM     34  N   UNL A   1      41.759  30.918  29.402  1.00  0.00    -0.248 NA
ATOM     35  C   UNL A   1      39.813  31.678  30.380  1.00  0.00     0.031 C 
ATOM     36  C   UNL A   1      39.241  26.909  28.782  1.00  0.00     0.029 A 
ATOM     37  N   UNL A   1      41.375  27.327  29.179  1.00  0.00    -0.354 N 
ATOM     38  C   UNL A   1      41.982  32.158  30.019  1.00  0.00     0.074 A 
ATOM     39  C   UNL A   1      40.714  32.655  30.446  1.00  0.00     0.031 C 
ATOM     40  C   UNL A   1      39.910  25.762  28.548  1.00  0.00     0.029 A 
ATOM     41  C   UNL A   1      41.328  25.973  28.762  1.00  0.00     0.049 A 
ATOM     42  H   UNL A   1      42.211  27.757  29.472  1.00  0.00     0.167 HD
ATOM     43  C   UNL A   1      43.223  32.627  30.308  1.00  0.00     0.037 A 
ATOM     44  C   UNL A   1      42.368  25.106  28.558  1.00  0.00     0.037 A 
ATOM     45  C   UNL A   1      44.218  31.689  29.899  1.00  0.00     0.049 A 
ATOM     46  C   UNL A   1      43.574  25.834  29.008  1.00  0.00     0.074 A 
ATOM     47  C   UNL A   1      44.689  31.322  28.666  1.00  0.00     0.029 A 
ATOM     48  N   UNL A   1      44.575  30.729  30.819  1.00  0.00    -0.354 N 
ATOM     49  N   UNL A   1      43.848  26.146  30.242  1.00  0.00    -0.248 NA
ATOM     50  C   UNL A   1      44.492  26.365  27.991  1.00  0.00     0.031 C 
ATOM     51  C   UNL A   1      44.983  29.948  28.802  1.00  0.00     0.029 A 
ATOM     52  C   UNL A   1      44.810  29.558  30.134  1.00  0.00     0.049 A 
ATOM     53  H   UNL A   1      44.648  30.857  31.792  1.00  0.00     0.167 HD
ATOM     54  C   UNL A   1      44.764  27.166  30.106  1.00  0.00     0.074 A 
ATOM     55  C   UNL A   1      45.321  27.044  28.778  1.00  0.00     0.031 C 
ATOM     56  C   UNL A   1      44.627  28.301  30.837  1.00  0.00     0.037 A 
BRANCH  43  57
ATOM     57  C   UNL A   1      43.637  33.766  31.178  1.00  0.00     0.058 A 
ATOM     58  C   UNL A   1      43.774  35.086  30.722  1.00  0.00     0.135 A 
ATOM     59  C   UNL A   1      43.566  33.579  32.575  1.00  0.00     0.135 A 
ATOM     60  F   UNL A   1      43.841  35.368  29.413  1.00  0.00    -0.206 F 
ATOM     61  C   UNL A   1      43.750  36.168  31.599  1.00  0.00     0.059 A 
ATOM     62  C   UNL A   1      43.497  34.644  33.462  1.00  0.00     0.059 A 
ATOM     63  F   UNL A   1      43.483  32.343  33.095  1.00  0.00    -0.206 F 
ATOM     64  C   UNL A   1      43.561  35.938  32.960  1.00  0.00     0.060 A 
BRANCH  64  65
ATOM     65  S   UNL A   1      43.252  37.340  34.053  1.00  0.00     0.124 S 
ATOM     66  O   UNL A   1      43.484  38.467  33.155  1.00  0.00    -0.237 OA
ATOM     67  O   UNL A   1      41.867  37.124  34.459  1.00  0.00    -0.237 OA
ATOM     68  O   UNL A   1      44.243  37.165  35.111  1.00  0.00    -0.744 OA
ENDBRANCH  64  65
ENDBRANCH  43  57
BRANCH  44  69
ATOM     69  C   UNL A   1      42.581  23.768  27.873  1.00  0.00     0.058 A 
ATOM     70  C   UNL A   1      42.019  23.550  26.584  1.00  0.00     0.135 A 
ATOM     71  C   UNL A   1      43.161  22.623  28.438  1.00  0.00     0.135 A 
ATOM     72  F   UNL A   1      41.591  24.569  25.824  1.00  0.00    -0.206 F 
ATOM     73  C   UNL A   1      41.823  22.291  26.024  1.00  0.00     0.059 A 
ATOM     74  C   UNL A   1      43.026  21.344  27.867  1.00  0.00     0.059 A 
ATOM     75  F   UNL A   1      43.877  22.683  29.565  1.00  0.00    -0.206 F 
ATOM     76  C   UNL A   1      42.281  21.180  26.704  1.00  0.00     0.060 A 
BRANCH  76  77
ATOM     77  S   UNL A   1      41.878  19.544  26.063  1.00  0.00     0.124 S 
ATOM     78  O   UNL A   1      40.460  19.698  25.755  1.00  0.00    -0.237 OA
ATOM     79  O   UNL A   1      42.763  19.419  24.909  1.00  0.00    -0.237 OA
ATOM     80  O   UNL A   1      42.188  18.662  27.183  1.00  0.00    -0.744 OA
ENDBRANCH  76  77
ENDBRANCH  44  69
BRANCH  56  81
ATOM     81  C   UNL A   1      43.908  28.114  32.160  1.00  0.00     0.058 A 
ATOM     82  C   UNL A   1      44.499  27.533  33.294  1.00  0.00     0.135 A 
ATOM     83  C   UNL A   1      42.605  28.608  32.336  1.00  0.00     0.135 A 
ATOM     84  F   UNL A   1      45.736  27.048  33.232  1.00  0.00    -0.206 F 
ATOM     85  C   UNL A   1      43.852  27.432  34.526  1.00  0.00     0.059 A 
ATOM     86  C   UNL A   1      41.933  28.530  33.561  1.00  0.00     0.059 A 
ATOM     87  F   UNL A   1      41.964  29.177  31.303  1.00  0.00    -0.206 F 
ATOM     88  C   UNL A   1      42.565  27.940  34.655  1.00  0.00     0.060 A 
BRANCH  88  89
ATOM     89  S   UNL A   1      41.734  27.789  36.253  1.00  0.00     0.124 S 
ATOM     90  O   UNL A   1      41.133  26.463  36.166  1.00  0.00    -0.237 OA
ATOM     91  O   UNL A   1      42.844  27.911  37.193  1.00  0.00    -0.237 OA
ATOM     92  O   UNL A   1      40.789  28.902  36.253  1.00  0.00    -0.744 OA
ENDBRANCH  88  89
ENDBRANCH  56  81
ENDBRANCH  30  31
ENDBRANCH  23  25
ENDBRANCH  22  23
ENDBRANCH  21  22
ENDBRANCH   1  21
TORSDOF 19
ENDMDL
MODEL 3
REMARK VINA RESULT:     -10.8      2.317      3.692
REMARK SMILES O=C(Cc1cccn1-c1ccccc1F)OCCOCCOC(=O)c1ccc(-c2c3nc(c(-c4c(F)cc(S(=O)(=O)[O-])cc4F)c4ccc([nH]4)c(-c4c(F)cc(S(=O)(=O)[O-])cc4F)c4nc(c(-c5c(F)cc(S(=O)(=O)[O-])cc5F)c5ccc2[nH]5)C=C4)C=C3)cc1
REMARK SMILES IDX 20 1 19 2 18 3 17 4 16 5 2 6 1 7 3 8 4 9 5 10 8 11 6 12 7 13
REMARK SMILES IDX 9 14 10 15 14 16 11 17 13 18 15 19 12 20 21 21 22 22 23 23
REMARK SMILES IDX 24 24 25 25 26 26 90 27 27 28 89 29 28 30 29 31 30 32 83 33
REMARK SMILES IDX 31 34 88 35 82 36 84 37 32 38 87 39 81 40 80 41 33 43 67 44
REMARK SMILES IDX 46 45 66 46 47 47 50 48 65 49 85 50 48 51 49 52 64 54 86 55
REMARK SMILES IDX 51 56 34 57 35 58 44 59 36 60 37 61 43 62 45 63 38 64 39 65
REMARK SMILES IDX 40 66 41 67 42 68 68 69 69 70 78 71 70 72 71 73 77 74 79 75
REMARK SMILES IDX 72 76 73 77 74 78 75 79 76 80 52 81 53 82 62 83 54 84 55 85
REMARK SMILES IDX 61 86 63 87 56 88 57 89 58 90 59 91 60 92
REMARK H PARENT 84 42 50 53
REMARK Flexibility Score: inf
ROOT
ATOM      1  C   UNL A   1      37.809  21.658  25.734  1.00  0.00     0.202 C 
ENDROOT
BRANCH   1   2
ATOM      2  O   UNL A   1      37.120  22.895  25.510  1.00  0.00    -0.374 OA
BRANCH   2   3
ATOM      3  C   UNL A   1      36.906  23.261  24.147  1.00  0.00     0.202 C 
BRANCH   3   4
ATOM      4  C   UNL A   1      35.552  22.867  23.590  1.00  0.00     0.261 C 
BRANCH   4   5
ATOM      5  O   UNL A   1      35.005  23.859  22.701  1.00  0.00    -0.463 OA
BRANCH   5   6
ATOM      6  C   UNL A   1      34.000  24.724  22.973  1.00  0.00     0.311 C 
ATOM      7  O   UNL A   1      33.357  25.199  22.036  1.00  0.00    -0.252 OA
BRANCH   6   8
ATOM      8  C   UNL A   1      33.726  25.183  24.393  1.00  0.00     0.177 C 
BRANCH   8   9
ATOM      9  C   UNL A   1      32.367  24.827  24.900  1.00  0.00     0.034 A 
ATOM     10  C   UNL A   1      31.812  23.557  24.937  1.00  0.00     0.024 A 
ATOM     11  N   UNL A   1      31.504  25.705  25.564  1.00  0.00    -0.318 N 
ATOM     12  C   UNL A   1      30.663  23.613  25.740  1.00  0.00     0.020 A 
ATOM     13  C   UNL A   1      30.510  24.921  26.133  1.00  0.00     0.091 A 
BRANCH  11  14
ATOM     14  C   UNL A   1      31.588  27.122  25.730  1.00  0.00     0.081 A 
ATOM     15  C   UNL A   1      31.984  27.654  26.970  1.00  0.00     0.030 A 
ATOM     16  C   UNL A   1      31.252  28.009  24.705  1.00  0.00     0.147 A 
ATOM     17  C   UNL A   1      32.057  29.039  27.163  1.00  0.00     0.002 A 
ATOM     18  C   UNL A   1      31.327  29.391  24.896  1.00  0.00     0.041 A 
ATOM     19  F   UNL A   1      30.774  27.577  23.529  1.00  0.00    -0.205 F 
ATOM     20  C   UNL A   1      31.729  29.908  26.125  1.00  0.00     0.003 A 
ENDBRANCH  11  14
ENDBRANCH   8   9
ENDBRANCH   6   8
ENDBRANCH   5   6
ENDBRANCH   4   5
ENDBRANCH   3   4
ENDBRANCH   2   3
ENDBRANCH   1   2
BRANCH   1  21
ATOM     21  C   UNL A   1      39.285  21.789  26.049  1.00  0.00     0.261 C 
BRANCH  21  22
ATOM     22  O   UNL A   1      39.718  20.633  26.741  1.00  0.00    -0.460 OA
BRANCH  22  23
ATOM     23  C   UNL A   1      40.794  20.018  26.230  1.00  0.00     0.338 C 
ATOM     24  O   UNL A   1      40.842  18.913  25.679  1.00  0.00    -0.246 OA
BRANCH  23  25
ATOM     25  C   UNL A   1      41.966  20.819  26.558  1.00  0.00     0.060 A 
ATOM     26  C   UNL A   1      42.141  21.100  27.913  1.00  0.00     0.016 A 
ATOM     27  C   UNL A   1      42.542  21.591  25.536  1.00  0.00     0.016 A 
ATOM     28  C   UNL A   1      42.655  22.324  28.244  1.00  0.00     0.010 A 
ATOM     29  C   UNL A   1      42.980  22.844  25.861  1.00  0.00     0.010 A 
ATOM     30  C   UNL A   1      42.974  23.212  27.208  1.00  0.00    -0.014 A 
BRANCH  30  31
ATOM     31  C   UNL A   1      43.400  24.553  27.576  1.00  0.00     0.031 A 
ATOM     32  C   UNL A   1      42.189  25.446  27.749  1.00  0.00     0.074 A 
ATOM     33  C   UNL A   1      44.749  24.746  27.613  1.00  0.00     0.049 A 
ATOM     34  N   UNL A   1      42.056  26.702  27.469  1.00  0.00    -0.248 NA
ATOM     35  C   UNL A   1      40.891  24.834  28.159  1.00  0.00     0.031 C 
ATOM     36  C   UNL A   1      45.759  23.690  27.373  1.00  0.00     0.029 A 
ATOM     37  N   UNL A   1      45.549  25.839  27.844  1.00  0.00    -0.354 N 
ATOM     38  C   UNL A   1      40.763  27.064  27.877  1.00  0.00     0.074 A 
ATOM     39  C   UNL A   1      40.040  25.857  28.120  1.00  0.00     0.031 C 
ATOM     40  C   UNL A   1      47.004  24.205  27.390  1.00  0.00     0.029 A 
ATOM     41  C   UNL A   1      46.940  25.626  27.665  1.00  0.00     0.049 A 
ATOM     42  H   UNL A   1      45.183  26.711  28.117  1.00  0.00     0.167 HD
ATOM     43  C   UNL A   1      40.411  28.342  28.169  1.00  0.00     0.037 A 
ATOM     44  C   UNL A   1      47.954  26.546  27.690  1.00  0.00     0.037 A 
ATOM     45  C   UNL A   1      41.525  29.217  28.000  1.00  0.00     0.049 A 
ATOM     46  C   UNL A   1      47.315  27.818  28.091  1.00  0.00     0.074 A 
ATOM     47  C   UNL A   1      42.166  29.692  26.886  1.00  0.00     0.029 A 
ATOM     48  N   UNL A   1      42.340  29.394  29.096  1.00  0.00    -0.354 N 
ATOM     49  N   UNL A   1      46.822  28.073  29.269  1.00  0.00    -0.248 NA
ATOM     50  C   UNL A   1      47.097  28.847  27.066  1.00  0.00     0.031 C 
ATOM     51  C   UNL A   1      43.519  29.787  27.278  1.00  0.00     0.029 A 
ATOM     52  C   UNL A   1      43.636  29.499  28.642  1.00  0.00     0.049 A 
ATOM     53  H   UNL A   1      42.049  29.437  30.034  1.00  0.00     0.167 HD
ATOM     54  C   UNL A   1      45.969  29.125  29.024  1.00  0.00     0.074 A 
ATOM     55  C   UNL A   1      46.398  29.723  27.781  1.00  0.00     0.031 C 
ATOM     56  C   UNL A   1      44.711  29.112  29.536  1.00  0.00     0.037 A 
BRANCH  43  57
ATOM     57  C   UNL A   1      39.195  28.867  28.856  1.00  0.00     0.058 A 
ATOM     58  C   UNL A   1      38.988  28.791  30.242  1.00  0.00     0.135 A 
ATOM     59  C   UNL A   1      38.377  29.766  28.138  1.00  0.00     0.135 A 
ATOM     60  F   UNL A   1      39.721  27.974  31.012  1.00  0.00    -0.206 F 
ATOM     61  C   UNL A   1      38.083  29.626  30.892  1.00  0.00     0.059 A 
ATOM     62  C   UNL A   1      37.501  30.636  28.771  1.00  0.00     0.059 A 
ATOM     63  F   UNL A   1      38.477  29.862  26.801  1.00  0.00    -0.206 F 
ATOM     64  C   UNL A   1      37.382  30.578  30.154  1.00  0.00     0.060 A 
BRANCH  64  65
ATOM     65  S   UNL A   1      36.427  31.837  31.026  1.00  0.00     0.124 S 
ATOM     66  O   UNL A   1      36.128  31.158  32.283  1.00  0.00    -0.237 OA
ATOM     67  O   UNL A   1      37.371  32.946  31.109  1.00  0.00    -0.237 OA
ATOM     68  O   UNL A   1      35.284  32.060  30.144  1.00  0.00    -0.744 OA
ENDBRANCH  64  65
ENDBRANCH  43  57
BRANCH  44  69
ATOM     69  C   UNL A   1      49.409  26.605  27.263  1.00  0.00     0.058 A 
ATOM     70  C   UNL A   1      49.749  26.329  25.908  1.00  0.00     0.135 A 
ATOM     71  C   UNL A   1      50.521  26.760  28.104  1.00  0.00     0.135 A 
ATOM     72  F   UNL A   1      48.823  26.335  24.938  1.00  0.00    -0.206 F 
ATOM     73  C   UNL A   1      51.030  25.990  25.482  1.00  0.00     0.059 A 
ATOM     74  C   UNL A   1      51.834  26.477  27.685  1.00  0.00     0.059 A 
ATOM     75  F   UNL A   1      50.392  27.184  29.365  1.00  0.00    -0.206 F 
ATOM     76  C   UNL A   1      52.064  26.011  26.396  1.00  0.00     0.060 A 
BRANCH  76  77
ATOM     77  S   UNL A   1      53.685  25.410  25.883  1.00  0.00     0.124 S 
ATOM     78  O   UNL A   1      54.013  26.347  24.813  1.00  0.00    -0.237 OA
ATOM     79  O   UNL A   1      54.481  25.541  27.100  1.00  0.00    -0.237 OA
ATOM     80  O   UNL A   1      53.415  24.040  25.461  1.00  0.00    -0.744 OA
ENDBRANCH  76  77
ENDBRANCH  44  69
BRANCH  56  81
ATOM     81  C   UNL A   1      44.564  28.310  30.817  1.00  0.00     0.058 A 
ATOM     82  C   UNL A   1      43.956  27.045  30.880  1.00  0.00     0.135 A 
ATOM     83  C   UNL A   1      45.124  28.779  32.016  1.00  0.00     0.135 A 
ATOM     84  F   UNL A   1      43.410  26.508  29.792  1.00  0.00    -0.206 F 
ATOM     85  C   UNL A   1      43.892  26.286  32.049  1.00  0.00     0.059 A 
ATOM     86  C   UNL A   1      45.082  28.038  33.203  1.00  0.00     0.059 A 
ATOM     87  F   UNL A   1      45.722  29.980  32.047  1.00  0.00    -0.206 F 
ATOM     88  C   UNL A   1      44.464  26.788  33.211  1.00  0.00     0.060 A 
BRANCH  88  89
ATOM     89  S   UNL A   1      44.359  25.801  34.721  1.00  0.00     0.124 S 
ATOM     90  O   UNL A   1      43.711  24.581  34.251  1.00  0.00    -0.237 OA
ATOM     91  O   UNL A   1      45.763  25.657  35.096  1.00  0.00    -0.237 OA
ATOM     92  O   UNL A   1      43.555  26.628  35.616  1.00  0.00    -0.744 OA
ENDBRANCH  88  89
ENDBRANCH  56  81
ENDBRANCH  30  31
ENDBRANCH  23  25
ENDBRANCH  22  23
ENDBRANCH  21  22
ENDBRANCH   1  21
TORSDOF 19
ENDMDL
