MODEL 1
REMARK VINA RESULT:     -10.2      0.000      0.000
REMARK SMILES C/C=C(\C)[C@H]1C(C)=C[C@H]2CC[C@@H](OS(=O)(=O)[O-])[C@@H](C)[C@H]2[C@H]1/C=C/C=C/C(=O)OCCOCCOC(=O)c1ccc(-c2c3nc(c(-c4c(F)cc(S(=O)(=O)[O-])cc4F)c4ccc([nH]4)c(-c4c(F)cc(S(=O)(=O)[O-])cc4F)c4nc(c(-c5c(F)cc(S(=O)(=O)[O-])cc5F)c5ccc2[nH]5)C=C4)C=C3)cc1
REMARK SMILES IDX 30 1 29 2 28 3 26 4 27 5 25 6 24 7 23 8 22 9 21 10 5 11 6 12
REMARK SMILES IDX 7 13 8 14 20 15 9 16 18 17 10 18 12 19 19 20 11 21 3 22 1 23
REMARK SMILES IDX 2 24 4 25 13 26 14 27 15 28 16 29 17 30 31 31 32 32 33 33
REMARK SMILES IDX 34 34 35 35 36 36 37 37 38 38 102 39 39 40 101 41 40 42
REMARK SMILES IDX 41 43 42 44 95 45 43 46 100 47 94 48 96 49 44 50 99 51 93 52
REMARK SMILES IDX 92 53 45 55 79 56 58 57 78 58 59 59 62 60 77 61 97 62 60 63
REMARK SMILES IDX 61 64 76 66 98 67 63 68 46 69 47 70 56 71 48 72 49 73 55 74
REMARK SMILES IDX 57 75 50 76 51 77 52 78 53 79 54 80 80 81 81 82 90 83 82 84
REMARK SMILES IDX 83 85 89 86 91 87 84 88 85 89 86 90 87 91 88 92 64 93 65 94
REMARK SMILES IDX 74 95 66 96 67 97 73 98 75 99 68 100 69 101 70 102 71 103
REMARK SMILES IDX 72 104
REMARK H PARENT 96 54 62 65
REMARK Flexibility Score: inf
ROOT
ATOM      1  C   UNL A   1      41.914  21.315  27.623  1.00  0.00     0.202 C 
ENDROOT
BRANCH   1   2
ATOM      2  C   UNL A   1      40.609  22.104  27.484  1.00  0.00     0.261 C 
BRANCH   2   3
ATOM      3  O   UNL A   1      40.730  23.440  27.992  1.00  0.00    -0.460 OA
BRANCH   3   4
ATOM      4  C   UNL A   1      39.666  24.245  27.760  1.00  0.00     0.330 C 
ATOM      5  O   UNL A   1      39.362  25.253  28.381  1.00  0.00    -0.247 OA
BRANCH   4   6
ATOM      6  C   UNL A   1      38.914  23.832  26.558  1.00  0.00     0.093 C 
ATOM      7  C   UNL A   1      37.611  24.072  26.360  1.00  0.00     0.007 C 
BRANCH   7   8
ATOM      8  C   UNL A   1      36.921  23.697  25.146  1.00  0.00    -0.004 C 
ATOM      9  C   UNL A   1      35.662  24.100  24.923  1.00  0.00    -0.022 C 
BRANCH   9  10
ATOM     10  C   UNL A   1      34.853  23.860  23.661  1.00  0.00     0.027 C 
ATOM     11  C   UNL A   1      34.069  22.482  23.596  1.00  0.00     0.047 C 
ATOM     12  C   UNL A   1      32.664  22.562  22.992  1.00  0.00    -0.069 C 
ATOM     13  C   UNL A   1      31.759  21.360  23.078  1.00  0.00     0.040 C 
ATOM     14  C   UNL A   1      32.249  23.642  22.304  1.00  0.00    -0.024 C 
ATOM     15  C   UNL A   1      34.019  25.139  23.307  1.00  0.00     0.009 C 
ATOM     16  C   UNL A   1      33.094  24.867  22.099  1.00  0.00     0.016 C 
ATOM     17  C   UNL A   1      33.313  25.890  24.490  1.00  0.00     0.021 C 
ATOM     18  C   UNL A   1      32.259  26.101  21.713  1.00  0.00     0.011 C 
ATOM     19  C   UNL A   1      32.578  27.148  23.968  1.00  0.00     0.141 C 
ATOM     20  C   UNL A   1      32.395  25.040  25.378  1.00  0.00     0.011 C 
ATOM     21  C   UNL A   1      31.566  26.773  22.891  1.00  0.00     0.034 C 
BRANCH  11  22
ATOM     22  C   UNL A   1      34.209  21.625  24.874  1.00  0.00    -0.070 C 
ATOM     23  C   UNL A   1      33.707  21.273  27.368  1.00  0.00     0.035 C 
ATOM     24  C   UNL A   1      33.577  21.921  26.028  1.00  0.00    -0.031 C 
ATOM     25  C   UNL A   1      35.149  20.451  24.713  1.00  0.00     0.040 C 
ENDBRANCH  11  22
BRANCH  19  26
ATOM     26  O   UNL A   1      31.917  27.769  25.059  1.00  0.00    -0.276 OA
BRANCH  26  27
ATOM     27  S   UNL A   1      32.646  28.944  25.900  1.00  0.00     0.217 S 
ATOM     28  O   UNL A   1      34.005  29.085  25.436  1.00  0.00    -0.213 OA
ATOM     29  O   UNL A   1      31.756  30.085  25.961  1.00  0.00    -0.213 OA
ATOM     30  O   UNL A   1      32.706  28.318  27.378  1.00  0.00    -0.726 OA
ENDBRANCH  26  27
ENDBRANCH  19  26
ENDBRANCH   9  10
ENDBRANCH   7   8
ENDBRANCH   4   6
ENDBRANCH   3   4
ENDBRANCH   2   3
ENDBRANCH   1   2
BRANCH   1  31
ATOM     31  O   UNL A   1      42.719  21.172  26.454  1.00  0.00    -0.374 OA
BRANCH  31  32
ATOM     32  C   UNL A   1      42.834  22.309  25.597  1.00  0.00     0.202 C 
BRANCH  32  33
ATOM     33  C   UNL A   1      44.022  23.254  25.828  1.00  0.00     0.261 C 
BRANCH  33  34
ATOM     34  O   UNL A   1      43.758  24.245  26.837  1.00  0.00    -0.460 OA
BRANCH  34  35
ATOM     35  C   UNL A   1      43.524  25.494  26.359  1.00  0.00     0.338 C 
ATOM     36  O   UNL A   1      43.302  25.813  25.204  1.00  0.00    -0.246 OA
BRANCH  35  37
ATOM     37  C   UNL A   1      43.387  26.434  27.488  1.00  0.00     0.060 A 
ATOM     38  C   UNL A   1      42.693  25.996  28.624  1.00  0.00     0.016 A 
ATOM     39  C   UNL A   1      43.877  27.738  27.413  1.00  0.00     0.016 A 
ATOM     40  C   UNL A   1      42.461  26.873  29.682  1.00  0.00     0.010 A 
ATOM     41  C   UNL A   1      43.634  28.618  28.472  1.00  0.00     0.010 A 
ATOM     42  C   UNL A   1      42.904  28.199  29.600  1.00  0.00    -0.014 A 
BRANCH  42  43
ATOM     43  C   UNL A   1      42.519  29.180  30.644  1.00  0.00     0.031 A 
ATOM     44  C   UNL A   1      43.345  29.284  31.897  1.00  0.00     0.074 A 
ATOM     45  C   UNL A   1      41.437  29.964  30.478  1.00  0.00     0.049 A 
ATOM     46  N   UNL A   1      43.137  30.001  32.969  1.00  0.00    -0.248 NA
ATOM     47  C   UNL A   1      44.565  28.463  31.948  1.00  0.00     0.031 C 
ATOM     48  C   UNL A   1      40.580  29.976  29.293  1.00  0.00     0.029 A 
ATOM     49  N   UNL A   1      40.864  30.887  31.317  1.00  0.00    -0.354 N 
ATOM     50  C   UNL A   1      44.187  29.709  33.831  1.00  0.00     0.074 A 
ATOM     51  C   UNL A   1      45.019  28.729  33.165  1.00  0.00     0.031 C 
ATOM     52  C   UNL A   1      39.577  30.850  29.489  1.00  0.00     0.029 A 
ATOM     53  C   UNL A   1      39.698  31.426  30.828  1.00  0.00     0.049 A 
ATOM     54  H   UNL A   1      41.251  31.139  32.186  1.00  0.00     0.167 HD
ATOM     55  C   UNL A   1      44.435  30.215  35.063  1.00  0.00     0.037 A 
ATOM     56  C   UNL A   1      38.810  32.259  31.406  1.00  0.00     0.037 A 
ATOM     57  C   UNL A   1      43.602  31.193  35.712  1.00  0.00     0.049 A 
ATOM     58  C   UNL A   1      39.072  32.759  32.804  1.00  0.00     0.074 A 
ATOM     59  C   UNL A   1      43.786  31.797  36.945  1.00  0.00     0.029 A 
ATOM     60  N   UNL A   1      42.421  31.704  35.192  1.00  0.00    -0.354 N 
ATOM     61  N   UNL A   1      40.088  32.502  33.595  1.00  0.00    -0.248 NA
ATOM     62  C   UNL A   1      38.070  33.660  33.391  1.00  0.00     0.031 C 
ATOM     63  C   UNL A   1      42.686  32.621  37.198  1.00  0.00     0.029 A 
ATOM     64  C   UNL A   1      41.848  32.586  36.094  1.00  0.00     0.049 A 
ATOM     65  H   UNL A   1      42.045  31.473  34.312  1.00  0.00     0.167 HD
ATOM     66  C   UNL A   1      39.860  33.230  34.759  1.00  0.00     0.074 A 
ATOM     67  C   UNL A   1      38.617  33.948  34.564  1.00  0.00     0.031 C 
ATOM     68  C   UNL A   1      40.612  33.300  35.885  1.00  0.00     0.037 A 
BRANCH  55  69
ATOM     69  C   UNL A   1      45.639  29.702  35.806  1.00  0.00     0.058 A 
ATOM     70  C   UNL A   1      45.569  28.590  36.660  1.00  0.00     0.135 A 
ATOM     71  C   UNL A   1      46.896  30.303  35.617  1.00  0.00     0.135 A 
ATOM     72  F   UNL A   1      44.392  27.987  36.890  1.00  0.00    -0.206 F 
ATOM     73  C   UNL A   1      46.696  28.106  37.319  1.00  0.00     0.059 A 
ATOM     74  C   UNL A   1      48.040  29.817  36.242  1.00  0.00     0.059 A 
ATOM     75  F   UNL A   1      47.020  31.370  34.814  1.00  0.00    -0.206 F 
ATOM     76  C   UNL A   1      47.928  28.725  37.101  1.00  0.00     0.060 A 
BRANCH  76  77
ATOM     77  S   UNL A   1      49.382  28.075  37.951  1.00  0.00     0.124 S 
ATOM     78  O   UNL A   1      49.850  29.256  38.671  1.00  0.00    -0.237 OA
ATOM     79  O   UNL A   1      48.811  27.016  38.776  1.00  0.00    -0.237 OA
ATOM     80  O   UNL A   1      50.241  27.624  36.862  1.00  0.00    -0.744 OA
ENDBRANCH  76  77
ENDBRANCH  55  69
BRANCH  56  81
ATOM     81  C   UNL A   1      37.574  32.652  30.675  1.00  0.00     0.058 A 
ATOM     82  C   UNL A   1      37.559  33.753  29.807  1.00  0.00     0.135 A 
ATOM     83  C   UNL A   1      36.379  31.929  30.831  1.00  0.00     0.135 A 
ATOM     84  F   UNL A   1      38.670  34.484  29.633  1.00  0.00    -0.206 F 
ATOM     85  C   UNL A   1      36.404  34.133  29.130  1.00  0.00     0.059 A 
ATOM     86  C   UNL A   1      35.220  32.271  30.142  1.00  0.00     0.059 A 
ATOM     87  F   UNL A   1      36.339  30.861  31.643  1.00  0.00    -0.206 F 
ATOM     88  C   UNL A   1      35.239  33.381  29.300  1.00  0.00     0.060 A 
BRANCH  88  89
ATOM     89  S   UNL A   1      33.760  33.854  28.379  1.00  0.00     0.124 S 
ATOM     90  O   UNL A   1      33.348  32.578  27.805  1.00  0.00    -0.237 OA
ATOM     91  O   UNL A   1      32.902  34.388  29.432  1.00  0.00    -0.237 OA
ATOM     92  O   UNL A   1      34.256  34.843  27.425  1.00  0.00    -0.744 OA
ENDBRANCH  88  89
ENDBRANCH  56  81
BRANCH  68  93
ATOM     93  C   UNL A   1      40.138  34.207  36.991  1.00  0.00     0.058 A 
ATOM     94  C   UNL A   1      39.466  33.712  38.118  1.00  0.00     0.135 A 
ATOM     95  C   UNL A   1      40.426  35.582  36.953  1.00  0.00     0.135 A 
ATOM     96  F   UNL A   1      39.157  32.408  38.203  1.00  0.00    -0.206 F 
ATOM     97  C   UNL A   1      39.082  34.549  39.162  1.00  0.00     0.059 A 
ATOM     98  C   UNL A   1      40.081  36.431  37.999  1.00  0.00     0.059 A 
ATOM     99  F   UNL A   1      41.076  36.108  35.903  1.00  0.00    -0.206 F 
ATOM    100  C   UNL A   1      39.401  35.906  39.096  1.00  0.00     0.060 A 
BRANCH 100 101
ATOM    101  S   UNL A   1      38.942  36.969  40.482  1.00  0.00     0.124 S 
ATOM    102  O   UNL A   1      40.232  37.179  41.134  1.00  0.00    -0.237 OA
ATOM    103  O   UNL A   1      38.377  38.134  39.807  1.00  0.00    -0.237 OA
ATOM    104  O   UNL A   1      37.986  36.160  41.230  1.00  0.00    -0.744 OA
ENDBRANCH 100 101
ENDBRANCH  68  93
ENDBRANCH  42  43
ENDBRANCH  35  37
ENDBRANCH  34  35
ENDBRANCH  33  34
ENDBRANCH  32  33
ENDBRANCH  31  32
ENDBRANCH   1  31
TORSDOF 22
ENDMDL
MODEL 2
REMARK VINA RESULT:     -10.2      5.829      7.917
REMARK SMILES C/C=C(\C)[C@H]1C(C)=C[C@H]2CC[C@@H](OS(=O)(=O)[O-])[C@@H](C)[C@H]2[C@H]1/C=C/C=C/C(=O)OCCOCCOC(=O)c1ccc(-c2c3nc(c(-c4c(F)cc(S(=O)(=O)[O-])cc4F)c4ccc([nH]4)c(-c4c(F)cc(S(=O)(=O)[O-])cc4F)c4nc(c(-c5c(F)cc(S(=O)(=O)[O-])cc5F)c5ccc2[nH]5)C=C4)C=C3)cc1
REMARK SMILES IDX 30 1 29 2 28 3 26 4 27 5 25 6 24 7 23 8 22 9 21 10 5 11 6 12
REMARK SMILES IDX 7 13 8 14 20 15 9 16 18 17 10 18 12 19 19 20 11 21 3 22 1 23
REMARK SMILES IDX 2 24 4 25 13 26 14 27 15 28 16 29 17 30 31 31 32 32 33 33
REMARK SMILES IDX 34 34 35 35 36 36 37 37 38 38 102 39 39 40 101 41 40 42
REMARK SMILES IDX 41 43 42 44 95 45 43 46 100 47 94 48 96 49 44 50 99 51 93 52
REMARK SMILES IDX 92 53 45 55 79 56 58 57 78 58 59 59 62 60 77 61 97 62 60 63
REMARK SMILES IDX 61 64 76 66 98 67 63 68 46 69 47 70 56 71 48 72 49 73 55 74
REMARK SMILES IDX 57 75 50 76 51 77 52 78 53 79 54 80 80 81 81 82 90 83 82 84
REMARK SMILES IDX 83 85 89 86 91 87 84 88 85 89 86 90 87 91 88 92 64 93 65 94
REMARK SMILES IDX 74 95 66 96 67 97 73 98 75 99 68 100 69 101 70 102 71 103
REMARK SMILES IDX 72 104
REMARK H PARENT 96 54 62 65
REMARK Flexibility Score: inf
ROOT
ATOM      1  C   UNL A   1      41.741  21.890  26.085  1.00  0.00     0.202 C 
ENDROOT
BRANCH   1   2
ATOM      2  C   UNL A   1      41.130  22.247  27.443  1.00  0.00     0.261 C 
BRANCH   2   3
ATOM      3  O   UNL A   1      39.714  22.461  27.358  1.00  0.00    -0.460 OA
BRANCH   3   4
ATOM      4  C   UNL A   1      39.330  23.757  27.267  1.00  0.00     0.330 C 
ATOM      5  O   UNL A   1      39.706  24.683  27.970  1.00  0.00    -0.247 OA
BRANCH   4   6
ATOM      6  C   UNL A   1      38.438  23.988  26.113  1.00  0.00     0.093 C 
ATOM      7  C   UNL A   1      37.636  23.058  25.577  1.00  0.00     0.007 C 
BRANCH   7   8
ATOM      8  C   UNL A   1      36.738  23.337  24.478  1.00  0.00    -0.004 C 
ATOM      9  C   UNL A   1      35.508  23.818  24.706  1.00  0.00    -0.022 C 
BRANCH   9  10
ATOM     10  C   UNL A   1      34.500  24.240  23.653  1.00  0.00     0.027 C 
ATOM     11  C   UNL A   1      33.228  23.302  23.501  1.00  0.00     0.047 C 
ATOM     12  C   UNL A   1      31.903  24.036  23.280  1.00  0.00    -0.069 C 
ATOM     13  C   UNL A   1      30.615  23.257  23.336  1.00  0.00     0.040 C 
ATOM     14  C   UNL A   1      31.862  25.339  22.943  1.00  0.00    -0.024 C 
ATOM     15  C   UNL A   1      34.206  25.774  23.775  1.00  0.00     0.009 C 
ATOM     16  C   UNL A   1      33.088  26.193  22.794  1.00  0.00     0.016 C 
ATOM     17  C   UNL A   1      34.038  26.365  25.219  1.00  0.00     0.021 C 
ATOM     18  C   UNL A   1      32.772  27.698  22.876  1.00  0.00     0.011 C 
ATOM     19  C   UNL A   1      33.802  27.893  25.153  1.00  0.00     0.141 C 
ATOM     20  C   UNL A   1      32.994  25.681  26.110  1.00  0.00     0.011 C 
ATOM     21  C   UNL A   1      32.582  28.214  24.296  1.00  0.00     0.034 C 
BRANCH  11  22
ATOM     22  C   UNL A   1      33.194  22.131  24.508  1.00  0.00    -0.070 C 
ATOM     23  C   UNL A   1      33.280  21.297  26.936  1.00  0.00     0.035 C 
ATOM     24  C   UNL A   1      33.186  22.313  25.845  1.00  0.00    -0.031 C 
ATOM     25  C   UNL A   1      33.209  20.769  23.851  1.00  0.00     0.040 C 
ENDBRANCH  11  22
BRANCH  19  26
ATOM     26  O   UNL A   1      33.609  28.377  26.472  1.00  0.00    -0.276 OA
BRANCH  26  27
ATOM     27  S   UNL A   1      32.601  29.611  26.755  1.00  0.00     0.217 S 
ATOM     28  O   UNL A   1      32.350  30.310  25.517  1.00  0.00    -0.213 OA
ATOM     29  O   UNL A   1      31.510  29.135  27.578  1.00  0.00    -0.213 OA
ATOM     30  O   UNL A   1      33.496  30.577  27.676  1.00  0.00    -0.726 OA
ENDBRANCH  26  27
ENDBRANCH  19  26
ENDBRANCH   9  10
ENDBRANCH   7   8
ENDBRANCH   4   6
ENDBRANCH   3   4
ENDBRANCH   2   3
ENDBRANCH   1   2
BRANCH   1  31
ATOM     31  O   UNL A   1      41.628  20.536  25.653  1.00  0.00    -0.374 OA
BRANCH  31  32
ATOM     32  C   UNL A   1      42.351  19.551  26.394  1.00  0.00     0.202 C 
BRANCH  32  33
ATOM     33  C   UNL A   1      43.444  18.768  25.652  1.00  0.00     0.261 C 
BRANCH  33  34
ATOM     34  O   UNL A   1      43.843  19.396  24.421  1.00  0.00    -0.460 OA
BRANCH  34  35
ATOM     35  C   UNL A   1      45.102  19.901  24.423  1.00  0.00     0.338 C 
ATOM     36  O   UNL A   1      46.104  19.388  23.958  1.00  0.00    -0.246 OA
BRANCH  35  37
ATOM     37  C   UNL A   1      45.073  21.290  24.919  1.00  0.00     0.060 A 
ATOM     38  C   UNL A   1      44.743  22.304  24.009  1.00  0.00     0.016 A 
ATOM     39  C   UNL A   1      45.419  21.601  26.235  1.00  0.00     0.016 A 
ATOM     40  C   UNL A   1      44.786  23.639  24.406  1.00  0.00     0.010 A 
ATOM     41  C   UNL A   1      45.470  22.942  26.627  1.00  0.00     0.010 A 
ATOM     42  C   UNL A   1      45.178  23.969  25.710  1.00  0.00    -0.014 A 
BRANCH  42  43
ATOM     43  C   UNL A   1      45.386  25.388  26.090  1.00  0.00     0.031 A 
ATOM     44  C   UNL A   1      46.773  25.969  26.031  1.00  0.00     0.074 A 
ATOM     45  C   UNL A   1      44.349  26.146  26.491  1.00  0.00     0.049 A 
ATOM     46  N   UNL A   1      47.193  27.149  26.404  1.00  0.00    -0.248 NA
ATOM     47  C   UNL A   1      47.826  25.099  25.485  1.00  0.00     0.031 C 
ATOM     48  C   UNL A   1      42.957  25.703  26.556  1.00  0.00     0.029 A 
ATOM     49  N   UNL A   1      44.311  27.444  26.938  1.00  0.00    -0.354 N 
ATOM     50  C   UNL A   1      48.560  27.161  26.155  1.00  0.00     0.074 A 
ATOM     51  C   UNL A   1      48.903  25.860  25.621  1.00  0.00     0.031 C 
ATOM     52  C   UNL A   1      42.202  26.707  27.035  1.00  0.00     0.029 A 
ATOM     53  C   UNL A   1      43.062  27.846  27.351  1.00  0.00     0.049 A 
ATOM     54  H   UNL A   1      45.101  28.030  26.960  1.00  0.00     0.167 HD
ATOM     55  C   UNL A   1      49.445  28.168  26.352  1.00  0.00     0.037 A 
ATOM     56  C   UNL A   1      42.665  28.987  27.947  1.00  0.00     0.037 A 
ATOM     57  C   UNL A   1      49.089  29.459  26.880  1.00  0.00     0.049 A 
ATOM     58  C   UNL A   1      43.680  30.069  28.217  1.00  0.00     0.074 A 
ATOM     59  C   UNL A   1      49.906  30.559  27.082  1.00  0.00     0.029 A 
ATOM     60  N   UNL A   1      47.818  29.824  27.300  1.00  0.00    -0.354 N 
ATOM     61  N   UNL A   1      44.964  30.082  27.944  1.00  0.00    -0.248 NA
ATOM     62  C   UNL A   1      43.196  31.291  28.875  1.00  0.00     0.031 C 
ATOM     63  C   UNL A   1      49.145  31.564  27.685  1.00  0.00     0.029 A 
ATOM     64  C   UNL A   1      47.837  31.118  27.796  1.00  0.00     0.049 A 
ATOM     65  H   UNL A   1      47.022  29.249  27.254  1.00  0.00     0.167 HD
ATOM     66  C   UNL A   1      45.433  31.320  28.373  1.00  0.00     0.074 A 
ATOM     67  C   UNL A   1      44.293  32.033  28.911  1.00  0.00     0.031 C 
ATOM     68  C   UNL A   1      46.692  31.821  28.323  1.00  0.00     0.037 A 
BRANCH  55  69
ATOM     69  C   UNL A   1      50.891  27.908  26.023  1.00  0.00     0.058 A 
ATOM     70  C   UNL A   1      51.807  27.467  26.991  1.00  0.00     0.135 A 
ATOM     71  C   UNL A   1      51.354  28.053  24.704  1.00  0.00     0.135 A 
ATOM     72  F   UNL A   1      51.424  27.326  28.271  1.00  0.00    -0.206 F 
ATOM     73  C   UNL A   1      53.135  27.201  26.669  1.00  0.00     0.059 A 
ATOM     74  C   UNL A   1      52.669  27.764  24.354  1.00  0.00     0.059 A 
ATOM     75  F   UNL A   1      50.522  28.474  23.739  1.00  0.00    -0.206 F 
ATOM     76  C   UNL A   1      53.556  27.350  25.347  1.00  0.00     0.060 A 
BRANCH  76  77
ATOM     77  S   UNL A   1      55.277  26.986  24.944  1.00  0.00     0.124 S 
ATOM     78  O   UNL A   1      55.125  26.054  23.831  1.00  0.00    -0.237 OA
ATOM     79  O   UNL A   1      55.801  28.304  24.599  1.00  0.00    -0.237 OA
ATOM     80  O   UNL A   1      55.802  26.408  26.177  1.00  0.00    -0.744 OA
ENDBRANCH  76  77
ENDBRANCH  55  69
BRANCH  56  81
ATOM     81  C   UNL A   1      41.243  29.156  28.357  1.00  0.00     0.058 A 
ATOM     82  C   UNL A   1      40.865  29.121  29.707  1.00  0.00     0.135 A 
ATOM     83  C   UNL A   1      40.233  29.359  27.402  1.00  0.00     0.135 A 
ATOM     84  F   UNL A   1      41.789  28.916  30.657  1.00  0.00    -0.206 F 
ATOM     85  C   UNL A   1      39.536  29.265  30.096  1.00  0.00     0.059 A 
ATOM     86  C   UNL A   1      38.903  29.537  27.768  1.00  0.00     0.059 A 
ATOM     87  F   UNL A   1      40.541  29.411  26.096  1.00  0.00    -0.206 F 
ATOM     88  C   UNL A   1      38.562  29.479  29.118  1.00  0.00     0.060 A 
BRANCH  88  89
ATOM     89  S   UNL A   1      36.849  29.715  29.637  1.00  0.00     0.124 S 
ATOM     90  O   UNL A   1      36.119  29.085  28.544  1.00  0.00    -0.237 OA
ATOM     91  O   UNL A   1      36.818  29.012  30.916  1.00  0.00    -0.237 OA
ATOM     92  O   UNL A   1      36.719  31.167  29.728  1.00  0.00    -0.744 OA
ENDBRANCH  88  89
ENDBRANCH  56  81
BRANCH  68  93
ATOM     93  C   UNL A   1      46.911  33.222  28.832  1.00  0.00     0.058 A 
ATOM     94  C   UNL A   1      47.313  33.476  30.152  1.00  0.00     0.135 A 
ATOM     95  C   UNL A   1      46.786  34.320  27.964  1.00  0.00     0.135 A 
ATOM     96  F   UNL A   1      47.440  32.465  31.027  1.00  0.00    -0.206 F 
ATOM     97  C   UNL A   1      47.569  34.770  30.599  1.00  0.00     0.059 A 
ATOM     98  C   UNL A   1      47.067  35.617  28.380  1.00  0.00     0.059 A 
ATOM     99  F   UNL A   1      46.414  34.133  26.688  1.00  0.00    -0.206 F 
ATOM    100  C   UNL A   1      47.450  35.833  29.702  1.00  0.00     0.060 A 
BRANCH 100 101
ATOM    101  S   UNL A   1      47.835  37.499  30.282  1.00  0.00     0.124 S 
ATOM    102  O   UNL A   1      46.816  38.292  29.602  1.00  0.00    -0.237 OA
ATOM    103  O   UNL A   1      47.677  37.369  31.728  1.00  0.00    -0.237 OA
ATOM    104  O   UNL A   1      49.205  37.712  29.824  1.00  0.00    -0.744 OA
ENDBRANCH 100 101
ENDBRANCH  68  93
ENDBRANCH  42  43
ENDBRANCH  35  37
ENDBRANCH  34  35
ENDBRANCH  33  34
ENDBRANCH  32  33
ENDBRANCH  31  32
ENDBRANCH   1  31
TORSDOF 22
ENDMDL
MODEL 3
REMARK VINA RESULT:     -10.0      6.050     10.512
REMARK SMILES C/C=C(\C)[C@H]1C(C)=C[C@H]2CC[C@@H](OS(=O)(=O)[O-])[C@@H](C)[C@H]2[C@H]1/C=C/C=C/C(=O)OCCOCCOC(=O)c1ccc(-c2c3nc(c(-c4c(F)cc(S(=O)(=O)[O-])cc4F)c4ccc([nH]4)c(-c4c(F)cc(S(=O)(=O)[O-])cc4F)c4nc(c(-c5c(F)cc(S(=O)(=O)[O-])cc5F)c5ccc2[nH]5)C=C4)C=C3)cc1
REMARK SMILES IDX 30 1 29 2 28 3 26 4 27 5 25 6 24 7 23 8 22 9 21 10 5 11 6 12
REMARK SMILES IDX 7 13 8 14 20 15 9 16 18 17 10 18 12 19 19 20 11 21 3 22 1 23
REMARK SMILES IDX 2 24 4 25 13 26 14 27 15 28 16 29 17 30 31 31 32 32 33 33
REMARK SMILES IDX 34 34 35 35 36 36 37 37 38 38 102 39 39 40 101 41 40 42
REMARK SMILES IDX 41 43 42 44 95 45 43 46 100 47 94 48 96 49 44 50 99 51 93 52
REMARK SMILES IDX 92 53 45 55 79 56 58 57 78 58 59 59 62 60 77 61 97 62 60 63
REMARK SMILES IDX 61 64 76 66 98 67 63 68 46 69 47 70 56 71 48 72 49 73 55 74
REMARK SMILES IDX 57 75 50 76 51 77 52 78 53 79 54 80 80 81 81 82 90 83 82 84
REMARK SMILES IDX 83 85 89 86 91 87 84 88 85 89 86 90 87 91 88 92 64 93 65 94
REMARK SMILES IDX 74 95 66 96 67 97 73 98 75 99 68 100 69 101 70 102 71 103
REMARK SMILES IDX 72 104
REMARK H PARENT 96 54 62 65
REMARK Flexibility Score: inf
ROOT
ATOM      1  C   UNL A   1      41.884  22.171  26.043  1.00  0.00     0.202 C 
ENDROOT
BRANCH   1   2
ATOM      2  C   UNL A   1      41.432  22.659  27.423  1.00  0.00     0.261 C 
BRANCH   2   3
ATOM      3  O   UNL A   1      40.005  22.757  27.519  1.00  0.00    -0.460 OA
BRANCH   3   4
ATOM      4  C   UNL A   1      39.498  24.002  27.347  1.00  0.00     0.330 C 
ATOM      5  O   UNL A   1      39.784  25.003  27.985  1.00  0.00    -0.247 OA
BRANCH   4   6
ATOM      6  C   UNL A   1      38.587  24.070  26.186  1.00  0.00     0.093 C 
ATOM      7  C   UNL A   1      37.802  23.064  25.779  1.00  0.00     0.007 C 
BRANCH   7   8
ATOM      8  C   UNL A   1      36.884  23.186  24.668  1.00  0.00    -0.004 C 
ATOM      9  C   UNL A   1      35.679  23.748  24.836  1.00  0.00    -0.022 C 
BRANCH   9  10
ATOM     10  C   UNL A   1      34.658  24.024  23.749  1.00  0.00     0.027 C 
ATOM     11  C   UNL A   1      33.451  22.997  23.660  1.00  0.00     0.047 C 
ATOM     12  C   UNL A   1      32.083  23.624  23.376  1.00  0.00    -0.069 C 
ATOM     13  C   UNL A   1      30.847  22.770  23.483  1.00  0.00     0.040 C 
ATOM     14  C   UNL A   1      31.962  24.894  22.942  1.00  0.00    -0.024 C 
ATOM     15  C   UNL A   1      34.265  25.541  23.752  1.00  0.00     0.009 C 
ATOM     16  C   UNL A   1      33.133  25.812  22.736  1.00  0.00     0.016 C 
ATOM     17  C   UNL A   1      34.044  26.226  25.147  1.00  0.00     0.021 C 
ATOM     18  C   UNL A   1      32.720  27.295  22.702  1.00  0.00     0.011 C 
ATOM     19  C   UNL A   1      33.711  27.726  24.964  1.00  0.00     0.141 C 
ATOM     20  C   UNL A   1      33.035  25.544  26.080  1.00  0.00     0.011 C 
ATOM     21  C   UNL A   1      32.482  27.902  24.079  1.00  0.00     0.034 C 
BRANCH  11  22
ATOM     22  C   UNL A   1      33.480  21.905  24.752  1.00  0.00    -0.070 C 
ATOM     23  C   UNL A   1      33.519  21.263  27.238  1.00  0.00     0.035 C 
ATOM     24  C   UNL A   1      33.382  22.182  26.068  1.00  0.00    -0.031 C 
ATOM     25  C   UNL A   1      33.668  20.508  24.204  1.00  0.00     0.040 C 
ENDBRANCH  11  22
BRANCH  19  26
ATOM     26  O   UNL A   1      33.472  28.294  26.242  1.00  0.00    -0.276 OA
BRANCH  26  27
ATOM     27  S   UNL A   1      32.976  29.828  26.379  1.00  0.00     0.217 S 
ATOM     28  O   UNL A   1      34.015  30.606  27.011  1.00  0.00    -0.213 OA
ATOM     29  O   UNL A   1      32.398  30.239  25.118  1.00  0.00    -0.213 OA
ATOM     30  O   UNL A   1      31.767  29.702  27.430  1.00  0.00    -0.726 OA
ENDBRANCH  26  27
ENDBRANCH  19  26
ENDBRANCH   9  10
ENDBRANCH   7   8
ENDBRANCH   4   6
ENDBRANCH   3   4
ENDBRANCH   2   3
ENDBRANCH   1   2
BRANCH   1  31
ATOM     31  O   UNL A   1      41.546  20.834  25.679  1.00  0.00    -0.374 OA
BRANCH  31  32
ATOM     32  C   UNL A   1      42.253  19.780  26.334  1.00  0.00     0.202 C 
BRANCH  32  33
ATOM     33  C   UNL A   1      43.244  18.963  25.494  1.00  0.00     0.261 C 
BRANCH  33  34
ATOM     34  O   UNL A   1      43.739  19.687  24.354  1.00  0.00    -0.460 OA
BRANCH  34  35
ATOM     35  C   UNL A   1      45.047  20.041  24.430  1.00  0.00     0.338 C 
ATOM     36  O   UNL A   1      46.005  19.424  23.999  1.00  0.00    -0.246 OA
BRANCH  35  37
ATOM     37  C   UNL A   1      45.154  21.413  24.962  1.00  0.00     0.060 A 
ATOM     38  C   UNL A   1      45.018  22.478  24.061  1.00  0.00     0.016 A 
ATOM     39  C   UNL A   1      45.440  21.652  26.307  1.00  0.00     0.016 A 
ATOM     40  C   UNL A   1      45.197  23.789  24.497  1.00  0.00     0.010 A 
ATOM     41  C   UNL A   1      45.628  22.968  26.739  1.00  0.00     0.010 A 
ATOM     42  C   UNL A   1      45.532  24.041  25.834  1.00  0.00    -0.014 A 
BRANCH  42  43
ATOM     43  C   UNL A   1      45.886  25.415  26.268  1.00  0.00     0.031 A 
ATOM     44  C   UNL A   1      44.802  26.330  26.768  1.00  0.00     0.074 A 
ATOM     45  C   UNL A   1      47.161  25.843  26.207  1.00  0.00     0.049 A 
ATOM     46  N   UNL A   1      44.872  27.590  27.107  1.00  0.00    -0.248 NA
ATOM     47  C   UNL A   1      43.457  25.746  26.896  1.00  0.00     0.031 C 
ATOM     48  C   UNL A   1      48.300  25.036  25.772  1.00  0.00     0.029 A 
ATOM     49  N   UNL A   1      47.706  27.069  26.495  1.00  0.00    -0.354 N 
ATOM     50  C   UNL A   1      43.583  27.958  27.473  1.00  0.00     0.074 A 
ATOM     51  C   UNL A   1      42.744  26.792  27.291  1.00  0.00     0.031 C 
ATOM     52  C   UNL A   1      49.409  25.796  25.802  1.00  0.00     0.029 A 
ATOM     53  C   UNL A   1      49.051  27.152  26.217  1.00  0.00     0.049 A 
ATOM     54  H   UNL A   1      47.186  27.818  26.864  1.00  0.00     0.167 HD
ATOM     55  C   UNL A   1      43.142  29.157  27.923  1.00  0.00     0.037 A 
ATOM     56  C   UNL A   1      49.888  28.207  26.258  1.00  0.00     0.037 A 
ATOM     57  C   UNL A   1      43.988  30.308  28.104  1.00  0.00     0.049 A 
ATOM     58  C   UNL A   1      49.362  29.549  26.699  1.00  0.00     0.074 A 
ATOM     59  C   UNL A   1      43.645  31.559  28.589  1.00  0.00     0.029 A 
ATOM     60  N   UNL A   1      45.341  30.357  27.798  1.00  0.00    -0.354 N 
ATOM     61  N   UNL A   1      48.147  29.874  27.076  1.00  0.00    -0.248 NA
ATOM     62  C   UNL A   1      50.315  30.667  26.719  1.00  0.00     0.031 C 
ATOM     63  C   UNL A   1      44.772  32.381  28.515  1.00  0.00     0.029 A 
ATOM     64  C   UNL A   1      45.837  31.626  28.049  1.00  0.00     0.049 A 
ATOM     65  H   UNL A   1      45.869  29.602  27.453  1.00  0.00     0.167 HD
ATOM     66  C   UNL A   1      48.198  31.227  27.403  1.00  0.00     0.074 A 
ATOM     67  C   UNL A   1      49.566  31.654  27.192  1.00  0.00     0.031 C 
ATOM     68  C   UNL A   1      47.204  32.038  27.840  1.00  0.00     0.037 A 
BRANCH  55  69
ATOM     69  C   UNL A   1      41.674  29.300  28.223  1.00  0.00     0.058 A 
ATOM     70  C   UNL A   1      40.703  29.300  27.210  1.00  0.00     0.135 A 
ATOM     71  C   UNL A   1      41.230  29.386  29.554  1.00  0.00     0.135 A 
ATOM     72  F   UNL A   1      41.070  29.236  25.920  1.00  0.00    -0.206 F 
ATOM     73  C   UNL A   1      39.346  29.403  27.503  1.00  0.00     0.059 A 
ATOM     74  C   UNL A   1      39.877  29.458  29.871  1.00  0.00     0.059 A 
ATOM     75  F   UNL A   1      42.115  29.393  30.562  1.00  0.00    -0.206 F 
ATOM     76  C   UNL A   1      38.942  29.478  28.837  1.00  0.00     0.060 A 
BRANCH  76  77
ATOM     77  S   UNL A   1      37.178  29.596  29.199  1.00  0.00     0.124 S 
ATOM     78  O   UNL A   1      36.597  28.949  28.026  1.00  0.00    -0.237 OA
ATOM     79  O   UNL A   1      37.067  28.854  30.450  1.00  0.00    -0.237 OA
ATOM     80  O   UNL A   1      36.945  31.033  29.301  1.00  0.00    -0.744 OA
ENDBRANCH  76  77
ENDBRANCH  55  69
BRANCH  56  81
ATOM     81  C   UNL A   1      51.309  28.044  25.843  1.00  0.00     0.058 A 
ATOM     82  C   UNL A   1      52.315  27.768  26.780  1.00  0.00     0.135 A 
ATOM     83  C   UNL A   1      51.688  28.160  24.495  1.00  0.00     0.135 A 
ATOM     84  F   UNL A   1      52.008  27.661  28.081  1.00  0.00    -0.206 F 
ATOM     85  C   UNL A   1      53.647  27.627  26.400  1.00  0.00     0.059 A 
ATOM     86  C   UNL A   1      53.008  27.994  24.087  1.00  0.00     0.059 A 
ATOM     87  F   UNL A   1      50.764  28.415  23.555  1.00  0.00    -0.206 F 
ATOM     88  C   UNL A   1      53.983  27.736  25.049  1.00  0.00     0.060 A 
BRANCH  88  89
ATOM     89  S   UNL A   1      55.706  27.503  24.561  1.00  0.00     0.124 S 
ATOM     90  O   UNL A   1      55.746  26.070  24.294  1.00  0.00    -0.237 OA
ATOM     91  O   UNL A   1      55.813  28.374  23.396  1.00  0.00    -0.237 OA
ATOM     92  O   UNL A   1      56.453  27.947  25.735  1.00  0.00    -0.744 OA
ENDBRANCH  88  89
ENDBRANCH  56  81
BRANCH  68  93
ATOM     93  C   UNL A   1      47.554  33.469  28.157  1.00  0.00     0.058 A 
ATOM     94  C   UNL A   1      47.428  34.491  27.203  1.00  0.00     0.135 A 
ATOM     95  C   UNL A   1      47.953  33.832  29.455  1.00  0.00     0.135 A 
ATOM     96  F   UNL A   1      47.058  34.200  25.946  1.00  0.00    -0.206 F 
ATOM     97  C   UNL A   1      47.699  35.819  27.520  1.00  0.00     0.059 A 
ATOM     98  C   UNL A   1      48.198  35.156  29.802  1.00  0.00     0.059 A 
ATOM     99  F   UNL A   1      48.082  32.896  30.408  1.00  0.00    -0.206 F 
ATOM    100  C   UNL A   1      48.076  36.142  28.825  1.00  0.00     0.060 A 
BRANCH 100 101
ATOM    101  S   UNL A   1      48.374  37.876  29.233  1.00  0.00     0.124 S 
ATOM    102  O   UNL A   1      47.568  38.038  30.440  1.00  0.00    -0.237 OA
ATOM    103  O   UNL A   1      49.820  37.905  29.429  1.00  0.00    -0.237 OA
ATOM    104  O   UNL A   1      47.891  38.591  28.056  1.00  0.00    -0.744 OA
ENDBRANCH 100 101
ENDBRANCH  68  93
ENDBRANCH  42  43
ENDBRANCH  35  37
ENDBRANCH  34  35
ENDBRANCH  33  34
ENDBRANCH  32  33
ENDBRANCH  31  32
ENDBRANCH   1  31
TORSDOF 22
ENDMDL
