MODEL 1
REMARK VINA RESULT:      -9.4      0.000      0.000
REMARK SMILES C[C@H](C(=O)OCCOCCOC(=O)c1ccc(-c2c3nc(c(-c4c(F)cc(S(=O)(=O)[O-])cc4F)c4ccc([nH]4)c(-c4c(F)cc(S(=O)(=O)[O-])cc4F)c4nc(c(-c5c(F)cc(S(=O)(=O)[O-])cc5F)c5ccc2[nH]5)C=C4)C=C3)cc1)c1ccc2c(c1)[nH]c1ccc(Cl)cc12
REMARK SMILES IDX 9 1 8 2 7 3 6 4 5 5 3 6 4 7 2 8 1 9 80 10 81 11 85 12 82 13
REMARK SMILES IDX 84 14 83 15 86 16 93 17 87 18 92 20 88 21 90 22 89 23 91 24
REMARK SMILES IDX 10 25 11 26 12 27 13 28 14 29 15 30 79 31 16 32 78 33 17 34
REMARK SMILES IDX 18 35 19 36 72 37 20 38 77 39 71 40 73 41 21 42 76 43 70 44
REMARK SMILES IDX 69 45 22 47 56 48 35 49 55 50 36 51 39 52 54 53 74 54 37 55
REMARK SMILES IDX 38 56 53 58 75 59 40 60 23 61 24 62 33 63 25 64 26 65 32 66
REMARK SMILES IDX 34 67 27 68 28 69 29 70 30 71 31 72 57 73 58 74 67 75 59 76
REMARK SMILES IDX 60 77 66 78 68 79 61 80 62 81 63 82 64 83 65 84 41 85 42 86
REMARK SMILES IDX 51 87 43 88 44 89 50 90 52 91 45 92 46 93 47 94 48 95 49 96
REMARK H PARENT 86 19 73 46 39 57
REMARK Flexibility Score: inf
ROOT
ATOM      1  C   UNL A   1      35.483  33.429  30.972  1.00  0.00     0.202 C 
ENDROOT
BRANCH   1   2
ATOM      2  O   UNL A   1      34.903  33.781  32.225  1.00  0.00    -0.374 OA
BRANCH   2   3
ATOM      3  C   UNL A   1      35.331  33.021  33.361  1.00  0.00     0.202 C 
BRANCH   3   4
ATOM      4  C   UNL A   1      35.870  33.848  34.531  1.00  0.00     0.261 C 
BRANCH   4   5
ATOM      5  O   UNL A   1      36.602  33.001  35.442  1.00  0.00    -0.463 OA
BRANCH   5   6
ATOM      6  C   UNL A   1      37.896  33.322  35.685  1.00  0.00     0.313 C 
ATOM      7  O   UNL A   1      38.254  34.167  36.502  1.00  0.00    -0.252 OA
BRANCH   6   8
ATOM      8  C   UNL A   1      38.905  32.471  34.914  1.00  0.00     0.126 C 
ATOM      9  C   UNL A   1      38.258  31.126  34.565  1.00  0.00     0.025 C 
BRANCH   8  10
ATOM     10  C   UNL A   1      39.563  33.084  33.681  1.00  0.00    -0.032 A 
ATOM     11  C   UNL A   1      38.900  33.042  32.445  1.00  0.00     0.005 A 
ATOM     12  C   UNL A   1      40.804  33.737  33.756  1.00  0.00     0.031 A 
ATOM     13  C   UNL A   1      39.457  33.611  31.287  1.00  0.00     0.011 A 
ATOM     14  C   UNL A   1      41.367  34.253  32.586  1.00  0.00     0.047 A 
ATOM     15  C   UNL A   1      40.729  34.211  31.353  1.00  0.00     0.007 A 
ATOM     16  N   UNL A   1      42.586  34.851  32.392  1.00  0.00    -0.355 N 
ATOM     17  C   UNL A   1      41.613  34.810  30.396  1.00  0.00     0.009 A 
ATOM     18  C   UNL A   1      42.795  35.132  31.066  1.00  0.00     0.047 A 
ATOM     19  H   UNL A   1      43.227  35.053  33.112  1.00  0.00     0.167 HD
ATOM     20  C   UNL A   1      41.533  35.072  29.013  1.00  0.00     0.031 A 
ATOM     21  C   UNL A   1      43.928  35.635  30.416  1.00  0.00     0.028 A 
ATOM     22  C   UNL A   1      42.653  35.591  28.355  1.00  0.00     0.041 A 
ATOM     23  C   UNL A   1      43.839  35.846  29.037  1.00  0.00     0.022 A 
ATOM     24  Cl  UNL A   1      42.558  35.923  26.667  1.00  0.00    -0.084 Cl
ENDBRANCH   8  10
ENDBRANCH   6   8
ENDBRANCH   5   6
ENDBRANCH   4   5
ENDBRANCH   3   4
ENDBRANCH   2   3
ENDBRANCH   1   2
BRANCH   1  25
ATOM     25  C   UNL A   1      34.996  32.108  30.358  1.00  0.00     0.261 C 
BRANCH  25  26
ATOM     26  O   UNL A   1      36.070  31.319  29.811  1.00  0.00    -0.460 OA
BRANCH  26  27
ATOM     27  C   UNL A   1      36.679  30.499  30.706  1.00  0.00     0.338 C 
ATOM     28  O   UNL A   1      36.152  29.895  31.630  1.00  0.00    -0.246 OA
BRANCH  27  29
ATOM     29  C   UNL A   1      38.088  30.291  30.318  1.00  0.00     0.060 A 
ATOM     30  C   UNL A   1      38.439  30.509  28.982  1.00  0.00     0.016 A 
ATOM     31  C   UNL A   1      39.042  29.842  31.232  1.00  0.00     0.016 A 
ATOM     32  C   UNL A   1      39.739  30.242  28.549  1.00  0.00     0.010 A 
ATOM     33  C   UNL A   1      40.353  29.613  30.805  1.00  0.00     0.010 A 
ATOM     34  C   UNL A   1      40.699  29.764  29.451  1.00  0.00    -0.014 A 
BRANCH  34  35
ATOM     35  C   UNL A   1      42.010  29.266  28.956  1.00  0.00     0.031 A 
ATOM     36  C   UNL A   1      43.173  30.223  28.878  1.00  0.00     0.074 A 
ATOM     37  C   UNL A   1      42.173  27.979  28.592  1.00  0.00     0.049 A 
ATOM     38  N   UNL A   1      44.388  30.022  28.438  1.00  0.00    -0.248 NA
ATOM     39  C   UNL A   1      42.925  31.599  29.343  1.00  0.00     0.031 C 
ATOM     40  C   UNL A   1      41.134  26.952  28.623  1.00  0.00     0.029 A 
ATOM     41  N   UNL A   1      43.281  27.320  28.117  1.00  0.00    -0.354 N 
ATOM     42  C   UNL A   1      45.041  31.245  28.553  1.00  0.00     0.074 A 
ATOM     43  C   UNL A   1      44.075  32.193  29.062  1.00  0.00     0.031 C 
ATOM     44  C   UNL A   1      41.654  25.790  28.193  1.00  0.00     0.029 A 
ATOM     45  C   UNL A   1      43.055  25.996  27.826  1.00  0.00     0.049 A 
ATOM     46  H   UNL A   1      44.157  27.755  27.998  1.00  0.00     0.167 HD
ATOM     47  C   UNL A   1      46.332  31.548  28.278  1.00  0.00     0.037 A 
ATOM     48  C   UNL A   1      43.878  25.061  27.310  1.00  0.00     0.037 A 
ATOM     49  C   UNL A   1      47.301  30.595  27.806  1.00  0.00     0.049 A 
ATOM     50  C   UNL A   1      45.305  25.426  26.991  1.00  0.00     0.074 A 
ATOM     51  C   UNL A   1      48.646  30.793  27.548  1.00  0.00     0.029 A 
ATOM     52  N   UNL A   1      47.030  29.265  27.522  1.00  0.00    -0.354 N 
ATOM     53  N   UNL A   1      45.916  26.577  27.143  1.00  0.00    -0.248 NA
ATOM     54  C   UNL A   1      46.157  24.365  26.436  1.00  0.00     0.031 C 
ATOM     55  C   UNL A   1      49.179  29.593  27.065  1.00  0.00     0.029 A 
ATOM     56  C   UNL A   1      48.178  28.635  27.070  1.00  0.00     0.049 A 
ATOM     57  H   UNL A   1      46.152  28.833  27.626  1.00  0.00     0.167 HD
ATOM     58  C   UNL A   1      47.230  26.370  26.731  1.00  0.00     0.074 A 
ATOM     59  C   UNL A   1      47.327  24.981  26.332  1.00  0.00     0.031 C 
ATOM     60  C   UNL A   1      48.262  27.248  26.689  1.00  0.00     0.037 A 
BRANCH  47  61
ATOM     61  C   UNL A   1      46.770  32.975  28.475  1.00  0.00     0.058 A 
ATOM     62  C   UNL A   1      47.247  33.440  29.711  1.00  0.00     0.135 A 
ATOM     63  C   UNL A   1      46.740  33.882  27.402  1.00  0.00     0.135 A 
ATOM     64  F   UNL A   1      47.281  32.621  30.774  1.00  0.00    -0.206 F 
ATOM     65  C   UNL A   1      47.648  34.760  29.885  1.00  0.00     0.059 A 
ATOM     66  C   UNL A   1      47.164  35.199  27.547  1.00  0.00     0.059 A 
ATOM     67  F   UNL A   1      46.291  33.491  26.199  1.00  0.00    -0.206 F 
ATOM     68  C   UNL A   1      47.601  35.633  28.796  1.00  0.00     0.060 A 
BRANCH  68  69
ATOM     69  S   UNL A   1      48.124  37.344  29.039  1.00  0.00     0.124 S 
ATOM     70  O   UNL A   1      48.764  37.636  27.761  1.00  0.00    -0.237 OA
ATOM     71  O   UNL A   1      46.856  38.026  29.282  1.00  0.00    -0.237 OA
ATOM     72  O   UNL A   1      49.021  37.266  30.187  1.00  0.00    -0.744 OA
ENDBRANCH  68  69
ENDBRANCH  47  61
BRANCH  48  73
ATOM     73  C   UNL A   1      43.378  23.680  27.070  1.00  0.00     0.058 A 
ATOM     74  C   UNL A   1      43.058  23.242  25.777  1.00  0.00     0.135 A 
ATOM     75  C   UNL A   1      43.210  22.771  28.127  1.00  0.00     0.135 A 
ATOM     76  F   UNL A   1      43.190  24.077  24.735  1.00  0.00    -0.206 F 
ATOM     77  C   UNL A   1      42.575  21.959  25.539  1.00  0.00     0.059 A 
ATOM     78  C   UNL A   1      42.753  21.474  27.911  1.00  0.00     0.059 A 
ATOM     79  F   UNL A   1      43.511  23.137  29.383  1.00  0.00    -0.206 F 
ATOM     80  C   UNL A   1      42.430  21.080  26.614  1.00  0.00     0.060 A 
BRANCH  80  81
ATOM     81  S   UNL A   1      41.851  19.401  26.288  1.00  0.00     0.124 S 
ATOM     82  O   UNL A   1      40.409  19.600  26.194  1.00  0.00    -0.237 OA
ATOM     83  O   UNL A   1      42.534  19.080  25.039  1.00  0.00    -0.237 OA
ATOM     84  O   UNL A   1      42.312  18.655  27.454  1.00  0.00    -0.744 OA
ENDBRANCH  80  81
ENDBRANCH  48  73
BRANCH  60  85
ATOM     85  C   UNL A   1      49.601  26.730  26.235  1.00  0.00     0.058 A 
ATOM     86  C   UNL A   1      50.058  26.912  24.922  1.00  0.00     0.135 A 
ATOM     87  C   UNL A   1      50.462  26.097  27.148  1.00  0.00     0.135 A 
ATOM     88  F   UNL A   1      49.273  27.507  24.010  1.00  0.00    -0.206 F 
ATOM     89  C   UNL A   1      51.314  26.465  24.521  1.00  0.00     0.059 A 
ATOM     90  C   UNL A   1      51.732  25.667  26.776  1.00  0.00     0.059 A 
ATOM     91  F   UNL A   1      50.079  25.909  28.420  1.00  0.00    -0.206 F 
ATOM     92  C   UNL A   1      52.144  25.845  25.456  1.00  0.00     0.060 A 
BRANCH  92  93
ATOM     93  S   UNL A   1      53.785  25.302  24.933  1.00  0.00     0.124 S 
ATOM     94  O   UNL A   1      53.600  23.858  24.838  1.00  0.00    -0.237 OA
ATOM     95  O   UNL A   1      53.958  26.004  23.666  1.00  0.00    -0.237 OA
ATOM     96  O   UNL A   1      54.653  25.754  26.017  1.00  0.00    -0.744 OA
ENDBRANCH  92  93
ENDBRANCH  60  85
ENDBRANCH  34  35
ENDBRANCH  27  29
ENDBRANCH  26  27
ENDBRANCH  25  26
ENDBRANCH   1  25
TORSDOF 18
ENDMDL
MODEL 2
REMARK VINA RESULT:      -9.2      5.742     13.424
REMARK SMILES C[C@H](C(=O)OCCOCCOC(=O)c1ccc(-c2c3nc(c(-c4c(F)cc(S(=O)(=O)[O-])cc4F)c4ccc([nH]4)c(-c4c(F)cc(S(=O)(=O)[O-])cc4F)c4nc(c(-c5c(F)cc(S(=O)(=O)[O-])cc5F)c5ccc2[nH]5)C=C4)C=C3)cc1)c1ccc2c(c1)[nH]c1ccc(Cl)cc12
REMARK SMILES IDX 9 1 8 2 7 3 6 4 5 5 3 6 4 7 2 8 1 9 80 10 81 11 85 12 82 13
REMARK SMILES IDX 84 14 83 15 86 16 93 17 87 18 92 20 88 21 90 22 89 23 91 24
REMARK SMILES IDX 10 25 11 26 12 27 13 28 14 29 15 30 79 31 16 32 78 33 17 34
REMARK SMILES IDX 18 35 19 36 72 37 20 38 77 39 71 40 73 41 21 42 76 43 70 44
REMARK SMILES IDX 69 45 22 47 56 48 35 49 55 50 36 51 39 52 54 53 74 54 37 55
REMARK SMILES IDX 38 56 53 58 75 59 40 60 23 61 24 62 33 63 25 64 26 65 32 66
REMARK SMILES IDX 34 67 27 68 28 69 29 70 30 71 31 72 57 73 58 74 67 75 59 76
REMARK SMILES IDX 60 77 66 78 68 79 61 80 62 81 63 82 64 83 65 84 41 85 42 86
REMARK SMILES IDX 51 87 43 88 44 89 50 90 52 91 45 92 46 93 47 94 48 95 49 96
REMARK H PARENT 86 19 73 46 39 57
REMARK Flexibility Score: inf
ROOT
ATOM      1  C   UNL A   1      41.721  20.859  27.000  1.00  0.00     0.202 C 
ENDROOT
BRANCH   1   2
ATOM      2  O   UNL A   1      41.718  19.615  26.304  1.00  0.00    -0.374 OA
BRANCH   2   3
ATOM      3  C   UNL A   1      42.903  18.818  26.419  1.00  0.00     0.202 C 
BRANCH   3   4
ATOM      4  C   UNL A   1      43.838  18.865  25.207  1.00  0.00     0.261 C 
BRANCH   4   5
ATOM      5  O   UNL A   1      44.141  20.233  24.866  1.00  0.00    -0.463 OA
BRANCH   5   6
ATOM      6  C   UNL A   1      45.431  20.632  24.985  1.00  0.00     0.313 C 
ATOM      7  O   UNL A   1      46.342  19.908  25.379  1.00  0.00    -0.252 OA
BRANCH   6   8
ATOM      8  C   UNL A   1      45.691  22.057  24.495  1.00  0.00     0.126 C 
ATOM      9  C   UNL A   1      44.593  22.449  23.500  1.00  0.00     0.025 C 
BRANCH   8  10
ATOM     10  C   UNL A   1      45.878  23.150  25.544  1.00  0.00    -0.032 A 
ATOM     11  C   UNL A   1      46.451  24.376  25.175  1.00  0.00     0.005 A 
ATOM     12  C   UNL A   1      45.447  22.980  26.869  1.00  0.00     0.031 A 
ATOM     13  C   UNL A   1      46.625  25.419  26.101  1.00  0.00     0.011 A 
ATOM     14  C   UNL A   1      45.673  24.008  27.789  1.00  0.00     0.047 A 
ATOM     15  C   UNL A   1      46.247  25.224  27.443  1.00  0.00     0.007 A 
ATOM     16  N   UNL A   1      45.421  24.045  29.136  1.00  0.00    -0.355 N 
ATOM     17  C   UNL A   1      46.337  26.007  28.642  1.00  0.00     0.009 A 
ATOM     18  C   UNL A   1      45.880  25.212  29.694  1.00  0.00     0.047 A 
ATOM     19  H   UNL A   1      44.970  23.328  29.639  1.00  0.00     0.167 HD
ATOM     20  C   UNL A   1      46.802  27.305  28.934  1.00  0.00     0.031 A 
ATOM     21  C   UNL A   1      45.929  25.616  31.033  1.00  0.00     0.028 A 
ATOM     22  C   UNL A   1      46.840  27.728  30.267  1.00  0.00     0.041 A 
ATOM     23  C   UNL A   1      46.434  26.891  31.303  1.00  0.00     0.022 A 
ATOM     24  Cl  UNL A   1      47.398  29.317  30.631  1.00  0.00    -0.084 Cl
ENDBRANCH   8  10
ENDBRANCH   6   8
ENDBRANCH   5   6
ENDBRANCH   4   5
ENDBRANCH   3   4
ENDBRANCH   2   3
ENDBRANCH   1   2
BRANCH   1  25
ATOM     25  C   UNL A   1      41.905  22.111  26.129  1.00  0.00     0.261 C 
BRANCH  25  26
ATOM     26  O   UNL A   1      41.336  23.292  26.724  1.00  0.00    -0.460 OA
BRANCH  26  27
ATOM     27  C   UNL A   1      41.980  24.446  26.413  1.00  0.00     0.338 C 
ATOM     28  O   UNL A   1      42.699  24.651  25.445  1.00  0.00    -0.246 OA
BRANCH  27  29
ATOM     29  C   UNL A   1      41.565  25.518  27.340  1.00  0.00     0.060 A 
ATOM     30  C   UNL A   1      42.332  26.686  27.375  1.00  0.00     0.016 A 
ATOM     31  C   UNL A   1      40.476  25.364  28.198  1.00  0.00     0.016 A 
ATOM     32  C   UNL A   1      42.032  27.691  28.297  1.00  0.00     0.010 A 
ATOM     33  C   UNL A   1      40.153  26.389  29.093  1.00  0.00     0.010 A 
ATOM     34  C   UNL A   1      40.957  27.538  29.183  1.00  0.00    -0.014 A 
BRANCH  34  35
ATOM     35  C   UNL A   1      40.772  28.492  30.309  1.00  0.00     0.031 A 
ATOM     36  C   UNL A   1      41.670  28.380  31.515  1.00  0.00     0.074 A 
ATOM     37  C   UNL A   1      39.829  29.452  30.260  1.00  0.00     0.049 A 
ATOM     38  N   UNL A   1      41.661  29.070  32.627  1.00  0.00    -0.248 NA
ATOM     39  C   UNL A   1      42.709  27.336  31.469  1.00  0.00     0.031 C 
ATOM     40  C   UNL A   1      38.900  29.671  29.153  1.00  0.00     0.029 A 
ATOM     41  N   UNL A   1      39.496  30.422  31.174  1.00  0.00    -0.354 N 
ATOM     42  C   UNL A   1      42.672  28.532  33.417  1.00  0.00     0.074 A 
ATOM     43  C   UNL A   1      43.246  27.431  32.675  1.00  0.00     0.031 C 
ATOM     44  C   UNL A   1      38.105  30.714  29.448  1.00  0.00     0.029 A 
ATOM     45  C   UNL A   1      38.447  31.218  30.778  1.00  0.00     0.049 A 
ATOM     46  H   UNL A   1      39.965  30.538  32.032  1.00  0.00     0.167 HD
ATOM     47  C   UNL A   1      43.098  28.930  34.638  1.00  0.00     0.037 A 
ATOM     48  C   UNL A   1      37.825  32.227  31.419  1.00  0.00     0.037 A 
ATOM     49  C   UNL A   1      42.550  30.049  35.358  1.00  0.00     0.049 A 
ATOM     50  C   UNL A   1      38.302  32.640  32.788  1.00  0.00     0.074 A 
ATOM     51  C   UNL A   1      42.948  30.564  36.579  1.00  0.00     0.029 A 
ATOM     52  N   UNL A   1      41.488  30.828  34.923  1.00  0.00    -0.354 N 
ATOM     53  N   UNL A   1      39.285  32.147  33.503  1.00  0.00    -0.248 NA
ATOM     54  C   UNL A   1      37.589  33.750  33.436  1.00  0.00     0.031 C 
ATOM     55  C   UNL A   1      42.097  31.626  36.905  1.00  0.00     0.029 A 
ATOM     56  C   UNL A   1      41.202  31.805  35.862  1.00  0.00     0.049 A 
ATOM     57  H   UNL A   1      41.008  30.703  34.073  1.00  0.00     0.167 HD
ATOM     58  C   UNL A   1      39.327  32.905  34.670  1.00  0.00     0.074 A 
ATOM     59  C   UNL A   1      38.277  33.896  34.560  1.00  0.00     0.031 C 
ATOM     60  C   UNL A   1      40.160  32.793  35.734  1.00  0.00     0.037 A 
BRANCH  47  61
ATOM     61  C   UNL A   1      44.210  28.144  35.280  1.00  0.00     0.058 A 
ATOM     62  C   UNL A   1      45.561  28.415  35.012  1.00  0.00     0.135 A 
ATOM     63  C   UNL A   1      43.918  27.122  36.199  1.00  0.00     0.135 A 
ATOM     64  F   UNL A   1      45.896  29.369  34.128  1.00  0.00    -0.206 F 
ATOM     65  C   UNL A   1      46.581  27.682  35.606  1.00  0.00     0.059 A 
ATOM     66  C   UNL A   1      44.925  26.396  36.829  1.00  0.00     0.059 A 
ATOM     67  F   UNL A   1      42.644  26.819  36.491  1.00  0.00    -0.206 F 
ATOM     68  C   UNL A   1      46.253  26.673  36.513  1.00  0.00     0.060 A 
BRANCH  68  69
ATOM     69  S   UNL A   1      47.590  25.730  37.276  1.00  0.00     0.124 S 
ATOM     70  O   UNL A   1      47.441  26.098  38.680  1.00  0.00    -0.237 OA
ATOM     71  O   UNL A   1      47.232  24.355  36.942  1.00  0.00    -0.237 OA
ATOM     72  O   UNL A   1      48.787  26.241  36.616  1.00  0.00    -0.744 OA
ENDBRANCH  68  69
ENDBRANCH  47  61
BRANCH  48  73
ATOM     73  C   UNL A   1      36.685  32.932  30.771  1.00  0.00     0.058 A 
ATOM     74  C   UNL A   1      35.366  32.714  31.195  1.00  0.00     0.135 A 
ATOM     75  C   UNL A   1      36.890  33.833  29.715  1.00  0.00     0.135 A 
ATOM     76  F   UNL A   1      35.116  31.852  32.192  1.00  0.00    -0.206 F 
ATOM     77  C   UNL A   1      34.289  33.354  30.588  1.00  0.00     0.059 A 
ATOM     78  C   UNL A   1      35.832  34.505  29.109  1.00  0.00     0.059 A 
ATOM     79  F   UNL A   1      38.135  34.085  29.277  1.00  0.00    -0.206 F 
ATOM     80  C   UNL A   1      34.534  34.251  29.547  1.00  0.00     0.060 A 
BRANCH  80  81
ATOM     81  S   UNL A   1      33.134  35.113  28.800  1.00  0.00     0.124 S 
ATOM     82  O   UNL A   1      32.656  34.123  27.842  1.00  0.00    -0.237 OA
ATOM     83  O   UNL A   1      32.272  35.352  29.954  1.00  0.00    -0.237 OA
ATOM     84  O   UNL A   1      33.743  36.308  28.226  1.00  0.00    -0.744 OA
ENDBRANCH  80  81
ENDBRANCH  48  73
BRANCH  60  85
ATOM     85  C   UNL A   1      40.005  33.790  36.850  1.00  0.00     0.058 A 
ATOM     86  C   UNL A   1      40.696  35.010  36.854  1.00  0.00     0.135 A 
ATOM     87  C   UNL A   1      39.103  33.544  37.900  1.00  0.00     0.135 A 
ATOM     88  F   UNL A   1      41.573  35.293  35.878  1.00  0.00    -0.206 F 
ATOM     89  C   UNL A   1      40.517  35.944  37.871  1.00  0.00     0.059 A 
ATOM     90  C   UNL A   1      38.887  34.474  38.912  1.00  0.00     0.059 A 
ATOM     91  F   UNL A   1      38.406  32.396  37.938  1.00  0.00    -0.206 F 
ATOM     92  C   UNL A   1      39.609  35.667  38.895  1.00  0.00     0.060 A 
BRANCH  92  93
ATOM     93  S   UNL A   1      39.358  36.901  40.189  1.00  0.00     0.124 S 
ATOM     94  O   UNL A   1      40.724  37.122  40.652  1.00  0.00    -0.237 OA
ATOM     95  O   UNL A   1      38.751  38.006  39.454  1.00  0.00    -0.237 OA
ATOM     96  O   UNL A   1      38.475  36.226  41.136  1.00  0.00    -0.744 OA
ENDBRANCH  92  93
ENDBRANCH  60  85
ENDBRANCH  34  35
ENDBRANCH  27  29
ENDBRANCH  26  27
ENDBRANCH  25  26
ENDBRANCH   1  25
TORSDOF 18
ENDMDL
MODEL 3
REMARK VINA RESULT:      -9.2      6.999     13.918
REMARK SMILES C[C@H](C(=O)OCCOCCOC(=O)c1ccc(-c2c3nc(c(-c4c(F)cc(S(=O)(=O)[O-])cc4F)c4ccc([nH]4)c(-c4c(F)cc(S(=O)(=O)[O-])cc4F)c4nc(c(-c5c(F)cc(S(=O)(=O)[O-])cc5F)c5ccc2[nH]5)C=C4)C=C3)cc1)c1ccc2c(c1)[nH]c1ccc(Cl)cc12
REMARK SMILES IDX 9 1 8 2 7 3 6 4 5 5 3 6 4 7 2 8 1 9 80 10 81 11 85 12 82 13
REMARK SMILES IDX 84 14 83 15 86 16 93 17 87 18 92 20 88 21 90 22 89 23 91 24
REMARK SMILES IDX 10 25 11 26 12 27 13 28 14 29 15 30 79 31 16 32 78 33 17 34
REMARK SMILES IDX 18 35 19 36 72 37 20 38 77 39 71 40 73 41 21 42 76 43 70 44
REMARK SMILES IDX 69 45 22 47 56 48 35 49 55 50 36 51 39 52 54 53 74 54 37 55
REMARK SMILES IDX 38 56 53 58 75 59 40 60 23 61 24 62 33 63 25 64 26 65 32 66
REMARK SMILES IDX 34 67 27 68 28 69 29 70 30 71 31 72 57 73 58 74 67 75 59 76
REMARK SMILES IDX 60 77 66 78 68 79 61 80 62 81 63 82 64 83 65 84 41 85 42 86
REMARK SMILES IDX 51 87 43 88 44 89 50 90 52 91 45 92 46 93 47 94 48 95 49 96
REMARK H PARENT 86 19 73 46 39 57
REMARK Flexibility Score: inf
ROOT
ATOM      1  C   UNL A   1      40.303  21.543  26.243  1.00  0.00     0.202 C 
ENDROOT
BRANCH   1   2
ATOM      2  O   UNL A   1      39.139  22.287  26.595  1.00  0.00    -0.374 OA
BRANCH   2   3
ATOM      3  C   UNL A   1      38.105  22.357  25.608  1.00  0.00     0.202 C 
BRANCH   3   4
ATOM      4  C   UNL A   1      37.168  21.147  25.561  1.00  0.00     0.261 C 
BRANCH   4   5
ATOM      5  O   UNL A   1      36.115  21.371  24.600  1.00  0.00    -0.463 OA
BRANCH   5   6
ATOM      6  C   UNL A   1      34.838  21.239  25.036  1.00  0.00     0.313 C 
ATOM      7  O   UNL A   1      34.517  21.185  26.220  1.00  0.00    -0.252 OA
BRANCH   6   8
ATOM      8  C   UNL A   1      33.794  21.251  23.919  1.00  0.00     0.126 C 
ATOM      9  C   UNL A   1      32.765  20.147  24.188  1.00  0.00     0.025 C 
BRANCH   8  10
ATOM     10  C   UNL A   1      33.094  22.571  23.610  1.00  0.00    -0.032 A 
ATOM     11  C   UNL A   1      33.776  23.569  22.896  1.00  0.00     0.005 A 
ATOM     12  C   UNL A   1      31.760  22.802  23.981  1.00  0.00     0.031 A 
ATOM     13  C   UNL A   1      33.166  24.792  22.570  1.00  0.00     0.011 A 
ATOM     14  C   UNL A   1      31.185  24.044  23.694  1.00  0.00     0.047 A 
ATOM     15  C   UNL A   1      31.848  25.045  22.996  1.00  0.00     0.007 A 
ATOM     16  N   UNL A   1      29.945  24.529  24.023  1.00  0.00    -0.355 N 
ATOM     17  C   UNL A   1      30.958  26.166  22.915  1.00  0.00     0.009 A 
ATOM     18  C   UNL A   1      29.806  25.837  23.631  1.00  0.00     0.047 A 
ATOM     19  H   UNL A   1      29.247  24.007  24.481  1.00  0.00     0.167 HD
ATOM     20  C   UNL A   1      31.042  27.447  22.332  1.00  0.00     0.031 A 
ATOM     21  C   UNL A   1      28.762  26.742  23.857  1.00  0.00     0.028 A 
ATOM     22  C   UNL A   1      29.998  28.355  22.536  1.00  0.00     0.041 A 
ATOM     23  C   UNL A   1      28.887  28.020  23.306  1.00  0.00     0.022 A 
ATOM     24  Cl  UNL A   1      30.090  29.919  21.818  1.00  0.00    -0.084 Cl
ENDBRANCH   8  10
ENDBRANCH   6   8
ENDBRANCH   5   6
ENDBRANCH   4   5
ENDBRANCH   3   4
ENDBRANCH   2   3
ENDBRANCH   1   2
BRANCH   1  25
ATOM     25  C   UNL A   1      41.614  22.341  26.188  1.00  0.00     0.261 C 
BRANCH  25  26
ATOM     26  O   UNL A   1      41.399  23.765  26.169  1.00  0.00    -0.460 OA
BRANCH  26  27
ATOM     27  C   UNL A   1      42.457  24.501  26.598  1.00  0.00     0.338 C 
ATOM     28  O   UNL A   1      43.616  24.418  26.215  1.00  0.00    -0.246 OA
BRANCH  27  29
ATOM     29  C   UNL A   1      41.992  25.563  27.510  1.00  0.00     0.060 A 
ATOM     30  C   UNL A   1      42.713  26.761  27.542  1.00  0.00     0.016 A 
ATOM     31  C   UNL A   1      40.901  25.376  28.359  1.00  0.00     0.016 A 
ATOM     32  C   UNL A   1      42.365  27.762  28.451  1.00  0.00     0.010 A 
ATOM     33  C   UNL A   1      40.529  26.395  29.241  1.00  0.00     0.010 A 
ATOM     34  C   UNL A   1      41.288  27.576  29.328  1.00  0.00    -0.014 A 
BRANCH  34  35
ATOM     35  C   UNL A   1      41.055  28.532  30.443  1.00  0.00     0.031 A 
ATOM     36  C   UNL A   1      41.926  28.447  31.671  1.00  0.00     0.074 A 
ATOM     37  C   UNL A   1      40.093  29.471  30.365  1.00  0.00     0.049 A 
ATOM     38  N   UNL A   1      41.875  29.144  32.777  1.00  0.00    -0.248 NA
ATOM     39  C   UNL A   1      42.988  27.426  31.656  1.00  0.00     0.031 C 
ATOM     40  C   UNL A   1      39.186  29.663  29.234  1.00  0.00     0.029 A 
ATOM     41  N   UNL A   1      39.716  30.439  31.264  1.00  0.00    -0.354 N 
ATOM     42  C   UNL A   1      42.878  28.633  33.595  1.00  0.00     0.074 A 
ATOM     43  C   UNL A   1      43.494  27.541  32.875  1.00  0.00     0.031 C 
ATOM     44  C   UNL A   1      38.361  30.690  29.503  1.00  0.00     0.029 A 
ATOM     45  C   UNL A   1      38.660  31.209  30.837  1.00  0.00     0.049 A 
ATOM     46  H   UNL A   1      40.162  30.570  32.132  1.00  0.00     0.167 HD
ATOM     47  C   UNL A   1      43.266  29.048  34.823  1.00  0.00     0.037 A 
ATOM     48  C   UNL A   1      38.001  32.208  31.457  1.00  0.00     0.037 A 
ATOM     49  C   UNL A   1      42.676  30.159  35.523  1.00  0.00     0.049 A 
ATOM     50  C   UNL A   1      38.435  32.640  32.835  1.00  0.00     0.074 A 
ATOM     51  C   UNL A   1      43.033  30.690  36.750  1.00  0.00     0.029 A 
ATOM     52  N   UNL A   1      41.608  30.911  35.057  1.00  0.00    -0.354 N 
ATOM     53  N   UNL A   1      39.411  32.172  33.576  1.00  0.00    -0.248 NA
ATOM     54  C   UNL A   1      37.682  33.738  33.458  1.00  0.00     0.031 C 
ATOM     55  C   UNL A   1      42.151  31.735  37.047  1.00  0.00     0.029 A 
ATOM     56  C   UNL A   1      41.278  31.887  35.982  1.00  0.00     0.049 A 
ATOM     57  H   UNL A   1      41.151  30.771  34.196  1.00  0.00     0.167 HD
ATOM     58  C   UNL A   1      39.408  32.939  34.739  1.00  0.00     0.074 A 
ATOM     59  C   UNL A   1      38.340  33.906  34.597  1.00  0.00     0.031 C 
ATOM     60  C   UNL A   1      40.218  32.852  35.823  1.00  0.00     0.037 A 
BRANCH  47  61
ATOM     61  C   UNL A   1      44.379  28.291  35.497  1.00  0.00     0.058 A 
ATOM     62  C   UNL A   1      45.725  28.652  35.335  1.00  0.00     0.135 A 
ATOM     63  C   UNL A   1      44.090  27.204  36.339  1.00  0.00     0.135 A 
ATOM     64  F   UNL A   1      46.059  29.671  34.527  1.00  0.00    -0.206 F 
ATOM     65  C   UNL A   1      46.748  27.945  35.958  1.00  0.00     0.059 A 
ATOM     66  C   UNL A   1      45.095  26.501  36.997  1.00  0.00     0.059 A 
ATOM     67  F   UNL A   1      42.820  26.814  36.528  1.00  0.00    -0.206 F 
ATOM     68  C   UNL A   1      46.422  26.870  36.787  1.00  0.00     0.060 A 
BRANCH  68  69
ATOM     69  S   UNL A   1      47.761  25.962  37.587  1.00  0.00     0.124 S 
ATOM     70  O   UNL A   1      48.011  26.790  38.763  1.00  0.00    -0.237 OA
ATOM     71  O   UNL A   1      47.147  24.664  37.848  1.00  0.00    -0.237 OA
ATOM     72  O   UNL A   1      48.821  25.961  36.584  1.00  0.00    -0.744 OA
ENDBRANCH  68  69
ENDBRANCH  47  61
BRANCH  48  73
ATOM     73  C   UNL A   1      36.861  32.883  30.777  1.00  0.00     0.058 A 
ATOM     74  C   UNL A   1      37.082  33.869  29.805  1.00  0.00     0.135 A 
ATOM     75  C   UNL A   1      35.531  32.558  31.087  1.00  0.00     0.135 A 
ATOM     76  F   UNL A   1      38.334  34.225  29.482  1.00  0.00    -0.206 F 
ATOM     77  C   UNL A   1      36.026  34.520  29.172  1.00  0.00     0.059 A 
ATOM     78  C   UNL A   1      34.459  33.176  30.450  1.00  0.00     0.059 A 
ATOM     79  F   UNL A   1      35.266  31.614  32.004  1.00  0.00    -0.206 F 
ATOM     80  C   UNL A   1      34.717  34.163  29.501  1.00  0.00     0.060 A 
BRANCH  80  81
ATOM     81  S   UNL A   1      33.356  34.977  28.637  1.00  0.00     0.124 S 
ATOM     82  O   UNL A   1      34.064  35.982  27.853  1.00  0.00    -0.237 OA
ATOM     83  O   UNL A   1      32.769  33.874  27.882  1.00  0.00    -0.237 OA
ATOM     84  O   UNL A   1      32.528  35.490  29.724  1.00  0.00    -0.744 OA
ENDBRANCH  80  81
ENDBRANCH  48  73
BRANCH  60  85
ATOM     85  C   UNL A   1      40.014  33.851  36.929  1.00  0.00     0.058 A 
ATOM     86  C   UNL A   1      40.568  35.139  36.874  1.00  0.00     0.135 A 
ATOM     87  C   UNL A   1      39.200  33.534  38.030  1.00  0.00     0.135 A 
ATOM     88  F   UNL A   1      41.357  35.492  35.847  1.00  0.00    -0.206 F 
ATOM     89  C   UNL A   1      40.342  36.071  37.883  1.00  0.00     0.059 A 
ATOM     90  C   UNL A   1      38.938  34.459  39.036  1.00  0.00     0.059 A 
ATOM     91  F   UNL A   1      38.635  32.320  38.125  1.00  0.00    -0.206 F 
ATOM     92  C   UNL A   1      39.524  35.722  38.959  1.00  0.00     0.060 A 
BRANCH  92  93
ATOM     93  S   UNL A   1      39.208  36.952  40.243  1.00  0.00     0.124 S 
ATOM     94  O   UNL A   1      38.720  38.079  39.456  1.00  0.00    -0.237 OA
ATOM     95  O   UNL A   1      38.216  36.284  41.079  1.00  0.00    -0.237 OA
ATOM     96  O   UNL A   1      40.517  37.138  40.862  1.00  0.00    -0.744 OA
ENDBRANCH  92  93
ENDBRANCH  60  85
ENDBRANCH  34  35
ENDBRANCH  27  29
ENDBRANCH  26  27
ENDBRANCH  25  26
ENDBRANCH   1  25
TORSDOF 18
ENDMDL
