MODEL 1
REMARK VINA RESULT:      -9.7      0.000      0.000
REMARK SMILES C[C@@H]1OCC[C@@H]1C#CC(=O)OCCOCCOC(=O)c1ccc(-c2c3nc(c(-c4c(F)cc(S(=O)(=O)[O-])cc4F)c4ccc([nH]4)c(-c4c(F)cc(S(=O)(=O)[O-])cc4F)c4nc(c(-c5c(F)cc(S(=O)(=O)[O-])cc5F)c5ccc2[nH]5)C=C4)C=C3)cc1
REMARK SMILES IDX 15 1 14 2 13 3 12 4 11 5 9 6 10 7 8 8 7 9 6 10 1 11 2 12
REMARK SMILES IDX 3 13 4 14 5 15 16 16 17 17 18 18 19 19 20 20 21 21 85 22
REMARK SMILES IDX 22 23 84 24 23 25 24 26 25 27 78 28 26 29 83 30 77 31 79 32
REMARK SMILES IDX 27 33 82 34 76 35 75 36 28 38 62 39 41 40 61 41 42 42 45 43
REMARK SMILES IDX 60 44 80 45 43 46 44 47 59 49 81 50 46 51 29 52 30 53 39 54
REMARK SMILES IDX 31 55 32 56 38 57 40 58 33 59 34 60 35 61 36 62 37 63 63 64
REMARK SMILES IDX 64 65 73 66 65 67 66 68 72 69 74 70 67 71 68 72 69 73 70 74
REMARK SMILES IDX 71 75 47 76 48 77 57 78 49 79 50 80 56 81 58 82 51 83 52 84
REMARK SMILES IDX 53 85 54 86 55 87
REMARK H PARENT 79 37 45 48
REMARK Flexibility Score: inf
ROOT
ATOM      1  C   UNL A   1      33.645  34.530  28.113  1.00  0.00     0.202 C 
ENDROOT
BRANCH   1   2
ATOM      2  O   UNL A   1      32.668  35.329  28.776  1.00  0.00    -0.374 OA
BRANCH   2   3
ATOM      3  C   UNL A   1      33.101  36.397  29.615  1.00  0.00     0.202 C 
BRANCH   3   4
ATOM      4  C   UNL A   1      32.679  36.382  31.086  1.00  0.00     0.262 C 
BRANCH   4   5
ATOM      5  O   UNL A   1      33.260  37.473  31.805  1.00  0.00    -0.454 OA
BRANCH   5   6
ATOM      6  C   UNL A   1      33.868  37.124  32.965  1.00  0.00     0.384 C 
ATOM      7  O   UNL A   1      33.653  37.574  34.080  1.00  0.00    -0.236 OA
BRANCH   6   8
ATOM      8  C   UNL A   1      34.764  36.010  32.796  1.00  0.00     0.017 C 
ATOM      9  C   UNL A   1      35.583  35.130  32.732  1.00  0.00    -0.085 C 
BRANCH   9  10
ATOM     10  C   UNL A   1      36.748  34.235  32.678  1.00  0.00     0.096 C 
ATOM     11  C   UNL A   1      35.034  32.373  32.109  1.00  0.00     0.040 C 
ATOM     12  C   UNL A   1      36.334  32.765  32.800  1.00  0.00     0.130 C 
ATOM     13  O   UNL A   1      36.255  32.480  34.209  1.00  0.00    -0.377 OA
ATOM     14  C   UNL A   1      36.977  33.496  34.920  1.00  0.00     0.162 C 
ATOM     15  C   UNL A   1      37.649  34.381  33.886  1.00  0.00     0.048 C 
ENDBRANCH   9  10
ENDBRANCH   6   8
ENDBRANCH   5   6
ENDBRANCH   4   5
ENDBRANCH   3   4
ENDBRANCH   2   3
ENDBRANCH   1   2
BRANCH   1  16
ATOM     16  C   UNL A   1      33.400  33.025  27.920  1.00  0.00     0.261 C 
BRANCH  16  17
ATOM     17  O   UNL A   1      34.559  32.285  27.510  1.00  0.00    -0.460 OA
BRANCH  17  18
ATOM     18  C   UNL A   1      34.407  30.936  27.570  1.00  0.00     0.338 C 
ATOM     19  O   UNL A   1      33.451  30.288  27.180  1.00  0.00    -0.246 OA
BRANCH  18  20
ATOM     20  C   UNL A   1      35.663  30.309  28.016  1.00  0.00     0.060 A 
ATOM     21  C   UNL A   1      35.682  29.704  29.280  1.00  0.00     0.016 A 
ATOM     22  C   UNL A   1      36.823  30.388  27.248  1.00  0.00     0.016 A 
ATOM     23  C   UNL A   1      36.877  29.210  29.798  1.00  0.00     0.010 A 
ATOM     24  C   UNL A   1      38.023  29.898  27.772  1.00  0.00     0.010 A 
ATOM     25  C   UNL A   1      38.063  29.334  29.062  1.00  0.00    -0.014 A 
BRANCH  25  26
ATOM     26  C   UNL A   1      39.365  28.986  29.688  1.00  0.00     0.031 A 
ATOM     27  C   UNL A   1      39.852  29.792  30.863  1.00  0.00     0.074 A 
ATOM     28  C   UNL A   1      40.091  27.952  29.224  1.00  0.00     0.049 A 
ATOM     29  N   UNL A   1      40.986  29.711  31.508  1.00  0.00    -0.248 NA
ATOM     30  C   UNL A   1      38.942  30.830  31.377  1.00  0.00     0.031 C 
ATOM     31  C   UNL A   1      39.703  27.075  28.121  1.00  0.00     0.029 A 
ATOM     32  N   UNL A   1      41.315  27.471  29.619  1.00  0.00    -0.354 N 
ATOM     33  C   UNL A   1      40.930  30.684  32.500  1.00  0.00     0.074 A 
ATOM     34  C   UNL A   1      39.666  31.371  32.346  1.00  0.00     0.031 C 
ATOM     35  C   UNL A   1      40.675  26.168  27.920  1.00  0.00     0.029 A 
ATOM     36  C   UNL A   1      41.771  26.427  28.850  1.00  0.00     0.049 A 
ATOM     37  H   UNL A   1      41.817  27.839  30.381  1.00  0.00     0.167 HD
ATOM     38  C   UNL A   1      41.842  30.965  33.461  1.00  0.00     0.037 A 
ATOM     39  C   UNL A   1      42.952  25.777  28.874  1.00  0.00     0.037 A 
ATOM     40  C   UNL A   1      43.097  30.273  33.609  1.00  0.00     0.049 A 
ATOM     41  C   UNL A   1      43.989  26.175  29.896  1.00  0.00     0.074 A 
ATOM     42  C   UNL A   1      44.088  30.483  34.552  1.00  0.00     0.029 A 
ATOM     43  N   UNL A   1      43.536  29.240  32.794  1.00  0.00    -0.354 N 
ATOM     44  N   UNL A   1      43.915  27.086  30.839  1.00  0.00    -0.248 NA
ATOM     45  C   UNL A   1      45.269  25.455  29.862  1.00  0.00     0.031 C 
ATOM     46  C   UNL A   1      45.150  29.619  34.272  1.00  0.00     0.029 A 
ATOM     47  C   UNL A   1      44.791  28.819  33.200  1.00  0.00     0.049 A 
ATOM     48  H   UNL A   1      43.029  28.862  32.039  1.00  0.00     0.167 HD
ATOM     49  C   UNL A   1      45.119  27.014  31.533  1.00  0.00     0.074 A 
ATOM     50  C   UNL A   1      45.895  25.963  30.913  1.00  0.00     0.031 C 
ATOM     51  C   UNL A   1      45.544  27.751  32.590  1.00  0.00     0.037 A 
BRANCH  38  52
ATOM     52  C   UNL A   1      41.528  32.070  34.433  1.00  0.00     0.058 A 
ATOM     53  C   UNL A   1      41.932  33.394  34.200  1.00  0.00     0.135 A 
ATOM     54  C   UNL A   1      40.743  31.819  35.571  1.00  0.00     0.135 A 
ATOM     55  F   UNL A   1      42.701  33.690  33.139  1.00  0.00    -0.206 F 
ATOM     56  C   UNL A   1      41.576  34.428  35.061  1.00  0.00     0.059 A 
ATOM     57  C   UNL A   1      40.348  32.841  36.430  1.00  0.00     0.059 A 
ATOM     58  F   UNL A   1      40.332  30.571  35.847  1.00  0.00    -0.206 F 
ATOM     59  C   UNL A   1      40.774  34.142  36.168  1.00  0.00     0.060 A 
BRANCH  59  60
ATOM     60  S   UNL A   1      40.283  35.504  37.246  1.00  0.00     0.124 S 
ATOM     61  O   UNL A   1      39.377  34.831  38.172  1.00  0.00    -0.237 OA
ATOM     62  O   UNL A   1      41.561  35.930  37.808  1.00  0.00    -0.237 OA
ATOM     63  O   UNL A   1      39.654  36.453  36.333  1.00  0.00    -0.744 OA
ENDBRANCH  59  60
ENDBRANCH  38  52
BRANCH  39  64
ATOM     64  C   UNL A   1      43.244  24.696  27.890  1.00  0.00     0.058 A 
ATOM     65  C   UNL A   1      42.946  23.354  28.175  1.00  0.00     0.135 A 
ATOM     66  C   UNL A   1      43.881  24.974  26.669  1.00  0.00     0.135 A 
ATOM     67  F   UNL A   1      42.345  23.032  29.331  1.00  0.00    -0.206 F 
ATOM     68  C   UNL A   1      43.309  22.326  27.311  1.00  0.00     0.059 A 
ATOM     69  C   UNL A   1      44.218  23.967  25.771  1.00  0.00     0.059 A 
ATOM     70  F   UNL A   1      44.177  26.241  26.337  1.00  0.00    -0.206 F 
ATOM     71  C   UNL A   1      43.949  22.643  26.112  1.00  0.00     0.060 A 
BRANCH  71  72
ATOM     72  S   UNL A   1      44.419  21.300  25.001  1.00  0.00     0.124 S 
ATOM     73  O   UNL A   1      45.769  20.998  25.461  1.00  0.00    -0.237 OA
ATOM     74  O   UNL A   1      43.403  20.293  25.295  1.00  0.00    -0.237 OA
ATOM     75  O   UNL A   1      44.324  21.909  23.679  1.00  0.00    -0.744 OA
ENDBRANCH  71  72
ENDBRANCH  39  64
BRANCH  51  76
ATOM     76  C   UNL A   1      46.883  27.408  33.189  1.00  0.00     0.058 A 
ATOM     77  C   UNL A   1      48.069  28.036  32.775  1.00  0.00     0.135 A 
ATOM     78  C   UNL A   1      46.972  26.472  34.233  1.00  0.00     0.135 A 
ATOM     79  F   UNL A   1      48.046  28.935  31.778  1.00  0.00    -0.206 F 
ATOM     80  C   UNL A   1      49.297  27.725  33.353  1.00  0.00     0.059 A 
ATOM     81  C   UNL A   1      48.183  26.173  34.851  1.00  0.00     0.059 A 
ATOM     82  F   UNL A   1      45.869  25.849  34.678  1.00  0.00    -0.206 F 
ATOM     83  C   UNL A   1      49.342  26.796  34.394  1.00  0.00     0.060 A 
BRANCH  83  84
ATOM     84  S   UNL A   1      50.937  26.431  35.158  1.00  0.00     0.124 S 
ATOM     85  O   UNL A   1      50.964  27.392  36.256  1.00  0.00    -0.237 OA
ATOM     86  O   UNL A   1      50.782  25.033  35.545  1.00  0.00    -0.237 OA
ATOM     87  O   UNL A   1      51.895  26.677  34.084  1.00  0.00    -0.744 OA
ENDBRANCH  83  84
ENDBRANCH  51  76
ENDBRANCH  25  26
ENDBRANCH  18  20
ENDBRANCH  17  18
ENDBRANCH  16  17
ENDBRANCH   1  16
TORSDOF 18
ENDMDL
MODEL 2
REMARK VINA RESULT:      -9.5      2.070      2.531
REMARK SMILES C[C@@H]1OCC[C@@H]1C#CC(=O)OCCOCCOC(=O)c1ccc(-c2c3nc(c(-c4c(F)cc(S(=O)(=O)[O-])cc4F)c4ccc([nH]4)c(-c4c(F)cc(S(=O)(=O)[O-])cc4F)c4nc(c(-c5c(F)cc(S(=O)(=O)[O-])cc5F)c5ccc2[nH]5)C=C4)C=C3)cc1
REMARK SMILES IDX 15 1 14 2 13 3 12 4 11 5 9 6 10 7 8 8 7 9 6 10 1 11 2 12
REMARK SMILES IDX 3 13 4 14 5 15 16 16 17 17 18 18 19 19 20 20 21 21 85 22
REMARK SMILES IDX 22 23 84 24 23 25 24 26 25 27 78 28 26 29 83 30 77 31 79 32
REMARK SMILES IDX 27 33 82 34 76 35 75 36 28 38 62 39 41 40 61 41 42 42 45 43
REMARK SMILES IDX 60 44 80 45 43 46 44 47 59 49 81 50 46 51 29 52 30 53 39 54
REMARK SMILES IDX 31 55 32 56 38 57 40 58 33 59 34 60 35 61 36 62 37 63 63 64
REMARK SMILES IDX 64 65 73 66 65 67 66 68 72 69 74 70 67 71 68 72 69 73 70 74
REMARK SMILES IDX 71 75 47 76 48 77 57 78 49 79 50 80 56 81 58 82 51 83 52 84
REMARK SMILES IDX 53 85 54 86 55 87
REMARK H PARENT 79 37 45 48
REMARK Flexibility Score: inf
ROOT
ATOM      1  C   UNL A   1      34.581  34.470  28.206  1.00  0.00     0.202 C 
ENDROOT
BRANCH   1   2
ATOM      2  O   UNL A   1      34.316  35.416  29.240  1.00  0.00    -0.374 OA
BRANCH   2   3
ATOM      3  C   UNL A   1      32.979  35.579  29.703  1.00  0.00     0.202 C 
BRANCH   3   4
ATOM      4  C   UNL A   1      32.738  36.455  30.935  1.00  0.00     0.262 C 
BRANCH   4   5
ATOM      5  O   UNL A   1      33.080  35.766  32.139  1.00  0.00    -0.454 OA
BRANCH   5   6
ATOM      6  C   UNL A   1      34.052  36.362  32.874  1.00  0.00     0.384 C 
ATOM      7  O   UNL A   1      34.024  37.474  33.376  1.00  0.00    -0.236 OA
BRANCH   6   8
ATOM      8  C   UNL A   1      35.150  35.472  33.147  1.00  0.00     0.017 C 
ATOM      9  C   UNL A   1      36.129  34.787  33.295  1.00  0.00    -0.085 C 
BRANCH   9  10
ATOM     10  C   UNL A   1      37.355  33.978  33.234  1.00  0.00     0.096 C 
ATOM     11  C   UNL A   1      35.778  32.002  32.653  1.00  0.00     0.040 C 
ATOM     12  C   UNL A   1      37.048  32.482  33.345  1.00  0.00     0.130 C 
ATOM     13  O   UNL A   1      36.990  32.181  34.752  1.00  0.00    -0.377 OA
ATOM     14  C   UNL A   1      37.639  33.242  35.471  1.00  0.00     0.162 C 
ATOM     15  C   UNL A   1      38.244  34.180  34.442  1.00  0.00     0.048 C 
ENDBRANCH   9  10
ENDBRANCH   6   8
ENDBRANCH   5   6
ENDBRANCH   4   5
ENDBRANCH   3   4
ENDBRANCH   2   3
ENDBRANCH   1   2
BRANCH   1  16
ATOM     16  C   UNL A   1      33.827  33.131  28.184  1.00  0.00     0.261 C 
BRANCH  16  17
ATOM     17  O   UNL A   1      34.497  32.062  28.868  1.00  0.00    -0.460 OA
BRANCH  17  18
ATOM     18  C   UNL A   1      34.515  30.889  28.184  1.00  0.00     0.338 C 
ATOM     19  O   UNL A   1      33.667  30.477  27.411  1.00  0.00    -0.246 OA
BRANCH  18  20
ATOM     20  C   UNL A   1      35.821  30.228  28.355  1.00  0.00     0.060 A 
ATOM     21  C   UNL A   1      36.137  29.715  29.620  1.00  0.00     0.016 A 
ATOM     22  C   UNL A   1      36.753  30.190  27.318  1.00  0.00     0.016 A 
ATOM     23  C   UNL A   1      37.406  29.197  29.864  1.00  0.00     0.010 A 
ATOM     24  C   UNL A   1      38.029  29.675  27.568  1.00  0.00     0.010 A 
ATOM     25  C   UNL A   1      38.373  29.204  28.850  1.00  0.00    -0.014 A 
BRANCH  25  26
ATOM     26  C   UNL A   1      39.777  28.833  29.159  1.00  0.00     0.031 A 
ATOM     27  C   UNL A   1      40.664  29.833  29.852  1.00  0.00     0.074 A 
ATOM     28  C   UNL A   1      40.246  27.612  28.843  1.00  0.00     0.049 A 
ATOM     29  N   UNL A   1      41.935  29.747  30.147  1.00  0.00    -0.248 NA
ATOM     30  C   UNL A   1      40.037  31.100  30.265  1.00  0.00     0.031 C 
ATOM     31  C   UNL A   1      39.471  26.546  28.209  1.00  0.00     0.029 A 
ATOM     32  N   UNL A   1      41.496  27.065  29.004  1.00  0.00    -0.354 N 
ATOM     33  C   UNL A   1      42.261  30.944  30.775  1.00  0.00     0.074 A 
ATOM     34  C   UNL A   1      41.065  31.757  30.783  1.00  0.00     0.031 C 
ATOM     35  C   UNL A   1      40.265  25.477  28.026  1.00  0.00     0.029 A 
ATOM     36  C   UNL A   1      41.613  25.797  28.488  1.00  0.00     0.049 A 
ATOM     37  H   UNL A   1      42.237  27.537  29.448  1.00  0.00     0.167 HD
ATOM     38  C   UNL A   1      43.446  31.322  31.312  1.00  0.00     0.037 A 
ATOM     39  C   UNL A   1      42.693  24.997  28.374  1.00  0.00     0.037 A 
ATOM     40  C   UNL A   1      44.633  30.504  31.302  1.00  0.00     0.049 A 
ATOM     41  C   UNL A   1      44.024  25.483  28.896  1.00  0.00     0.074 A 
ATOM     42  C   UNL A   1      45.882  30.796  31.821  1.00  0.00     0.029 A 
ATOM     43  N   UNL A   1      44.720  29.236  30.746  1.00  0.00    -0.354 N 
ATOM     44  N   UNL A   1      44.314  26.610  29.503  1.00  0.00    -0.248 NA
ATOM     45  C   UNL A   1      45.175  24.586  28.722  1.00  0.00     0.031 C 
ATOM     46  C   UNL A   1      46.739  29.733  31.528  1.00  0.00     0.029 A 
ATOM     47  C   UNL A   1      46.006  28.744  30.890  1.00  0.00     0.049 A 
ATOM     48  H   UNL A   1      43.976  28.757  30.313  1.00  0.00     0.167 HD
ATOM     49  C   UNL A   1      45.667  26.535  29.820  1.00  0.00     0.074 A 
ATOM     50  C   UNL A   1      46.134  25.248  29.352  1.00  0.00     0.031 C 
ATOM     51  C   UNL A   1      46.453  27.448  30.443  1.00  0.00     0.037 A 
BRANCH  38  52
ATOM     52  C   UNL A   1      43.532  32.679  31.955  1.00  0.00     0.058 A 
ATOM     53  C   UNL A   1      43.843  33.829  31.211  1.00  0.00     0.135 A 
ATOM     54  C   UNL A   1      43.219  32.847  33.314  1.00  0.00     0.135 A 
ATOM     55  F   UNL A   1      44.169  33.727  29.912  1.00  0.00    -0.206 F 
ATOM     56  C   UNL A   1      43.846  35.094  31.792  1.00  0.00     0.059 A 
ATOM     57  C   UNL A   1      43.186  34.105  33.909  1.00  0.00     0.059 A 
ATOM     58  F   UNL A   1      42.919  31.783  34.075  1.00  0.00    -0.206 F 
ATOM     59  C   UNL A   1      43.506  35.223  33.140  1.00  0.00     0.060 A 
BRANCH  59  60
ATOM     60  S   UNL A   1      43.470  36.876  33.862  1.00  0.00     0.124 S 
ATOM     61  O   UNL A   1      43.536  37.717  32.669  1.00  0.00    -0.237 OA
ATOM     62  O   UNL A   1      42.194  36.878  34.569  1.00  0.00    -0.237 OA
ATOM     63  O   UNL A   1      44.656  36.905  34.712  1.00  0.00    -0.744 OA
ENDBRANCH  59  60
ENDBRANCH  38  52
BRANCH  39  64
ATOM     64  C   UNL A   1      42.585  23.663  27.719  1.00  0.00     0.058 A 
ATOM     65  C   UNL A   1      42.394  22.496  28.475  1.00  0.00     0.135 A 
ATOM     66  C   UNL A   1      42.730  23.519  26.329  1.00  0.00     0.135 A 
ATOM     67  F   UNL A   1      42.257  22.576  29.808  1.00  0.00    -0.206 F 
ATOM     68  C   UNL A   1      42.396  21.235  27.887  1.00  0.00     0.059 A 
ATOM     69  C   UNL A   1      42.697  22.272  25.713  1.00  0.00     0.059 A 
ATOM     70  F   UNL A   1      42.902  24.601  25.554  1.00  0.00    -0.206 F 
ATOM     71  C   UNL A   1      42.553  21.134  26.504  1.00  0.00     0.060 A 
BRANCH  71  72
ATOM     72  S   UNL A   1      42.559  19.493  25.752  1.00  0.00     0.124 S 
ATOM     73  O   UNL A   1      41.155  19.331  25.392  1.00  0.00    -0.237 OA
ATOM     74  O   UNL A   1      43.488  19.670  24.641  1.00  0.00    -0.237 OA
ATOM     75  O   UNL A   1      43.036  18.632  26.830  1.00  0.00    -0.744 OA
ENDBRANCH  71  72
ENDBRANCH  39  64
BRANCH  51  76
ATOM     76  C   UNL A   1      47.885  27.069  30.717  1.00  0.00     0.058 A 
ATOM     77  C   UNL A   1      48.904  27.267  29.771  1.00  0.00     0.135 A 
ATOM     78  C   UNL A   1      48.251  26.547  31.969  1.00  0.00     0.135 A 
ATOM     79  F   UNL A   1      48.613  27.758  28.556  1.00  0.00    -0.206 F 
ATOM     80  C   UNL A   1      50.227  26.931  30.046  1.00  0.00     0.059 A 
ATOM     81  C   UNL A   1      49.573  26.239  32.279  1.00  0.00     0.059 A 
ATOM     82  F   UNL A   1      47.321  26.347  32.916  1.00  0.00    -0.206 F 
ATOM     83  C   UNL A   1      50.552  26.423  31.305  1.00  0.00     0.060 A 
BRANCH  83  84
ATOM     84  S   UNL A   1      52.278  26.029  31.658  1.00  0.00     0.124 S 
ATOM     85  O   UNL A   1      52.540  26.871  32.821  1.00  0.00    -0.237 OA
ATOM     86  O   UNL A   1      52.220  24.594  31.916  1.00  0.00    -0.237 OA
ATOM     87  O   UNL A   1      52.974  26.414  30.434  1.00  0.00    -0.744 OA
ENDBRANCH  83  84
ENDBRANCH  51  76
ENDBRANCH  25  26
ENDBRANCH  18  20
ENDBRANCH  17  18
ENDBRANCH  16  17
ENDBRANCH   1  16
TORSDOF 18
ENDMDL
MODEL 3
REMARK VINA RESULT:      -9.4      0.769      8.621
REMARK SMILES C[C@@H]1OCC[C@@H]1C#CC(=O)OCCOCCOC(=O)c1ccc(-c2c3nc(c(-c4c(F)cc(S(=O)(=O)[O-])cc4F)c4ccc([nH]4)c(-c4c(F)cc(S(=O)(=O)[O-])cc4F)c4nc(c(-c5c(F)cc(S(=O)(=O)[O-])cc5F)c5ccc2[nH]5)C=C4)C=C3)cc1
REMARK SMILES IDX 15 1 14 2 13 3 12 4 11 5 9 6 10 7 8 8 7 9 6 10 1 11 2 12
REMARK SMILES IDX 3 13 4 14 5 15 16 16 17 17 18 18 19 19 20 20 21 21 85 22
REMARK SMILES IDX 22 23 84 24 23 25 24 26 25 27 78 28 26 29 83 30 77 31 79 32
REMARK SMILES IDX 27 33 82 34 76 35 75 36 28 38 62 39 41 40 61 41 42 42 45 43
REMARK SMILES IDX 60 44 80 45 43 46 44 47 59 49 81 50 46 51 29 52 30 53 39 54
REMARK SMILES IDX 31 55 32 56 38 57 40 58 33 59 34 60 35 61 36 62 37 63 63 64
REMARK SMILES IDX 64 65 73 66 65 67 66 68 72 69 74 70 67 71 68 72 69 73 70 74
REMARK SMILES IDX 71 75 47 76 48 77 57 78 49 79 50 80 56 81 58 82 51 83 52 84
REMARK SMILES IDX 53 85 54 86 55 87
REMARK H PARENT 79 37 45 48
REMARK Flexibility Score: inf
ROOT
ATOM      1  C   UNL A   1      33.539  34.218  28.199  1.00  0.00     0.202 C 
ENDROOT
BRANCH   1   2
ATOM      2  O   UNL A   1      32.905  34.519  29.440  1.00  0.00    -0.374 OA
BRANCH   2   3
ATOM      3  C   UNL A   1      32.824  35.877  29.863  1.00  0.00     0.202 C 
BRANCH   3   4
ATOM      4  C   UNL A   1      32.530  36.162  31.338  1.00  0.00     0.262 C 
BRANCH   4   5
ATOM      5  O   UNL A   1      33.173  37.362  31.775  1.00  0.00    -0.454 OA
BRANCH   5   6
ATOM      6  C   UNL A   1      33.930  37.221  32.891  1.00  0.00     0.384 C 
ATOM      7  O   UNL A   1      33.876  37.889  33.913  1.00  0.00    -0.236 OA
BRANCH   6   8
ATOM      8  C   UNL A   1      34.780  36.061  32.829  1.00  0.00     0.017 C 
ATOM      9  C   UNL A   1      35.578  35.160  32.808  1.00  0.00    -0.085 C 
BRANCH   9  10
ATOM     10  C   UNL A   1      36.708  34.228  32.693  1.00  0.00     0.096 C 
ATOM     11  C   UNL A   1      34.942  32.507  31.887  1.00  0.00     0.040 C 
ATOM     12  C   UNL A   1      36.235  32.772  32.649  1.00  0.00     0.130 C 
ATOM     13  O   UNL A   1      36.101  32.346  34.018  1.00  0.00    -0.377 OA
ATOM     14  C   UNL A   1      36.840  33.253  34.851  1.00  0.00     0.162 C 
ATOM     15  C   UNL A   1      37.577  34.211  33.932  1.00  0.00     0.048 C 
ENDBRANCH   9  10
ENDBRANCH   6   8
ENDBRANCH   5   6
ENDBRANCH   4   5
ENDBRANCH   3   4
ENDBRANCH   2   3
ENDBRANCH   1   2
BRANCH   1  16
ATOM     16  C   UNL A   1      33.526  32.777  27.663  1.00  0.00     0.261 C 
BRANCH  16  17
ATOM     17  O   UNL A   1      34.234  31.834  28.481  1.00  0.00    -0.460 OA
BRANCH  17  18
ATOM     18  C   UNL A   1      34.589  30.694  27.835  1.00  0.00     0.338 C 
ATOM     19  O   UNL A   1      34.022  30.182  26.885  1.00  0.00    -0.246 OA
BRANCH  18  20
ATOM     20  C   UNL A   1      35.899  30.227  28.323  1.00  0.00     0.060 A 
ATOM     21  C   UNL A   1      35.928  29.469  29.501  1.00  0.00     0.016 A 
ATOM     22  C   UNL A   1      37.082  30.600  27.687  1.00  0.00     0.016 A 
ATOM     23  C   UNL A   1      37.149  29.113  30.071  1.00  0.00     0.010 A 
ATOM     24  C   UNL A   1      38.306  30.248  28.264  1.00  0.00     0.010 A 
ATOM     25  C   UNL A   1      38.347  29.529  29.475  1.00  0.00    -0.014 A 
BRANCH  25  26
ATOM     26  C   UNL A   1      39.638  29.320  30.179  1.00  0.00     0.031 A 
ATOM     27  C   UNL A   1      40.562  28.228  29.707  1.00  0.00     0.074 A 
ATOM     28  C   UNL A   1      39.987  30.107  31.213  1.00  0.00     0.049 A 
ATOM     29  N   UNL A   1      41.694  27.825  30.219  1.00  0.00    -0.248 NA
ATOM     30  C   UNL A   1      40.153  27.492  28.498  1.00  0.00     0.031 C 
ATOM     31  C   UNL A   1      39.195  31.220  31.734  1.00  0.00     0.029 A 
ATOM     32  N   UNL A   1      41.099  30.082  32.019  1.00  0.00    -0.354 N 
ATOM     33  C   UNL A   1      42.134  26.789  29.402  1.00  0.00     0.074 A 
ATOM     34  C   UNL A   1      41.125  26.598  28.383  1.00  0.00     0.031 C 
ATOM     35  C   UNL A   1      39.841  31.767  32.778  1.00  0.00     0.029 A 
ATOM     36  C   UNL A   1      41.069  31.016  33.028  1.00  0.00     0.049 A 
ATOM     37  H   UNL A   1      41.846  29.456  31.886  1.00  0.00     0.167 HD
ATOM     38  C   UNL A   1      43.282  26.075  29.485  1.00  0.00     0.037 A 
ATOM     39  C   UNL A   1      41.920  31.220  34.054  1.00  0.00     0.037 A 
ATOM     40  C   UNL A   1      44.283  26.274  30.502  1.00  0.00     0.049 A 
ATOM     41  C   UNL A   1      43.145  30.346  34.175  1.00  0.00     0.074 A 
ATOM     42  C   UNL A   1      45.481  25.603  30.671  1.00  0.00     0.029 A 
ATOM     43  N   UNL A   1      44.205  27.210  31.522  1.00  0.00    -0.354 N 
ATOM     44  N   UNL A   1      43.556  29.381  33.386  1.00  0.00    -0.248 NA
ATOM     45  C   UNL A   1      44.025  30.590  35.327  1.00  0.00     0.031 C 
ATOM     46  C   UNL A   1      46.099  26.091  31.825  1.00  0.00     0.029 A 
ATOM     47  C   UNL A   1      45.322  27.118  32.335  1.00  0.00     0.049 A 
ATOM     48  H   UNL A   1      43.464  27.847  31.649  1.00  0.00     0.167 HD
ATOM     49  C   UNL A   1      44.762  28.938  33.921  1.00  0.00     0.074 A 
ATOM     50  C   UNL A   1      45.020  29.748  35.092  1.00  0.00     0.031 C 
ATOM     51  C   UNL A   1      45.582  27.950  33.484  1.00  0.00     0.037 A 
BRANCH  38  52
ATOM     52  C   UNL A   1      43.528  25.006  28.455  1.00  0.00     0.058 A 
ATOM     53  C   UNL A   1      43.154  23.671  28.674  1.00  0.00     0.135 A 
ATOM     54  C   UNL A   1      44.068  25.334  27.200  1.00  0.00     0.135 A 
ATOM     55  F   UNL A   1      42.651  23.295  29.861  1.00  0.00    -0.206 F 
ATOM     56  C   UNL A   1      43.311  22.699  27.691  1.00  0.00     0.059 A 
ATOM     57  C   UNL A   1      44.206  24.386  26.190  1.00  0.00     0.059 A 
ATOM     58  F   UNL A   1      44.447  26.595  26.935  1.00  0.00    -0.206 F 
ATOM     59  C   UNL A   1      43.829  23.068  26.448  1.00  0.00     0.060 A 
BRANCH  59  60
ATOM     60  S   UNL A   1      43.981  21.803  25.170  1.00  0.00     0.124 S 
ATOM     61  O   UNL A   1      43.854  22.600  23.953  1.00  0.00    -0.237 OA
ATOM     62  O   UNL A   1      45.308  21.255  25.434  1.00  0.00    -0.237 OA
ATOM     63  O   UNL A   1      42.867  20.902  25.447  1.00  0.00    -0.744 OA
ENDBRANCH  59  60
ENDBRANCH  38  52
BRANCH  39  64
ATOM     64  C   UNL A   1      41.646  32.275  35.070  1.00  0.00     0.058 A 
ATOM     65  C   UNL A   1      40.697  32.078  36.084  1.00  0.00     0.135 A 
ATOM     66  C   UNL A   1      42.285  33.525  35.012  1.00  0.00     0.135 A 
ATOM     67  F   UNL A   1      40.053  30.905  36.180  1.00  0.00    -0.206 F 
ATOM     68  C   UNL A   1      40.356  33.092  36.974  1.00  0.00     0.059 A 
ATOM     69  C   UNL A   1      41.989  34.542  35.914  1.00  0.00     0.059 A 
ATOM     70  F   UNL A   1      43.211  33.766  34.071  1.00  0.00    -0.206 F 
ATOM     71  C   UNL A   1      41.006  34.323  36.877  1.00  0.00     0.060 A 
BRANCH  71  72
ATOM     72  S   UNL A   1      40.553  35.633  38.035  1.00  0.00     0.124 S 
ATOM     73  O   UNL A   1      41.812  35.854  38.734  1.00  0.00    -0.237 OA
ATOM     74  O   UNL A   1      40.125  36.699  37.134  1.00  0.00    -0.237 OA
ATOM     75  O   UNL A   1      39.488  35.026  38.827  1.00  0.00    -0.744 OA
ENDBRANCH  71  72
ENDBRANCH  39  64
BRANCH  51  76
ATOM     76  C   UNL A   1      46.871  27.727  34.232  1.00  0.00     0.058 A 
ATOM     77  C   UNL A   1      46.969  26.814  35.294  1.00  0.00     0.135 A 
ATOM     78  C   UNL A   1      48.040  28.402  33.842  1.00  0.00     0.135 A 
ATOM     79  F   UNL A   1      45.884  26.145  35.714  1.00  0.00    -0.206 F 
ATOM     80  C   UNL A   1      48.172  26.603  35.963  1.00  0.00     0.059 A 
ATOM     81  C   UNL A   1      49.261  28.179  34.471  1.00  0.00     0.059 A 
ATOM     82  F   UNL A   1      48.008  29.278  32.825  1.00  0.00    -0.206 F 
ATOM     83  C   UNL A   1      49.313  27.287  35.540  1.00  0.00     0.060 A 
BRANCH  83  84
ATOM     84  S   UNL A   1      50.874  26.973  36.392  1.00  0.00     0.124 S 
ATOM     85  O   UNL A   1      51.151  28.276  36.988  1.00  0.00    -0.237 OA
ATOM     86  O   UNL A   1      50.508  25.914  37.327  1.00  0.00    -0.237 OA
ATOM     87  O   UNL A   1      51.776  26.569  35.317  1.00  0.00    -0.744 OA
ENDBRANCH  83  84
ENDBRANCH  51  76
ENDBRANCH  25  26
ENDBRANCH  18  20
ENDBRANCH  17  18
ENDBRANCH  16  17
ENDBRANCH   1  16
TORSDOF 18
ENDMDL
