MODEL 1
REMARK VINA RESULT:     -10.8      0.000      0.000
REMARK SMILES C[C@H](Oc1ccc(-c2ccccc2)cc1)C(=O)N[C@H](C)C(=O)OCCOCCOC(=O)c1ccc(-c2c3nc(c(-c4c(F)cc(S(=O)(=O)[O-])cc4F)c4ccc([nH]4)c(-c4c(F)cc(S(=O)(=O)[O-])cc4F)c4nc(c(-c5c(F)cc(S(=O)(=O)[O-])cc5F)c5ccc2[nH]5)C=C4)C=C3)cc1
REMARK SMILES IDX 25 1 24 2 23 3 21 4 22 5 19 6 20 7 18 8 16 9 17 10 2 12 1 13
REMARK SMILES IDX 3 14 4 15 5 16 15 17 6 18 14 19 7 20 8 21 9 22 13 23 10 24
REMARK SMILES IDX 12 25 11 26 26 27 27 28 28 29 29 30 30 31 31 32 32 33 33 34
REMARK SMILES IDX 97 35 34 36 96 37 35 38 36 39 37 40 90 41 38 42 95 43 89 44
REMARK SMILES IDX 91 45 39 46 94 47 88 48 87 49 40 51 74 52 53 53 73 54 54 55
REMARK SMILES IDX 57 56 72 57 92 58 55 59 56 60 71 62 93 63 58 64 41 65 42 66
REMARK SMILES IDX 51 67 43 68 44 69 50 70 52 71 45 72 46 73 47 74 48 75 49 76
REMARK SMILES IDX 75 77 76 78 85 79 77 80 78 81 84 82 86 83 79 84 80 85 81 86
REMARK SMILES IDX 82 87 83 88 59 89 60 90 69 91 61 92 62 93 68 94 70 95 63 96
REMARK SMILES IDX 64 97 65 98 66 99 67 100
REMARK H PARENT 18 11 91 50 57 61
REMARK Flexibility Score: inf
ROOT
ATOM      1  C   UNL A   1      34.209  33.922  28.063  1.00  0.00     0.202 C 
ENDROOT
BRANCH   1   2
ATOM      2  C   UNL A   1      33.180  32.883  27.603  1.00  0.00     0.261 C 
BRANCH   2   3
ATOM      3  O   UNL A   1      33.698  31.531  27.650  1.00  0.00    -0.462 OA
BRANCH   3   4
ATOM      4  C   UNL A   1      32.942  30.572  27.063  1.00  0.00     0.328 C 
ATOM      5  O   UNL A   1      31.750  30.720  26.799  1.00  0.00    -0.250 OA
BRANCH   4   6
ATOM      6  C   UNL A   1      33.654  29.215  26.850  1.00  0.00     0.189 C 
ATOM      7  C   UNL A   1      35.113  28.999  27.251  1.00  0.00     0.043 C 
BRANCH   6   8
ATOM      8  N   UNL A   1      32.807  28.050  27.116  1.00  0.00    -0.340 N 
ATOM      9  C   UNL A   1      31.888  27.414  26.328  1.00  0.00     0.261 C 
ATOM     10  O   UNL A   1      31.197  26.548  26.876  1.00  0.00    -0.271 OA
ATOM     11  H   UNL A   1      32.917  27.659  28.013  1.00  0.00     0.164 HD
BRANCH   9  12
ATOM     12  C   UNL A   1      31.799  27.654  24.799  1.00  0.00     0.258 C 
ATOM     13  C   UNL A   1      30.330  27.454  24.438  1.00  0.00     0.064 C 
BRANCH  12  14
ATOM     14  O   UNL A   1      32.790  26.839  24.182  1.00  0.00    -0.481 OA
BRANCH  14  15
ATOM     15  C   UNL A   1      32.826  25.481  24.227  1.00  0.00     0.120 A 
ATOM     16  C   UNL A   1      34.149  24.546  25.004  1.00  0.00     0.047 A 
ATOM     17  C   UNL A   1      31.632  24.608  23.147  1.00  0.00     0.047 A 
ATOM     18  C   UNL A   1      34.171  22.717  24.933  1.00  0.00     0.012 A 
ATOM     19  C   UNL A   1      31.662  22.767  23.035  1.00  0.00     0.012 A 
ATOM     20  C   UNL A   1      32.854  21.814  24.037  1.00  0.00    -0.018 A 
BRANCH  20  21
ATOM     21  C   UNL A   1      32.771  20.365  24.227  1.00  0.00    -0.018 A 
ATOM     22  C   UNL A   1      32.941  19.824  25.516  1.00  0.00     0.009 A 
ATOM     23  C   UNL A   1      32.545  19.486  23.169  1.00  0.00     0.009 A 
ATOM     24  C   UNL A   1      32.874  18.452  25.750  1.00  0.00     0.001 A 
ATOM     25  C   UNL A   1      32.505  18.106  23.395  1.00  0.00     0.001 A 
ATOM     26  C   UNL A   1      32.663  17.590  24.683  1.00  0.00     0.000 A 
ENDBRANCH  20  21
ENDBRANCH  14  15
ENDBRANCH  12  14
ENDBRANCH   9  12
ENDBRANCH   6   8
ENDBRANCH   4   6
ENDBRANCH   3   4
ENDBRANCH   2   3
ENDBRANCH   1   2
BRANCH   1  27
ATOM     27  O   UNL A   1      35.492  33.417  28.414  1.00  0.00    -0.374 OA
BRANCH  27  28
ATOM     28  C   UNL A   1      35.812  33.359  29.801  1.00  0.00     0.202 C 
BRANCH  28  29
ATOM     29  C   UNL A   1      35.150  32.282  30.671  1.00  0.00     0.261 C 
BRANCH  29  30
ATOM     30  O   UNL A   1      35.521  32.303  32.078  1.00  0.00    -0.460 OA
BRANCH  30  31
ATOM     31  C   UNL A   1      36.730  31.541  32.509  1.00  0.00     0.338 C 
ATOM     32  O   UNL A   1      36.738  31.827  33.740  1.00  0.00    -0.246 OA
BRANCH  31  33
ATOM     33  C   UNL A   1      38.065  30.365  31.295  1.00  0.00     0.060 A 
ATOM     34  C   UNL A   1      39.125  29.400  31.730  1.00  0.00     0.016 A 
ATOM     35  C   UNL A   1      38.359  30.436  29.790  1.00  0.00     0.016 A 
ATOM     36  C   UNL A   1      40.364  29.197  31.131  1.00  0.00     0.010 A 
ATOM     37  C   UNL A   1      39.539  30.095  29.109  1.00  0.00     0.010 A 
ATOM     38  C   UNL A   1      40.587  29.591  29.829  1.00  0.00    -0.014 A 
BRANCH  38  39
ATOM     39  C   UNL A   1      41.854  29.232  29.208  1.00  0.00     0.031 A 
ATOM     40  C   UNL A   1      42.051  27.881  28.611  1.00  0.00     0.074 A 
ATOM     41  C   UNL A   1      42.743  30.237  29.159  1.00  0.00     0.049 A 
ATOM     42  N   UNL A   1      43.110  27.408  28.016  1.00  0.00    -0.248 NA
ATOM     43  C   UNL A   1      40.934  26.923  28.701  1.00  0.00     0.031 C 
ATOM     44  C   UNL A   1      42.515  31.575  29.734  1.00  0.00     0.029 A 
ATOM     45  N   UNL A   1      43.960  30.338  28.571  1.00  0.00    -0.354 N 
ATOM     46  C   UNL A   1      42.813  26.087  27.704  1.00  0.00     0.074 A 
ATOM     47  C   UNL A   1      41.462  25.836  28.152  1.00  0.00     0.031 C 
ATOM     48  C   UNL A   1      43.503  32.390  29.364  1.00  0.00     0.029 A 
ATOM     49  C   UNL A   1      44.503  31.594  28.681  1.00  0.00     0.049 A 
ATOM     50  H   UNL A   1      44.409  29.590  28.114  1.00  0.00     0.167 HD
ATOM     51  C   UNL A   1      43.643  25.184  27.128  1.00  0.00     0.037 A 
ATOM     52  C   UNL A   1      45.715  32.031  28.317  1.00  0.00     0.037 A 
ATOM     53  C   UNL A   1      44.992  25.535  26.746  1.00  0.00     0.049 A 
ATOM     54  C   UNL A   1      46.612  31.007  27.707  1.00  0.00     0.074 A 
ATOM     55  C   UNL A   1      45.971  24.746  26.174  1.00  0.00     0.029 A 
ATOM     56  N   UNL A   1      45.552  26.802  26.923  1.00  0.00    -0.354 N 
ATOM     57  N   UNL A   1      46.345  29.747  27.439  1.00  0.00    -0.248 NA
ATOM     58  C   UNL A   1      47.968  31.432  27.380  1.00  0.00     0.031 C 
ATOM     59  C   UNL A   1      47.135  25.517  26.066  1.00  0.00     0.029 A 
ATOM     60  C   UNL A   1      46.870  26.810  26.502  1.00  0.00     0.049 A 
ATOM     61  H   UNL A   1      45.077  27.580  27.293  1.00  0.00     0.167 HD
ATOM     62  C   UNL A   1      47.506  29.214  26.915  1.00  0.00     0.074 A 
ATOM     63  C   UNL A   1      48.467  30.310  26.875  1.00  0.00     0.031 C 
ATOM     64  C   UNL A   1      47.769  27.944  26.512  1.00  0.00     0.037 A 
BRANCH  51  65
ATOM     65  C   UNL A   1      43.159  23.761  26.985  1.00  0.00     0.058 A 
ATOM     66  C   UNL A   1      43.040  22.884  28.077  1.00  0.00     0.135 A 
ATOM     67  C   UNL A   1      42.823  23.253  25.718  1.00  0.00     0.135 A 
ATOM     68  F   UNL A   1      43.359  23.297  29.315  1.00  0.00    -0.206 F 
ATOM     69  C   UNL A   1      42.644  21.555  27.915  1.00  0.00     0.059 A 
ATOM     70  C   UNL A   1      42.398  21.937  25.534  1.00  0.00     0.059 A 
ATOM     71  F   UNL A   1      42.921  24.033  24.630  1.00  0.00    -0.206 F 
ATOM     72  C   UNL A   1      42.331  21.089  26.636  1.00  0.00     0.060 A 
BRANCH  72  73
ATOM     73  S   UNL A   1      41.847  19.359  26.435  1.00  0.00     0.124 S 
ATOM     74  O   UNL A   1      40.407  19.479  26.225  1.00  0.00    -0.237 OA
ATOM     75  O   UNL A   1      42.623  18.951  25.268  1.00  0.00    -0.237 OA
ATOM     76  O   UNL A   1      42.246  18.743  27.696  1.00  0.00    -0.744 OA
ENDBRANCH  72  73
ENDBRANCH  51  65
BRANCH  52  77
ATOM     77  C   UNL A   1      46.085  33.444  28.575  1.00  0.00     0.058 A 
ATOM     78  C   UNL A   1      46.723  33.811  29.765  1.00  0.00     0.135 A 
ATOM     79  C   UNL A   1      45.962  34.421  27.569  1.00  0.00     0.135 A 
ATOM     80  F   UNL A   1      46.881  32.911  30.747  1.00  0.00    -0.206 F 
ATOM     81  C   UNL A   1      47.237  35.091  29.948  1.00  0.00     0.059 A 
ATOM     82  C   UNL A   1      46.498  35.696  27.714  1.00  0.00     0.059 A 
ATOM     83  F   UNL A   1      45.395  34.111  26.393  1.00  0.00    -0.206 F 
ATOM     84  C   UNL A   1      47.132  36.022  28.911  1.00  0.00     0.060 A 
BRANCH  84  85
ATOM     85  S   UNL A   1      47.882  37.650  29.129  1.00  0.00     0.124 S 
ATOM     86  O   UNL A   1      46.704  38.509  29.181  1.00  0.00    -0.237 OA
ATOM     87  O   UNL A   1      48.609  37.486  30.383  1.00  0.00    -0.237 OA
ATOM     88  O   UNL A   1      48.719  37.798  27.943  1.00  0.00    -0.744 OA
ENDBRANCH  84  85
ENDBRANCH  52  77
BRANCH  64  89
ATOM     89  C   UNL A   1      49.148  27.721  25.979  1.00  0.00     0.058 A 
ATOM     90  C   UNL A   1      50.247  27.552  26.835  1.00  0.00     0.135 A 
ATOM     91  C   UNL A   1      49.362  27.674  24.595  1.00  0.00     0.135 A 
ATOM     92  F   UNL A   1      50.085  27.612  28.167  1.00  0.00    -0.206 F 
ATOM     93  C   UNL A   1      51.526  27.377  26.329  1.00  0.00     0.059 A 
ATOM     94  C   UNL A   1      50.627  27.462  24.069  1.00  0.00     0.059 A 
ATOM     95  F   UNL A   1      48.334  27.827  23.744  1.00  0.00    -0.206 F 
ATOM     96  C   UNL A   1      51.704  27.332  24.945  1.00  0.00     0.060 A 
BRANCH  96  97
ATOM     97  S   UNL A   1      53.368  27.082  24.302  1.00  0.00     0.124 S 
ATOM     98  O   UNL A   1      53.380  25.641  24.075  1.00  0.00    -0.237 OA
ATOM     99  O   UNL A   1      53.365  27.914  23.102  1.00  0.00    -0.237 OA
ATOM    100  O   UNL A   1      54.224  27.556  25.385  1.00  0.00    -0.744 OA
ENDBRANCH  96  97
ENDBRANCH  64  89
ENDBRANCH  38  39
ENDBRANCH  31  33
ENDBRANCH  30  31
ENDBRANCH  29  30
ENDBRANCH  28  29
ENDBRANCH  27  28
ENDBRANCH   1  27
TORSDOF 22
ENDMDL
MODEL 2
REMARK VINA RESULT:     -10.4      4.022      5.021
REMARK SMILES C[C@H](Oc1ccc(-c2ccccc2)cc1)C(=O)N[C@H](C)C(=O)OCCOCCOC(=O)c1ccc(-c2c3nc(c(-c4c(F)cc(S(=O)(=O)[O-])cc4F)c4ccc([nH]4)c(-c4c(F)cc(S(=O)(=O)[O-])cc4F)c4nc(c(-c5c(F)cc(S(=O)(=O)[O-])cc5F)c5ccc2[nH]5)C=C4)C=C3)cc1
REMARK SMILES IDX 25 1 24 2 23 3 21 4 22 5 19 6 20 7 18 8 16 9 17 10 2 12 1 13
REMARK SMILES IDX 3 14 4 15 5 16 15 17 6 18 14 19 7 20 8 21 9 22 13 23 10 24
REMARK SMILES IDX 12 25 11 26 26 27 27 28 28 29 29 30 30 31 31 32 32 33 33 34
REMARK SMILES IDX 97 35 34 36 96 37 35 38 36 39 37 40 90 41 38 42 95 43 89 44
REMARK SMILES IDX 91 45 39 46 94 47 88 48 87 49 40 51 74 52 53 53 73 54 54 55
REMARK SMILES IDX 57 56 72 57 92 58 55 59 56 60 71 62 93 63 58 64 41 65 42 66
REMARK SMILES IDX 51 67 43 68 44 69 50 70 52 71 45 72 46 73 47 74 48 75 49 76
REMARK SMILES IDX 75 77 76 78 85 79 77 80 78 81 84 82 86 83 79 84 80 85 81 86
REMARK SMILES IDX 82 87 83 88 59 89 60 90 69 91 61 92 62 93 68 94 70 95 63 96
REMARK SMILES IDX 64 97 65 98 66 99 67 100
REMARK H PARENT 18 11 91 50 57 61
REMARK Flexibility Score: inf
ROOT
ATOM      1  C   UNL A   1      34.432  31.709  27.641  1.00  0.00     0.202 C 
ENDROOT
BRANCH   1   2
ATOM      2  C   UNL A   1      33.467  30.521  27.543  1.00  0.00     0.261 C 
BRANCH   2   3
ATOM      3  O   UNL A   1      33.241  30.102  26.176  1.00  0.00    -0.462 OA
BRANCH   3   4
ATOM      4  C   UNL A   1      32.015  30.358  25.658  1.00  0.00     0.328 C 
ATOM      5  O   UNL A   1      31.256  31.212  26.113  1.00  0.00    -0.250 OA
BRANCH   4   6
ATOM      6  C   UNL A   1      31.575  29.411  24.516  1.00  0.00     0.189 C 
ATOM      7  C   UNL A   1      30.172  29.475  23.913  1.00  0.00     0.043 C 
BRANCH   6   8
ATOM      8  N   UNL A   1      32.618  29.157  23.519  1.00  0.00    -0.340 N 
ATOM      9  C   UNL A   1      33.443  28.081  23.343  1.00  0.00     0.261 C 
ATOM     10  O   UNL A   1      34.347  28.210  22.510  1.00  0.00    -0.271 OA
ATOM     11  H   UNL A   1      32.746  29.882  22.866  1.00  0.00     0.164 HD
BRANCH   9  12
ATOM     12  C   UNL A   1      33.190  26.719  24.039  1.00  0.00     0.258 C 
ATOM     13  C   UNL A   1      33.711  26.883  25.463  1.00  0.00     0.064 C 
BRANCH  12  14
ATOM     14  O   UNL A   1      33.739  25.705  23.203  1.00  0.00    -0.481 OA
BRANCH  14  15
ATOM     15  C   UNL A   1      33.668  24.369  23.445  1.00  0.00     0.120 A 
ATOM     16  C   UNL A   1      35.031  23.406  24.110  1.00  0.00     0.047 A 
ATOM     17  C   UNL A   1      32.223  23.498  22.734  1.00  0.00     0.047 A 
ATOM     18  C   UNL A   1      34.886  21.592  24.312  1.00  0.00     0.012 A 
ATOM     19  C   UNL A   1      32.077  21.666  22.897  1.00  0.00     0.012 A 
ATOM     20  C   UNL A   1      33.353  20.729  23.807  1.00  0.00    -0.018 A 
BRANCH  20  21
ATOM     21  C   UNL A   1      33.186  19.335  24.224  1.00  0.00    -0.018 A 
ATOM     22  C   UNL A   1      32.759  19.052  25.535  1.00  0.00     0.009 A 
ATOM     23  C   UNL A   1      33.451  18.265  23.372  1.00  0.00     0.009 A 
ATOM     24  C   UNL A   1      32.587  17.743  25.983  1.00  0.00     0.001 A 
ATOM     25  C   UNL A   1      33.307  16.950  23.826  1.00  0.00     0.001 A 
ATOM     26  C   UNL A   1      32.870  16.689  25.127  1.00  0.00     0.000 A 
ENDBRANCH  20  21
ENDBRANCH  14  15
ENDBRANCH  12  14
ENDBRANCH   9  12
ENDBRANCH   6   8
ENDBRANCH   4   6
ENDBRANCH   3   4
ENDBRANCH   2   3
ENDBRANCH   1   2
BRANCH   1  27
ATOM     27  O   UNL A   1      34.064  32.737  28.553  1.00  0.00    -0.374 OA
BRANCH  27  28
ATOM     28  C   UNL A   1      34.741  32.769  29.805  1.00  0.00     0.202 C 
BRANCH  28  29
ATOM     29  C   UNL A   1      34.306  33.797  30.858  1.00  0.00     0.261 C 
BRANCH  29  30
ATOM     30  O   UNL A   1      33.859  33.240  32.126  1.00  0.00    -0.460 OA
BRANCH  30  31
ATOM     31  C   UNL A   1      34.886  32.881  33.149  1.00  0.00     0.338 C 
ATOM     32  O   UNL A   1      34.307  33.298  34.192  1.00  0.00    -0.246 OA
BRANCH  31  33
ATOM     33  C   UNL A   1      36.813  31.971  32.839  1.00  0.00     0.060 A 
ATOM     34  C   UNL A   1      38.076  32.154  33.623  1.00  0.00     0.016 A 
ATOM     35  C   UNL A   1      37.343  31.149  31.655  1.00  0.00     0.016 A 
ATOM     36  C   UNL A   1      39.373  32.192  33.119  1.00  0.00     0.010 A 
ATOM     37  C   UNL A   1      38.664  31.022  31.195  1.00  0.00     0.010 A 
ATOM     38  C   UNL A   1      39.658  31.667  31.878  1.00  0.00    -0.014 A 
BRANCH  38  39
ATOM     39  C   UNL A   1      41.051  31.609  31.458  1.00  0.00     0.031 A 
ATOM     40  C   UNL A   1      41.863  30.380  31.689  1.00  0.00     0.074 A 
ATOM     41  C   UNL A   1      41.469  32.699  30.796  1.00  0.00     0.049 A 
ATOM     42  N   UNL A   1      43.108  30.164  31.370  1.00  0.00    -0.248 NA
ATOM     43  C   UNL A   1      41.214  29.250  32.378  1.00  0.00     0.031 C 
ATOM     44  C   UNL A   1      40.638  33.893  30.556  1.00  0.00     0.029 A 
ATOM     45  N   UNL A   1      42.630  32.977  30.154  1.00  0.00    -0.354 N 
ATOM     46  C   UNL A   1      43.412  28.900  31.860  1.00  0.00     0.074 A 
ATOM     47  C   UNL A   1      42.212  28.381  32.477  1.00  0.00     0.031 C 
ATOM     48  C   UNL A   1      41.275  34.717  29.723  1.00  0.00     0.029 A 
ATOM     49  C   UNL A   1      42.609  34.190  29.513  1.00  0.00     0.049 A 
ATOM     50  H   UNL A   1      43.408  32.373  30.151  1.00  0.00     0.167 HD
ATOM     51  C   UNL A   1      44.616  28.280  31.811  1.00  0.00     0.037 A 
ATOM     52  C   UNL A   1      43.596  34.832  28.875  1.00  0.00     0.037 A 
ATOM     53  C   UNL A   1      45.763  28.907  31.194  1.00  0.00     0.049 A 
ATOM     54  C   UNL A   1      44.913  34.133  28.859  1.00  0.00     0.074 A 
ATOM     55  C   UNL A   1      47.056  28.436  31.075  1.00  0.00     0.029 A 
ATOM     56  N   UNL A   1      45.742  30.171  30.601  1.00  0.00    -0.354 N 
ATOM     57  N   UNL A   1      45.213  32.950  29.350  1.00  0.00    -0.248 NA
ATOM     58  C   UNL A   1      46.028  34.846  28.246  1.00  0.00     0.031 C 
ATOM     59  C   UNL A   1      47.824  29.438  30.469  1.00  0.00     0.029 A 
ATOM     60  C   UNL A   1      47.001  30.510  30.143  1.00  0.00     0.049 A 
ATOM     61  H   UNL A   1      44.943  30.739  30.519  1.00  0.00     0.167 HD
ATOM     62  C   UNL A   1      46.562  32.770  29.115  1.00  0.00     0.074 A 
ATOM     63  C   UNL A   1      47.006  33.962  28.404  1.00  0.00     0.031 C 
ATOM     64  C   UNL A   1      47.367  31.731  29.457  1.00  0.00     0.037 A 
BRANCH  51  65
ATOM     65  C   UNL A   1      44.762  26.951  32.513  1.00  0.00     0.058 A 
ATOM     66  C   UNL A   1      44.536  25.722  31.870  1.00  0.00     0.135 A 
ATOM     67  C   UNL A   1      45.120  26.905  33.872  1.00  0.00     0.135 A 
ATOM     68  F   UNL A   1      44.175  25.692  30.577  1.00  0.00    -0.206 F 
ATOM     69  C   UNL A   1      44.622  24.507  32.553  1.00  0.00     0.059 A 
ATOM     70  C   UNL A   1      45.239  25.702  34.569  1.00  0.00     0.059 A 
ATOM     71  F   UNL A   1      45.343  28.042  34.550  1.00  0.00    -0.206 F 
ATOM     72  C   UNL A   1      44.968  24.508  33.905  1.00  0.00     0.060 A 
BRANCH  72  73
ATOM     73  S   UNL A   1      45.048  22.931  34.785  1.00  0.00     0.124 S 
ATOM     74  O   UNL A   1      45.787  23.304  35.988  1.00  0.00    -0.237 OA
ATOM     75  O   UNL A   1      43.638  22.612  34.983  1.00  0.00    -0.237 OA
ATOM     76  O   UNL A   1      45.761  22.058  33.859  1.00  0.00    -0.744 OA
ENDBRANCH  72  73
ENDBRANCH  51  65
BRANCH  52  77
ATOM     77  C   UNL A   1      43.331  36.166  28.284  1.00  0.00     0.058 A 
ATOM     78  C   UNL A   1      42.668  36.286  27.057  1.00  0.00     0.135 A 
ATOM     79  C   UNL A   1      43.582  37.345  29.010  1.00  0.00     0.135 A 
ATOM     80  F   UNL A   1      42.389  35.191  26.334  1.00  0.00    -0.206 F 
ATOM     81  C   UNL A   1      42.252  37.524  26.575  1.00  0.00     0.059 A 
ATOM     82  C   UNL A   1      43.146  38.589  28.567  1.00  0.00     0.059 A 
ATOM     83  F   UNL A   1      44.178  37.282  30.211  1.00  0.00    -0.206 F 
ATOM     84  C   UNL A   1      42.483  38.667  27.345  1.00  0.00     0.060 A 
BRANCH  84  85
ATOM     85  S   UNL A   1      41.859  40.253  26.748  1.00  0.00     0.124 S 
ATOM     86  O   UNL A   1      41.368  40.856  27.982  1.00  0.00    -0.237 OA
ATOM     87  O   UNL A   1      43.058  40.857  26.175  1.00  0.00    -0.237 OA
ATOM     88  O   UNL A   1      40.835  39.871  25.781  1.00  0.00    -0.744 OA
ENDBRANCH  84  85
ENDBRANCH  52  77
BRANCH  64  89
ATOM     89  C   UNL A   1      48.793  31.867  29.027  1.00  0.00     0.058 A 
ATOM     90  C   UNL A   1      49.753  32.474  29.851  1.00  0.00     0.135 A 
ATOM     91  C   UNL A   1      49.195  31.378  27.777  1.00  0.00     0.135 A 
ATOM     92  F   UNL A   1      49.402  32.973  31.047  1.00  0.00    -0.206 F 
ATOM     93  C   UNL A   1      51.065  32.622  29.430  1.00  0.00     0.059 A 
ATOM     94  C   UNL A   1      50.510  31.483  27.352  1.00  0.00     0.059 A 
ATOM     95  F   UNL A   1      48.305  30.788  26.962  1.00  0.00    -0.206 F 
ATOM     96  C   UNL A   1      51.433  32.121  28.179  1.00  0.00     0.060 A 
BRANCH  96  97
ATOM     97  S   UNL A   1      53.146  32.302  27.653  1.00  0.00     0.124 S 
ATOM     98  O   UNL A   1      53.487  30.929  27.295  1.00  0.00    -0.237 OA
ATOM     99  O   UNL A   1      53.032  33.239  26.539  1.00  0.00    -0.237 OA
ATOM    100  O   UNL A   1      53.812  32.827  28.841  1.00  0.00    -0.744 OA
ENDBRANCH  96  97
ENDBRANCH  64  89
ENDBRANCH  38  39
ENDBRANCH  31  33
ENDBRANCH  30  31
ENDBRANCH  29  30
ENDBRANCH  28  29
ENDBRANCH  27  28
ENDBRANCH   1  27
TORSDOF 22
ENDMDL
MODEL 3
REMARK VINA RESULT:     -10.4      1.152      8.241
REMARK SMILES C[C@H](Oc1ccc(-c2ccccc2)cc1)C(=O)N[C@H](C)C(=O)OCCOCCOC(=O)c1ccc(-c2c3nc(c(-c4c(F)cc(S(=O)(=O)[O-])cc4F)c4ccc([nH]4)c(-c4c(F)cc(S(=O)(=O)[O-])cc4F)c4nc(c(-c5c(F)cc(S(=O)(=O)[O-])cc5F)c5ccc2[nH]5)C=C4)C=C3)cc1
REMARK SMILES IDX 25 1 24 2 23 3 21 4 22 5 19 6 20 7 18 8 16 9 17 10 2 12 1 13
REMARK SMILES IDX 3 14 4 15 5 16 15 17 6 18 14 19 7 20 8 21 9 22 13 23 10 24
REMARK SMILES IDX 12 25 11 26 26 27 27 28 28 29 29 30 30 31 31 32 32 33 33 34
REMARK SMILES IDX 97 35 34 36 96 37 35 38 36 39 37 40 90 41 38 42 95 43 89 44
REMARK SMILES IDX 91 45 39 46 94 47 88 48 87 49 40 51 74 52 53 53 73 54 54 55
REMARK SMILES IDX 57 56 72 57 92 58 55 59 56 60 71 62 93 63 58 64 41 65 42 66
REMARK SMILES IDX 51 67 43 68 44 69 50 70 52 71 45 72 46 73 47 74 48 75 49 76
REMARK SMILES IDX 75 77 76 78 85 79 77 80 78 81 84 82 86 83 79 84 80 85 81 86
REMARK SMILES IDX 82 87 83 88 59 89 60 90 69 91 61 92 62 93 68 94 70 95 63 96
REMARK SMILES IDX 64 97 65 98 66 99 67 100
REMARK H PARENT 18 11 91 50 57 61
REMARK Flexibility Score: inf
ROOT
ATOM      1  C   UNL A   1      35.206  30.842  27.529  1.00  0.00     0.202 C 
ENDROOT
BRANCH   1   2
ATOM      2  C   UNL A   1      34.134  29.752  27.406  1.00  0.00     0.261 C 
BRANCH   2   3
ATOM      3  O   UNL A   1      33.648  29.603  26.051  1.00  0.00    -0.462 OA
BRANCH   3   4
ATOM      4  C   UNL A   1      32.303  29.586  25.887  1.00  0.00     0.328 C 
ATOM      5  O   UNL A   1      31.511  29.833  26.795  1.00  0.00    -0.250 OA
BRANCH   4   6
ATOM      6  C   UNL A   1      31.817  29.114  24.496  1.00  0.00     0.189 C 
ATOM      7  C   UNL A   1      30.424  29.458  23.970  1.00  0.00     0.043 C 
BRANCH   6   8
ATOM      8  N   UNL A   1      32.851  29.157  23.459  1.00  0.00    -0.340 N 
ATOM      9  C   UNL A   1      33.352  28.171  22.654  1.00  0.00     0.261 C 
ATOM     10  O   UNL A   1      34.343  28.464  21.977  1.00  0.00    -0.271 OA
ATOM     11  H   UNL A   1      33.252  30.045  23.317  1.00  0.00     0.164 HD
BRANCH   9  12
ATOM     12  C   UNL A   1      32.646  26.802  22.483  1.00  0.00     0.258 C 
ATOM     13  C   UNL A   1      31.225  27.127  22.035  1.00  0.00     0.064 C 
BRANCH  12  14
ATOM     14  O   UNL A   1      32.852  26.063  23.683  1.00  0.00    -0.481 OA
BRANCH  14  15
ATOM     15  C   UNL A   1      32.987  24.713  23.757  1.00  0.00     0.120 A 
ATOM     16  C   UNL A   1      31.750  23.556  23.158  1.00  0.00     0.047 A 
ATOM     17  C   UNL A   1      34.344  24.096  24.820  1.00  0.00     0.047 A 
ATOM     18  C   UNL A   1      31.963  21.753  23.387  1.00  0.00     0.012 A 
ATOM     19  C   UNL A   1      34.555  22.283  25.091  1.00  0.00     0.012 A 
ATOM     20  C   UNL A   1      33.436  21.103  24.261  1.00  0.00    -0.018 A 
BRANCH  20  21
ATOM     21  C   UNL A   1      33.691  19.663  24.190  1.00  0.00    -0.018 A 
ATOM     22  C   UNL A   1      32.708  18.812  23.650  1.00  0.00     0.009 A 
ATOM     23  C   UNL A   1      34.873  19.092  24.657  1.00  0.00     0.009 A 
ATOM     24  C   UNL A   1      32.901  17.434  23.563  1.00  0.00     0.001 A 
ATOM     25  C   UNL A   1      35.058  17.706  24.597  1.00  0.00     0.001 A 
ATOM     26  C   UNL A   1      34.077  16.880  24.046  1.00  0.00     0.000 A 
ENDBRANCH  20  21
ENDBRANCH  14  15
ENDBRANCH  12  14
ENDBRANCH   9  12
ENDBRANCH   6   8
ENDBRANCH   4   6
ENDBRANCH   3   4
ENDBRANCH   2   3
ENDBRANCH   1   2
BRANCH   1  27
ATOM     27  O   UNL A   1      35.585  31.198  28.854  1.00  0.00    -0.374 OA
BRANCH  27  28
ATOM     28  C   UNL A   1      34.829  32.220  29.495  1.00  0.00     0.202 C 
BRANCH  28  29
ATOM     29  C   UNL A   1      35.193  32.623  30.930  1.00  0.00     0.261 C 
BRANCH  29  30
ATOM     30  O   UNL A   1      35.373  31.519  31.861  1.00  0.00    -0.460 OA
BRANCH  30  31
ATOM     31  C   UNL A   1      36.760  31.151  32.272  1.00  0.00     0.338 C 
ATOM     32  O   UNL A   1      36.787  31.666  33.426  1.00  0.00    -0.246 OA
BRANCH  31  33
ATOM     33  C   UNL A   1      38.252  30.097  31.130  1.00  0.00     0.060 A 
ATOM     34  C   UNL A   1      39.335  29.185  31.616  1.00  0.00     0.016 A 
ATOM     35  C   UNL A   1      38.649  30.232  29.653  1.00  0.00     0.016 A 
ATOM     36  C   UNL A   1      40.626  29.077  31.106  1.00  0.00     0.010 A 
ATOM     37  C   UNL A   1      39.894  29.985  29.053  1.00  0.00     0.010 A 
ATOM     38  C   UNL A   1      40.917  29.523  29.836  1.00  0.00    -0.014 A 
BRANCH  38  39
ATOM     39  C   UNL A   1      42.246  29.262  29.301  1.00  0.00     0.031 A 
ATOM     40  C   UNL A   1      43.325  30.283  29.416  1.00  0.00     0.074 A 
ATOM     41  C   UNL A   1      42.401  28.026  28.801  1.00  0.00     0.049 A 
ATOM     42  N   UNL A   1      44.558  30.204  29.002  1.00  0.00    -0.248 NA
ATOM     43  C   UNL A   1      42.987  31.566  30.059  1.00  0.00     0.031 C 
ATOM     44  C   UNL A   1      41.324  27.021  28.723  1.00  0.00     0.029 A 
ATOM     45  N   UNL A   1      43.491  27.371  28.331  1.00  0.00    -0.354 N 
ATOM     46  C   UNL A   1      45.134  31.438  29.284  1.00  0.00     0.074 A 
ATOM     47  C   UNL A   1      44.122  32.243  29.930  1.00  0.00     0.031 C 
ATOM     48  C   UNL A   1      41.838  25.849  28.348  1.00  0.00     0.029 A 
ATOM     49  C   UNL A   1      43.229  26.065  28.001  1.00  0.00     0.049 A 
ATOM     50  H   UNL A   1      44.377  27.789  28.234  1.00  0.00     0.167 HD
ATOM     51  C   UNL A   1      46.391  31.835  28.975  1.00  0.00     0.037 A 
ATOM     52  C   UNL A   1      44.024  25.159  27.419  1.00  0.00     0.037 A 
ATOM     53  C   UNL A   1      47.315  30.954  28.296  1.00  0.00     0.049 A 
ATOM     54  C   UNL A   1      45.395  25.635  27.071  1.00  0.00     0.074 A 
ATOM     55  C   UNL A   1      48.613  31.196  27.890  1.00  0.00     0.029 A 
ATOM     56  N   UNL A   1      47.013  29.647  27.910  1.00  0.00    -0.354 N 
ATOM     57  N   UNL A   1      45.932  26.812  27.308  1.00  0.00    -0.248 NA
ATOM     58  C   UNL A   1      46.254  24.697  26.358  1.00  0.00     0.031 C 
ATOM     59  C   UNL A   1      49.067  30.062  27.205  1.00  0.00     0.029 A 
ATOM     60  C   UNL A   1      48.083  29.081  27.243  1.00  0.00     0.049 A 
ATOM     61  H   UNL A   1      46.158  29.192  28.088  1.00  0.00     0.167 HD
ATOM     62  C   UNL A   1      47.201  26.768  26.765  1.00  0.00     0.074 A 
ATOM     63  C   UNL A   1      47.355  25.425  26.217  1.00  0.00     0.031 C 
ATOM     64  C   UNL A   1      48.150  27.736  26.709  1.00  0.00     0.037 A 
BRANCH  51  65
ATOM     65  C   UNL A   1      46.779  33.264  29.266  1.00  0.00     0.058 A 
ATOM     66  C   UNL A   1      47.383  33.660  30.472  1.00  0.00     0.135 A 
ATOM     67  C   UNL A   1      46.522  34.273  28.320  1.00  0.00     0.135 A 
ATOM     68  F   UNL A   1      47.643  32.751  31.427  1.00  0.00    -0.206 F 
ATOM     69  C   UNL A   1      47.683  34.996  30.743  1.00  0.00     0.059 A 
ATOM     70  C   UNL A   1      46.837  35.611  28.556  1.00  0.00     0.059 A 
ATOM     71  F   UNL A   1      45.940  33.968  27.149  1.00  0.00    -0.206 F 
ATOM     72  C   UNL A   1      47.399  35.966  29.780  1.00  0.00     0.060 A 
BRANCH  72  73
ATOM     73  S   UNL A   1      47.765  37.697  30.153  1.00  0.00     0.124 S 
ATOM     74  O   UNL A   1      47.610  38.319  28.842  1.00  0.00    -0.237 OA
ATOM     75  O   UNL A   1      46.738  38.028  31.135  1.00  0.00    -0.237 OA
ATOM     76  O   UNL A   1      49.129  37.655  30.668  1.00  0.00    -0.744 OA
ENDBRANCH  72  73
ENDBRANCH  51  65
BRANCH  52  77
ATOM     77  C   UNL A   1      43.493  23.805  27.131  1.00  0.00     0.058 A 
ATOM     78  C   UNL A   1      43.346  22.861  28.154  1.00  0.00     0.135 A 
ATOM     79  C   UNL A   1      42.964  23.486  25.866  1.00  0.00     0.135 A 
ATOM     80  F   UNL A   1      43.817  23.124  29.382  1.00  0.00    -0.206 F 
ATOM     81  C   UNL A   1      42.686  21.655  27.940  1.00  0.00     0.059 A 
ATOM     82  C   UNL A   1      42.270  22.303  25.637  1.00  0.00     0.059 A 
ATOM     83  F   UNL A   1      43.041  24.372  24.861  1.00  0.00    -0.206 F 
ATOM     84  C   UNL A   1      42.139  21.392  26.681  1.00  0.00     0.060 A 
BRANCH  84  85
ATOM     85  S   UNL A   1      41.208  19.863  26.444  1.00  0.00     0.124 S 
ATOM     86  O   UNL A   1      39.883  20.376  26.118  1.00  0.00    -0.237 OA
ATOM     87  O   UNL A   1      41.936  19.229  25.350  1.00  0.00    -0.237 OA
ATOM     88  O   UNL A   1      41.326  19.192  27.735  1.00  0.00    -0.744 OA
ENDBRANCH  84  85
ENDBRANCH  52  77
BRANCH  64  89
ATOM     89  C   UNL A   1      49.430  27.333  26.048  1.00  0.00     0.058 A 
ATOM     90  C   UNL A   1      50.525  26.868  26.792  1.00  0.00     0.135 A 
ATOM     91  C   UNL A   1      49.551  27.414  24.655  1.00  0.00     0.135 A 
ATOM     92  F   UNL A   1      50.455  26.796  28.131  1.00  0.00    -0.206 F 
ATOM     93  C   UNL A   1      51.717  26.525  26.171  1.00  0.00     0.059 A 
ATOM     94  C   UNL A   1      50.721  27.042  24.011  1.00  0.00     0.059 A 
ATOM     95  F   UNL A   1      48.523  27.851  23.909  1.00  0.00    -0.206 F 
ATOM     96  C   UNL A   1      51.803  26.615  24.780  1.00  0.00     0.060 A 
BRANCH  96  97
ATOM     97  S   UNL A   1      53.350  26.148  23.985  1.00  0.00     0.124 S 
ATOM     98  O   UNL A   1      53.026  26.350  22.577  1.00  0.00    -0.237 OA
ATOM     99  O   UNL A   1      54.295  27.099  24.562  1.00  0.00    -0.237 OA
ATOM    100  O   UNL A   1      53.535  24.759  24.395  1.00  0.00    -0.744 OA
ENDBRANCH  96  97
ENDBRANCH  64  89
ENDBRANCH  38  39
ENDBRANCH  31  33
ENDBRANCH  30  31
ENDBRANCH  29  30
ENDBRANCH  28  29
ENDBRANCH  27  28
ENDBRANCH   1  27
TORSDOF 22
ENDMDL
