MODEL 1
REMARK VINA RESULT:     -12.1      0.000      0.000
REMARK SMILES O=C(OCCOCCOC(=O)c1ccc(-c2c3nc(c(-c4c(F)cc(S(=O)(=O)[O-])cc4F)c4ccc([nH]4)c(-c4c(F)cc(S(=O)(=O)[O-])cc4F)c4nc(c(-c5c(F)cc(S(=O)(=O)[O-])cc5F)c5ccc2[nH]5)C=C4)C=C3)cc1)C1=Cc2cc(OC(F)(F)F)ccc2O[C@@H]1C(F)(F)F
REMARK SMILES IDX 7 1 6 2 5 3 4 4 3 5 2 6 1 7 78 8 79 9 92 10 80 11 91 12
REMARK SMILES IDX 81 13 90 14 82 15 89 16 88 17 93 18 94 19 95 20 96 21 83 22
REMARK SMILES IDX 84 23 85 24 86 25 87 26 8 27 9 28 10 29 11 30 12 31 13 32
REMARK SMILES IDX 77 33 14 34 76 35 15 36 16 37 17 38 70 39 18 40 75 41 69 42
REMARK SMILES IDX 71 43 19 44 74 45 68 46 67 47 20 49 54 50 33 51 53 52 34 53
REMARK SMILES IDX 37 54 52 55 72 56 35 57 36 58 51 60 73 61 38 62 21 63 22 64
REMARK SMILES IDX 31 65 23 66 24 67 30 68 32 69 25 70 26 71 27 72 28 73 29 74
REMARK SMILES IDX 55 75 56 76 65 77 57 78 58 79 64 80 66 81 59 82 60 83 61 84
REMARK SMILES IDX 62 85 63 86 39 87 40 88 49 89 41 90 42 91 48 92 50 93 43 94
REMARK SMILES IDX 44 95 45 96 46 97 47 98
REMARK H PARENT 71 48 37 59
REMARK Flexibility Score: inf
ROOT
ATOM      1  C   UNL A   1      42.024  22.118  27.304  1.00  0.00     0.202 C 
ENDROOT
BRANCH   1   2
ATOM      2  O   UNL A   1      40.651  21.676  27.285  1.00  0.00    -0.374 OA
BRANCH   2   3
ATOM      3  C   UNL A   1      39.741  20.935  26.144  1.00  0.00     0.202 C 
BRANCH   3   4
ATOM      4  C   UNL A   1      37.823  21.489  25.288  1.00  0.00     0.261 C 
BRANCH   4   5
ATOM      5  O   UNL A   1      37.358  22.915  24.929  1.00  0.00    -0.460 OA
BRANCH   5   6
ATOM      6  C   UNL A   1      36.443  22.926  23.955  1.00  0.00     0.338 C 
ATOM      7  O   UNL A   1      36.587  23.042  22.765  1.00  0.00    -0.246 OA
BRANCH   6   8
ATOM      8  C   UNL A   1      35.308  23.160  24.821  1.00  0.00     0.087 C 
ATOM      9  C   UNL A   1      35.064  24.600  25.035  1.00  0.00     0.027 C 
ATOM     10  C   UNL A   1      34.104  21.959  23.900  1.00  0.00     0.316 C 
ATOM     11  C   UNL A   1      33.706  25.506  24.265  1.00  0.00     0.021 A 
ATOM     12  O   UNL A   1      32.685  22.924  23.001  1.00  0.00    -0.475 OA
ATOM     13  C   UNL A   1      33.622  26.859  24.435  1.00  0.00     0.058 A 
ATOM     14  C   UNL A   1      32.583  24.739  23.195  1.00  0.00     0.128 A 
ATOM     15  C   UNL A   1      32.618  27.513  23.694  1.00  0.00     0.130 A 
ATOM     16  C   UNL A   1      31.733  25.461  22.413  1.00  0.00     0.051 A 
ATOM     17  C   UNL A   1      31.766  26.859  22.706  1.00  0.00     0.050 A 
BRANCH  10  18
ATOM     18  C   UNL A   1      34.076  20.831  25.037  1.00  0.00     0.430 C 
ATOM     19  F   UNL A   1      32.891  20.231  25.246  1.00  0.00    -0.167 F 
ATOM     20  F   UNL A   1      34.897  19.818  24.614  1.00  0.00    -0.167 F 
ATOM     21  F   UNL A   1      34.591  21.199  26.231  1.00  0.00    -0.167 F 
ENDBRANCH  10  18
BRANCH  15  22
ATOM     22  O   UNL A   1      32.593  28.859  23.981  1.00  0.00    -0.406 OA
BRANCH  22  23
ATOM     23  C   UNL A   1      31.519  29.366  24.757  1.00  0.00     0.573 C 
ATOM     24  F   UNL A   1      31.057  28.413  25.586  1.00  0.00    -0.132 F 
ATOM     25  F   UNL A   1      31.884  30.455  25.466  1.00  0.00    -0.132 F 
ATOM     26  F   UNL A   1      30.524  29.727  23.916  1.00  0.00    -0.132 F 
ENDBRANCH  22  23
ENDBRANCH  15  22
ENDBRANCH   6   8
ENDBRANCH   5   6
ENDBRANCH   4   5
ENDBRANCH   3   4
ENDBRANCH   2   3
ENDBRANCH   1   2
BRANCH   1  27
ATOM     27  C   UNL A   1      42.350  23.475  26.685  1.00  0.00     0.261 C 
BRANCH  27  28
ATOM     28  O   UNL A   1      41.195  24.244  26.408  1.00  0.00    -0.460 OA
BRANCH  28  29
ATOM     29  C   UNL A   1      41.490  25.528  26.108  1.00  0.00     0.338 C 
ATOM     30  O   UNL A   1      41.787  25.986  25.018  1.00  0.00    -0.246 OA
BRANCH  29  31
ATOM     31  C   UNL A   1      41.412  26.330  27.334  1.00  0.00     0.060 A 
ATOM     32  C   UNL A   1      40.370  26.032  28.215  1.00  0.00     0.016 A 
ATOM     33  C   UNL A   1      42.341  27.341  27.625  1.00  0.00     0.016 A 
ATOM     34  C   UNL A   1      40.256  26.739  29.399  1.00  0.00     0.010 A 
ATOM     35  C   UNL A   1      42.216  28.065  28.806  1.00  0.00     0.010 A 
ATOM     36  C   UNL A   1      41.161  27.772  29.679  1.00  0.00    -0.014 A 
BRANCH  36  37
ATOM     37  C   UNL A   1      40.858  28.647  30.819  1.00  0.00     0.031 A 
ATOM     38  C   UNL A   1      41.712  28.521  32.040  1.00  0.00     0.074 A 
ATOM     39  C   UNL A   1      39.921  29.600  30.696  1.00  0.00     0.049 A 
ATOM     40  N   UNL A   1      41.728  29.263  33.113  1.00  0.00    -0.248 NA
ATOM     41  C   UNL A   1      42.692  27.420  32.049  1.00  0.00     0.031 C 
ATOM     42  C   UNL A   1      39.067  29.800  29.524  1.00  0.00     0.029 A 
ATOM     43  N   UNL A   1      39.545  30.589  31.562  1.00  0.00    -0.354 N 
ATOM     44  C   UNL A   1      42.740  28.744  33.908  1.00  0.00     0.074 A 
ATOM     45  C   UNL A   1      43.276  27.588  33.224  1.00  0.00     0.031 C 
ATOM     46  C   UNL A   1      38.265  30.854  29.747  1.00  0.00     0.029 A 
ATOM     47  C   UNL A   1      38.536  31.384  31.082  1.00  0.00     0.049 A 
ATOM     48  H   UNL A   1      39.960  30.717  32.446  1.00  0.00     0.167 HD
ATOM     49  C   UNL A   1      43.192  29.211  35.092  1.00  0.00     0.037 A 
ATOM     50  C   UNL A   1      37.899  32.413  31.671  1.00  0.00     0.037 A 
ATOM     51  C   UNL A   1      42.616  30.343  35.768  1.00  0.00     0.049 A 
ATOM     52  C   UNL A   1      38.361  32.854  33.037  1.00  0.00     0.074 A 
ATOM     53  C   UNL A   1      42.969  30.889  36.987  1.00  0.00     0.029 A 
ATOM     54  N   UNL A   1      41.552  31.095  35.284  1.00  0.00    -0.354 N 
ATOM     55  N   UNL A   1      39.339  32.375  33.773  1.00  0.00    -0.248 NA
ATOM     56  C   UNL A   1      37.648  33.982  33.644  1.00  0.00     0.031 C 
ATOM     57  C   UNL A   1      42.079  31.930  37.271  1.00  0.00     0.029 A 
ATOM     58  C   UNL A   1      41.218  32.083  36.194  1.00  0.00     0.049 A 
ATOM     59  H   UNL A   1      41.102  30.946  34.422  1.00  0.00     0.167 HD
ATOM     60  C   UNL A   1      39.372  33.161  34.920  1.00  0.00     0.074 A 
ATOM     61  C   UNL A   1      38.339  34.165  34.760  1.00  0.00     0.031 C 
ATOM     62  C   UNL A   1      40.176  33.064  36.011  1.00  0.00     0.037 A 
BRANCH  49  63
ATOM     63  C   UNL A   1      44.340  28.484  35.732  1.00  0.00     0.058 A 
ATOM     64  C   UNL A   1      45.675  28.830  35.466  1.00  0.00     0.135 A 
ATOM     65  C   UNL A   1      44.105  27.444  36.645  1.00  0.00     0.135 A 
ATOM     66  F   UNL A   1      45.960  29.796  34.577  1.00  0.00    -0.206 F 
ATOM     67  C   UNL A   1      46.735  28.164  36.072  1.00  0.00     0.059 A 
ATOM     68  C   UNL A   1      45.148  26.784  37.287  1.00  0.00     0.059 A 
ATOM     69  F   UNL A   1      42.849  27.059  36.923  1.00  0.00    -0.206 F 
ATOM     70  C   UNL A   1      46.461  27.147  36.987  1.00  0.00     0.060 A 
BRANCH  70  71
ATOM     71  S   UNL A   1      47.847  26.318  37.791  1.00  0.00     0.124 S 
ATOM     72  O   UNL A   1      48.500  27.433  38.472  1.00  0.00    -0.237 OA
ATOM     73  O   UNL A   1      47.172  25.354  38.653  1.00  0.00    -0.237 OA
ATOM     74  O   UNL A   1      48.594  25.743  36.675  1.00  0.00    -0.744 OA
ENDBRANCH  70  71
ENDBRANCH  49  63
BRANCH  50  75
ATOM     75  C   UNL A   1      36.747  33.070  30.994  1.00  0.00     0.058 A 
ATOM     76  C   UNL A   1      35.421  32.823  31.379  1.00  0.00     0.135 A 
ATOM     77  C   UNL A   1      36.959  33.948  29.918  1.00  0.00     0.135 A 
ATOM     78  F   UNL A   1      35.162  31.989  32.398  1.00  0.00    -0.206 F 
ATOM     79  C   UNL A   1      34.348  33.395  30.703  1.00  0.00     0.059 A 
ATOM     80  C   UNL A   1      35.904  34.560  29.251  1.00  0.00     0.059 A 
ATOM     81  F   UNL A   1      38.208  34.231  29.514  1.00  0.00    -0.206 F 
ATOM     82  C   UNL A   1      34.600  34.264  29.640  1.00  0.00     0.060 A 
BRANCH  82  83
ATOM     83  S   UNL A   1      33.202  35.022  28.787  1.00  0.00     0.124 S 
ATOM     84  O   UNL A   1      32.320  35.349  29.902  1.00  0.00    -0.237 OA
ATOM     85  O   UNL A   1      33.834  36.155  28.118  1.00  0.00    -0.237 OA
ATOM     86  O   UNL A   1      32.733  33.962  27.901  1.00  0.00    -0.744 OA
ENDBRANCH  82  83
ENDBRANCH  50  75
BRANCH  62  87
ATOM     87  C   UNL A   1      39.981  34.093  37.096  1.00  0.00     0.058 A 
ATOM     88  C   UNL A   1      39.147  33.858  38.201  1.00  0.00     0.135 A 
ATOM     89  C   UNL A   1      40.648  35.328  37.033  1.00  0.00     0.135 A 
ATOM     90  F   UNL A   1      38.486  32.695  38.314  1.00  0.00    -0.206 F 
ATOM     91  C   UNL A   1      38.933  34.832  39.170  1.00  0.00     0.059 A 
ATOM     92  C   UNL A   1      40.485  36.298  38.015  1.00  0.00     0.059 A 
ATOM     93  F   UNL A   1      41.475  35.600  36.011  1.00  0.00    -0.206 F 
ATOM     94  C   UNL A   1      39.604  36.051  39.066  1.00  0.00     0.060 A 
BRANCH  94  95
ATOM     95  S   UNL A   1      39.306  37.310  40.323  1.00  0.00     0.124 S 
ATOM     96  O   UNL A   1      38.559  36.554  41.323  1.00  0.00    -0.237 OA
ATOM     97  O   UNL A   1      40.661  37.698  40.701  1.00  0.00    -0.237 OA
ATOM     98  O   UNL A   1      38.543  38.330  39.609  1.00  0.00    -0.744 OA
ENDBRANCH  94  95
ENDBRANCH  62  87
ENDBRANCH  36  37
ENDBRANCH  29  31
ENDBRANCH  28  29
ENDBRANCH  27  28
ENDBRANCH   1  27
TORSDOF 20
ENDMDL
MODEL 2
REMARK VINA RESULT:     -12.0      6.149     12.100
REMARK SMILES O=C(OCCOCCOC(=O)c1ccc(-c2c3nc(c(-c4c(F)cc(S(=O)(=O)[O-])cc4F)c4ccc([nH]4)c(-c4c(F)cc(S(=O)(=O)[O-])cc4F)c4nc(c(-c5c(F)cc(S(=O)(=O)[O-])cc5F)c5ccc2[nH]5)C=C4)C=C3)cc1)C1=Cc2cc(OC(F)(F)F)ccc2O[C@@H]1C(F)(F)F
REMARK SMILES IDX 7 1 6 2 5 3 4 4 3 5 2 6 1 7 78 8 79 9 92 10 80 11 91 12
REMARK SMILES IDX 81 13 90 14 82 15 89 16 88 17 93 18 94 19 95 20 96 21 83 22
REMARK SMILES IDX 84 23 85 24 86 25 87 26 8 27 9 28 10 29 11 30 12 31 13 32
REMARK SMILES IDX 77 33 14 34 76 35 15 36 16 37 17 38 70 39 18 40 75 41 69 42
REMARK SMILES IDX 71 43 19 44 74 45 68 46 67 47 20 49 54 50 33 51 53 52 34 53
REMARK SMILES IDX 37 54 52 55 72 56 35 57 36 58 51 60 73 61 38 62 21 63 22 64
REMARK SMILES IDX 31 65 23 66 24 67 30 68 32 69 25 70 26 71 27 72 28 73 29 74
REMARK SMILES IDX 55 75 56 76 65 77 57 78 58 79 64 80 66 81 59 82 60 83 61 84
REMARK SMILES IDX 62 85 63 86 39 87 40 88 49 89 41 90 42 91 48 92 50 93 43 94
REMARK SMILES IDX 44 95 45 96 46 97 47 98
REMARK H PARENT 71 48 37 59
REMARK Flexibility Score: inf
ROOT
ATOM      1  C   UNL A   1      34.862  33.044  30.141  1.00  0.00     0.202 C 
ENDROOT
BRANCH   1   2
ATOM      2  O   UNL A   1      34.017  33.024  28.972  1.00  0.00    -0.374 OA
BRANCH   2   3
ATOM      3  C   UNL A   1      33.956  32.041  27.665  1.00  0.00     0.202 C 
BRANCH   3   4
ATOM      4  C   UNL A   1      32.415  30.657  27.009  1.00  0.00     0.261 C 
BRANCH   4   5
ATOM      5  O   UNL A   1      32.278  30.040  25.602  1.00  0.00    -0.460 OA
BRANCH   5   6
ATOM      6  C   UNL A   1      31.843  28.777  25.636  1.00  0.00     0.338 C 
ATOM      7  O   UNL A   1      31.748  28.021  26.569  1.00  0.00    -0.246 OA
BRANCH   6   8
ATOM      8  C   UNL A   1      31.933  28.550  24.210  1.00  0.00     0.087 C 
ATOM      9  C   UNL A   1      33.102  27.723  23.855  1.00  0.00     0.027 C 
ATOM     10  C   UNL A   1      30.089  28.016  23.977  1.00  0.00     0.316 C 
ATOM     11  C   UNL A   1      32.985  25.991  23.362  1.00  0.00     0.021 A 
ATOM     12  O   UNL A   1      29.942  26.138  23.525  1.00  0.00    -0.475 OA
ATOM     13  C   UNL A   1      34.131  25.274  23.156  1.00  0.00     0.058 A 
ATOM     14  C   UNL A   1      31.468  25.162  23.280  1.00  0.00     0.128 A 
ATOM     15  C   UNL A   1      33.960  23.898  22.907  1.00  0.00     0.130 A 
ATOM     16  C   UNL A   1      31.400  23.806  23.171  1.00  0.00     0.051 A 
ATOM     17  C   UNL A   1      32.679  23.202  22.967  1.00  0.00     0.050 A 
BRANCH  10  18
ATOM     18  C   UNL A   1      29.617  29.341  23.209  1.00  0.00     0.430 C 
ATOM     19  F   UNL A   1      30.296  29.649  22.091  1.00  0.00    -0.167 F 
ATOM     20  F   UNL A   1      28.337  29.116  22.775  1.00  0.00    -0.167 F 
ATOM     21  F   UNL A   1      29.519  30.450  23.975  1.00  0.00    -0.167 F 
ENDBRANCH  10  18
BRANCH  15  22
ATOM     22  O   UNL A   1      35.172  23.289  22.666  1.00  0.00    -0.406 OA
BRANCH  22  23
ATOM     23  C   UNL A   1      35.913  22.799  23.771  1.00  0.00     0.573 C 
ATOM     24  F   UNL A   1      36.375  23.823  24.511  1.00  0.00    -0.132 F 
ATOM     25  F   UNL A   1      35.174  21.971  24.541  1.00  0.00    -0.132 F 
ATOM     26  F   UNL A   1      36.968  22.099  23.296  1.00  0.00    -0.132 F 
ENDBRANCH  22  23
ENDBRANCH  15  22
ENDBRANCH   6   8
ENDBRANCH   5   6
ENDBRANCH   4   5
ENDBRANCH   3   4
ENDBRANCH   2   3
ENDBRANCH   1   2
BRANCH   1  27
ATOM     27  C   UNL A   1      36.186  32.287  30.084  1.00  0.00     0.261 C 
BRANCH  27  28
ATOM     28  O   UNL A   1      36.014  30.893  29.910  1.00  0.00    -0.460 OA
BRANCH  28  29
ATOM     29  C   UNL A   1      36.694  30.171  30.827  1.00  0.00     0.338 C 
ATOM     30  O   UNL A   1      36.283  29.753  31.896  1.00  0.00    -0.246 OA
BRANCH  29  31
ATOM     31  C   UNL A   1      38.063  29.962  30.343  1.00  0.00     0.060 A 
ATOM     32  C   UNL A   1      38.227  29.818  28.963  1.00  0.00     0.016 A 
ATOM     33  C   UNL A   1      39.164  29.920  31.212  1.00  0.00     0.016 A 
ATOM     34  C   UNL A   1      39.497  29.640  28.444  1.00  0.00     0.010 A 
ATOM     35  C   UNL A   1      40.439  29.721  30.692  1.00  0.00     0.010 A 
ATOM     36  C   UNL A   1      40.596  29.563  29.310  1.00  0.00    -0.014 A 
BRANCH  36  37
ATOM     37  C   UNL A   1      41.879  29.134  28.739  1.00  0.00     0.031 A 
ATOM     38  C   UNL A   1      42.980  30.144  28.661  1.00  0.00     0.074 A 
ATOM     39  C   UNL A   1      42.068  27.843  28.420  1.00  0.00     0.049 A 
ATOM     40  N   UNL A   1      44.229  29.975  28.325  1.00  0.00    -0.248 NA
ATOM     41  C   UNL A   1      42.631  31.529  29.026  1.00  0.00     0.031 C 
ATOM     42  C   UNL A   1      41.049  26.797  28.497  1.00  0.00     0.029 A 
ATOM     43  N   UNL A   1      43.190  27.194  27.986  1.00  0.00    -0.354 N 
ATOM     44  C   UNL A   1      44.824  31.220  28.471  1.00  0.00     0.074 A 
ATOM     45  C   UNL A   1      43.790  32.149  28.868  1.00  0.00     0.031 C 
ATOM     46  C   UNL A   1      41.597  25.629  28.121  1.00  0.00     0.029 A 
ATOM     47  C   UNL A   1      42.994  25.855  27.759  1.00  0.00     0.049 A 
ATOM     48  H   UNL A   1      44.055  27.645  27.850  1.00  0.00     0.167 HD
ATOM     49  C   UNL A   1      46.125  31.546  28.310  1.00  0.00     0.037 A 
ATOM     50  C   UNL A   1      43.854  24.929  27.295  1.00  0.00     0.037 A 
ATOM     51  C   UNL A   1      47.128  30.608  27.879  1.00  0.00     0.049 A 
ATOM     52  C   UNL A   1      45.279  25.342  27.032  1.00  0.00     0.074 A 
ATOM     53  C   UNL A   1      48.473  30.830  27.649  1.00  0.00     0.029 A 
ATOM     54  N   UNL A   1      46.888  29.268  27.597  1.00  0.00    -0.354 N 
ATOM     55  N   UNL A   1      45.844  26.517  27.199  1.00  0.00    -0.248 NA
ATOM     56  C   UNL A   1      46.187  24.305  26.534  1.00  0.00     0.031 C 
ATOM     57  C   UNL A   1      49.033  29.642  27.168  1.00  0.00     0.029 A 
ATOM     58  C   UNL A   1      48.056  28.658  27.170  1.00  0.00     0.049 A 
ATOM     59  H   UNL A   1      46.018  28.820  27.688  1.00  0.00     0.167 HD
ATOM     60  C   UNL A   1      47.180  26.352  26.849  1.00  0.00     0.074 A 
ATOM     61  C   UNL A   1      47.341  24.955  26.495  1.00  0.00     0.031 C 
ATOM     62  C   UNL A   1      48.184  27.266  26.815  1.00  0.00     0.037 A 
BRANCH  49  63
ATOM     63  C   UNL A   1      46.522  32.970  28.575  1.00  0.00     0.058 A 
ATOM     64  C   UNL A   1      46.962  33.391  29.842  1.00  0.00     0.135 A 
ATOM     65  C   UNL A   1      46.488  33.923  27.545  1.00  0.00     0.135 A 
ATOM     66  F   UNL A   1      46.984  32.529  30.871  1.00  0.00    -0.206 F 
ATOM     67  C   UNL A   1      47.342  34.707  30.079  1.00  0.00     0.059 A 
ATOM     68  C   UNL A   1      46.893  35.238  27.752  1.00  0.00     0.059 A 
ATOM     69  F   UNL A   1      46.059  33.580  26.320  1.00  0.00    -0.206 F 
ATOM     70  C   UNL A   1      47.312  35.622  29.026  1.00  0.00     0.060 A 
BRANCH  70  71
ATOM     71  S   UNL A   1      47.843  37.316  29.345  1.00  0.00     0.124 S 
ATOM     72  O   UNL A   1      47.354  38.005  28.153  1.00  0.00    -0.237 OA
ATOM     73  O   UNL A   1      47.146  37.628  30.589  1.00  0.00    -0.237 OA
ATOM     74  O   UNL A   1      49.294  37.205  29.451  1.00  0.00    -0.744 OA
ENDBRANCH  70  71
ENDBRANCH  49  63
BRANCH  50  75
ATOM     75  C   UNL A   1      43.387  23.541  27.024  1.00  0.00     0.058 A 
ATOM     76  C   UNL A   1      43.237  22.596  28.049  1.00  0.00     0.135 A 
ATOM     77  C   UNL A   1      43.105  23.128  25.711  1.00  0.00     0.135 A 
ATOM     78  F   UNL A   1      43.498  22.937  29.321  1.00  0.00    -0.206 F 
ATOM     79  C   UNL A   1      42.857  21.284  27.781  1.00  0.00     0.059 A 
ATOM     80  C   UNL A   1      42.689  21.833  25.423  1.00  0.00     0.059 A 
ATOM     81  F   UNL A   1      43.219  23.994  24.692  1.00  0.00    -0.206 F 
ATOM     82  C   UNL A   1      42.584  20.913  26.463  1.00  0.00     0.060 A 
BRANCH  82  83
ATOM     83  S   UNL A   1      42.066  19.217  26.128  1.00  0.00     0.124 S 
ATOM     84  O   UNL A   1      40.630  19.381  25.931  1.00  0.00    -0.237 OA
ATOM     85  O   UNL A   1      42.842  18.893  24.936  1.00  0.00    -0.237 OA
ATOM     86  O   UNL A   1      42.458  18.500  27.338  1.00  0.00    -0.744 OA
ENDBRANCH  82  83
ENDBRANCH  50  75
BRANCH  62  87
ATOM     87  C   UNL A   1      49.547  26.767  26.409  1.00  0.00     0.058 A 
ATOM     88  C   UNL A   1      50.034  26.918  25.101  1.00  0.00     0.135 A 
ATOM     89  C   UNL A   1      50.383  26.138  27.348  1.00  0.00     0.135 A 
ATOM     90  F   UNL A   1      49.280  27.512  24.163  1.00  0.00    -0.206 F 
ATOM     91  C   UNL A   1      51.272  26.409  24.723  1.00  0.00     0.059 A 
ATOM     92  C   UNL A   1      51.643  25.663  27.003  1.00  0.00     0.059 A 
ATOM     93  F   UNL A   1      49.980  25.986  28.619  1.00  0.00    -0.206 F 
ATOM     94  C   UNL A   1      52.068  25.780  25.681  1.00  0.00     0.060 A 
BRANCH  94  95
ATOM     95  S   UNL A   1      53.665  25.112  25.172  1.00  0.00     0.124 S 
ATOM     96  O   UNL A   1      53.427  23.676  25.275  1.00  0.00    -0.237 OA
ATOM     97  O   UNL A   1      53.803  25.638  23.817  1.00  0.00    -0.237 OA
ATOM     98  O   UNL A   1      54.593  25.666  26.153  1.00  0.00    -0.744 OA
ENDBRANCH  94  95
ENDBRANCH  62  87
ENDBRANCH  36  37
ENDBRANCH  29  31
ENDBRANCH  28  29
ENDBRANCH  27  28
ENDBRANCH   1  27
TORSDOF 20
ENDMDL
MODEL 3
REMARK VINA RESULT:     -11.9      1.220      2.169
REMARK SMILES O=C(OCCOCCOC(=O)c1ccc(-c2c3nc(c(-c4c(F)cc(S(=O)(=O)[O-])cc4F)c4ccc([nH]4)c(-c4c(F)cc(S(=O)(=O)[O-])cc4F)c4nc(c(-c5c(F)cc(S(=O)(=O)[O-])cc5F)c5ccc2[nH]5)C=C4)C=C3)cc1)C1=Cc2cc(OC(F)(F)F)ccc2O[C@@H]1C(F)(F)F
REMARK SMILES IDX 7 1 6 2 5 3 4 4 3 5 2 6 1 7 78 8 79 9 92 10 80 11 91 12
REMARK SMILES IDX 81 13 90 14 82 15 89 16 88 17 93 18 94 19 95 20 96 21 83 22
REMARK SMILES IDX 84 23 85 24 86 25 87 26 8 27 9 28 10 29 11 30 12 31 13 32
REMARK SMILES IDX 77 33 14 34 76 35 15 36 16 37 17 38 70 39 18 40 75 41 69 42
REMARK SMILES IDX 71 43 19 44 74 45 68 46 67 47 20 49 54 50 33 51 53 52 34 53
REMARK SMILES IDX 37 54 52 55 72 56 35 57 36 58 51 60 73 61 38 62 21 63 22 64
REMARK SMILES IDX 31 65 23 66 24 67 30 68 32 69 25 70 26 71 27 72 28 73 29 74
REMARK SMILES IDX 55 75 56 76 65 77 57 78 58 79 64 80 66 81 59 82 60 83 61 84
REMARK SMILES IDX 62 85 63 86 39 87 40 88 49 89 41 90 42 91 48 92 50 93 43 94
REMARK SMILES IDX 44 95 45 96 46 97 47 98
REMARK H PARENT 71 48 37 59
REMARK Flexibility Score: inf
ROOT
ATOM      1  C   UNL A   1      42.250  21.316  26.359  1.00  0.00     0.202 C 
ENDROOT
BRANCH   1   2
ATOM      2  O   UNL A   1      40.858  20.975  26.523  1.00  0.00    -0.374 OA
BRANCH   2   3
ATOM      3  C   UNL A   1      39.473  21.769  26.167  1.00  0.00     0.202 C 
BRANCH   3   4
ATOM      4  C   UNL A   1      37.737  21.139  25.022  1.00  0.00     0.261 C 
BRANCH   4   5
ATOM      5  O   UNL A   1      36.271  21.146  25.504  1.00  0.00    -0.460 OA
BRANCH   5   6
ATOM      6  C   UNL A   1      35.450  21.748  24.639  1.00  0.00     0.338 C 
ATOM      7  O   UNL A   1      35.697  22.548  23.773  1.00  0.00    -0.246 OA
BRANCH   6   8
ATOM      8  C   UNL A   1      34.230  21.435  25.351  1.00  0.00     0.087 C 
ATOM      9  C   UNL A   1      33.767  22.567  26.177  1.00  0.00     0.027 C 
ATOM     10  C   UNL A   1      33.284  20.723  23.822  1.00  0.00     0.316 C 
ATOM     11  C   UNL A   1      32.357  23.607  25.743  1.00  0.00     0.021 A 
ATOM     12  O   UNL A   1      31.816  21.871  23.294  1.00  0.00    -0.475 OA
ATOM     13  C   UNL A   1      32.068  24.699  26.513  1.00  0.00     0.058 A 
ATOM     14  C   UNL A   1      31.441  23.352  24.298  1.00  0.00     0.128 A 
ATOM     15  C   UNL A   1      31.041  25.536  26.035  1.00  0.00     0.130 A 
ATOM     16  C   UNL A   1      30.559  24.283  23.836  1.00  0.00     0.051 A 
ATOM     17  C   UNL A   1      30.370  25.365  24.750  1.00  0.00     0.050 A 
BRANCH  10  18
ATOM     18  C   UNL A   1      33.330  19.190  24.284  1.00  0.00     0.430 C 
ATOM     19  F   UNL A   1      32.471  18.840  25.257  1.00  0.00    -0.167 F 
ATOM     20  F   UNL A   1      32.945  18.436  23.206  1.00  0.00    -0.167 F 
ATOM     21  F   UNL A   1      34.556  18.716  24.600  1.00  0.00    -0.167 F 
ENDBRANCH  10  18
BRANCH  15  22
ATOM     22  O   UNL A   1      30.803  26.571  26.911  1.00  0.00    -0.406 OA
BRANCH  22  23
ATOM     23  C   UNL A   1      31.581  27.751  26.791  1.00  0.00     0.573 C 
ATOM     24  F   UNL A   1      31.256  28.622  27.762  1.00  0.00    -0.132 F 
ATOM     25  F   UNL A   1      32.904  27.484  26.836  1.00  0.00    -0.132 F 
ATOM     26  F   UNL A   1      31.308  28.317  25.593  1.00  0.00    -0.132 F 
ENDBRANCH  22  23
ENDBRANCH  15  22
ENDBRANCH   6   8
ENDBRANCH   5   6
ENDBRANCH   4   5
ENDBRANCH   3   4
ENDBRANCH   2   3
ENDBRANCH   1   2
BRANCH   1  27
ATOM     27  C   UNL A   1      42.591  22.694  25.798  1.00  0.00     0.261 C 
BRANCH  27  28
ATOM     28  O   UNL A   1      42.674  23.690  26.801  1.00  0.00    -0.460 OA
BRANCH  28  29
ATOM     29  C   UNL A   1      42.607  24.939  26.292  1.00  0.00     0.338 C 
ATOM     30  O   UNL A   1      42.926  25.304  25.173  1.00  0.00    -0.246 OA
BRANCH  29  31
ATOM     31  C   UNL A   1      42.083  25.842  27.324  1.00  0.00     0.060 A 
ATOM     32  C   UNL A   1      42.815  27.006  27.571  1.00  0.00     0.016 A 
ATOM     33  C   UNL A   1      40.899  25.568  28.025  1.00  0.00     0.016 A 
ATOM     34  C   UNL A   1      42.361  27.908  28.516  1.00  0.00     0.010 A 
ATOM     35  C   UNL A   1      40.452  26.464  28.989  1.00  0.00     0.010 A 
ATOM     36  C   UNL A   1      41.197  27.623  29.243  1.00  0.00    -0.014 A 
BRANCH  36  37
ATOM     37  C   UNL A   1      40.890  28.481  30.394  1.00  0.00     0.031 A 
ATOM     38  C   UNL A   1      41.749  28.350  31.612  1.00  0.00     0.074 A 
ATOM     39  C   UNL A   1      39.943  29.427  30.285  1.00  0.00     0.049 A 
ATOM     40  N   UNL A   1      41.761  29.079  32.693  1.00  0.00    -0.248 NA
ATOM     41  C   UNL A   1      42.739  27.258  31.604  1.00  0.00     0.031 C 
ATOM     42  C   UNL A   1      39.084  29.633  29.119  1.00  0.00     0.029 A 
ATOM     43  N   UNL A   1      39.561  30.402  31.164  1.00  0.00    -0.354 N 
ATOM     44  C   UNL A   1      42.780  28.561  33.479  1.00  0.00     0.074 A 
ATOM     45  C   UNL A   1      43.325  27.418  32.780  1.00  0.00     0.031 C 
ATOM     46  C   UNL A   1      38.273  30.677  29.356  1.00  0.00     0.029 A 
ATOM     47  C   UNL A   1      38.542  31.193  30.696  1.00  0.00     0.049 A 
ATOM     48  H   UNL A   1      39.977  30.524  32.048  1.00  0.00     0.167 HD
ATOM     49  C   UNL A   1      43.231  29.018  34.667  1.00  0.00     0.037 A 
ATOM     50  C   UNL A   1      37.897  32.209  31.299  1.00  0.00     0.037 A 
ATOM     51  C   UNL A   1      42.646  30.137  35.357  1.00  0.00     0.049 A 
ATOM     52  C   UNL A   1      38.360  32.638  32.668  1.00  0.00     0.074 A 
ATOM     53  C   UNL A   1      42.998  30.672  36.582  1.00  0.00     0.029 A 
ATOM     54  N   UNL A   1      41.573  30.884  34.886  1.00  0.00    -0.354 N 
ATOM     55  N   UNL A   1      39.344  32.161  33.396  1.00  0.00    -0.248 NA
ATOM     56  C   UNL A   1      37.638  33.752  33.291  1.00  0.00     0.031 C 
ATOM     57  C   UNL A   1      42.099  31.701  36.880  1.00  0.00     0.029 A 
ATOM     58  C   UNL A   1      41.233  31.858  35.809  1.00  0.00     0.049 A 
ATOM     59  H   UNL A   1      41.122  30.741  34.023  1.00  0.00     0.167 HD
ATOM     60  C   UNL A   1      39.373  32.933  34.552  1.00  0.00     0.074 A 
ATOM     61  C   UNL A   1      38.330  33.929  34.407  1.00  0.00     0.031 C 
ATOM     62  C   UNL A   1      40.181  32.831  35.640  1.00  0.00     0.037 A 
BRANCH  49  63
ATOM     63  C   UNL A   1      44.388  28.294  35.295  1.00  0.00     0.058 A 
ATOM     64  C   UNL A   1      44.195  27.196  36.151  1.00  0.00     0.135 A 
ATOM     65  C   UNL A   1      45.708  28.685  35.020  1.00  0.00     0.135 A 
ATOM     66  F   UNL A   1      42.954  26.799  36.474  1.00  0.00    -0.206 F 
ATOM     67  C   UNL A   1      45.270  26.520  36.720  1.00  0.00     0.059 A 
ATOM     68  C   UNL A   1      46.798  28.003  35.553  1.00  0.00     0.059 A 
ATOM     69  F   UNL A   1      45.949  29.738  34.224  1.00  0.00    -0.206 F 
ATOM     70  C   UNL A   1      46.568  26.926  36.408  1.00  0.00     0.060 A 
BRANCH  70  71
ATOM     71  S   UNL A   1      47.949  26.015  37.126  1.00  0.00     0.124 S 
ATOM     72  O   UNL A   1      47.272  25.212  38.142  1.00  0.00    -0.237 OA
ATOM     73  O   UNL A   1      48.464  25.280  35.976  1.00  0.00    -0.237 OA
ATOM     74  O   UNL A   1      48.822  27.066  37.639  1.00  0.00    -0.744 OA
ENDBRANCH  70  71
ENDBRANCH  49  63
BRANCH  50  75
ATOM     75  C   UNL A   1      36.737  32.863  30.633  1.00  0.00     0.058 A 
ATOM     76  C   UNL A   1      36.906  33.835  29.637  1.00  0.00     0.135 A 
ATOM     77  C   UNL A   1      35.423  32.537  31.008  1.00  0.00     0.135 A 
ATOM     78  F   UNL A   1      38.141  34.187  29.244  1.00  0.00    -0.206 F 
ATOM     79  C   UNL A   1      35.819  34.485  29.060  1.00  0.00     0.059 A 
ATOM     80  C   UNL A   1      34.320  33.146  30.421  1.00  0.00     0.059 A 
ATOM     81  F   UNL A   1      35.201  31.604  31.948  1.00  0.00    -0.206 F 
ATOM     82  C   UNL A   1      34.529  34.132  29.459  1.00  0.00     0.060 A 
BRANCH  82  83
ATOM     83  S   UNL A   1      33.123  34.960  28.687  1.00  0.00     0.124 S 
ATOM     84  O   UNL A   1      32.562  33.889  27.871  1.00  0.00    -0.237 OA
ATOM     85  O   UNL A   1      32.334  35.362  29.846  1.00  0.00    -0.237 OA
ATOM     86  O   UNL A   1      33.743  36.056  27.948  1.00  0.00    -0.744 OA
ENDBRANCH  82  83
ENDBRANCH  50  75
BRANCH  62  87
ATOM     87  C   UNL A   1      39.980  33.845  36.737  1.00  0.00     0.058 A 
ATOM     88  C   UNL A   1      40.692  35.055  36.770  1.00  0.00     0.135 A 
ATOM     89  C   UNL A   1      39.051  33.606  37.765  1.00  0.00     0.135 A 
ATOM     90  F   UNL A   1      41.590  35.337  35.813  1.00  0.00    -0.206 F 
ATOM     91  C   UNL A   1      40.537  35.961  37.814  1.00  0.00     0.059 A 
ATOM     92  C   UNL A   1      38.847  34.519  38.793  1.00  0.00     0.059 A 
ATOM     93  F   UNL A   1      38.326  32.476  37.773  1.00  0.00    -0.206 F 
ATOM     94  C   UNL A   1      39.614  35.682  38.822  1.00  0.00     0.060 A 
BRANCH  94  95
ATOM     95  S   UNL A   1      39.434  36.861  40.177  1.00  0.00     0.124 S 
ATOM     96  O   UNL A   1      38.932  38.038  39.475  1.00  0.00    -0.237 OA
ATOM     97  O   UNL A   1      38.478  36.186  41.050  1.00  0.00    -0.237 OA
ATOM     98  O   UNL A   1      40.788  36.977  40.709  1.00  0.00    -0.744 OA
ENDBRANCH  94  95
ENDBRANCH  62  87
ENDBRANCH  36  37
ENDBRANCH  29  31
ENDBRANCH  28  29
ENDBRANCH  27  28
ENDBRANCH   1  27
TORSDOF 20
ENDMDL
