MODEL 1
REMARK VINA RESULT:     -11.2      0.000      0.000
REMARK SMILES COc1ccc2c(c1)c(CC(=O)OCCOCCOC(=O)c1ccc(-c3c4nc(c(-c5c(F)cc(S(=O)(=O)[O-])cc5F)c5ccc([nH]5)c(-c5c(F)cc(S(=O)(=O)[O-])cc5F)c5nc(c(-c6c(F)cc(S(=O)(=O)[O-])cc6F)c6ccc3[nH]6)C=C5)C=C4)cc1)c(C)n2Cc1ccn(C(F)F)c(=O)c1
REMARK SMILES IDX 15 1 14 2 13 3 11 4 12 5 10 6 9 7 3 8 4 9 8 10 5 11 7 12
REMARK SMILES IDX 6 13 90 14 88 15 89 16 2 17 1 18 91 19 92 20 93 21 101 22
REMARK SMILES IDX 94 23 99 24 95 25 100 26 96 27 97 28 98 29 16 30 17 31 18 32
REMARK SMILES IDX 19 33 20 34 21 35 22 36 23 37 87 38 24 39 86 40 25 41 26 42
REMARK SMILES IDX 27 43 80 44 28 45 85 46 79 47 81 48 29 49 84 50 78 51 77 52
REMARK SMILES IDX 30 54 64 55 43 56 63 57 44 58 47 59 62 60 82 61 45 62 46 63
REMARK SMILES IDX 61 65 83 66 48 67 31 68 32 69 41 70 33 71 34 72 40 73 42 74
REMARK SMILES IDX 35 75 36 76 37 77 38 78 39 79 65 80 66 81 75 82 67 83 68 84
REMARK SMILES IDX 74 85 76 86 69 87 70 88 71 89 72 90 73 91 49 92 50 93 59 94
REMARK SMILES IDX 51 95 52 96 58 97 60 98 53 99 54 100 55 101 56 102 57 103
REMARK H PARENT 81 53 47 64
REMARK Flexibility Score: inf
ROOT
ATOM      1  C   UNL A   1      40.216  21.303  26.546  1.00  0.00     0.202 C 
ENDROOT
BRANCH   1   2
ATOM      2  C   UNL A   1      38.875  20.738  26.039  1.00  0.00     0.261 C 
BRANCH   2   3
ATOM      3  O   UNL A   1      38.130  21.583  25.146  1.00  0.00    -0.463 OA
BRANCH   3   4
ATOM      4  C   UNL A   1      37.204  22.366  25.762  1.00  0.00     0.310 C 
ATOM      5  O   UNL A   1      37.481  23.366  26.422  1.00  0.00    -0.252 OA
BRANCH   4   6
ATOM      6  C   UNL A   1      35.760  21.946  25.593  1.00  0.00     0.160 C 
BRANCH   6   7
ATOM      7  C   UNL A   1      34.787  22.866  24.899  1.00  0.00    -0.008 A 
ATOM      8  C   UNL A   1      31.314  23.094  26.492  1.00  0.00     0.119 A 
ATOM      9  C   UNL A   1      30.819  24.077  25.643  1.00  0.00     0.048 A 
ATOM     10  C   UNL A   1      32.599  22.588  26.288  1.00  0.00     0.057 A 
ATOM     11  C   UNL A   1      31.590  24.553  24.566  1.00  0.00     0.031 A 
ATOM     12  C   UNL A   1      33.427  23.102  25.266  1.00  0.00     0.007 A 
ATOM     13  C   UNL A   1      32.895  24.049  24.386  1.00  0.00     0.049 A 
ATOM     14  N   UNL A   1      33.868  24.295  23.421  1.00  0.00    -0.340 N 
ATOM     15  C   UNL A   1      34.970  23.487  23.671  1.00  0.00     0.020 A 
ATOM     16  C   UNL A   1      36.123  23.309  22.744  1.00  0.00     0.065 C 
BRANCH   8  17
ATOM     17  O   UNL A   1      30.714  22.669  27.645  1.00  0.00    -0.497 OA
ATOM     18  C   UNL A   1      29.297  22.580  27.625  1.00  0.00     0.278 C 
ENDBRANCH   8  17
BRANCH  14  19
ATOM     19  C   UNL A   1      33.650  25.119  22.219  1.00  0.00     0.158 C 
BRANCH  19  20
ATOM     20  C   UNL A   1      32.830  26.373  22.440  1.00  0.00    -0.021 A 
ATOM     21  C   UNL A   1      31.463  26.414  21.959  1.00  0.00     0.024 A 
ATOM     22  C   UNL A   1      33.285  27.433  23.132  1.00  0.00     0.077 A 
ATOM     23  C   UNL A   1      30.750  27.542  22.000  1.00  0.00     0.095 A 
ATOM     24  C   UNL A   1      32.454  28.667  23.292  1.00  0.00     0.255 A 
ATOM     25  N   UNL A   1      31.252  28.675  22.605  1.00  0.00    -0.258 N 
ATOM     26  O   UNL A   1      32.885  29.573  24.000  1.00  0.00    -0.269 OA
BRANCH  25  27
ATOM     27  C   UNL A   1      30.474  29.888  22.619  1.00  0.00     0.451 C 
ATOM     28  F   UNL A   1      29.548  29.873  21.630  1.00  0.00    -0.185 F 
ATOM     29  F   UNL A   1      29.826  30.038  23.799  1.00  0.00    -0.185 F 
ENDBRANCH  25  27
ENDBRANCH  19  20
ENDBRANCH  14  19
ENDBRANCH   6   7
ENDBRANCH   4   6
ENDBRANCH   3   4
ENDBRANCH   2   3
ENDBRANCH   1   2
BRANCH   1  30
ATOM     30  O   UNL A   1      41.450  20.943  25.934  1.00  0.00    -0.374 OA
BRANCH  30  31
ATOM     31  C   UNL A   1      41.971  19.645  26.203  1.00  0.00     0.202 C 
BRANCH  31  32
ATOM     32  C   UNL A   1      43.148  19.096  25.377  1.00  0.00     0.261 C 
BRANCH  32  33
ATOM     33  O   UNL A   1      44.350  19.836  25.569  1.00  0.00    -0.460 OA
BRANCH  33  34
ATOM     34  C   UNL A   1      44.668  20.663  24.541  1.00  0.00     0.338 C 
ATOM     35  O   UNL A   1      44.666  20.411  23.346  1.00  0.00    -0.246 OA
BRANCH  34  36
ATOM     36  C   UNL A   1      44.590  22.005  25.129  1.00  0.00     0.060 A 
ATOM     37  C   UNL A   1      45.037  22.219  26.435  1.00  0.00     0.016 A 
ATOM     38  C   UNL A   1      43.738  22.914  24.481  1.00  0.00     0.016 A 
ATOM     39  C   UNL A   1      44.549  23.317  27.124  1.00  0.00     0.010 A 
ATOM     40  C   UNL A   1      43.239  24.002  25.185  1.00  0.00     0.010 A 
ATOM     41  C   UNL A   1      43.621  24.185  26.515  1.00  0.00    -0.014 A 
BRANCH  41  42
ATOM     42  C   UNL A   1      43.318  25.432  27.217  1.00  0.00     0.031 A 
ATOM     43  C   UNL A   1      44.372  26.452  26.957  1.00  0.00     0.074 A 
ATOM     44  C   UNL A   1      42.195  25.747  27.895  1.00  0.00     0.049 A 
ATOM     45  N   UNL A   1      45.233  26.933  27.791  1.00  0.00    -0.248 NA
ATOM     46  C   UNL A   1      44.625  26.815  25.552  1.00  0.00     0.031 C 
ATOM     47  C   UNL A   1      40.947  24.993  28.005  1.00  0.00     0.029 A 
ATOM     48  N   UNL A   1      41.912  26.898  28.576  1.00  0.00    -0.354 N 
ATOM     49  C   UNL A   1      46.002  27.828  27.054  1.00  0.00     0.074 A 
ATOM     50  C   UNL A   1      45.720  27.565  25.669  1.00  0.00     0.031 C 
ATOM     51  C   UNL A   1      39.981  25.797  28.511  1.00  0.00     0.029 A 
ATOM     52  C   UNL A   1      40.566  27.077  28.884  1.00  0.00     0.049 A 
ATOM     53  H   UNL A   1      42.605  27.549  28.828  1.00  0.00     0.167 HD
ATOM     54  C   UNL A   1      46.626  28.883  27.645  1.00  0.00     0.037 A 
ATOM     55  C   UNL A   1      39.981  28.213  29.355  1.00  0.00     0.037 A 
ATOM     56  C   UNL A   1      46.745  28.690  29.067  1.00  0.00     0.049 A 
ATOM     57  C   UNL A   1      41.059  29.046  29.949  1.00  0.00     0.074 A 
ATOM     58  C   UNL A   1      47.348  27.745  29.874  1.00  0.00     0.029 A 
ATOM     59  N   UNL A   1      45.871  29.374  29.876  1.00  0.00    -0.354 N 
ATOM     60  N   UNL A   1      41.719  28.730  31.028  1.00  0.00    -0.248 NA
ATOM     61  C   UNL A   1      41.697  30.034  29.092  1.00  0.00     0.031 C 
ATOM     62  C   UNL A   1      46.471  27.596  30.987  1.00  0.00     0.029 A 
ATOM     63  C   UNL A   1      45.416  28.493  30.821  1.00  0.00     0.049 A 
ATOM     64  H   UNL A   1      45.619  30.322  29.792  1.00  0.00     0.167 HD
ATOM     65  C   UNL A   1      43.019  29.142  30.780  1.00  0.00     0.074 A 
ATOM     66  C   UNL A   1      42.927  30.014  29.611  1.00  0.00     0.031 C 
ATOM     67  C   UNL A   1      44.080  28.525  31.373  1.00  0.00     0.037 A 
BRANCH  54  68
ATOM     68  C   UNL A   1      46.751  30.245  27.003  1.00  0.00     0.058 A 
ATOM     69  C   UNL A   1      47.994  30.910  27.054  1.00  0.00     0.135 A 
ATOM     70  C   UNL A   1      45.649  31.044  26.623  1.00  0.00     0.135 A 
ATOM     71  F   UNL A   1      49.109  30.248  27.400  1.00  0.00    -0.206 F 
ATOM     72  C   UNL A   1      48.112  32.284  26.848  1.00  0.00     0.059 A 
ATOM     73  C   UNL A   1      45.755  32.402  26.356  1.00  0.00     0.059 A 
ATOM     74  F   UNL A   1      44.395  30.578  26.592  1.00  0.00    -0.206 F 
ATOM     75  C   UNL A   1      46.980  33.023  26.520  1.00  0.00     0.060 A 
BRANCH  75  76
ATOM     76  S   UNL A   1      47.101  34.813  26.388  1.00  0.00     0.124 S 
ATOM     77  O   UNL A   1      48.009  35.122  27.485  1.00  0.00    -0.237 OA
ATOM     78  O   UNL A   1      47.640  34.978  25.042  1.00  0.00    -0.237 OA
ATOM     79  O   UNL A   1      45.721  35.256  26.565  1.00  0.00    -0.744 OA
ENDBRANCH  75  76
ENDBRANCH  54  68
BRANCH  55  80
ATOM     80  C   UNL A   1      38.633  28.782  29.066  1.00  0.00     0.058 A 
ATOM     81  C   UNL A   1      37.694  29.010  30.094  1.00  0.00     0.135 A 
ATOM     82  C   UNL A   1      38.350  29.397  27.832  1.00  0.00     0.135 A 
ATOM     83  F   UNL A   1      37.889  28.484  31.314  1.00  0.00    -0.206 F 
ATOM     84  C   UNL A   1      36.576  29.835  29.923  1.00  0.00     0.059 A 
ATOM     85  C   UNL A   1      37.238  30.219  27.635  1.00  0.00     0.059 A 
ATOM     86  F   UNL A   1      39.203  29.293  26.802  1.00  0.00    -0.206 F 
ATOM     87  C   UNL A   1      36.367  30.455  28.692  1.00  0.00     0.060 A 
BRANCH  87  88
ATOM     88  S   UNL A   1      35.019  31.651  28.514  1.00  0.00     0.124 S 
ATOM     89  O   UNL A   1      33.963  30.835  27.925  1.00  0.00    -0.237 OA
ATOM     90  O   UNL A   1      34.801  32.079  29.893  1.00  0.00    -0.237 OA
ATOM     91  O   UNL A   1      35.584  32.671  27.632  1.00  0.00    -0.744 OA
ENDBRANCH  87  88
ENDBRANCH  55  80
BRANCH  67  92
ATOM     92  C   UNL A   1      43.828  27.624  32.551  1.00  0.00     0.058 A 
ATOM     93  C   UNL A   1      43.780  26.221  32.489  1.00  0.00     0.135 A 
ATOM     94  C   UNL A   1      43.834  28.214  33.825  1.00  0.00     0.135 A 
ATOM     95  F   UNL A   1      43.858  25.578  31.315  1.00  0.00    -0.206 F 
ATOM     96  C   UNL A   1      43.732  25.441  33.647  1.00  0.00     0.059 A 
ATOM     97  C   UNL A   1      43.818  27.457  34.990  1.00  0.00     0.059 A 
ATOM     98  F   UNL A   1      43.932  29.550  33.947  1.00  0.00    -0.206 F 
ATOM     99  C   UNL A   1      43.768  26.069  34.894  1.00  0.00     0.060 A 
BRANCH  99 100
ATOM    100  S   UNL A   1      43.847  25.058  36.389  1.00  0.00     0.124 S 
ATOM    101  O   UNL A   1      45.170  25.381  36.913  1.00  0.00    -0.237 OA
ATOM    102  O   UNL A   1      42.715  25.555  37.166  1.00  0.00    -0.237 OA
ATOM    103  O   UNL A   1      43.692  23.694  35.888  1.00  0.00    -0.744 OA
ENDBRANCH  99 100
ENDBRANCH  67  92
ENDBRANCH  41  42
ENDBRANCH  34  36
ENDBRANCH  33  34
ENDBRANCH  32  33
ENDBRANCH  31  32
ENDBRANCH  30  31
ENDBRANCH   1  30
TORSDOF 22
ENDMDL
MODEL 2
REMARK VINA RESULT:     -11.0      2.201      3.044
REMARK SMILES COc1ccc2c(c1)c(CC(=O)OCCOCCOC(=O)c1ccc(-c3c4nc(c(-c5c(F)cc(S(=O)(=O)[O-])cc5F)c5ccc([nH]5)c(-c5c(F)cc(S(=O)(=O)[O-])cc5F)c5nc(c(-c6c(F)cc(S(=O)(=O)[O-])cc6F)c6ccc3[nH]6)C=C5)C=C4)cc1)c(C)n2Cc1ccn(C(F)F)c(=O)c1
REMARK SMILES IDX 15 1 14 2 13 3 11 4 12 5 10 6 9 7 3 8 4 9 8 10 5 11 7 12
REMARK SMILES IDX 6 13 90 14 88 15 89 16 2 17 1 18 91 19 92 20 93 21 101 22
REMARK SMILES IDX 94 23 99 24 95 25 100 26 96 27 97 28 98 29 16 30 17 31 18 32
REMARK SMILES IDX 19 33 20 34 21 35 22 36 23 37 87 38 24 39 86 40 25 41 26 42
REMARK SMILES IDX 27 43 80 44 28 45 85 46 79 47 81 48 29 49 84 50 78 51 77 52
REMARK SMILES IDX 30 54 64 55 43 56 63 57 44 58 47 59 62 60 82 61 45 62 46 63
REMARK SMILES IDX 61 65 83 66 48 67 31 68 32 69 41 70 33 71 34 72 40 73 42 74
REMARK SMILES IDX 35 75 36 76 37 77 38 78 39 79 65 80 66 81 75 82 67 83 68 84
REMARK SMILES IDX 74 85 76 86 69 87 70 88 71 89 72 90 73 91 49 92 50 93 59 94
REMARK SMILES IDX 51 95 52 96 58 97 60 98 53 99 54 100 55 101 56 102 57 103
REMARK H PARENT 81 53 47 64
REMARK Flexibility Score: inf
ROOT
ATOM      1  C   UNL A   1      37.450  19.641  24.974  1.00  0.00     0.202 C 
ENDROOT
BRANCH   1   2
ATOM      2  C   UNL A   1      36.661  20.957  25.114  1.00  0.00     0.261 C 
BRANCH   2   3
ATOM      3  O   UNL A   1      36.664  21.822  23.965  1.00  0.00    -0.463 OA
BRANCH   3   4
ATOM      4  C   UNL A   1      36.600  23.147  24.263  1.00  0.00     0.310 C 
ATOM      5  O   UNL A   1      37.390  23.721  25.011  1.00  0.00    -0.252 OA
BRANCH   4   6
ATOM      6  C   UNL A   1      35.477  23.923  23.608  1.00  0.00     0.160 C 
BRANCH   6   7
ATOM      7  C   UNL A   1      34.239  24.262  24.399  1.00  0.00    -0.008 A 
ATOM      8  C   UNL A   1      31.945  21.309  25.213  1.00  0.00     0.119 A 
ATOM      9  C   UNL A   1      31.048  22.022  25.998  1.00  0.00     0.048 A 
ATOM     10  C   UNL A   1      33.003  21.975  24.593  1.00  0.00     0.057 A 
ATOM     11  C   UNL A   1      31.179  23.414  26.158  1.00  0.00     0.031 A 
ATOM     12  C   UNL A   1      33.209  23.357  24.799  1.00  0.00     0.007 A 
ATOM     13  C   UNL A   1      32.266  24.071  25.545  1.00  0.00     0.049 A 
ATOM     14  N   UNL A   1      32.642  25.411  25.495  1.00  0.00    -0.340 N 
ATOM     15  C   UNL A   1      33.774  25.535  24.701  1.00  0.00     0.020 A 
ATOM     16  C   UNL A   1      34.351  26.829  24.238  1.00  0.00     0.065 C 
BRANCH   8  17
ATOM     17  O   UNL A   1      31.996  19.945  25.109  1.00  0.00    -0.497 OA
ATOM     18  C   UNL A   1      33.287  19.369  24.976  1.00  0.00     0.278 C 
ENDBRANCH   8  17
BRANCH  14  19
ATOM     19  C   UNL A   1      31.827  26.518  26.026  1.00  0.00     0.158 C 
BRANCH  19  20
ATOM     20  C   UNL A   1      30.802  27.080  25.064  1.00  0.00    -0.021 A 
ATOM     21  C   UNL A   1      31.106  28.302  24.346  1.00  0.00     0.024 A 
ATOM     22  C   UNL A   1      29.643  26.458  24.782  1.00  0.00     0.077 A 
ATOM     23  C   UNL A   1      30.182  28.914  23.601  1.00  0.00     0.095 A 
ATOM     24  C   UNL A   1      28.641  27.069  23.854  1.00  0.00     0.255 A 
ATOM     25  N   UNL A   1      28.944  28.341  23.399  1.00  0.00    -0.258 N 
ATOM     26  O   UNL A   1      27.637  26.422  23.571  1.00  0.00    -0.269 OA
BRANCH  25  27
ATOM     27  C   UNL A   1      27.954  29.029  22.608  1.00  0.00     0.451 C 
ATOM     28  F   UNL A   1      26.784  29.123  23.284  1.00  0.00    -0.185 F 
ATOM     29  F   UNL A   1      28.362  30.282  22.297  1.00  0.00    -0.185 F 
ENDBRANCH  25  27
ENDBRANCH  19  20
ENDBRANCH  14  19
ENDBRANCH   6   7
ENDBRANCH   4   6
ENDBRANCH   3   4
ENDBRANCH   2   3
ENDBRANCH   1   2
BRANCH   1  30
ATOM     30  O   UNL A   1      38.864  19.641  24.813  1.00  0.00    -0.374 OA
BRANCH  30  31
ATOM     31  C   UNL A   1      39.662  19.295  25.942  1.00  0.00     0.202 C 
BRANCH  31  32
ATOM     32  C   UNL A   1      40.776  20.241  26.423  1.00  0.00     0.261 C 
BRANCH  32  33
ATOM     33  O   UNL A   1      40.619  21.571  25.935  1.00  0.00    -0.460 OA
BRANCH  33  34
ATOM     34  C   UNL A   1      41.770  22.288  25.890  1.00  0.00     0.338 C 
ATOM     35  O   UNL A   1      42.645  22.253  25.038  1.00  0.00    -0.246 OA
BRANCH  34  36
ATOM     36  C   UNL A   1      41.534  23.396  26.823  1.00  0.00     0.060 A 
ATOM     37  C   UNL A   1      40.597  24.383  26.507  1.00  0.00     0.016 A 
ATOM     38  C   UNL A   1      42.521  23.599  27.802  1.00  0.00     0.016 A 
ATOM     39  C   UNL A   1      40.711  25.618  27.125  1.00  0.00     0.010 A 
ATOM     40  C   UNL A   1      42.639  24.845  28.403  1.00  0.00     0.010 A 
ATOM     41  C   UNL A   1      41.754  25.862  28.040  1.00  0.00    -0.014 A 
BRANCH  41  42
ATOM     42  C   UNL A   1      41.684  27.104  28.810  1.00  0.00     0.031 A 
ATOM     43  C   UNL A   1      42.847  27.982  28.497  1.00  0.00     0.074 A 
ATOM     44  C   UNL A   1      40.674  27.537  29.592  1.00  0.00     0.049 A 
ATOM     45  N   UNL A   1      43.830  28.302  29.271  1.00  0.00    -0.248 NA
ATOM     46  C   UNL A   1      43.035  28.374  27.089  1.00  0.00     0.031 C 
ATOM     47  C   UNL A   1      39.347  26.955  29.782  1.00  0.00     0.029 A 
ATOM     48  N   UNL A   1      40.611  28.682  30.336  1.00  0.00    -0.354 N 
ATOM     49  C   UNL A   1      44.656  29.117  28.503  1.00  0.00     0.074 A 
ATOM     50  C   UNL A   1      44.229  28.962  27.139  1.00  0.00     0.031 C 
ATOM     51  C   UNL A   1      38.545  27.859  30.398  1.00  0.00     0.029 A 
ATOM     52  C   UNL A   1      39.332  29.028  30.764  1.00  0.00     0.049 A 
ATOM     53  H   UNL A   1      41.406  29.220  30.551  1.00  0.00     0.167 HD
ATOM     54  C   UNL A   1      45.465  30.048  29.076  1.00  0.00     0.037 A 
ATOM     55  C   UNL A   1      38.951  30.209  31.325  1.00  0.00     0.037 A 
ATOM     56  C   UNL A   1      45.670  29.774  30.474  1.00  0.00     0.049 A 
ATOM     57  C   UNL A   1      40.178  30.859  31.853  1.00  0.00     0.074 A 
ATOM     58  C   UNL A   1      46.198  28.719  31.193  1.00  0.00     0.029 A 
ATOM     59  N   UNL A   1      44.967  30.532  31.379  1.00  0.00    -0.354 N 
ATOM     60  N   UNL A   1      40.872  30.405  32.860  1.00  0.00    -0.248 NA
ATOM     61  C   UNL A   1      40.877  31.790  30.981  1.00  0.00     0.031 C 
ATOM     62  C   UNL A   1      45.401  28.638  32.370  1.00  0.00     0.029 A 
ATOM     63  C   UNL A   1      44.471  29.678  32.328  1.00  0.00     0.049 A 
ATOM     64  H   UNL A   1      44.844  31.508  31.351  1.00  0.00     0.167 HD
ATOM     65  C   UNL A   1      42.193  30.648  32.515  1.00  0.00     0.074 A 
ATOM     66  C   UNL A   1      42.130  31.579  31.391  1.00  0.00     0.031 C 
ATOM     67  C   UNL A   1      43.202  29.865  32.994  1.00  0.00     0.037 A 
BRANCH  54  68
ATOM     68  C   UNL A   1      45.727  31.410  28.474  1.00  0.00     0.058 A 
ATOM     69  C   UNL A   1      44.628  32.213  28.105  1.00  0.00     0.135 A 
ATOM     70  C   UNL A   1      46.980  31.821  27.965  1.00  0.00     0.135 A 
ATOM     71  F   UNL A   1      43.391  31.918  28.533  1.00  0.00    -0.206 F 
ATOM     72  C   UNL A   1      44.751  33.279  27.213  1.00  0.00     0.059 A 
ATOM     73  C   UNL A   1      47.132  32.914  27.123  1.00  0.00     0.059 A 
ATOM     74  F   UNL A   1      48.106  31.128  28.169  1.00  0.00    -0.206 F 
ATOM     75  C   UNL A   1      46.006  33.606  26.712  1.00  0.00     0.060 A 
BRANCH  75  76
ATOM     76  S   UNL A   1      46.152  34.888  25.459  1.00  0.00     0.124 S 
ATOM     77  O   UNL A   1      47.551  34.752  25.070  1.00  0.00    -0.237 OA
ATOM     78  O   UNL A   1      45.168  34.456  24.473  1.00  0.00    -0.237 OA
ATOM     79  O   UNL A   1      45.813  36.108  26.185  1.00  0.00    -0.744 OA
ENDBRANCH  75  76
ENDBRANCH  54  68
BRANCH  55  80
ATOM     80  C   UNL A   1      37.676  30.970  31.173  1.00  0.00     0.058 A 
ATOM     81  C   UNL A   1      36.680  30.943  32.171  1.00  0.00     0.135 A 
ATOM     82  C   UNL A   1      37.539  31.974  30.197  1.00  0.00     0.135 A 
ATOM     83  F   UNL A   1      36.738  30.036  33.159  1.00  0.00    -0.206 F 
ATOM     84  C   UNL A   1      35.644  31.885  32.226  1.00  0.00     0.059 A 
ATOM     85  C   UNL A   1      36.511  32.920  30.226  1.00  0.00     0.059 A 
ATOM     86  F   UNL A   1      38.458  32.126  29.233  1.00  0.00    -0.206 F 
ATOM     87  C   UNL A   1      35.580  32.886  31.259  1.00  0.00     0.060 A 
BRANCH  87  88
ATOM     88  S   UNL A   1      34.345  34.201  31.417  1.00  0.00     0.124 S 
ATOM     89  O   UNL A   1      33.486  33.686  32.478  1.00  0.00    -0.237 OA
ATOM     90  O   UNL A   1      35.167  35.356  31.767  1.00  0.00    -0.237 OA
ATOM     91  O   UNL A   1      33.734  34.254  30.091  1.00  0.00    -0.744 OA
ENDBRANCH  87  88
ENDBRANCH  55  80
BRANCH  67  92
ATOM     92  C   UNL A   1      42.921  28.952  34.155  1.00  0.00     0.058 A 
ATOM     93  C   UNL A   1      42.212  27.742  34.069  1.00  0.00     0.135 A 
ATOM     94  C   UNL A   1      43.576  29.232  35.366  1.00  0.00     0.135 A 
ATOM     95  F   UNL A   1      41.634  27.360  32.921  1.00  0.00    -0.206 F 
ATOM     96  C   UNL A   1      42.153  26.853  35.145  1.00  0.00     0.059 A 
ATOM     97  C   UNL A   1      43.555  28.348  36.439  1.00  0.00     0.059 A 
ATOM     98  F   UNL A   1      44.312  30.350  35.489  1.00  0.00    -0.206 F 
ATOM     99  C   UNL A   1      42.842  27.158  36.321  1.00  0.00     0.060 A 
BRANCH  99 100
ATOM    100  S   UNL A   1      42.881  25.948  37.661  1.00  0.00     0.124 S 
ATOM    101  O   UNL A   1      43.584  24.827  37.046  1.00  0.00    -0.237 OA
ATOM    102  O   UNL A   1      43.610  26.660  38.707  1.00  0.00    -0.237 OA
ATOM    103  O   UNL A   1      41.469  25.714  37.952  1.00  0.00    -0.744 OA
ENDBRANCH  99 100
ENDBRANCH  67  92
ENDBRANCH  41  42
ENDBRANCH  34  36
ENDBRANCH  33  34
ENDBRANCH  32  33
ENDBRANCH  31  32
ENDBRANCH  30  31
ENDBRANCH   1  30
TORSDOF 22
ENDMDL
MODEL 3
REMARK VINA RESULT:     -10.2      5.127     10.279
REMARK SMILES COc1ccc2c(c1)c(CC(=O)OCCOCCOC(=O)c1ccc(-c3c4nc(c(-c5c(F)cc(S(=O)(=O)[O-])cc5F)c5ccc([nH]5)c(-c5c(F)cc(S(=O)(=O)[O-])cc5F)c5nc(c(-c6c(F)cc(S(=O)(=O)[O-])cc6F)c6ccc3[nH]6)C=C5)C=C4)cc1)c(C)n2Cc1ccn(C(F)F)c(=O)c1
REMARK SMILES IDX 15 1 14 2 13 3 11 4 12 5 10 6 9 7 3 8 4 9 8 10 5 11 7 12
REMARK SMILES IDX 6 13 90 14 88 15 89 16 2 17 1 18 91 19 92 20 93 21 101 22
REMARK SMILES IDX 94 23 99 24 95 25 100 26 96 27 97 28 98 29 16 30 17 31 18 32
REMARK SMILES IDX 19 33 20 34 21 35 22 36 23 37 87 38 24 39 86 40 25 41 26 42
REMARK SMILES IDX 27 43 80 44 28 45 85 46 79 47 81 48 29 49 84 50 78 51 77 52
REMARK SMILES IDX 30 54 64 55 43 56 63 57 44 58 47 59 62 60 82 61 45 62 46 63
REMARK SMILES IDX 61 65 83 66 48 67 31 68 32 69 41 70 33 71 34 72 40 73 42 74
REMARK SMILES IDX 35 75 36 76 37 77 38 78 39 79 65 80 66 81 75 82 67 83 68 84
REMARK SMILES IDX 74 85 76 86 69 87 70 88 71 89 72 90 73 91 49 92 50 93 59 94
REMARK SMILES IDX 51 95 52 96 58 97 60 98 53 99 54 100 55 101 56 102 57 103
REMARK H PARENT 81 53 47 64
REMARK Flexibility Score: inf
ROOT
ATOM      1  C   UNL A   1      32.822  33.663  27.487  1.00  0.00     0.202 C 
ENDROOT
BRANCH   1   2
ATOM      2  C   UNL A   1      33.928  33.663  28.561  1.00  0.00     0.261 C 
BRANCH   2   3
ATOM      3  O   UNL A   1      35.234  33.253  28.123  1.00  0.00    -0.463 OA
BRANCH   3   4
ATOM      4  C   UNL A   1      36.089  32.940  29.133  1.00  0.00     0.310 C 
ATOM      5  O   UNL A   1      37.283  33.236  29.139  1.00  0.00    -0.252 OA
BRANCH   4   6
ATOM      6  C   UNL A   1      35.490  32.188  30.302  1.00  0.00     0.160 C 
BRANCH   6   7
ATOM      7  C   UNL A   1      35.694  32.698  31.706  1.00  0.00    -0.008 A 
ATOM      8  C   UNL A   1      33.981  36.024  32.515  1.00  0.00     0.119 A 
ATOM      9  C   UNL A   1      34.324  36.051  33.861  1.00  0.00     0.048 A 
ATOM     10  C   UNL A   1      34.438  34.983  31.706  1.00  0.00     0.057 A 
ATOM     11  C   UNL A   1      35.144  35.051  34.415  1.00  0.00     0.031 A 
ATOM     12  C   UNL A   1      35.196  33.922  32.249  1.00  0.00     0.007 A 
ATOM     13  C   UNL A   1      35.579  33.992  33.592  1.00  0.00     0.049 A 
ATOM     14  N   UNL A   1      36.403  32.896  33.834  1.00  0.00    -0.340 N 
ATOM     15  C   UNL A   1      36.563  32.179  32.656  1.00  0.00     0.020 A 
ATOM     16  C   UNL A   1      37.536  31.067  32.462  1.00  0.00     0.065 C 
BRANCH   8  17
ATOM     17  O   UNL A   1      33.079  36.856  31.911  1.00  0.00    -0.497 OA
ATOM     18  C   UNL A   1      32.245  36.273  30.921  1.00  0.00     0.278 C 
ENDBRANCH   8  17
BRANCH  14  19
ATOM     19  C   UNL A   1      37.146  32.682  35.090  1.00  0.00     0.158 C 
BRANCH  19  20
ATOM     20  C   UNL A   1      38.291  33.643  35.331  1.00  0.00    -0.021 A 
ATOM     21  C   UNL A   1      38.966  34.232  34.192  1.00  0.00     0.024 A 
ATOM     22  C   UNL A   1      38.669  34.038  36.560  1.00  0.00     0.077 A 
ATOM     23  C   UNL A   1      40.070  34.968  34.348  1.00  0.00     0.095 A 
ATOM     24  C   UNL A   1      39.832  34.959  36.754  1.00  0.00     0.255 A 
ATOM     25  N   UNL A   1      40.537  35.284  35.607  1.00  0.00    -0.258 N 
ATOM     26  O   UNL A   1      40.083  35.351  37.889  1.00  0.00    -0.269 OA
BRANCH  25  27
ATOM     27  C   UNL A   1      41.742  36.062  35.753  1.00  0.00     0.451 C 
ATOM     28  F   UNL A   1      42.770  35.277  36.160  1.00  0.00    -0.185 F 
ATOM     29  F   UNL A   1      42.094  36.640  34.580  1.00  0.00    -0.185 F 
ENDBRANCH  25  27
ENDBRANCH  19  20
ENDBRANCH  14  19
ENDBRANCH   6   7
ENDBRANCH   4   6
ENDBRANCH   3   4
ENDBRANCH   2   3
ENDBRANCH   1   2
BRANCH   1  30
ATOM     30  O   UNL A   1      31.799  32.674  27.480  1.00  0.00    -0.374 OA
BRANCH  30  31
ATOM     31  C   UNL A   1      31.942  31.576  26.583  1.00  0.00     0.202 C 
BRANCH  31  32
ATOM     32  C   UNL A   1      32.500  30.233  27.086  1.00  0.00     0.261 C 
BRANCH  32  33
ATOM     33  O   UNL A   1      33.831  30.340  27.584  1.00  0.00    -0.460 OA
BRANCH  33  34
ATOM     34  C   UNL A   1      34.557  29.198  27.488  1.00  0.00     0.338 C 
ATOM     35  O   UNL A   1      34.289  28.187  26.856  1.00  0.00    -0.246 OA
BRANCH  34  36
ATOM     36  C   UNL A   1      35.898  29.591  27.936  1.00  0.00     0.060 A 
ATOM     37  C   UNL A   1      36.800  30.144  27.024  1.00  0.00     0.016 A 
ATOM     38  C   UNL A   1      36.322  29.054  29.162  1.00  0.00     0.016 A 
ATOM     39  C   UNL A   1      38.154  30.076  27.315  1.00  0.00     0.010 A 
ATOM     40  C   UNL A   1      37.681  28.973  29.438  1.00  0.00     0.010 A 
ATOM     41  C   UNL A   1      38.595  29.455  28.501  1.00  0.00    -0.014 A 
BRANCH  41  42
ATOM     42  C   UNL A   1      40.008  29.611  28.844  1.00  0.00     0.031 A 
ATOM     43  C   UNL A   1      40.858  28.737  27.987  1.00  0.00     0.074 A 
ATOM     44  C   UNL A   1      40.560  30.503  29.693  1.00  0.00     0.049 A 
ATOM     45  N   UNL A   1      41.539  27.699  28.341  1.00  0.00    -0.248 NA
ATOM     46  C   UNL A   1      40.760  28.926  26.529  1.00  0.00     0.031 C 
ATOM     47  C   UNL A   1      39.924  31.620  30.390  1.00  0.00     0.029 A 
ATOM     48  N   UNL A   1      41.875  30.639  30.041  1.00  0.00    -0.354 N 
ATOM     49  C   UNL A   1      42.134  27.230  27.175  1.00  0.00     0.074 A 
ATOM     50  C   UNL A   1      41.468  27.889  26.084  1.00  0.00     0.031 C 
ATOM     51  C   UNL A   1      40.881  32.440  30.888  1.00  0.00     0.029 A 
ATOM     52  C   UNL A   1      42.191  31.845  30.662  1.00  0.00     0.049 A 
ATOM     53  H   UNL A   1      42.545  29.940  29.867  1.00  0.00     0.167 HD
ATOM     54  C   UNL A   1      43.295  26.522  27.204  1.00  0.00     0.037 A 
ATOM     55  C   UNL A   1      43.438  32.330  30.914  1.00  0.00     0.037 A 
ATOM     56  C   UNL A   1      43.545  25.982  28.515  1.00  0.00     0.049 A 
ATOM     57  C   UNL A   1      44.372  31.175  30.879  1.00  0.00     0.074 A 
ATOM     58  C   UNL A   1      42.873  25.118  29.357  1.00  0.00     0.029 A 
ATOM     59  N   UNL A   1      44.478  26.620  29.295  1.00  0.00    -0.354 N 
ATOM     60  N   UNL A   1      44.379  30.211  31.759  1.00  0.00    -0.248 NA
ATOM     61  C   UNL A   1      45.023  30.871  29.614  1.00  0.00     0.031 C 
ATOM     62  C   UNL A   1      43.108  25.622  30.668  1.00  0.00     0.029 A 
ATOM     63  C   UNL A   1      43.950  26.729  30.554  1.00  0.00     0.049 A 
ATOM     64  H   UNL A   1      45.363  26.938  29.004  1.00  0.00     0.167 HD
ATOM     65  C   UNL A   1      44.645  29.066  31.025  1.00  0.00     0.074 A 
ATOM     66  C   UNL A   1      45.117  29.544  29.728  1.00  0.00     0.031 C 
ATOM     67  C   UNL A   1      44.201  27.844  31.439  1.00  0.00     0.037 A 
BRANCH  54  68
ATOM     68  C   UNL A   1      44.387  26.667  26.169  1.00  0.00     0.058 A 
ATOM     69  C   UNL A   1      44.940  25.502  25.595  1.00  0.00     0.135 A 
ATOM     70  C   UNL A   1      45.116  27.857  25.951  1.00  0.00     0.135 A 
ATOM     71  F   UNL A   1      44.330  24.315  25.736  1.00  0.00    -0.206 F 
ATOM     72  C   UNL A   1      46.174  25.506  24.948  1.00  0.00     0.059 A 
ATOM     73  C   UNL A   1      46.319  27.892  25.258  1.00  0.00     0.059 A 
ATOM     74  F   UNL A   1      44.760  29.031  26.484  1.00  0.00    -0.206 F 
ATOM     75  C   UNL A   1      46.865  26.704  24.804  1.00  0.00     0.060 A 
BRANCH  75  76
ATOM     76  S   UNL A   1      48.518  26.694  24.094  1.00  0.00     0.124 S 
ATOM     77  O   UNL A   1      48.277  26.035  22.815  1.00  0.00    -0.237 OA
ATOM     78  O   UNL A   1      48.826  28.119  24.033  1.00  0.00    -0.237 OA
ATOM     79  O   UNL A   1      49.295  25.928  25.063  1.00  0.00    -0.744 OA
ENDBRANCH  75  76
ENDBRANCH  54  68
BRANCH  55  80
ATOM     80  C   UNL A   1      43.941  33.734  30.876  1.00  0.00     0.058 A 
ATOM     81  C   UNL A   1      44.044  34.445  29.663  1.00  0.00     0.135 A 
ATOM     82  C   UNL A   1      44.040  34.505  32.049  1.00  0.00     0.135 A 
ATOM     83  F   UNL A   1      43.939  33.800  28.490  1.00  0.00    -0.206 F 
ATOM     84  C   UNL A   1      44.184  35.839  29.617  1.00  0.00     0.059 A 
ATOM     85  C   UNL A   1      44.187  35.895  32.029  1.00  0.00     0.059 A 
ATOM     86  F   UNL A   1      43.901  33.940  33.257  1.00  0.00    -0.206 F 
ATOM     87  C   UNL A   1      44.232  36.559  30.809  1.00  0.00     0.060 A 
BRANCH  87  88
ATOM     88  S   UNL A   1      44.246  38.369  30.756  1.00  0.00     0.124 S 
ATOM     89  O   UNL A   1      43.339  38.649  29.648  1.00  0.00    -0.237 OA
ATOM     90  O   UNL A   1      43.756  38.721  32.085  1.00  0.00    -0.237 OA
ATOM     91  O   UNL A   1      45.650  38.691  30.509  1.00  0.00    -0.744 OA
ENDBRANCH  87  88
ENDBRANCH  55  80
BRANCH  67  92
ATOM     92  C   UNL A   1      43.718  27.691  32.854  1.00  0.00     0.058 A 
ATOM     93  C   UNL A   1      42.424  28.015  33.297  1.00  0.00     0.135 A 
ATOM     94  C   UNL A   1      44.551  26.999  33.748  1.00  0.00     0.135 A 
ATOM     95  F   UNL A   1      41.538  28.597  32.477  1.00  0.00    -0.206 F 
ATOM     96  C   UNL A   1      41.984  27.671  34.578  1.00  0.00     0.059 A 
ATOM     97  C   UNL A   1      44.124  26.620  35.014  1.00  0.00     0.059 A 
ATOM     98  F   UNL A   1      45.781  26.617  33.361  1.00  0.00    -0.206 F 
ATOM     99  C   UNL A   1      42.837  26.958  35.424  1.00  0.00     0.060 A 
BRANCH  99 100
ATOM    100  S   UNL A   1      42.221  26.391  37.024  1.00  0.00     0.124 S 
ATOM    101  O   UNL A   1      40.965  27.122  37.150  1.00  0.00    -0.237 OA
ATOM    102  O   UNL A   1      42.101  24.949  36.822  1.00  0.00    -0.237 OA
ATOM    103  O   UNL A   1      43.272  26.791  37.957  1.00  0.00    -0.744 OA
ENDBRANCH  99 100
ENDBRANCH  67  92
ENDBRANCH  41  42
ENDBRANCH  34  36
ENDBRANCH  33  34
ENDBRANCH  32  33
ENDBRANCH  31  32
ENDBRANCH  30  31
ENDBRANCH   1  30
TORSDOF 22
ENDMDL
