MODEL 1
REMARK VINA RESULT:     -10.7      0.000      0.000
REMARK SMILES CC(C)CSc1cc2c(cc1Cl)C=C(C(=O)OCCOCCOC(=O)c1ccc(-c3c4nc(c(-c5c(F)cc(S(=O)(=O)[O-])cc5F)c5ccc([nH]5)c(-c5c(F)cc(S(=O)(=O)[O-])cc5F)c5nc(c(-c6c(F)cc(S(=O)(=O)[O-])cc6F)c6ccc3[nH]6)C=C5)C=C4)cc1)[C@@H](C(F)(F)F)O2
REMARK SMILES IDX 20 1 19 2 18 3 17 4 15 5 16 6 14 7 6 8 7 9 11 10 8 11 10 12
REMARK SMILES IDX 12 13 9 14 97 15 13 16 92 17 5 18 4 19 2 20 1 21 3 22 93 23
REMARK SMILES IDX 94 24 95 25 96 26 21 27 22 28 23 29 24 30 25 31 26 32 27 33
REMARK SMILES IDX 91 34 28 35 90 36 29 37 30 38 31 39 84 40 32 41 89 42 83 43
REMARK SMILES IDX 85 44 33 45 88 46 82 47 81 48 34 50 68 51 47 52 67 53 48 54
REMARK SMILES IDX 51 55 66 56 86 57 49 58 50 59 65 61 87 62 52 63 35 64 36 65
REMARK SMILES IDX 45 66 37 67 38 68 44 69 46 70 39 71 40 72 41 73 42 74 43 75
REMARK SMILES IDX 69 76 70 77 79 78 71 79 72 80 78 81 80 82 73 83 74 84 75 85
REMARK SMILES IDX 76 86 77 87 53 88 54 89 63 90 55 91 56 92 62 93 64 94 57 95
REMARK SMILES IDX 58 96 59 97 60 98 61 99
REMARK H PARENT 85 49 51 60
REMARK Flexibility Score: inf
ROOT
ATOM      1  O   UNL A   1      34.364  32.380  27.294  1.00  0.00    -0.374 OA
ENDROOT
BRANCH   1   2
ATOM      2  C   UNL A   1      33.368  31.394  27.556  1.00  0.00     0.202 C 
BRANCH   2   3
ATOM      3  C   UNL A   1      33.450  30.071  26.788  1.00  0.00     0.261 C 
BRANCH   3   4
ATOM      4  O   UNL A   1      32.195  29.376  26.768  1.00  0.00    -0.460 OA
BRANCH   4   5
ATOM      5  C   UNL A   1      31.577  29.371  25.564  1.00  0.00     0.338 C 
ATOM      6  O   UNL A   1      31.191  30.338  24.929  1.00  0.00    -0.246 OA
BRANCH   5   7
ATOM      7  C   UNL A   1      31.577  28.001  25.017  1.00  0.00     0.087 C 
ATOM      8  C   UNL A   1      31.546  22.988  24.766  1.00  0.00     0.030 A 
ATOM      9  C   UNL A   1      32.020  24.019  23.930  1.00  0.00     0.063 A 
ATOM     10  C   UNL A   1      30.696  23.340  25.825  1.00  0.00     0.055 A 
ATOM     11  C   UNL A   1      31.777  25.362  24.226  1.00  0.00     0.129 A 
ATOM     12  C   UNL A   1      30.497  24.687  26.151  1.00  0.00     0.033 A 
ATOM     13  Cl  UNL A   1      29.821  22.196  26.779  1.00  0.00    -0.083 Cl
ATOM     14  C   UNL A   1      31.077  25.694  25.379  1.00  0.00     0.019 A 
ATOM     15  O   UNL A   1      32.290  26.282  23.359  1.00  0.00    -0.475 OA
ATOM     16  C   UNL A   1      31.024  27.076  25.812  1.00  0.00     0.027 C 
ATOM     17  C   UNL A   1      32.166  27.704  23.665  1.00  0.00     0.316 C 
BRANCH   8  18
ATOM     18  S   UNL A   1      32.139  21.350  24.346  1.00  0.00    -0.124 SA
BRANCH  18  19
ATOM     19  C   UNL A   1      33.168  20.819  25.773  1.00  0.00     0.078 C 
BRANCH  19  20
ATOM     20  C   UNL A   1      34.575  21.415  25.984  1.00  0.00    -0.007 C 
ATOM     21  C   UNL A   1      35.318  21.832  24.716  1.00  0.00     0.008 C 
ATOM     22  C   UNL A   1      34.440  22.651  26.889  1.00  0.00     0.008 C 
ENDBRANCH  19  20
ENDBRANCH  18  19
ENDBRANCH   8  18
BRANCH  17  23
ATOM     23  C   UNL A   1      33.549  28.338  23.452  1.00  0.00     0.430 C 
ATOM     24  F   UNL A   1      34.159  27.815  22.363  1.00  0.00    -0.167 F 
ATOM     25  F   UNL A   1      33.472  29.672  23.256  1.00  0.00    -0.167 F 
ATOM     26  F   UNL A   1      34.360  28.126  24.515  1.00  0.00    -0.167 F 
ENDBRANCH  17  23
ENDBRANCH   5   7
ENDBRANCH   4   5
ENDBRANCH   3   4
ENDBRANCH   2   3
ENDBRANCH   1   2
BRANCH   1  27
ATOM     27  C   UNL A   1      35.468  32.485  28.190  1.00  0.00     0.202 C 
BRANCH  27  28
ATOM     28  C   UNL A   1      35.362  31.825  29.572  1.00  0.00     0.261 C 
BRANCH  28  29
ATOM     29  O   UNL A   1      35.853  30.475  29.591  1.00  0.00    -0.460 OA
BRANCH  29  30
ATOM     30  C   UNL A   1      36.621  30.163  30.666  1.00  0.00     0.338 C 
ATOM     31  O   UNL A   1      36.235  29.898  31.795  1.00  0.00    -0.246 OA
BRANCH  30  32
ATOM     32  C   UNL A   1      38.017  29.985  30.228  1.00  0.00     0.060 A 
ATOM     33  C   UNL A   1      39.044  29.794  31.153  1.00  0.00     0.016 A 
ATOM     34  C   UNL A   1      38.285  29.978  28.853  1.00  0.00     0.016 A 
ATOM     35  C   UNL A   1      40.344  29.574  30.692  1.00  0.00     0.010 A 
ATOM     36  C   UNL A   1      39.585  29.757  28.395  1.00  0.00     0.010 A 
ATOM     37  C   UNL A   1      40.621  29.536  29.311  1.00  0.00    -0.014 A 
BRANCH  37  38
ATOM     38  C   UNL A   1      41.973  29.147  28.837  1.00  0.00     0.031 A 
ATOM     39  C   UNL A   1      43.110  30.125  28.823  1.00  0.00     0.074 A 
ATOM     40  C   UNL A   1      42.162  27.883  28.408  1.00  0.00     0.049 A 
ATOM     41  N   UNL A   1      44.363  29.919  28.510  1.00  0.00    -0.248 NA
ATOM     42  C   UNL A   1      42.803  31.511  29.202  1.00  0.00     0.031 C 
ATOM     43  C   UNL A   1      41.117  26.858  28.339  1.00  0.00     0.029 A 
ATOM     44  N   UNL A   1      43.288  27.242  27.963  1.00  0.00    -0.354 N 
ATOM     45  C   UNL A   1      45.004  31.141  28.678  1.00  0.00     0.074 A 
ATOM     46  C   UNL A   1      43.987  32.096  29.066  1.00  0.00     0.031 C 
ATOM     47  C   UNL A   1      41.661  25.706  27.917  1.00  0.00     0.029 A 
ATOM     48  C   UNL A   1      43.082  25.918  27.653  1.00  0.00     0.049 A 
ATOM     49  H   UNL A   1      44.162  27.685  27.873  1.00  0.00     0.167 HD
ATOM     50  C   UNL A   1      46.322  31.427  28.543  1.00  0.00     0.037 A 
ATOM     51  C   UNL A   1      43.939  24.976  27.213  1.00  0.00     0.037 A 
ATOM     52  C   UNL A   1      47.322  30.471  28.139  1.00  0.00     0.049 A 
ATOM     53  C   UNL A   1      45.388  25.336  27.022  1.00  0.00     0.074 A 
ATOM     54  C   UNL A   1      48.687  30.662  28.003  1.00  0.00     0.029 A 
ATOM     55  N   UNL A   1      47.070  29.150  27.793  1.00  0.00    -0.354 N 
ATOM     56  N   UNL A   1      45.990  26.477  27.255  1.00  0.00    -0.248 NA
ATOM     57  C   UNL A   1      46.273  24.280  26.512  1.00  0.00     0.031 C 
ATOM     58  C   UNL A   1      49.251  29.476  27.521  1.00  0.00     0.029 A 
ATOM     59  C   UNL A   1      48.249  28.525  27.414  1.00  0.00     0.049 A 
ATOM     60  H   UNL A   1      46.185  28.721  27.813  1.00  0.00     0.167 HD
ATOM     61  C   UNL A   1      47.329  26.272  26.939  1.00  0.00     0.074 A 
ATOM     62  C   UNL A   1      47.451  24.892  26.517  1.00  0.00     0.031 C 
ATOM     63  C   UNL A   1      48.361  27.150  26.991  1.00  0.00     0.037 A 
BRANCH  50  64
ATOM     64  C   UNL A   1      46.771  32.832  28.844  1.00  0.00     0.058 A 
ATOM     65  C   UNL A   1      47.204  33.202  30.128  1.00  0.00     0.135 A 
ATOM     66  C   UNL A   1      46.845  33.799  27.827  1.00  0.00     0.135 A 
ATOM     67  F   UNL A   1      47.145  32.322  31.140  1.00  0.00    -0.206 F 
ATOM     68  C   UNL A   1      47.676  34.483  30.397  1.00  0.00     0.059 A 
ATOM     69  C   UNL A   1      47.340  35.078  28.068  1.00  0.00     0.059 A 
ATOM     70  F   UNL A   1      46.447  33.501  26.581  1.00  0.00    -0.206 F 
ATOM     71  C   UNL A   1      47.744  35.413  29.359  1.00  0.00     0.060 A 
BRANCH  71  72
ATOM     72  S   UNL A   1      48.374  37.064  29.728  1.00  0.00     0.124 S 
ATOM     73  O   UNL A   1      49.508  37.155  28.813  1.00  0.00    -0.237 OA
ATOM     74  O   UNL A   1      47.231  37.910  29.404  1.00  0.00    -0.237 OA
ATOM     75  O   UNL A   1      48.719  36.991  31.144  1.00  0.00    -0.744 OA
ENDBRANCH  71  72
ENDBRANCH  50  64
BRANCH  51  76
ATOM     76  C   UNL A   1      43.450  23.596  26.956  1.00  0.00     0.058 A 
ATOM     77  C   UNL A   1      43.267  23.129  25.646  1.00  0.00     0.135 A 
ATOM     78  C   UNL A   1      43.186  22.707  28.009  1.00  0.00     0.135 A 
ATOM     79  F   UNL A   1      43.499  23.943  24.605  1.00  0.00    -0.206 F 
ATOM     80  C   UNL A   1      42.831  21.833  25.389  1.00  0.00     0.059 A 
ATOM     81  C   UNL A   1      42.777  21.398  27.778  1.00  0.00     0.059 A 
ATOM     82  F   UNL A   1      43.361  23.100  29.281  1.00  0.00    -0.206 F 
ATOM     83  C   UNL A   1      42.595  20.973  26.463  1.00  0.00     0.060 A 
BRANCH  83  84
ATOM     84  S   UNL A   1      42.084  19.277  26.112  1.00  0.00     0.124 S 
ATOM     85  O   UNL A   1      42.499  18.587  27.328  1.00  0.00    -0.237 OA
ATOM     86  O   UNL A   1      40.645  19.428  25.924  1.00  0.00    -0.237 OA
ATOM     87  O   UNL A   1      42.835  18.940  24.907  1.00  0.00    -0.744 OA
ENDBRANCH  83  84
ENDBRANCH  51  76
BRANCH  63  88
ATOM     88  C   UNL A   1      49.724  26.650  26.593  1.00  0.00     0.058 A 
ATOM     89  C   UNL A   1      50.569  26.005  27.511  1.00  0.00     0.135 A 
ATOM     90  C   UNL A   1      50.163  26.750  25.262  1.00  0.00     0.135 A 
ATOM     91  F   UNL A   1      50.203  25.890  28.798  1.00  0.00    -0.206 F 
ATOM     92  C   UNL A   1      51.804  25.494  27.129  1.00  0.00     0.059 A 
ATOM     93  C   UNL A   1      51.380  26.216  24.849  1.00  0.00     0.059 A 
ATOM     94  F   UNL A   1      49.392  27.347  24.339  1.00  0.00    -0.206 F 
ATOM     95  C   UNL A   1      52.198  25.596  25.794  1.00  0.00     0.060 A 
BRANCH  95  96
ATOM     96  S   UNL A   1      53.783  24.884  25.307  1.00  0.00     0.124 S 
ATOM     97  O   UNL A   1      54.594  25.125  26.496  1.00  0.00    -0.237 OA
ATOM     98  O   UNL A   1      53.432  23.491  25.051  1.00  0.00    -0.237 OA
ATOM     99  O   UNL A   1      54.159  25.657  24.126  1.00  0.00    -0.744 OA
ENDBRANCH  95  96
ENDBRANCH  63  88
ENDBRANCH  37  38
ENDBRANCH  30  32
ENDBRANCH  29  30
ENDBRANCH  28  29
ENDBRANCH  27  28
ENDBRANCH   1  27
TORSDOF 21
ENDMDL
MODEL 2
REMARK VINA RESULT:     -10.7      1.569      8.245
REMARK SMILES CC(C)CSc1cc2c(cc1Cl)C=C(C(=O)OCCOCCOC(=O)c1ccc(-c3c4nc(c(-c5c(F)cc(S(=O)(=O)[O-])cc5F)c5ccc([nH]5)c(-c5c(F)cc(S(=O)(=O)[O-])cc5F)c5nc(c(-c6c(F)cc(S(=O)(=O)[O-])cc6F)c6ccc3[nH]6)C=C5)C=C4)cc1)[C@@H](C(F)(F)F)O2
REMARK SMILES IDX 20 1 19 2 18 3 17 4 15 5 16 6 14 7 6 8 7 9 11 10 8 11 10 12
REMARK SMILES IDX 12 13 9 14 97 15 13 16 92 17 5 18 4 19 2 20 1 21 3 22 93 23
REMARK SMILES IDX 94 24 95 25 96 26 21 27 22 28 23 29 24 30 25 31 26 32 27 33
REMARK SMILES IDX 91 34 28 35 90 36 29 37 30 38 31 39 84 40 32 41 89 42 83 43
REMARK SMILES IDX 85 44 33 45 88 46 82 47 81 48 34 50 68 51 47 52 67 53 48 54
REMARK SMILES IDX 51 55 66 56 86 57 49 58 50 59 65 61 87 62 52 63 35 64 36 65
REMARK SMILES IDX 45 66 37 67 38 68 44 69 46 70 39 71 40 72 41 73 42 74 43 75
REMARK SMILES IDX 69 76 70 77 79 78 71 79 72 80 78 81 80 82 73 83 74 84 75 85
REMARK SMILES IDX 76 86 77 87 53 88 54 89 63 90 55 91 56 92 62 93 64 94 57 95
REMARK SMILES IDX 58 96 59 97 60 98 61 99
REMARK H PARENT 85 49 51 60
REMARK Flexibility Score: inf
ROOT
ATOM      1  O   UNL A   1      33.191  31.731  27.643  1.00  0.00    -0.374 OA
ENDROOT
BRANCH   1   2
ATOM      2  C   UNL A   1      32.896  30.398  27.234  1.00  0.00     0.202 C 
BRANCH   2   3
ATOM      3  C   UNL A   1      34.073  29.463  26.934  1.00  0.00     0.261 C 
BRANCH   3   4
ATOM      4  O   UNL A   1      33.652  28.104  26.748  1.00  0.00    -0.460 OA
BRANCH   4   5
ATOM      5  C   UNL A   1      33.653  27.689  25.460  1.00  0.00     0.338 C 
ATOM      6  O   UNL A   1      34.094  28.287  24.493  1.00  0.00    -0.246 OA
BRANCH   5   7
ATOM      7  C   UNL A   1      33.185  26.292  25.393  1.00  0.00     0.087 C 
ATOM      8  C   UNL A   1      33.053  21.370  24.418  1.00  0.00     0.030 A 
ATOM      9  C   UNL A   1      32.078  22.372  24.592  1.00  0.00     0.063 A 
ATOM     10  C   UNL A   1      34.375  21.669  24.784  1.00  0.00     0.055 A 
ATOM     11  C   UNL A   1      32.430  23.669  24.974  1.00  0.00     0.129 A 
ATOM     12  C   UNL A   1      34.733  22.981  25.116  1.00  0.00     0.033 A 
ATOM     13  Cl  UNL A   1      35.636  20.494  24.886  1.00  0.00    -0.083 Cl
ATOM     14  C   UNL A   1      33.768  23.988  25.163  1.00  0.00     0.019 A 
ATOM     15  O   UNL A   1      31.410  24.566  25.102  1.00  0.00    -0.475 OA
ATOM     16  C   UNL A   1      34.158  25.373  25.328  1.00  0.00     0.027 C 
ATOM     17  C   UNL A   1      31.717  25.963  25.394  1.00  0.00     0.316 C 
BRANCH   8  18
ATOM     18  S   UNL A   1      32.440  19.839  23.718  1.00  0.00    -0.124 SA
BRANCH  18  19
ATOM     19  C   UNL A   1      32.960  18.520  24.888  1.00  0.00     0.078 C 
BRANCH  19  20
ATOM     20  C   UNL A   1      32.984  17.045  24.439  1.00  0.00    -0.007 C 
ATOM     21  C   UNL A   1      34.236  16.598  23.688  1.00  0.00     0.008 C 
ATOM     22  C   UNL A   1      32.833  16.162  25.689  1.00  0.00     0.008 C 
ENDBRANCH  19  20
ENDBRANCH  18  19
ENDBRANCH   8  18
BRANCH  17  23
ATOM     23  C   UNL A   1      30.902  26.822  24.415  1.00  0.00     0.430 C 
ATOM     24  F   UNL A   1      31.567  26.988  23.247  1.00  0.00    -0.167 F 
ATOM     25  F   UNL A   1      29.712  26.258  24.112  1.00  0.00    -0.167 F 
ATOM     26  F   UNL A   1      30.655  28.052  24.923  1.00  0.00    -0.167 F 
ENDBRANCH  17  23
ENDBRANCH   5   7
ENDBRANCH   4   5
ENDBRANCH   3   4
ENDBRANCH   2   3
ENDBRANCH   1   2
BRANCH   1  27
ATOM     27  C   UNL A   1      34.542  32.062  27.959  1.00  0.00     0.202 C 
BRANCH  27  28
ATOM     28  C   UNL A   1      35.005  31.956  29.419  1.00  0.00     0.261 C 
BRANCH  28  29
ATOM     29  O   UNL A   1      35.847  30.818  29.663  1.00  0.00    -0.460 OA
BRANCH  29  30
ATOM     30  C   UNL A   1      36.796  31.005  30.615  1.00  0.00     0.338 C 
ATOM     31  O   UNL A   1      36.629  31.432  31.748  1.00  0.00    -0.246 OA
BRANCH  30  32
ATOM     32  C   UNL A   1      38.068  30.419  30.153  1.00  0.00     0.060 A 
ATOM     33  C   UNL A   1      38.321  30.225  28.796  1.00  0.00     0.016 A 
ATOM     34  C   UNL A   1      39.035  30.092  31.114  1.00  0.00     0.016 A 
ATOM     35  C   UNL A   1      39.561  29.718  28.400  1.00  0.00     0.010 A 
ATOM     36  C   UNL A   1      40.273  29.587  30.714  1.00  0.00     0.010 A 
ATOM     37  C   UNL A   1      40.552  29.413  29.353  1.00  0.00    -0.014 A 
BRANCH  37  38
ATOM     38  C   UNL A   1      41.914  29.025  28.909  1.00  0.00     0.031 A 
ATOM     39  C   UNL A   1      42.226  27.625  28.471  1.00  0.00     0.074 A 
ATOM     40  C   UNL A   1      42.880  29.965  28.911  1.00  0.00     0.049 A 
ATOM     41  N   UNL A   1      43.344  27.149  27.986  1.00  0.00    -0.248 NA
ATOM     42  C   UNL A   1      41.152  26.630  28.598  1.00  0.00     0.031 C 
ATOM     43  C   UNL A   1      42.700  31.349  29.356  1.00  0.00     0.029 A 
ATOM     44  N   UNL A   1      44.193  29.908  28.521  1.00  0.00    -0.354 N 
ATOM     45  C   UNL A   1      43.105  25.805  27.724  1.00  0.00     0.074 A 
ATOM     46  C   UNL A   1      41.751  25.529  28.158  1.00  0.00     0.031 C 
ATOM     47  C   UNL A   1      43.847  32.021  29.175  1.00  0.00     0.029 A 
ATOM     48  C   UNL A   1      44.853  31.110  28.636  1.00  0.00     0.049 A 
ATOM     49  H   UNL A   1      44.623  29.088  28.191  1.00  0.00     0.167 HD
ATOM     50  C   UNL A   1      43.933  24.897  27.152  1.00  0.00     0.037 A 
ATOM     51  C   UNL A   1      46.123  31.444  28.336  1.00  0.00     0.037 A 
ATOM     52  C   UNL A   1      45.285  25.180  26.740  1.00  0.00     0.049 A 
ATOM     53  C   UNL A   1      47.037  30.401  27.750  1.00  0.00     0.074 A 
ATOM     54  C   UNL A   1      46.190  24.331  26.125  1.00  0.00     0.029 A 
ATOM     55  N   UNL A   1      45.934  26.394  26.911  1.00  0.00    -0.354 N 
ATOM     56  N   UNL A   1      46.772  29.155  27.442  1.00  0.00    -0.248 NA
ATOM     57  C   UNL A   1      48.419  30.811  27.469  1.00  0.00     0.031 C 
ATOM     58  C   UNL A   1      47.402  25.014  25.975  1.00  0.00     0.029 A 
ATOM     59  C   UNL A   1      47.237  26.308  26.441  1.00  0.00     0.049 A 
ATOM     60  H   UNL A   1      45.530  27.200  27.307  1.00  0.00     0.167 HD
ATOM     61  C   UNL A   1      47.949  28.636  26.912  1.00  0.00     0.074 A 
ATOM     62  C   UNL A   1      48.921  29.710  26.924  1.00  0.00     0.031 C 
ATOM     63  C   UNL A   1      48.200  27.382  26.460  1.00  0.00     0.037 A 
BRANCH  50  64
ATOM     64  C   UNL A   1      43.402  23.507  26.925  1.00  0.00     0.058 A 
ATOM     65  C   UNL A   1      43.092  23.045  25.635  1.00  0.00     0.135 A 
ATOM     66  C   UNL A   1      43.276  22.599  27.990  1.00  0.00     0.135 A 
ATOM     67  F   UNL A   1      43.183  23.872  24.581  1.00  0.00    -0.206 F 
ATOM     68  C   UNL A   1      42.657  21.742  25.412  1.00  0.00     0.059 A 
ATOM     69  C   UNL A   1      42.871  21.283  27.786  1.00  0.00     0.059 A 
ATOM     70  F   UNL A   1      43.562  22.985  29.243  1.00  0.00    -0.206 F 
ATOM     71  C   UNL A   1      42.554  20.867  26.494  1.00  0.00     0.060 A 
BRANCH  71  72
ATOM     72  S   UNL A   1      42.004  19.176  26.180  1.00  0.00     0.124 S 
ATOM     73  O   UNL A   1      40.570  19.369  25.984  1.00  0.00    -0.237 OA
ATOM     74  O   UNL A   1      42.764  18.821  24.987  1.00  0.00    -0.237 OA
ATOM     75  O   UNL A   1      42.378  18.462  27.396  1.00  0.00    -0.744 OA
ENDBRANCH  71  72
ENDBRANCH  50  64
BRANCH  51  76
ATOM     76  C   UNL A   1      46.590  32.838  28.556  1.00  0.00     0.058 A 
ATOM     77  C   UNL A   1      46.467  33.807  27.549  1.00  0.00     0.135 A 
ATOM     78  C   UNL A   1      47.139  33.239  29.784  1.00  0.00     0.135 A 
ATOM     79  F   UNL A   1      45.956  33.472  26.355  1.00  0.00    -0.206 F 
ATOM     80  C   UNL A   1      46.880  35.121  27.748  1.00  0.00     0.059 A 
ATOM     81  C   UNL A   1      47.532  34.552  30.017  1.00  0.00     0.059 A 
ATOM     82  F   UNL A   1      47.264  32.353  30.786  1.00  0.00    -0.206 F 
ATOM     83  C   UNL A   1      47.404  35.485  28.989  1.00  0.00     0.060 A 
BRANCH  83  84
ATOM     84  S   UNL A   1      47.883  37.206  29.251  1.00  0.00     0.124 S 
ATOM     85  O   UNL A   1      47.388  37.838  28.034  1.00  0.00    -0.237 OA
ATOM     86  O   UNL A   1      47.166  37.536  30.479  1.00  0.00    -0.237 OA
ATOM     87  O   UNL A   1      49.335  37.137  29.380  1.00  0.00    -0.744 OA
ENDBRANCH  83  84
ENDBRANCH  51  76
BRANCH  63  88
ATOM     88  C   UNL A   1      49.578  27.095  25.927  1.00  0.00     0.058 A 
ATOM     89  C   UNL A   1      50.596  26.590  26.752  1.00  0.00     0.135 A 
ATOM     90  C   UNL A   1      49.865  27.256  24.561  1.00  0.00     0.135 A 
ATOM     91  F   UNL A   1      50.379  26.425  28.067  1.00  0.00    -0.206 F 
ATOM     92  C   UNL A   1      51.852  26.271  26.246  1.00  0.00     0.059 A 
ATOM     93  C   UNL A   1      51.104  26.914  24.027  1.00  0.00     0.059 A 
ATOM     94  F   UNL A   1      48.926  27.726  23.724  1.00  0.00    -0.206 F 
ATOM     95  C   UNL A   1      52.094  26.429  24.881  1.00  0.00     0.060 A 
BRANCH  95  96
ATOM     96  S   UNL A   1      53.715  25.965  24.235  1.00  0.00     0.124 S 
ATOM     97  O   UNL A   1      53.842  24.592  24.713  1.00  0.00    -0.237 OA
ATOM     98  O   UNL A   1      53.531  26.122  22.796  1.00  0.00    -0.237 OA
ATOM     99  O   UNL A   1      54.620  26.930  24.855  1.00  0.00    -0.744 OA
ENDBRANCH  95  96
ENDBRANCH  63  88
ENDBRANCH  37  38
ENDBRANCH  30  32
ENDBRANCH  29  30
ENDBRANCH  28  29
ENDBRANCH  27  28
ENDBRANCH   1  27
TORSDOF 21
ENDMDL
MODEL 3
REMARK VINA RESULT:     -10.0      6.220     12.880
REMARK SMILES CC(C)CSc1cc2c(cc1Cl)C=C(C(=O)OCCOCCOC(=O)c1ccc(-c3c4nc(c(-c5c(F)cc(S(=O)(=O)[O-])cc5F)c5ccc([nH]5)c(-c5c(F)cc(S(=O)(=O)[O-])cc5F)c5nc(c(-c6c(F)cc(S(=O)(=O)[O-])cc6F)c6ccc3[nH]6)C=C5)C=C4)cc1)[C@@H](C(F)(F)F)O2
REMARK SMILES IDX 20 1 19 2 18 3 17 4 15 5 16 6 14 7 6 8 7 9 11 10 8 11 10 12
REMARK SMILES IDX 12 13 9 14 97 15 13 16 92 17 5 18 4 19 2 20 1 21 3 22 93 23
REMARK SMILES IDX 94 24 95 25 96 26 21 27 22 28 23 29 24 30 25 31 26 32 27 33
REMARK SMILES IDX 91 34 28 35 90 36 29 37 30 38 31 39 84 40 32 41 89 42 83 43
REMARK SMILES IDX 85 44 33 45 88 46 82 47 81 48 34 50 68 51 47 52 67 53 48 54
REMARK SMILES IDX 51 55 66 56 86 57 49 58 50 59 65 61 87 62 52 63 35 64 36 65
REMARK SMILES IDX 45 66 37 67 38 68 44 69 46 70 39 71 40 72 41 73 42 74 43 75
REMARK SMILES IDX 69 76 70 77 79 78 71 79 72 80 78 81 80 82 73 83 74 84 75 85
REMARK SMILES IDX 76 86 77 87 53 88 54 89 63 90 55 91 56 92 62 93 64 94 57 95
REMARK SMILES IDX 58 96 59 97 60 98 61 99
REMARK H PARENT 85 49 51 60
REMARK Flexibility Score: inf
ROOT
ATOM      1  O   UNL A   1      45.056  24.543  24.673  1.00  0.00    -0.374 OA
ENDROOT
BRANCH   1   2
ATOM      2  C   UNL A   1      43.887  24.333  25.462  1.00  0.00     0.202 C 
BRANCH   2   3
ATOM      3  C   UNL A   1      44.036  24.366  26.987  1.00  0.00     0.261 C 
BRANCH   3   4
ATOM      4  O   UNL A   1      43.647  25.631  27.542  1.00  0.00    -0.460 OA
BRANCH   4   5
ATOM      5  C   UNL A   1      42.363  25.684  27.968  1.00  0.00     0.338 C 
ATOM      6  O   UNL A   1      41.580  24.754  28.067  1.00  0.00    -0.246 OA
BRANCH   5   7
ATOM      7  C   UNL A   1      42.068  27.037  28.475  1.00  0.00     0.087 C 
ATOM      8  C   UNL A   1      40.099  30.758  31.208  1.00  0.00     0.030 A 
ATOM      9  C   UNL A   1      40.619  30.656  29.902  1.00  0.00     0.063 A 
ATOM     10  C   UNL A   1      40.328  29.693  32.091  1.00  0.00     0.055 A 
ATOM     11  C   UNL A   1      41.214  29.477  29.448  1.00  0.00     0.129 A 
ATOM     12  C   UNL A   1      40.876  28.494  31.621  1.00  0.00     0.033 A 
ATOM     13  Cl  UNL A   1      39.997  29.757  33.785  1.00  0.00    -0.083 Cl
ATOM     14  C   UNL A   1      41.273  28.372  30.289  1.00  0.00     0.019 A 
ATOM     15  O   UNL A   1      41.673  29.478  28.164  1.00  0.00    -0.475 OA
ATOM     16  C   UNL A   1      41.672  27.086  29.754  1.00  0.00     0.027 C 
ATOM     17  C   UNL A   1      42.208  28.246  27.592  1.00  0.00     0.316 C 
BRANCH   8  18
ATOM     18  S   UNL A   1      39.185  32.264  31.535  1.00  0.00    -0.124 SA
BRANCH  18  19
ATOM     19  C   UNL A   1      37.411  31.797  31.420  1.00  0.00     0.078 C 
BRANCH  19  20
ATOM     20  C   UNL A   1      36.310  32.846  31.679  1.00  0.00    -0.007 C 
ATOM     21  C   UNL A   1      34.873  32.362  31.503  1.00  0.00     0.008 C 
ATOM     22  C   UNL A   1      36.470  33.362  33.119  1.00  0.00     0.008 C 
ENDBRANCH  19  20
ENDBRANCH  18  19
ENDBRANCH   8  18
BRANCH  17  23
ATOM     23  C   UNL A   1      41.561  28.067  26.210  1.00  0.00     0.430 C 
ATOM     24  F   UNL A   1      41.344  29.266  25.619  1.00  0.00    -0.167 F 
ATOM     25  F   UNL A   1      42.342  27.352  25.371  1.00  0.00    -0.167 F 
ATOM     26  F   UNL A   1      40.368  27.435  26.300  1.00  0.00    -0.167 F 
ENDBRANCH  17  23
ENDBRANCH   5   7
ENDBRANCH   4   5
ENDBRANCH   3   4
ENDBRANCH   2   3
ENDBRANCH   1   2
BRANCH   1  27
ATOM     27  C   UNL A   1      46.328  24.273  25.259  1.00  0.00     0.202 C 
BRANCH  27  28
ATOM     28  C   UNL A   1      47.535  25.112  24.818  1.00  0.00     0.261 C 
BRANCH  28  29
ATOM     29  O   UNL A   1      47.170  26.250  24.021  1.00  0.00    -0.460 OA
BRANCH  29  30
ATOM     30  C   UNL A   1      47.851  27.389  24.308  1.00  0.00     0.338 C 
ATOM     31  O   UNL A   1      48.805  27.850  23.700  1.00  0.00    -0.246 OA
BRANCH  30  32
ATOM     32  C   UNL A   1      47.137  28.125  25.368  1.00  0.00     0.060 A 
ATOM     33  C   UNL A   1      45.746  28.099  25.452  1.00  0.00     0.016 A 
ATOM     34  C   UNL A   1      47.897  28.827  26.314  1.00  0.00     0.016 A 
ATOM     35  C   UNL A   1      45.114  28.765  26.505  1.00  0.00     0.010 A 
ATOM     36  C   UNL A   1      47.263  29.490  27.365  1.00  0.00     0.010 A 
ATOM     37  C   UNL A   1      45.867  29.450  27.478  1.00  0.00    -0.014 A 
BRANCH  37  38
ATOM     38  C   UNL A   1      45.194  30.018  28.673  1.00  0.00     0.031 A 
ATOM     39  C   UNL A   1      45.025  29.218  29.931  1.00  0.00     0.074 A 
ATOM     40  C   UNL A   1      44.728  31.281  28.606  1.00  0.00     0.049 A 
ATOM     41  N   UNL A   1      44.528  29.596  31.081  1.00  0.00    -0.248 NA
ATOM     42  C   UNL A   1      45.461  27.815  29.894  1.00  0.00     0.031 C 
ATOM     43  C   UNL A   1      44.801  32.138  27.419  1.00  0.00     0.029 A 
ATOM     44  N   UNL A   1      44.114  32.066  29.547  1.00  0.00    -0.354 N 
ATOM     45  C   UNL A   1      44.614  28.489  31.916  1.00  0.00     0.074 A 
ATOM     46  C   UNL A   1      45.158  27.407  31.121  1.00  0.00     0.031 C 
ATOM     47  C   UNL A   1      44.291  33.342  27.717  1.00  0.00     0.029 A 
ATOM     48  C   UNL A   1      43.823  33.334  29.101  1.00  0.00     0.049 A 
ATOM     49  H   UNL A   1      43.902  31.753  30.455  1.00  0.00     0.167 HD
ATOM     50  C   UNL A   1      44.290  28.395  33.229  1.00  0.00     0.037 A 
ATOM     51  C   UNL A   1      43.251  34.376  29.734  1.00  0.00     0.037 A 
ATOM     52  C   UNL A   1      43.732  29.475  34.005  1.00  0.00     0.049 A 
ATOM     53  C   UNL A   1      42.853  34.228  31.177  1.00  0.00     0.074 A 
ATOM     54  C   UNL A   1      43.398  29.483  35.348  1.00  0.00     0.029 A 
ATOM     55  N   UNL A   1      43.411  30.732  33.509  1.00  0.00    -0.354 N 
ATOM     56  N   UNL A   1      43.008  33.197  31.972  1.00  0.00    -0.248 NA
ATOM     57  C   UNL A   1      42.206  35.385  31.811  1.00  0.00     0.031 C 
ATOM     58  C   UNL A   1      42.826  30.723  35.652  1.00  0.00     0.029 A 
ATOM     59  C   UNL A   1      42.856  31.511  34.513  1.00  0.00     0.049 A 
ATOM     60  H   UNL A   1      43.557  31.026  32.581  1.00  0.00     0.167 HD
ATOM     61  C   UNL A   1      42.495  33.587  33.205  1.00  0.00     0.074 A 
ATOM     62  C   UNL A   1      42.044  34.955  33.055  1.00  0.00     0.031 C 
ATOM     63  C   UNL A   1      42.405  32.873  34.355  1.00  0.00     0.037 A 
BRANCH  50  64
ATOM     64  C   UNL A   1      44.537  27.083  33.923  1.00  0.00     0.058 A 
ATOM     65  C   UNL A   1      43.494  26.171  34.155  1.00  0.00     0.135 A 
ATOM     66  C   UNL A   1      45.836  26.694  34.290  1.00  0.00     0.135 A 
ATOM     67  F   UNL A   1      42.231  26.493  33.834  1.00  0.00    -0.206 F 
ATOM     68  C   UNL A   1      43.726  24.932  34.743  1.00  0.00     0.059 A 
ATOM     69  C   UNL A   1      46.096  25.448  34.853  1.00  0.00     0.059 A 
ATOM     70  F   UNL A   1      46.872  27.524  34.089  1.00  0.00    -0.206 F 
ATOM     71  C   UNL A   1      45.032  24.577  35.084  1.00  0.00     0.060 A 
BRANCH  71  72
ATOM     72  S   UNL A   1      45.313  22.958  35.831  1.00  0.00     0.124 S 
ATOM     73  O   UNL A   1      45.310  23.288  37.253  1.00  0.00    -0.237 OA
ATOM     74  O   UNL A   1      44.164  22.195  35.356  1.00  0.00    -0.237 OA
ATOM     75  O   UNL A   1      46.604  22.549  35.288  1.00  0.00    -0.744 OA
ENDBRANCH  71  72
ENDBRANCH  50  64
BRANCH  51  76
ATOM     76  C   UNL A   1      43.052  35.660  29.010  1.00  0.00     0.058 A 
ATOM     77  C   UNL A   1      41.833  35.952  28.382  1.00  0.00     0.135 A 
ATOM     78  C   UNL A   1      44.063  36.632  28.958  1.00  0.00     0.135 A 
ATOM     79  F   UNL A   1      40.838  35.052  28.398  1.00  0.00    -0.206 F 
ATOM     80  C   UNL A   1      41.624  37.158  27.720  1.00  0.00     0.059 A 
ATOM     81  C   UNL A   1      43.870  37.856  28.327  1.00  0.00     0.059 A 
ATOM     82  F   UNL A   1      45.244  36.408  29.557  1.00  0.00    -0.206 F 
ATOM     83  C   UNL A   1      42.648  38.107  27.705  1.00  0.00     0.060 A 
BRANCH  83  84
ATOM     84  S   UNL A   1      42.344  39.689  26.890  1.00  0.00     0.124 S 
ATOM     85  O   UNL A   1      43.563  39.857  26.108  1.00  0.00    -0.237 OA
ATOM     86  O   UNL A   1      41.131  39.409  26.128  1.00  0.00    -0.237 OA
ATOM     87  O   UNL A   1      42.176  40.616  28.004  1.00  0.00    -0.744 OA
ENDBRANCH  83  84
ENDBRANCH  51  76
BRANCH  63  88
ATOM     88  C   UNL A   1      41.806  33.555  35.555  1.00  0.00     0.058 A 
ATOM     89  C   UNL A   1      42.575  34.372  36.398  1.00  0.00     0.135 A 
ATOM     90  C   UNL A   1      40.430  33.451  35.825  1.00  0.00     0.135 A 
ATOM     91  F   UNL A   1      43.896  34.501  36.192  1.00  0.00    -0.206 F 
ATOM     92  C   UNL A   1      42.008  35.047  37.474  1.00  0.00     0.059 A 
ATOM     93  C   UNL A   1      39.835  34.142  36.876  1.00  0.00     0.059 A 
ATOM     94  F   UNL A   1      39.645  32.690  35.046  1.00  0.00    -0.206 F 
ATOM     95  C   UNL A   1      40.636  34.933  37.700  1.00  0.00     0.060 A 
BRANCH  95  96
ATOM     96  S   UNL A   1      39.910  35.854  39.072  1.00  0.00     0.124 S 
ATOM     97  O   UNL A   1      38.831  34.964  39.489  1.00  0.00    -0.237 OA
ATOM     98  O   UNL A   1      41.032  35.966  39.998  1.00  0.00    -0.237 OA
ATOM     99  O   UNL A   1      39.484  37.108  38.456  1.00  0.00    -0.744 OA
ENDBRANCH  95  96
ENDBRANCH  63  88
ENDBRANCH  37  38
ENDBRANCH  30  32
ENDBRANCH  29  30
ENDBRANCH  28  29
ENDBRANCH  27  28
ENDBRANCH   1  27
TORSDOF 21
ENDMDL
