MODEL 1
REMARK VINA RESULT:     -12.1      0.000      0.000
REMARK SMILES CCSc1ccc(-c2cc(Cl)cc3c2O[C@@H](C(F)(F)F)C(C(=O)OCCOCCOC(=O)c2ccc(-c4c5nc(c(-c6c(F)cc(S(=O)(=O)[O-])cc6F)c6ccc([nH]6)c(-c6c(F)cc(S(=O)(=O)[O-])cc6F)c6nc(c(-c7c(F)cc(S(=O)(=O)[O-])cc7F)c7ccc4[nH]7)C=C6)C=C5)cc2)=C3)cc1
REMARK SMILES IDX 27 1 26 2 25 3 24 4 22 5 23 6 21 7 8 8 9 9 14 10 10 11 13 12
REMARK SMILES IDX 15 13 11 14 12 15 99 16 16 17 7 18 4 19 5 20 101 21 6 22
REMARK SMILES IDX 100 23 3 24 2 25 1 26 17 27 18 28 19 29 20 30 28 31 29 32
REMARK SMILES IDX 30 33 31 34 32 35 33 36 34 37 98 38 35 39 97 40 36 41 37 42
REMARK SMILES IDX 38 43 91 44 39 45 96 46 90 47 92 48 40 49 95 50 89 51 88 52
REMARK SMILES IDX 41 54 75 55 54 56 74 57 55 58 58 59 73 60 93 61 56 62 57 63
REMARK SMILES IDX 72 65 94 66 59 67 42 68 43 69 52 70 44 71 45 72 51 73 53 74
REMARK SMILES IDX 46 75 47 76 48 77 49 78 50 79 76 80 77 81 86 82 78 83 79 84
REMARK SMILES IDX 85 85 87 86 80 87 81 88 82 89 83 90 84 91 60 92 61 93 70 94
REMARK SMILES IDX 62 95 63 96 69 97 71 98 64 99 65 100 66 101 67 102 68 103
REMARK H PARENT 92 53 58 64
REMARK Flexibility Score: inf
ROOT
ATOM      1  O   UNL A   1      38.833  20.961  25.732  1.00  0.00    -0.374 OA
ENDROOT
BRANCH   1   2
ATOM      2  C   UNL A   1      38.017  22.124  25.763  1.00  0.00     0.202 C 
BRANCH   2   3
ATOM      3  C   UNL A   1      36.552  22.010  25.310  1.00  0.00     0.261 C 
BRANCH   3   4
ATOM      4  O   UNL A   1      36.090  23.158  24.578  1.00  0.00    -0.460 OA
BRANCH   4   5
ATOM      5  C   UNL A   1      34.758  23.241  24.401  1.00  0.00     0.338 C 
ATOM      6  O   UNL A   1      34.077  22.449  23.762  1.00  0.00    -0.246 OA
BRANCH   5   7
ATOM      7  C   UNL A   1      34.137  24.309  25.222  1.00  0.00     0.087 C 
ATOM      8  C   UNL A   1      30.933  26.236  23.419  1.00  0.00     0.026 A 
ATOM      9  C   UNL A   1      31.145  26.054  22.031  1.00  0.00     0.033 A 
ATOM     10  C   UNL A   1      31.973  25.762  24.246  1.00  0.00     0.135 A 
ATOM     11  C   UNL A   1      32.411  25.772  21.521  1.00  0.00     0.042 A 
ATOM     12  C   UNL A   1      33.286  25.744  23.741  1.00  0.00     0.019 A 
ATOM     13  O   UNL A   1      31.679  24.888  25.311  1.00  0.00    -0.475 OA
ATOM     14  Cl  UNL A   1      32.629  25.611  19.826  1.00  0.00    -0.084 Cl
ATOM     15  C   UNL A   1      33.505  25.720  22.369  1.00  0.00     0.032 A 
ATOM     16  C   UNL A   1      34.404  25.509  24.680  1.00  0.00     0.027 C 
ATOM     17  C   UNL A   1      32.842  24.257  26.004  1.00  0.00     0.316 C 
BRANCH   8  18
ATOM     18  C   UNL A   1      30.076  27.445  23.726  1.00  0.00    -0.015 A 
ATOM     19  C   UNL A   1      28.581  29.860  23.259  1.00  0.00     0.007 A 
ATOM     20  C   UNL A   1      27.965  28.613  23.203  1.00  0.00     0.015 A 
ATOM     21  C   UNL A   1      29.927  29.903  23.640  1.00  0.00     0.015 A 
ATOM     22  C   UNL A   1      28.690  27.432  23.462  1.00  0.00     0.010 A 
ATOM     23  C   UNL A   1      30.659  28.719  23.880  1.00  0.00     0.010 A 
BRANCH  19  24
ATOM     24  S   UNL A   1      27.811  31.362  22.659  1.00  0.00    -0.126 SA
BRANCH  24  25
ATOM     25  C   UNL A   1      28.464  31.554  20.963  1.00  0.00     0.071 C 
ATOM     26  C   UNL A   1      27.703  32.576  20.130  1.00  0.00     0.016 C 
ENDBRANCH  24  25
ENDBRANCH  19  24
ENDBRANCH   8  18
BRANCH  17  27
ATOM     27  C   UNL A   1      32.580  22.926  26.745  1.00  0.00     0.430 C 
ATOM     28  F   UNL A   1      32.619  21.904  25.845  1.00  0.00    -0.167 F 
ATOM     29  F   UNL A   1      33.543  22.663  27.659  1.00  0.00    -0.167 F 
ATOM     30  F   UNL A   1      31.396  22.843  27.376  1.00  0.00    -0.167 F 
ENDBRANCH  17  27
ENDBRANCH   5   7
ENDBRANCH   4   5
ENDBRANCH   3   4
ENDBRANCH   2   3
ENDBRANCH   1   2
BRANCH   1  31
ATOM     31  C   UNL A   1      40.151  21.048  26.266  1.00  0.00     0.202 C 
BRANCH  31  32
ATOM     32  C   UNL A   1      40.469  22.149  27.283  1.00  0.00     0.261 C 
BRANCH  32  33
ATOM     33  O   UNL A   1      40.326  23.477  26.761  1.00  0.00    -0.460 OA
BRANCH  33  34
ATOM     34  C   UNL A   1      41.433  24.248  26.876  1.00  0.00     0.338 C 
ATOM     35  O   UNL A   1      42.505  24.097  26.302  1.00  0.00    -0.246 OA
BRANCH  34  36
ATOM     36  C   UNL A   1      41.135  25.436  27.688  1.00  0.00     0.060 A 
ATOM     37  C   UNL A   1      42.132  26.409  27.826  1.00  0.00     0.016 A 
ATOM     38  C   UNL A   1      39.931  25.538  28.388  1.00  0.00     0.016 A 
ATOM     39  C   UNL A   1      41.942  27.477  28.698  1.00  0.00     0.010 A 
ATOM     40  C   UNL A   1      39.746  26.607  29.268  1.00  0.00     0.010 A 
ATOM     41  C   UNL A   1      40.763  27.563  29.450  1.00  0.00    -0.014 A 
BRANCH  41  42
ATOM     42  C   UNL A   1      40.647  28.576  30.525  1.00  0.00     0.031 A 
ATOM     43  C   UNL A   1      41.532  28.460  31.735  1.00  0.00     0.074 A 
ATOM     44  C   UNL A   1      39.772  29.590  30.412  1.00  0.00     0.049 A 
ATOM     45  N   UNL A   1      41.555  29.192  32.818  1.00  0.00    -0.248 NA
ATOM     46  C   UNL A   1      42.519  27.368  31.725  1.00  0.00     0.031 C 
ATOM     47  C   UNL A   1      38.890  29.819  29.268  1.00  0.00     0.029 A 
ATOM     48  N   UNL A   1      39.472  30.612  31.278  1.00  0.00    -0.354 N 
ATOM     49  C   UNL A   1      42.550  28.647  33.621  1.00  0.00     0.074 A 
ATOM     50  C   UNL A   1      43.084  27.502  32.916  1.00  0.00     0.031 C 
ATOM     51  C   UNL A   1      38.135  30.904  29.510  1.00  0.00     0.029 A 
ATOM     52  C   UNL A   1      38.453  31.422  30.839  1.00  0.00     0.049 A 
ATOM     53  H   UNL A   1      39.943  30.750  32.131  1.00  0.00     0.167 HD
ATOM     54  C   UNL A   1      42.985  29.072  34.832  1.00  0.00     0.037 A 
ATOM     55  C   UNL A   1      37.830  32.446  31.454  1.00  0.00     0.037 A 
ATOM     56  C   UNL A   1      42.441  30.212  35.524  1.00  0.00     0.049 A 
ATOM     57  C   UNL A   1      38.286  32.862  32.828  1.00  0.00     0.074 A 
ATOM     58  C   UNL A   1      42.816  30.735  36.748  1.00  0.00     0.029 A 
ATOM     59  N   UNL A   1      41.398  31.000  35.056  1.00  0.00    -0.354 N 
ATOM     60  N   UNL A   1      39.241  32.352  33.570  1.00  0.00    -0.248 NA
ATOM     61  C   UNL A   1      37.583  33.993  33.448  1.00  0.00     0.031 C 
ATOM     62  C   UNL A   1      41.964  31.805  37.046  1.00  0.00     0.029 A 
ATOM     63  C   UNL A   1      41.101  31.990  35.978  1.00  0.00     0.049 A 
ATOM     64  H   UNL A   1      40.939  30.874  34.194  1.00  0.00     0.167 HD
ATOM     65  C   UNL A   1      39.274  33.119  34.730  1.00  0.00     0.074 A 
ATOM     66  C   UNL A   1      38.249  34.133  34.586  1.00  0.00     0.031 C 
ATOM     67  C   UNL A   1      40.080  32.996  35.815  1.00  0.00     0.037 A 
BRANCH  54  68
ATOM     68  C   UNL A   1      44.084  28.285  35.495  1.00  0.00     0.058 A 
ATOM     69  C   UNL A   1      43.812  27.186  36.325  1.00  0.00     0.135 A 
ATOM     70  C   UNL A   1      45.432  28.618  35.275  1.00  0.00     0.135 A 
ATOM     71  F   UNL A   1      42.544  26.832  36.585  1.00  0.00    -0.206 F 
ATOM     72  C   UNL A   1      44.834  26.464  36.937  1.00  0.00     0.059 A 
ATOM     73  C   UNL A   1      46.469  27.892  35.851  1.00  0.00     0.059 A 
ATOM     74  F   UNL A   1      45.752  29.661  34.492  1.00  0.00    -0.206 F 
ATOM     75  C   UNL A   1      46.159  26.825  36.693  1.00  0.00     0.060 A 
BRANCH  75  76
ATOM     76  S   UNL A   1      47.471  25.876  37.492  1.00  0.00     0.124 S 
ATOM     77  O   UNL A   1      47.294  26.255  38.891  1.00  0.00    -0.237 OA
ATOM     78  O   UNL A   1      47.111  24.503  37.157  1.00  0.00    -0.237 OA
ATOM     79  O   UNL A   1      48.688  26.375  36.859  1.00  0.00    -0.744 OA
ENDBRANCH  75  76
ENDBRANCH  54  68
BRANCH  55  80
ATOM     80  C   UNL A   1      36.700  33.137  30.777  1.00  0.00     0.058 A 
ATOM     81  C   UNL A   1      35.373  32.936  31.185  1.00  0.00     0.135 A 
ATOM     82  C   UNL A   1      36.926  34.026  29.713  1.00  0.00     0.135 A 
ATOM     83  F   UNL A   1      35.102  32.090  32.190  1.00  0.00    -0.206 F 
ATOM     84  C   UNL A   1      34.311  33.578  30.556  1.00  0.00     0.059 A 
ATOM     85  C   UNL A   1      35.885  34.702  29.087  1.00  0.00     0.059 A 
ATOM     86  F   UNL A   1      38.179  34.262  29.290  1.00  0.00    -0.206 F 
ATOM     87  C   UNL A   1      34.579  34.465  29.511  1.00  0.00     0.060 A 
BRANCH  87  88
ATOM     88  S   UNL A   1      33.196  35.332  28.737  1.00  0.00     0.124 S 
ATOM     89  O   UNL A   1      33.889  36.335  27.937  1.00  0.00    -0.237 OA
ATOM     90  O   UNL A   1      32.543  34.260  27.992  1.00  0.00    -0.237 OA
ATOM     91  O   UNL A   1      32.441  35.845  29.876  1.00  0.00    -0.744 OA
ENDBRANCH  87  88
ENDBRANCH  55  80
BRANCH  67  92
ATOM     92  C   UNL A   1      39.917  34.008  36.919  1.00  0.00     0.058 A 
ATOM     93  C   UNL A   1      40.575  35.247  36.895  1.00  0.00     0.135 A 
ATOM     94  C   UNL A   1      39.043  33.753  37.990  1.00  0.00     0.135 A 
ATOM     95  F   UNL A   1      41.426  35.541  35.898  1.00  0.00    -0.206 F 
ATOM     96  C   UNL A   1      40.393  36.187  37.904  1.00  0.00     0.059 A 
ATOM     97  C   UNL A   1      38.821  34.691  38.993  1.00  0.00     0.059 A 
ATOM     98  F   UNL A   1      38.378  32.588  38.057  1.00  0.00    -0.206 F 
ATOM     99  C   UNL A   1      39.510  35.901  38.948  1.00  0.00     0.060 A 
BRANCH  99 100
ATOM    100  S   UNL A   1      39.257  37.143  40.233  1.00  0.00     0.124 S 
ATOM    101  O   UNL A   1      38.511  36.384  41.233  1.00  0.00    -0.237 OA
ATOM    102  O   UNL A   1      40.626  37.497  40.598  1.00  0.00    -0.237 OA
ATOM    103  O   UNL A   1      38.505  38.192  39.551  1.00  0.00    -0.744 OA
ENDBRANCH  99 100
ENDBRANCH  67  92
ENDBRANCH  41  42
ENDBRANCH  34  36
ENDBRANCH  33  34
ENDBRANCH  32  33
ENDBRANCH  31  32
ENDBRANCH   1  31
TORSDOF 21
ENDMDL
MODEL 2
REMARK VINA RESULT:     -11.9      5.857     10.237
REMARK SMILES CCSc1ccc(-c2cc(Cl)cc3c2O[C@@H](C(F)(F)F)C(C(=O)OCCOCCOC(=O)c2ccc(-c4c5nc(c(-c6c(F)cc(S(=O)(=O)[O-])cc6F)c6ccc([nH]6)c(-c6c(F)cc(S(=O)(=O)[O-])cc6F)c6nc(c(-c7c(F)cc(S(=O)(=O)[O-])cc7F)c7ccc4[nH]7)C=C6)C=C5)cc2)=C3)cc1
REMARK SMILES IDX 27 1 26 2 25 3 24 4 22 5 23 6 21 7 8 8 9 9 14 10 10 11 13 12
REMARK SMILES IDX 15 13 11 14 12 15 99 16 16 17 7 18 4 19 5 20 101 21 6 22
REMARK SMILES IDX 100 23 3 24 2 25 1 26 17 27 18 28 19 29 20 30 28 31 29 32
REMARK SMILES IDX 30 33 31 34 32 35 33 36 34 37 98 38 35 39 97 40 36 41 37 42
REMARK SMILES IDX 38 43 91 44 39 45 96 46 90 47 92 48 40 49 95 50 89 51 88 52
REMARK SMILES IDX 41 54 75 55 54 56 74 57 55 58 58 59 73 60 93 61 56 62 57 63
REMARK SMILES IDX 72 65 94 66 59 67 42 68 43 69 52 70 44 71 45 72 51 73 53 74
REMARK SMILES IDX 46 75 47 76 48 77 49 78 50 79 76 80 77 81 86 82 78 83 79 84
REMARK SMILES IDX 85 85 87 86 80 87 81 88 82 89 83 90 84 91 60 92 61 93 70 94
REMARK SMILES IDX 62 95 63 96 69 97 71 98 64 99 65 100 66 101 67 102 68 103
REMARK H PARENT 92 53 58 64
REMARK Flexibility Score: inf
ROOT
ATOM      1  O   UNL A   1      37.874  20.077  24.937  1.00  0.00    -0.374 OA
ENDROOT
BRANCH   1   2
ATOM      2  C   UNL A   1      37.895  21.427  25.382  1.00  0.00     0.202 C 
BRANCH   2   3
ATOM      3  C   UNL A   1      36.558  22.125  25.681  1.00  0.00     0.261 C 
BRANCH   3   4
ATOM      4  O   UNL A   1      36.136  23.019  24.637  1.00  0.00    -0.460 OA
BRANCH   4   5
ATOM      5  C   UNL A   1      34.807  23.091  24.431  1.00  0.00     0.338 C 
ATOM      6  O   UNL A   1      34.149  22.298  23.769  1.00  0.00    -0.246 OA
BRANCH   5   7
ATOM      7  C   UNL A   1      34.157  24.146  25.246  1.00  0.00     0.087 C 
ATOM      8  C   UNL A   1      31.000  26.082  23.375  1.00  0.00     0.026 A 
ATOM      9  C   UNL A   1      31.253  25.920  21.992  1.00  0.00     0.033 A 
ATOM     10  C   UNL A   1      32.017  25.602  24.227  1.00  0.00     0.135 A 
ATOM     11  C   UNL A   1      32.535  25.650  21.516  1.00  0.00     0.042 A 
ATOM     12  C   UNL A   1      33.344  25.596  23.761  1.00  0.00     0.019 A 
ATOM     13  O   UNL A   1      31.695  24.712  25.270  1.00  0.00    -0.475 OA
ATOM     14  Cl  UNL A   1      32.804  25.512  19.826  1.00  0.00    -0.084 Cl
ATOM     15  C   UNL A   1      33.603  25.592  22.395  1.00  0.00     0.032 A 
ATOM     16  C   UNL A   1      34.434  25.354  24.729  1.00  0.00     0.027 C 
ATOM     17  C   UNL A   1      32.840  24.077  25.989  1.00  0.00     0.316 C 
BRANCH   8  18
ATOM     18  C   UNL A   1      30.128  27.284  23.672  1.00  0.00    -0.015 A 
ATOM     19  C   UNL A   1      28.504  29.607  23.173  1.00  0.00     0.007 A 
ATOM     20  C   UNL A   1      27.933  28.340  23.267  1.00  0.00     0.015 A 
ATOM     21  C   UNL A   1      29.876  29.721  23.421  1.00  0.00     0.015 A 
ATOM     22  C   UNL A   1      28.725  27.206  23.542  1.00  0.00     0.010 A 
ATOM     23  C   UNL A   1      30.673  28.583  23.676  1.00  0.00     0.010 A 
BRANCH  19  24
ATOM     24  S   UNL A   1      27.624  31.034  22.540  1.00  0.00    -0.126 SA
BRANCH  24  25
ATOM     25  C   UNL A   1      28.940  32.253  22.191  1.00  0.00     0.071 C 
ATOM     26  C   UNL A   1      28.867  33.496  23.067  1.00  0.00     0.016 C 
ENDBRANCH  24  25
ENDBRANCH  19  24
ENDBRANCH   8  18
BRANCH  17  27
ATOM     27  C   UNL A   1      32.562  22.735  26.705  1.00  0.00     0.430 C 
ATOM     28  F   UNL A   1      33.709  22.309  27.304  1.00  0.00    -0.167 F 
ATOM     29  F   UNL A   1      31.646  22.873  27.691  1.00  0.00    -0.167 F 
ATOM     30  F   UNL A   1      32.145  21.736  25.909  1.00  0.00    -0.167 F 
ENDBRANCH  17  27
ENDBRANCH   5   7
ENDBRANCH   4   5
ENDBRANCH   3   4
ENDBRANCH   2   3
ENDBRANCH   1   2
BRANCH   1  31
ATOM     31  C   UNL A   1      38.806  19.164  25.510  1.00  0.00     0.202 C 
BRANCH  31  32
ATOM     32  C   UNL A   1      40.068  19.715  26.183  1.00  0.00     0.261 C 
BRANCH  32  33
ATOM     33  O   UNL A   1      41.285  19.350  25.518  1.00  0.00    -0.460 OA
BRANCH  33  34
ATOM     34  C   UNL A   1      42.400  19.477  26.276  1.00  0.00     0.338 C 
ATOM     35  O   UNL A   1      43.192  18.595  26.584  1.00  0.00    -0.246 OA
BRANCH  34  36
ATOM     36  C   UNL A   1      42.645  20.896  26.571  1.00  0.00     0.060 A 
ATOM     37  C   UNL A   1      42.901  21.759  25.498  1.00  0.00     0.016 A 
ATOM     38  C   UNL A   1      42.724  21.348  27.889  1.00  0.00     0.016 A 
ATOM     39  C   UNL A   1      43.275  23.076  25.743  1.00  0.00     0.010 A 
ATOM     40  C   UNL A   1      43.108  22.669  28.132  1.00  0.00     0.010 A 
ATOM     41  C   UNL A   1      43.415  23.529  27.062  1.00  0.00    -0.014 A 
BRANCH  41  42
ATOM     42  C   UNL A   1      44.012  24.859  27.324  1.00  0.00     0.031 A 
ATOM     43  C   UNL A   1      43.119  25.986  27.762  1.00  0.00     0.074 A 
ATOM     44  C   UNL A   1      45.335  25.050  27.183  1.00  0.00     0.049 A 
ATOM     45  N   UNL A   1      43.414  27.241  27.982  1.00  0.00    -0.248 NA
ATOM     46  C   UNL A   1      41.700  25.655  27.974  1.00  0.00     0.031 C 
ATOM     47  C   UNL A   1      46.300  24.020  26.796  1.00  0.00     0.029 A 
ATOM     48  N   UNL A   1      46.096  26.182  27.337  1.00  0.00    -0.354 N 
ATOM     49  C   UNL A   1      42.221  27.850  28.351  1.00  0.00     0.074 A 
ATOM     50  C   UNL A   1      41.191  26.836  28.291  1.00  0.00     0.031 C 
ATOM     51  C   UNL A   1      47.522  24.572  26.727  1.00  0.00     0.029 A 
ATOM     52  C   UNL A   1      47.422  25.999  27.027  1.00  0.00     0.049 A 
ATOM     53  H   UNL A   1      45.725  27.042  27.641  1.00  0.00     0.167 HD
ATOM     54  C   UNL A   1      42.009  29.137  28.717  1.00  0.00     0.037 A 
ATOM     55  C   UNL A   1      48.431  26.889  26.965  1.00  0.00     0.037 A 
ATOM     56  C   UNL A   1      43.044  30.137  28.768  1.00  0.00     0.049 A 
ATOM     57  C   UNL A   1      48.160  28.330  27.312  1.00  0.00     0.074 A 
ATOM     58  C   UNL A   1      42.940  31.467  29.136  1.00  0.00     0.029 A 
ATOM     59  N   UNL A   1      44.374  29.920  28.432  1.00  0.00    -0.354 N 
ATOM     60  N   UNL A   1      47.032  28.891  27.680  1.00  0.00    -0.248 NA
ATOM     61  C   UNL A   1      49.297  29.257  27.243  1.00  0.00     0.031 C 
ATOM     62  C   UNL A   1      44.193  32.066  28.970  1.00  0.00     0.029 A 
ATOM     63  C   UNL A   1      45.094  31.095  28.560  1.00  0.00     0.049 A 
ATOM     64  H   UNL A   1      44.749  29.056  28.146  1.00  0.00     0.167 HD
ATOM     65  C   UNL A   1      47.331  30.230  27.912  1.00  0.00     0.074 A 
ATOM     66  C   UNL A   1      48.747  30.390  27.655  1.00  0.00     0.031 C 
ATOM     67  C   UNL A   1      46.508  31.235  28.306  1.00  0.00     0.037 A 
BRANCH  54  68
ATOM     68  C   UNL A   1      40.601  29.542  29.064  1.00  0.00     0.058 A 
ATOM     69  C   UNL A   1      39.590  29.619  28.092  1.00  0.00     0.135 A 
ATOM     70  C   UNL A   1      40.249  29.830  30.394  1.00  0.00     0.135 A 
ATOM     71  F   UNL A   1      39.871  29.372  26.803  1.00  0.00    -0.206 F 
ATOM     72  C   UNL A   1      38.291  29.996  28.420  1.00  0.00     0.059 A 
ATOM     73  C   UNL A   1      38.950  30.178  30.749  1.00  0.00     0.059 A 
ATOM     74  F   UNL A   1      41.174  29.774  31.365  1.00  0.00    -0.206 F 
ATOM     75  C   UNL A   1      37.980  30.273  29.752  1.00  0.00     0.060 A 
BRANCH  75  76
ATOM     76  S   UNL A   1      36.290  30.758  30.159  1.00  0.00     0.124 S 
ATOM     77  O   UNL A   1      35.627  30.621  28.866  1.00  0.00    -0.237 OA
ATOM     78  O   UNL A   1      35.918  29.772  31.169  1.00  0.00    -0.237 OA
ATOM     79  O   UNL A   1      36.434  32.126  30.646  1.00  0.00    -0.744 OA
ENDBRANCH  75  76
ENDBRANCH  54  68
BRANCH  55  80
ATOM     80  C   UNL A   1      49.786  26.443  26.542  1.00  0.00     0.058 A 
ATOM     81  C   UNL A   1      50.756  26.068  27.482  1.00  0.00     0.135 A 
ATOM     82  C   UNL A   1      50.133  26.370  25.183  1.00  0.00     0.135 A 
ATOM     83  F   UNL A   1      50.477  26.128  28.793  1.00  0.00    -0.206 F 
ATOM     84  C   UNL A   1      52.025  25.650  27.094  1.00  0.00     0.059 A 
ATOM     85  C   UNL A   1      51.385  25.928  24.768  1.00  0.00     0.059 A 
ATOM     86  F   UNL A   1      49.238  26.708  24.241  1.00  0.00    -0.206 F 
ATOM     87  C   UNL A   1      52.328  25.578  25.733  1.00  0.00     0.060 A 
BRANCH  87  88
ATOM     88  S   UNL A   1      53.961  24.985  25.240  1.00  0.00     0.124 S 
ATOM     89  O   UNL A   1      53.667  23.615  24.836  1.00  0.00    -0.237 OA
ATOM     90  O   UNL A   1      54.308  25.908  24.164  1.00  0.00    -0.237 OA
ATOM     91  O   UNL A   1      54.752  25.128  26.458  1.00  0.00    -0.744 OA
ENDBRANCH  87  88
ENDBRANCH  55  80
BRANCH  67  92
ATOM     92  C   UNL A   1      47.123  32.592  28.522  1.00  0.00     0.058 A 
ATOM     93  C   UNL A   1      47.182  33.554  27.502  1.00  0.00     0.135 A 
ATOM     94  C   UNL A   1      47.612  32.954  29.789  1.00  0.00     0.135 A 
ATOM     95  F   UNL A   1      46.735  33.260  26.270  1.00  0.00    -0.206 F 
ATOM     96  C   UNL A   1      47.725  34.815  27.721  1.00  0.00     0.059 A 
ATOM     97  C   UNL A   1      48.130  34.220  30.040  1.00  0.00     0.059 A 
ATOM     98  F   UNL A   1      47.570  32.077  30.806  1.00  0.00    -0.206 F 
ATOM     99  C   UNL A   1      48.194  35.141  28.996  1.00  0.00     0.060 A 
BRANCH  99 100
ATOM    100  S   UNL A   1      48.865  36.793  29.276  1.00  0.00     0.124 S 
ATOM    101  O   UNL A   1      47.667  37.620  29.161  1.00  0.00    -0.237 OA
ATOM    102  O   UNL A   1      49.428  36.677  30.618  1.00  0.00    -0.237 OA
ATOM    103  O   UNL A   1      49.842  36.951  28.204  1.00  0.00    -0.744 OA
ENDBRANCH  99 100
ENDBRANCH  67  92
ENDBRANCH  41  42
ENDBRANCH  34  36
ENDBRANCH  33  34
ENDBRANCH  32  33
ENDBRANCH  31  32
ENDBRANCH   1  31
TORSDOF 21
ENDMDL
MODEL 3
REMARK VINA RESULT:     -11.4      6.485     14.123
REMARK SMILES CCSc1ccc(-c2cc(Cl)cc3c2O[C@@H](C(F)(F)F)C(C(=O)OCCOCCOC(=O)c2ccc(-c4c5nc(c(-c6c(F)cc(S(=O)(=O)[O-])cc6F)c6ccc([nH]6)c(-c6c(F)cc(S(=O)(=O)[O-])cc6F)c6nc(c(-c7c(F)cc(S(=O)(=O)[O-])cc7F)c7ccc4[nH]7)C=C6)C=C5)cc2)=C3)cc1
REMARK SMILES IDX 27 1 26 2 25 3 24 4 22 5 23 6 21 7 8 8 9 9 14 10 10 11 13 12
REMARK SMILES IDX 15 13 11 14 12 15 99 16 16 17 7 18 4 19 5 20 101 21 6 22
REMARK SMILES IDX 100 23 3 24 2 25 1 26 17 27 18 28 19 29 20 30 28 31 29 32
REMARK SMILES IDX 30 33 31 34 32 35 33 36 34 37 98 38 35 39 97 40 36 41 37 42
REMARK SMILES IDX 38 43 91 44 39 45 96 46 90 47 92 48 40 49 95 50 89 51 88 52
REMARK SMILES IDX 41 54 75 55 54 56 74 57 55 58 58 59 73 60 93 61 56 62 57 63
REMARK SMILES IDX 72 65 94 66 59 67 42 68 43 69 52 70 44 71 45 72 51 73 53 74
REMARK SMILES IDX 46 75 47 76 48 77 49 78 50 79 76 80 77 81 86 82 78 83 79 84
REMARK SMILES IDX 85 85 87 86 80 87 81 88 82 89 83 90 84 91 60 92 61 93 70 94
REMARK SMILES IDX 62 95 63 96 69 97 71 98 64 99 65 100 66 101 67 102 68 103
REMARK H PARENT 92 53 58 64
REMARK Flexibility Score: inf
ROOT
ATOM      1  O   UNL A   1      34.610  34.118  30.898  1.00  0.00    -0.374 OA
ENDROOT
BRANCH   1   2
ATOM      2  C   UNL A   1      35.353  34.783  31.911  1.00  0.00     0.202 C 
BRANCH   2   3
ATOM      3  C   UNL A   1      34.725  34.934  33.306  1.00  0.00     0.261 C 
BRANCH   3   4
ATOM      4  O   UNL A   1      35.333  34.091  34.300  1.00  0.00    -0.460 OA
BRANCH   4   5
ATOM      5  C   UNL A   1      36.680  34.061  34.296  1.00  0.00     0.338 C 
ATOM      6  O   UNL A   1      37.409  35.029  34.123  1.00  0.00    -0.246 OA
BRANCH   5   7
ATOM      7  C   UNL A   1      37.224  32.744  34.710  1.00  0.00     0.087 C 
ATOM      8  C   UNL A   1      40.978  31.864  33.177  1.00  0.00     0.026 A 
ATOM      9  C   UNL A   1      41.074  32.647  32.001  1.00  0.00     0.033 A 
ATOM     10  C   UNL A   1      39.722  31.906  33.818  1.00  0.00     0.135 A 
ATOM     11  C   UNL A   1      39.937  33.114  31.346  1.00  0.00     0.042 A 
ATOM     12  C   UNL A   1      38.572  32.134  33.041  1.00  0.00     0.019 A 
ATOM     13  O   UNL A   1      39.646  32.213  35.191  1.00  0.00    -0.475 OA
ATOM     14  Cl  UNL A   1      40.101  34.016  29.894  1.00  0.00    -0.084 Cl
ATOM     15  C   UNL A   1      38.678  32.769  31.809  1.00  0.00     0.032 A 
ATOM     16  C   UNL A   1      37.246  31.912  33.655  1.00  0.00     0.027 C 
ATOM     17  C   UNL A   1      38.283  32.455  35.751  1.00  0.00     0.316 C 
BRANCH   8  18
ATOM     18  C   UNL A   1      41.888  30.654  33.150  1.00  0.00    -0.015 A 
ATOM     19  C   UNL A   1      43.148  28.269  32.146  1.00  0.00     0.007 A 
ATOM     20  C   UNL A   1      43.714  29.523  31.932  1.00  0.00     0.015 A 
ATOM     21  C   UNL A   1      41.999  28.202  32.942  1.00  0.00     0.015 A 
ATOM     22  C   UNL A   1      43.113  30.688  32.450  1.00  0.00     0.010 A 
ATOM     23  C   UNL A   1      41.385  29.371  33.444  1.00  0.00     0.010 A 
BRANCH  19  24
ATOM     24  S   UNL A   1      43.680  26.793  31.280  1.00  0.00    -0.126 SA
BRANCH  24  25
ATOM     25  C   UNL A   1      44.913  26.038  32.398  1.00  0.00     0.071 C 
ATOM     26  C   UNL A   1      45.678  27.053  33.236  1.00  0.00     0.016 C 
ENDBRANCH  24  25
ENDBRANCH  19  24
ENDBRANCH   8  18
BRANCH  17  27
ATOM     27  C   UNL A   1      38.192  33.314  37.033  1.00  0.00     0.430 C 
ATOM     28  F   UNL A   1      36.898  33.341  37.456  1.00  0.00    -0.167 F 
ATOM     29  F   UNL A   1      38.913  32.781  38.046  1.00  0.00    -0.167 F 
ATOM     30  F   UNL A   1      38.582  34.593  36.894  1.00  0.00    -0.167 F 
ENDBRANCH  17  27
ENDBRANCH   5   7
ENDBRANCH   4   5
ENDBRANCH   3   4
ENDBRANCH   2   3
ENDBRANCH   1   2
BRANCH   1  31
ATOM     31  C   UNL A   1      35.328  33.402  29.896  1.00  0.00     0.202 C 
BRANCH  31  32
ATOM     32  C   UNL A   1      35.018  31.918  29.678  1.00  0.00     0.261 C 
BRANCH  32  33
ATOM     33  O   UNL A   1      36.022  31.035  30.198  1.00  0.00    -0.460 OA
BRANCH  33  34
ATOM     34  C   UNL A   1      36.286  29.961  29.415  1.00  0.00     0.338 C 
ATOM     35  O   UNL A   1      35.474  29.234  28.855  1.00  0.00    -0.246 OA
BRANCH  34  36
ATOM     36  C   UNL A   1      37.732  29.858  29.178  1.00  0.00     0.060 A 
ATOM     37  C   UNL A   1      38.180  29.771  27.854  1.00  0.00     0.016 A 
ATOM     38  C   UNL A   1      38.624  29.743  30.245  1.00  0.00     0.016 A 
ATOM     39  C   UNL A   1      39.525  29.531  27.591  1.00  0.00     0.010 A 
ATOM     40  C   UNL A   1      39.973  29.495  29.979  1.00  0.00     0.010 A 
ATOM     41  C   UNL A   1      40.423  29.356  28.653  1.00  0.00    -0.014 A 
BRANCH  41  42
ATOM     42  C   UNL A   1      41.804  28.896  28.380  1.00  0.00     0.031 A 
ATOM     43  C   UNL A   1      42.925  29.898  28.405  1.00  0.00     0.074 A 
ATOM     44  C   UNL A   1      42.051  27.599  28.126  1.00  0.00     0.049 A 
ATOM     45  N   UNL A   1      44.193  29.730  28.133  1.00  0.00    -0.248 NA
ATOM     46  C   UNL A   1      42.567  31.275  28.782  1.00  0.00     0.031 C 
ATOM     47  C   UNL A   1      41.045  26.537  28.110  1.00  0.00     0.029 A 
ATOM     48  N   UNL A   1      43.224  26.957  27.820  1.00  0.00    -0.354 N 
ATOM     49  C   UNL A   1      44.783  30.978  28.298  1.00  0.00     0.074 A 
ATOM     50  C   UNL A   1      43.729  31.901  28.659  1.00  0.00     0.031 C 
ATOM     51  C   UNL A   1      41.643  25.376  27.792  1.00  0.00     0.029 A 
ATOM     52  C   UNL A   1      43.063  25.620  27.547  1.00  0.00     0.049 A 
ATOM     53  H   UNL A   1      44.097  27.411  27.798  1.00  0.00     0.167 HD
ATOM     54  C   UNL A   1      46.088  31.318  28.170  1.00  0.00     0.037 A 
ATOM     55  C   UNL A   1      43.956  24.706  27.119  1.00  0.00     0.037 A 
ATOM     56  C   UNL A   1      47.126  30.389  27.805  1.00  0.00     0.049 A 
ATOM     57  C   UNL A   1      45.390  25.120  26.919  1.00  0.00     0.074 A 
ATOM     58  C   UNL A   1      48.481  30.625  27.659  1.00  0.00     0.029 A 
ATOM     59  N   UNL A   1      46.924  29.045  27.521  1.00  0.00    -0.354 N 
ATOM     60  N   UNL A   1      45.941  26.298  27.097  1.00  0.00    -0.248 NA
ATOM     61  C   UNL A   1      46.326  24.083  26.466  1.00  0.00     0.031 C 
ATOM     62  C   UNL A   1      49.089  29.440  27.233  1.00  0.00     0.029 A 
ATOM     63  C   UNL A   1      48.124  28.447  27.177  1.00  0.00     0.049 A 
ATOM     64  H   UNL A   1      46.054  28.585  27.560  1.00  0.00     0.167 HD
ATOM     65  C   UNL A   1      47.292  26.136  26.806  1.00  0.00     0.074 A 
ATOM     66  C   UNL A   1      47.475  24.743  26.451  1.00  0.00     0.031 C 
ATOM     67  C   UNL A   1      48.290  27.055  26.832  1.00  0.00     0.037 A 
BRANCH  54  68
ATOM     68  C   UNL A   1      46.460  32.759  28.399  1.00  0.00     0.058 A 
ATOM     69  C   UNL A   1      46.847  33.233  29.662  1.00  0.00     0.135 A 
ATOM     70  C   UNL A   1      46.456  33.674  27.332  1.00  0.00     0.135 A 
ATOM     71  F   UNL A   1      46.853  32.409  30.722  1.00  0.00    -0.206 F 
ATOM     72  C   UNL A   1      47.187  34.568  29.867  1.00  0.00     0.059 A 
ATOM     73  C   UNL A   1      46.823  35.005  27.507  1.00  0.00     0.059 A 
ATOM     74  F   UNL A   1      46.093  33.277  26.102  1.00  0.00    -0.206 F 
ATOM     75  C   UNL A   1      47.173  35.446  28.782  1.00  0.00     0.060 A 
BRANCH  75  76
ATOM     76  S   UNL A   1      47.619  37.172  29.065  1.00  0.00     0.124 S 
ATOM     77  O   UNL A   1      48.516  37.429  27.942  1.00  0.00    -0.237 OA
ATOM     78  O   UNL A   1      46.324  37.842  29.008  1.00  0.00    -0.237 OA
ATOM     79  O   UNL A   1      48.253  37.150  30.379  1.00  0.00    -0.744 OA
ENDBRANCH  75  76
ENDBRANCH  54  68
BRANCH  55  80
ATOM     80  C   UNL A   1      43.512  23.314  26.838  1.00  0.00     0.058 A 
ATOM     81  C   UNL A   1      43.437  22.824  25.527  1.00  0.00     0.135 A 
ATOM     82  C   UNL A   1      43.163  22.440  27.881  1.00  0.00     0.135 A 
ATOM     83  F   UNL A   1      43.749  23.621  24.494  1.00  0.00    -0.206 F 
ATOM     84  C   UNL A   1      43.022  21.523  25.256  1.00  0.00     0.059 A 
ATOM     85  C   UNL A   1      42.773  21.127  27.639  1.00  0.00     0.059 A 
ATOM     86  F   UNL A   1      43.227  22.856  29.156  1.00  0.00    -0.206 F 
ATOM     87  C   UNL A   1      42.697  20.681  26.321  1.00  0.00     0.060 A 
BRANCH  87  88
ATOM     88  S   UNL A   1      42.210  18.980  25.961  1.00  0.00     0.124 S 
ATOM     89  O   UNL A   1      40.774  19.123  25.749  1.00  0.00    -0.237 OA
ATOM     90  O   UNL A   1      43.004  18.680  24.774  1.00  0.00    -0.237 OA
ATOM     91  O   UNL A   1      42.600  18.255  27.167  1.00  0.00    -0.744 OA
ENDBRANCH  87  88
ENDBRANCH  55  80
BRANCH  67  92
ATOM     92  C   UNL A   1      49.681  26.579  26.506  1.00  0.00     0.058 A 
ATOM     93  C   UNL A   1      50.453  25.854  27.427  1.00  0.00     0.135 A 
ATOM     94  C   UNL A   1      50.227  26.805  25.231  1.00  0.00     0.135 A 
ATOM     95  F   UNL A   1      49.983  25.615  28.662  1.00  0.00    -0.206 F 
ATOM     96  C   UNL A   1      51.725  25.392  27.106  1.00  0.00     0.059 A 
ATOM     97  C   UNL A   1      51.483  26.324  24.876  1.00  0.00     0.059 A 
ATOM     98  F   UNL A   1      49.527  27.482  24.307  1.00  0.00    -0.206 F 
ATOM     99  C   UNL A   1      52.230  25.629  25.825  1.00  0.00     0.060 A 
BRANCH  99 100
ATOM    100  S   UNL A   1      53.868  24.994  25.410  1.00  0.00     0.124 S 
ATOM    101  O   UNL A   1      53.582  23.585  25.157  1.00  0.00    -0.237 OA
ATOM    102  O   UNL A   1      54.222  25.788  24.237  1.00  0.00    -0.237 OA
ATOM    103  O   UNL A   1      54.655  25.270  26.607  1.00  0.00    -0.744 OA
ENDBRANCH  99 100
ENDBRANCH  67  92
ENDBRANCH  41  42
ENDBRANCH  34  36
ENDBRANCH  33  34
ENDBRANCH  32  33
ENDBRANCH  31  32
ENDBRANCH   1  31
TORSDOF 21
ENDMDL
