MODEL 1
REMARK VINA RESULT:     -11.0      0.000      0.000
REMARK SMILES Cc1cc(C)c(NC(=O)C[C@H](C(=O)OCCOCCOC(=O)c2ccc(-c3c4nc(c(-c5c(F)cc(S(=O)(=O)[O-])cc5F)c5ccc([nH]5)c(-c5c(F)cc(S(=O)(=O)[O-])cc5F)c5nc(c(-c6c(F)cc(S(=O)(=O)[O-])cc6F)c6ccc3[nH]6)C=C5)C=C4)cc2)[NH+]2CC[NH+](C)CC2)c(C)c1
REMARK SMILES IDX 17 1 16 2 15 3 14 4 12 5 13 6 11 7 10 8 8 9 7 10 9 12 6 13
REMARK SMILES IDX 1 14 2 15 3 16 98 17 4 18 96 19 5 20 97 21 89 22 90 23 95 24
REMARK SMILES IDX 91 26 94 27 92 28 93 29 18 31 19 32 20 33 21 34 22 35 23 36
REMARK SMILES IDX 24 37 88 38 25 39 87 40 26 41 27 42 28 43 81 44 29 45 86 46
REMARK SMILES IDX 80 47 82 48 30 49 85 50 79 51 78 52 31 54 65 55 44 56 64 57
REMARK SMILES IDX 45 58 48 59 63 60 83 61 46 62 47 63 62 65 84 66 49 67 32 68
REMARK SMILES IDX 33 69 42 70 34 71 35 72 41 73 43 74 36 75 37 76 38 77 39 78
REMARK SMILES IDX 40 79 66 80 67 81 76 82 68 83 69 84 75 85 77 86 70 87 71 88
REMARK SMILES IDX 72 89 73 90 74 91 50 92 51 93 60 94 52 95 53 96 59 97 61 98
REMARK SMILES IDX 54 99 55 100 56 101 57 102 58 103
REMARK H PARENT 7 11 89 25 92 30 82 53 48 64
REMARK Flexibility Score: inf
ROOT
ATOM      1  O   UNL A   1      38.642  21.486  25.593  1.00  0.00    -0.374 OA
ENDROOT
BRANCH   1   2
ATOM      2  C   UNL A   1      37.487  22.080  25.012  1.00  0.00     0.202 C 
BRANCH   2   3
ATOM      3  C   UNL A   1      36.233  21.217  24.827  1.00  0.00     0.261 C 
BRANCH   3   4
ATOM      4  O   UNL A   1      35.051  21.967  24.501  1.00  0.00    -0.459 OA
BRANCH   4   5
ATOM      5  C   UNL A   1      34.064  21.936  25.456  1.00  0.00     0.365 C 
ATOM      6  O   UNL A   1      34.287  22.147  26.642  1.00  0.00    -0.245 OA
BRANCH   5   7
ATOM      7  C   UNL A   1      32.658  21.704  24.802  1.00  0.00     0.304 C 
BRANCH   7   8
ATOM      8  C   UNL A   1      32.507  22.724  23.640  1.00  0.00     0.177 C 
BRANCH   8   9
ATOM      9  C   UNL A   1      31.323  23.665  23.481  1.00  0.00     0.231 C 
ATOM     10  N   UNL A   1      31.257  24.948  23.932  1.00  0.00    -0.325 N 
ATOM     11  H   UNL A   1      30.371  25.369  23.853  1.00  0.00     0.169 HD
ATOM     12  O   UNL A   1      30.321  23.248  22.880  1.00  0.00    -0.274 OA
BRANCH  10  13
ATOM     13  C   UNL A   1      32.251  25.766  24.489  1.00  0.00     0.047 A 
ATOM     14  C   UNL A   1      34.305  29.006  26.396  1.00  0.00     0.044 C 
ATOM     15  C   UNL A   1      33.728  27.780  25.756  1.00  0.00    -0.050 A 
ATOM     16  C   UNL A   1      33.792  27.615  24.371  1.00  0.00     0.009 A 
ATOM     17  C   UNL A   1      33.072  26.812  26.516  1.00  0.00     0.009 A 
ATOM     18  C   UNL A   1      33.089  26.585  23.726  1.00  0.00    -0.027 A 
ATOM     19  C   UNL A   1      32.373  25.765  25.896  1.00  0.00    -0.027 A 
ATOM     20  C   UNL A   1      33.392  26.333  22.275  1.00  0.00     0.046 C 
ATOM     21  C   UNL A   1      31.752  24.700  26.759  1.00  0.00     0.046 C 
ENDBRANCH  10  13
ENDBRANCH   8   9
ENDBRANCH   7   8
BRANCH   7  22
ATOM     22  N   UNL A   1      32.417  20.261  24.553  1.00  0.00    -0.313 N 
ATOM     23  C   UNL A   1      33.061  19.311  25.475  1.00  0.00     0.325 C 
ATOM     24  C   UNL A   1      32.775  19.800  23.190  1.00  0.00     0.325 C 
ATOM     25  H   UNL A   1      31.409  20.241  24.703  1.00  0.00     0.349 HD
ATOM     26  C   UNL A   1      32.470  17.889  25.256  1.00  0.00     0.324 C 
ATOM     27  C   UNL A   1      32.107  18.433  22.924  1.00  0.00     0.324 C 
ATOM     28  N   UNL A   1      32.479  17.365  23.874  1.00  0.00    -0.328 N 
ATOM     29  C   UNL A   1      33.748  16.748  23.531  1.00  0.00     0.333 C 
ATOM     30  H   UNL A   1      31.778  16.626  23.812  1.00  0.00     0.348 HD
ENDBRANCH   7  22
ENDBRANCH   5   7
ENDBRANCH   4   5
ENDBRANCH   3   4
ENDBRANCH   2   3
ENDBRANCH   1   2
BRANCH   1  31
ATOM     31  C   UNL A   1      39.353  22.215  26.589  1.00  0.00     0.202 C 
BRANCH  31  32
ATOM     32  C   UNL A   1      40.857  22.475  26.407  1.00  0.00     0.261 C 
BRANCH  32  33
ATOM     33  O   UNL A   1      41.215  23.865  26.312  1.00  0.00    -0.460 OA
BRANCH  33  34
ATOM     34  C   UNL A   1      42.169  24.261  27.191  1.00  0.00     0.338 C 
ATOM     35  O   UNL A   1      43.287  23.781  27.330  1.00  0.00    -0.246 OA
BRANCH  34  36
ATOM     36  C   UNL A   1      41.758  25.485  27.895  1.00  0.00     0.060 A 
ATOM     37  C   UNL A   1      42.670  26.546  27.969  1.00  0.00     0.016 A 
ATOM     38  C   UNL A   1      40.556  25.528  28.603  1.00  0.00     0.016 A 
ATOM     39  C   UNL A   1      42.402  27.642  28.788  1.00  0.00     0.010 A 
ATOM     40  C   UNL A   1      40.295  26.622  29.433  1.00  0.00     0.010 A 
ATOM     41  C   UNL A   1      41.232  27.665  29.557  1.00  0.00    -0.014 A 
BRANCH  41  42
ATOM     42  C   UNL A   1      41.050  28.697  30.606  1.00  0.00     0.031 A 
ATOM     43  C   UNL A   1      41.885  28.621  31.854  1.00  0.00     0.074 A 
ATOM     44  C   UNL A   1      40.135  29.670  30.458  1.00  0.00     0.049 A 
ATOM     45  N   UNL A   1      41.817  29.343  32.941  1.00  0.00    -0.248 NA
ATOM     46  C   UNL A   1      42.932  27.588  31.879  1.00  0.00     0.031 C 
ATOM     47  C   UNL A   1      39.292  29.861  29.279  1.00  0.00     0.029 A 
ATOM     48  N   UNL A   1      39.745  30.664  31.320  1.00  0.00    -0.354 N 
ATOM     49  C   UNL A   1      42.792  28.836  33.792  1.00  0.00     0.074 A 
ATOM     50  C   UNL A   1      43.431  27.739  33.097  1.00  0.00     0.031 C 
ATOM     51  C   UNL A   1      38.453  30.886  29.508  1.00  0.00     0.029 A 
ATOM     52  C   UNL A   1      38.679  31.398  30.859  1.00  0.00     0.049 A 
ATOM     53  H   UNL A   1      40.184  30.833  32.185  1.00  0.00     0.167 HD
ATOM     54  C   UNL A   1      43.120  29.246  35.041  1.00  0.00     0.037 A 
ATOM     55  C   UNL A   1      37.944  32.348  31.472  1.00  0.00     0.037 A 
ATOM     56  C   UNL A   1      42.481  30.342  35.720  1.00  0.00     0.049 A 
ATOM     57  C   UNL A   1      38.296  32.767  32.873  1.00  0.00     0.074 A 
ATOM     58  C   UNL A   1      42.770  30.867  36.967  1.00  0.00     0.029 A 
ATOM     59  N   UNL A   1      41.413  31.070  35.216  1.00  0.00    -0.354 N 
ATOM     60  N   UNL A   1      39.246  32.309  33.654  1.00  0.00    -0.248 NA
ATOM     61  C   UNL A   1      37.481  33.828  33.481  1.00  0.00     0.031 C 
ATOM     62  C   UNL A   1      41.844  31.881  37.237  1.00  0.00     0.029 A 
ATOM     63  C   UNL A   1      41.011  32.021  36.138  1.00  0.00     0.049 A 
ATOM     64  H   UNL A   1      41.002  30.931  34.332  1.00  0.00     0.167 HD
ATOM     65  C   UNL A   1      39.159  33.040  34.834  1.00  0.00     0.074 A 
ATOM     66  C   UNL A   1      38.063  33.973  34.665  1.00  0.00     0.031 C 
ATOM     67  C   UNL A   1      39.922  32.950  35.951  1.00  0.00     0.037 A 
BRANCH  54  68
ATOM     68  C   UNL A   1      44.188  28.475  35.765  1.00  0.00     0.058 A 
ATOM     69  C   UNL A   1      43.885  27.388  36.600  1.00  0.00     0.135 A 
ATOM     70  C   UNL A   1      45.538  28.832  35.619  1.00  0.00     0.135 A 
ATOM     71  F   UNL A   1      42.609  27.014  36.786  1.00  0.00    -0.206 F 
ATOM     72  C   UNL A   1      44.879  26.708  37.297  1.00  0.00     0.059 A 
ATOM     73  C   UNL A   1      46.551  28.149  36.286  1.00  0.00     0.059 A 
ATOM     74  F   UNL A   1      45.884  29.863  34.832  1.00  0.00    -0.206 F 
ATOM     75  C   UNL A   1      46.209  27.102  37.140  1.00  0.00     0.060 A 
BRANCH  75  76
ATOM     76  S   UNL A   1      47.487  26.232  38.074  1.00  0.00     0.124 S 
ATOM     77  O   UNL A   1      47.800  27.209  39.112  1.00  0.00    -0.237 OA
ATOM     78  O   UNL A   1      46.787  25.033  38.523  1.00  0.00    -0.237 OA
ATOM     79  O   UNL A   1      48.537  26.008  37.085  1.00  0.00    -0.744 OA
ENDBRANCH  75  76
ENDBRANCH  54  68
BRANCH  55  80
ATOM     80  C   UNL A   1      36.785  32.940  30.756  1.00  0.00     0.058 A 
ATOM     81  C   UNL A   1      35.469  32.581  31.077  1.00  0.00     0.135 A 
ATOM     82  C   UNL A   1      36.974  33.927  29.774  1.00  0.00     0.135 A 
ATOM     83  F   UNL A   1      35.239  31.635  32.001  1.00  0.00    -0.206 F 
ATOM     84  C   UNL A   1      34.379  33.186  30.459  1.00  0.00     0.059 A 
ATOM     85  C   UNL A   1      35.901  34.561  29.158  1.00  0.00     0.059 A 
ATOM     86  F   UNL A   1      38.215  34.313  29.440  1.00  0.00    -0.206 F 
ATOM     87  C   UNL A   1      34.605  34.182  29.508  1.00  0.00     0.060 A 
BRANCH  87  88
ATOM     88  S   UNL A   1      33.183  35.029  28.784  1.00  0.00     0.124 S 
ATOM     89  O   UNL A   1      32.662  34.009  27.881  1.00  0.00    -0.237 OA
ATOM     90  O   UNL A   1      32.369  35.318  29.960  1.00  0.00    -0.237 OA
ATOM     91  O   UNL A   1      33.780  36.197  28.142  1.00  0.00    -0.744 OA
ENDBRANCH  87  88
ENDBRANCH  55  80
BRANCH  67  92
ATOM     92  C   UNL A   1      39.631  33.900  37.079  1.00  0.00     0.058 A 
ATOM     93  C   UNL A   1      38.825  33.529  38.165  1.00  0.00     0.135 A 
ATOM     94  C   UNL A   1      40.253  35.159  37.121  1.00  0.00     0.135 A 
ATOM     95  F   UNL A   1      38.202  32.340  38.169  1.00  0.00    -0.206 F 
ATOM     96  C   UNL A   1      38.646  34.373  39.257  1.00  0.00     0.059 A 
ATOM     97  C   UNL A   1      40.105  36.010  38.212  1.00  0.00     0.059 A 
ATOM     98  F   UNL A   1      41.041  35.557  36.110  1.00  0.00    -0.206 F 
ATOM     99  C   UNL A   1      39.299  35.608  39.276  1.00  0.00     0.060 A 
BRANCH  99 100
ATOM    100  S   UNL A   1      39.121  36.661  40.732  1.00  0.00     0.124 S 
ATOM    101  O   UNL A   1      38.393  35.783  41.642  1.00  0.00    -0.237 OA
ATOM    102  O   UNL A   1      40.509  36.937  41.091  1.00  0.00    -0.237 OA
ATOM    103  O   UNL A   1      38.370  37.809  40.231  1.00  0.00    -0.744 OA
ENDBRANCH  99 100
ENDBRANCH  67  92
ENDBRANCH  41  42
ENDBRANCH  34  36
ENDBRANCH  33  34
ENDBRANCH  32  33
ENDBRANCH  31  32
ENDBRANCH   1  31
TORSDOF 21
ENDMDL
MODEL 2
REMARK VINA RESULT:     -11.0      1.887      3.344
REMARK SMILES Cc1cc(C)c(NC(=O)C[C@H](C(=O)OCCOCCOC(=O)c2ccc(-c3c4nc(c(-c5c(F)cc(S(=O)(=O)[O-])cc5F)c5ccc([nH]5)c(-c5c(F)cc(S(=O)(=O)[O-])cc5F)c5nc(c(-c6c(F)cc(S(=O)(=O)[O-])cc6F)c6ccc3[nH]6)C=C5)C=C4)cc2)[NH+]2CC[NH+](C)CC2)c(C)c1
REMARK SMILES IDX 17 1 16 2 15 3 14 4 12 5 13 6 11 7 10 8 8 9 7 10 9 12 6 13
REMARK SMILES IDX 1 14 2 15 3 16 98 17 4 18 96 19 5 20 97 21 89 22 90 23 95 24
REMARK SMILES IDX 91 26 94 27 92 28 93 29 18 31 19 32 20 33 21 34 22 35 23 36
REMARK SMILES IDX 24 37 88 38 25 39 87 40 26 41 27 42 28 43 81 44 29 45 86 46
REMARK SMILES IDX 80 47 82 48 30 49 85 50 79 51 78 52 31 54 65 55 44 56 64 57
REMARK SMILES IDX 45 58 48 59 63 60 83 61 46 62 47 63 62 65 84 66 49 67 32 68
REMARK SMILES IDX 33 69 42 70 34 71 35 72 41 73 43 74 36 75 37 76 38 77 39 78
REMARK SMILES IDX 40 79 66 80 67 81 76 82 68 83 69 84 75 85 77 86 70 87 71 88
REMARK SMILES IDX 72 89 73 90 74 91 50 92 51 93 60 94 52 95 53 96 59 97 61 98
REMARK SMILES IDX 54 99 55 100 56 101 57 102 58 103
REMARK H PARENT 7 11 89 25 92 30 82 53 48 64
REMARK Flexibility Score: inf
ROOT
ATOM      1  O   UNL A   1      37.525  23.296  24.643  1.00  0.00    -0.374 OA
ENDROOT
BRANCH   1   2
ATOM      2  C   UNL A   1      36.547  22.746  23.769  1.00  0.00     0.202 C 
BRANCH   2   3
ATOM      3  C   UNL A   1      35.185  23.443  23.660  1.00  0.00     0.261 C 
BRANCH   3   4
ATOM      4  O   UNL A   1      35.065  24.620  24.476  1.00  0.00    -0.459 OA
BRANCH   4   5
ATOM      5  C   UNL A   1      34.126  24.538  25.475  1.00  0.00     0.365 C 
ATOM      6  O   UNL A   1      34.294  23.862  26.483  1.00  0.00    -0.245 OA
BRANCH   5   7
ATOM      7  C   UNL A   1      32.912  25.487  25.184  1.00  0.00     0.304 C 
BRANCH   7   8
ATOM      8  C   UNL A   1      31.657  24.595  24.984  1.00  0.00     0.177 C 
BRANCH   8   9
ATOM      9  C   UNL A   1      31.038  24.285  23.630  1.00  0.00     0.231 C 
ATOM     10  N   UNL A   1      30.420  25.180  22.810  1.00  0.00    -0.325 N 
ATOM     11  H   UNL A   1      29.968  24.783  22.032  1.00  0.00     0.169 HD
ATOM     12  O   UNL A   1      31.102  23.119  23.211  1.00  0.00    -0.274 OA
BRANCH  10  13
ATOM     13  C   UNL A   1      30.326  26.576  22.900  1.00  0.00     0.047 A 
ATOM     14  C   UNL A   1      29.348  30.679  22.145  1.00  0.00     0.044 C 
ATOM     15  C   UNL A   1      29.738  29.294  22.566  1.00  0.00    -0.050 A 
ATOM     16  C   UNL A   1      31.005  28.796  22.252  1.00  0.00     0.009 A 
ATOM     17  C   UNL A   1      28.836  28.461  23.226  1.00  0.00     0.009 A 
ATOM     18  C   UNL A   1      31.326  27.444  22.451  1.00  0.00    -0.027 A 
ATOM     19  C   UNL A   1      29.139  27.110  23.450  1.00  0.00    -0.027 A 
ATOM     20  C   UNL A   1      32.768  27.040  22.308  1.00  0.00     0.046 C 
ATOM     21  C   UNL A   1      28.170  26.272  24.239  1.00  0.00     0.046 C 
ENDBRANCH  10  13
ENDBRANCH   8   9
ENDBRANCH   7   8
BRANCH   7  22
ATOM     22  N   UNL A   1      32.872  26.613  26.150  1.00  0.00    -0.313 N 
ATOM     23  C   UNL A   1      31.560  27.233  26.394  1.00  0.00     0.325 C 
ATOM     24  C   UNL A   1      33.792  27.733  25.834  1.00  0.00     0.325 C 
ATOM     25  H   UNL A   1      33.166  26.112  26.988  1.00  0.00     0.349 HD
ATOM     26  C   UNL A   1      31.649  28.173  27.630  1.00  0.00     0.324 C 
ATOM     27  C   UNL A   1      33.968  28.616  27.088  1.00  0.00     0.324 C 
ATOM     28  N   UNL A   1      32.717  29.194  27.620  1.00  0.00    -0.328 N 
ATOM     29  C   UNL A   1      32.322  30.393  26.902  1.00  0.00     0.333 C 
ATOM     30  H   UNL A   1      32.886  29.484  28.584  1.00  0.00     0.348 HD
ENDBRANCH   7  22
ENDBRANCH   5   7
ENDBRANCH   4   5
ENDBRANCH   3   4
ENDBRANCH   2   3
ENDBRANCH   1   2
BRANCH   1  31
ATOM     31  C   UNL A   1      38.149  22.437  25.593  1.00  0.00     0.202 C 
BRANCH  31  32
ATOM     32  C   UNL A   1      39.304  22.974  26.454  1.00  0.00     0.261 C 
BRANCH  32  33
ATOM     33  O   UNL A   1      39.431  24.407  26.454  1.00  0.00    -0.460 OA
BRANCH  33  34
ATOM     34  C   UNL A   1      40.698  24.858  26.627  1.00  0.00     0.338 C 
ATOM     35  O   UNL A   1      41.631  24.753  25.841  1.00  0.00    -0.246 OA
BRANCH  34  36
ATOM     36  C   UNL A   1      40.805  25.661  27.855  1.00  0.00     0.060 A 
ATOM     37  C   UNL A   1      39.683  25.749  28.690  1.00  0.00     0.016 A 
ATOM     38  C   UNL A   1      41.938  26.440  28.098  1.00  0.00     0.016 A 
ATOM     39  C   UNL A   1      39.674  26.651  29.753  1.00  0.00     0.010 A 
ATOM     40  C   UNL A   1      41.920  27.353  29.157  1.00  0.00     0.010 A 
ATOM     41  C   UNL A   1      40.776  27.487  29.965  1.00  0.00    -0.014 A 
BRANCH  41  42
ATOM     42  C   UNL A   1      40.686  28.608  30.931  1.00  0.00     0.031 A 
ATOM     43  C   UNL A   1      41.542  28.574  32.167  1.00  0.00     0.074 A 
ATOM     44  C   UNL A   1      39.833  29.626  30.723  1.00  0.00     0.049 A 
ATOM     45  N   UNL A   1      41.546  29.381  33.194  1.00  0.00    -0.248 NA
ATOM     46  C   UNL A   1      42.520  27.479  32.255  1.00  0.00     0.031 C 
ATOM     47  C   UNL A   1      38.977  29.780  29.548  1.00  0.00     0.029 A 
ATOM     48  N   UNL A   1      39.528  30.707  31.511  1.00  0.00    -0.354 N 
ATOM     49  C   UNL A   1      42.505  28.879  34.065  1.00  0.00     0.074 A 
ATOM     50  C   UNL A   1      43.055  27.691  33.448  1.00  0.00     0.031 C 
ATOM     51  C   UNL A   1      38.213  30.873  29.710  1.00  0.00     0.029 A 
ATOM     52  C   UNL A   1      38.502  31.473  31.012  1.00  0.00     0.049 A 
ATOM     53  H   UNL A   1      39.997  30.914  32.351  1.00  0.00     0.167 HD
ATOM     54  C   UNL A   1      42.888  29.362  35.272  1.00  0.00     0.037 A 
ATOM     55  C   UNL A   1      37.844  32.514  31.560  1.00  0.00     0.037 A 
ATOM     56  C   UNL A   1      42.337  30.548  35.873  1.00  0.00     0.049 A 
ATOM     57  C   UNL A   1      38.255  33.017  32.917  1.00  0.00     0.074 A 
ATOM     58  C   UNL A   1      42.688  31.148  37.069  1.00  0.00     0.029 A 
ATOM     59  N   UNL A   1      41.308  31.304  35.332  1.00  0.00    -0.354 N 
ATOM     60  N   UNL A   1      39.191  32.559  33.714  1.00  0.00    -0.248 NA
ATOM     61  C   UNL A   1      37.525  34.174  33.453  1.00  0.00     0.031 C 
ATOM     62  C   UNL A   1      41.836  32.240  37.274  1.00  0.00     0.029 A 
ATOM     63  C   UNL A   1      40.989  32.349  36.182  1.00  0.00     0.049 A 
ATOM     64  H   UNL A   1      40.868  31.124  34.469  1.00  0.00     0.167 HD
ATOM     65  C   UNL A   1      39.178  33.384  34.834  1.00  0.00     0.074 A 
ATOM     66  C   UNL A   1      38.142  34.372  34.611  1.00  0.00     0.031 C 
ATOM     67  C   UNL A   1      39.960  33.331  35.942  1.00  0.00     0.037 A 
BRANCH  54  68
ATOM     68  C   UNL A   1      43.919  28.580  36.036  1.00  0.00     0.058 A 
ATOM     69  C   UNL A   1      43.578  27.470  36.825  1.00  0.00     0.135 A 
ATOM     70  C   UNL A   1      45.272  28.950  35.977  1.00  0.00     0.135 A 
ATOM     71  F   UNL A   1      42.297  27.082  36.928  1.00  0.00    -0.206 F 
ATOM     72  C   UNL A   1      44.537  26.779  37.560  1.00  0.00     0.059 A 
ATOM     73  C   UNL A   1      46.251  28.258  36.683  1.00  0.00     0.059 A 
ATOM     74  F   UNL A   1      45.654  30.004  35.237  1.00  0.00    -0.206 F 
ATOM     75  C   UNL A   1      45.870  27.186  37.489  1.00  0.00     0.060 A 
BRANCH  75  76
ATOM     76  S   UNL A   1      47.101  26.302  38.472  1.00  0.00     0.124 S 
ATOM     77  O   UNL A   1      48.041  25.876  37.441  1.00  0.00    -0.237 OA
ATOM     78  O   UNL A   1      47.583  27.339  39.378  1.00  0.00    -0.237 OA
ATOM     79  O   UNL A   1      46.330  25.234  39.099  1.00  0.00    -0.744 OA
ENDBRANCH  75  76
ENDBRANCH  54  68
BRANCH  55  80
ATOM     80  C   UNL A   1      36.711  33.125  30.820  1.00  0.00     0.058 A 
ATOM     81  C   UNL A   1      35.382  32.816  31.138  1.00  0.00     0.135 A 
ATOM     82  C   UNL A   1      36.939  34.081  29.816  1.00  0.00     0.135 A 
ATOM     83  F   UNL A   1      35.114  31.901  32.083  1.00  0.00    -0.206 F 
ATOM     84  C   UNL A   1      34.316  33.439  30.496  1.00  0.00     0.059 A 
ATOM     85  C   UNL A   1      35.891  34.732  29.174  1.00  0.00     0.059 A 
ATOM     86  F   UNL A   1      38.194  34.419  29.483  1.00  0.00    -0.206 F 
ATOM     87  C   UNL A   1      34.581  34.404  29.523  1.00  0.00     0.060 A 
BRANCH  87  88
ATOM     88  S   UNL A   1      33.193  35.277  28.766  1.00  0.00     0.124 S 
ATOM     89  O   UNL A   1      32.539  34.204  28.025  1.00  0.00    -0.237 OA
ATOM     90  O   UNL A   1      32.474  35.778  29.933  1.00  0.00    -0.237 OA
ATOM     91  O   UNL A   1      33.843  36.301  27.954  1.00  0.00    -0.744 OA
ENDBRANCH  87  88
ENDBRANCH  55  80
BRANCH  67  92
ATOM     92  C   UNL A   1      39.756  34.384  36.996  1.00  0.00     0.058 A 
ATOM     93  C   UNL A   1      38.934  34.161  38.110  1.00  0.00     0.135 A 
ATOM     94  C   UNL A   1      40.478  35.587  36.940  1.00  0.00     0.135 A 
ATOM     95  F   UNL A   1      38.218  33.030  38.206  1.00  0.00    -0.206 F 
ATOM     96  C   UNL A   1      38.834  35.096  39.135  1.00  0.00     0.059 A 
ATOM     97  C   UNL A   1      40.410  36.527  37.964  1.00  0.00     0.059 A 
ATOM     98  F   UNL A   1      41.285  35.844  35.898  1.00  0.00    -0.206 F 
ATOM     99  C   UNL A   1      39.584  36.273  39.058  1.00  0.00     0.060 A 
BRANCH  99 100
ATOM    100  S   UNL A   1      39.506  37.443  40.431  1.00  0.00     0.124 S 
ATOM    101  O   UNL A   1      40.914  37.791  40.601  1.00  0.00    -0.237 OA
ATOM    102  O   UNL A   1      38.651  38.498  39.896  1.00  0.00    -0.237 OA
ATOM    103  O   UNL A   1      38.919  36.657  41.513  1.00  0.00    -0.744 OA
ENDBRANCH  99 100
ENDBRANCH  67  92
ENDBRANCH  41  42
ENDBRANCH  34  36
ENDBRANCH  33  34
ENDBRANCH  32  33
ENDBRANCH  31  32
ENDBRANCH   1  31
TORSDOF 21
ENDMDL
MODEL 3
REMARK VINA RESULT:     -10.9      1.617      8.230
REMARK SMILES Cc1cc(C)c(NC(=O)C[C@H](C(=O)OCCOCCOC(=O)c2ccc(-c3c4nc(c(-c5c(F)cc(S(=O)(=O)[O-])cc5F)c5ccc([nH]5)c(-c5c(F)cc(S(=O)(=O)[O-])cc5F)c5nc(c(-c6c(F)cc(S(=O)(=O)[O-])cc6F)c6ccc3[nH]6)C=C5)C=C4)cc2)[NH+]2CC[NH+](C)CC2)c(C)c1
REMARK SMILES IDX 17 1 16 2 15 3 14 4 12 5 13 6 11 7 10 8 8 9 7 10 9 12 6 13
REMARK SMILES IDX 1 14 2 15 3 16 98 17 4 18 96 19 5 20 97 21 89 22 90 23 95 24
REMARK SMILES IDX 91 26 94 27 92 28 93 29 18 31 19 32 20 33 21 34 22 35 23 36
REMARK SMILES IDX 24 37 88 38 25 39 87 40 26 41 27 42 28 43 81 44 29 45 86 46
REMARK SMILES IDX 80 47 82 48 30 49 85 50 79 51 78 52 31 54 65 55 44 56 64 57
REMARK SMILES IDX 45 58 48 59 63 60 83 61 46 62 47 63 62 65 84 66 49 67 32 68
REMARK SMILES IDX 33 69 42 70 34 71 35 72 41 73 43 74 36 75 37 76 38 77 39 78
REMARK SMILES IDX 40 79 66 80 67 81 76 82 68 83 69 84 75 85 77 86 70 87 71 88
REMARK SMILES IDX 72 89 73 90 74 91 50 92 51 93 60 94 52 95 53 96 59 97 61 98
REMARK SMILES IDX 54 99 55 100 56 101 57 102 58 103
REMARK H PARENT 7 11 89 25 92 30 82 53 48 64
REMARK Flexibility Score: inf
ROOT
ATOM      1  O   UNL A   1      38.859  23.741  26.171  1.00  0.00    -0.374 OA
ENDROOT
BRANCH   1   2
ATOM      2  C   UNL A   1      37.439  23.662  26.147  1.00  0.00     0.202 C 
BRANCH   2   3
ATOM      3  C   UNL A   1      36.734  23.536  24.790  1.00  0.00     0.261 C 
BRANCH   3   4
ATOM      4  O   UNL A   1      35.519  24.298  24.691  1.00  0.00    -0.459 OA
BRANCH   4   5
ATOM      5  C   UNL A   1      34.744  24.010  23.593  1.00  0.00     0.365 C 
ATOM      6  O   UNL A   1      35.179  23.408  22.619  1.00  0.00    -0.245 OA
BRANCH   5   7
ATOM      7  C   UNL A   1      33.259  24.460  23.822  1.00  0.00     0.304 C 
BRANCH   7   8
ATOM      8  C   UNL A   1      32.585  24.576  22.427  1.00  0.00     0.177 C 
BRANCH   8   9
ATOM      9  C   UNL A   1      32.726  25.782  21.511  1.00  0.00     0.231 C 
ATOM     10  N   UNL A   1      32.521  27.082  21.864  1.00  0.00    -0.325 N 
ATOM     11  H   UNL A   1      32.534  27.720  21.116  1.00  0.00     0.169 HD
ATOM     12  O   UNL A   1      33.067  25.587  20.335  1.00  0.00    -0.274 OA
BRANCH  10  13
ATOM     13  C   UNL A   1      32.297  27.654  23.125  1.00  0.00     0.047 A 
ATOM     14  C   UNL A   1      32.192  28.364  27.348  1.00  0.00     0.044 C 
ATOM     15  C   UNL A   1      32.189  28.281  25.852  1.00  0.00    -0.050 A 
ATOM     16  C   UNL A   1      31.046  27.850  25.175  1.00  0.00     0.009 A 
ATOM     17  C   UNL A   1      33.332  28.579  25.113  1.00  0.00     0.009 A 
ATOM     18  C   UNL A   1      31.075  27.570  23.800  1.00  0.00    -0.027 A 
ATOM     19  C   UNL A   1      33.382  28.321  23.734  1.00  0.00    -0.027 A 
ATOM     20  C   UNL A   1      29.762  27.336  23.106  1.00  0.00     0.046 C 
ATOM     21  C   UNL A   1      34.608  28.736  22.965  1.00  0.00     0.046 C 
ENDBRANCH  10  13
ENDBRANCH   8   9
ENDBRANCH   7   8
BRANCH   7  22
ATOM     22  N   UNL A   1      32.616  23.652  24.887  1.00  0.00    -0.313 N 
ATOM     23  C   UNL A   1      31.472  22.816  24.489  1.00  0.00     0.325 C 
ATOM     24  C   UNL A   1      32.152  24.432  26.061  1.00  0.00     0.325 C 
ATOM     25  H   UNL A   1      33.403  23.049  25.126  1.00  0.00     0.349 HD
ATOM     26  C   UNL A   1      31.121  21.830  25.639  1.00  0.00     0.324 C 
ATOM     27  C   UNL A   1      31.898  23.471  27.243  1.00  0.00     0.324 C 
ATOM     28  N   UNL A   1      30.901  22.414  26.979  1.00  0.00    -0.328 N 
ATOM     29  C   UNL A   1      29.540  22.893  27.151  1.00  0.00     0.333 C 
ATOM     30  H   UNL A   1      31.031  21.675  27.671  1.00  0.00     0.348 HD
ENDBRANCH   7  22
ENDBRANCH   5   7
ENDBRANCH   4   5
ENDBRANCH   3   4
ENDBRANCH   2   3
ENDBRANCH   1   2
BRANCH   1  31
ATOM     31  C   UNL A   1      39.600  22.566  26.484  1.00  0.00     0.202 C 
BRANCH  31  32
ATOM     32  C   UNL A   1      41.135  22.627  26.521  1.00  0.00     0.261 C 
BRANCH  32  33
ATOM     33  O   UNL A   1      41.671  23.569  27.467  1.00  0.00    -0.460 OA
BRANCH  33  34
ATOM     34  C   UNL A   1      41.970  24.784  26.942  1.00  0.00     0.338 C 
ATOM     35  O   UNL A   1      42.429  25.014  25.831  1.00  0.00    -0.246 OA
BRANCH  34  36
ATOM     36  C   UNL A   1      41.521  25.864  27.834  1.00  0.00     0.060 A 
ATOM     37  C   UNL A   1      42.387  26.942  28.059  1.00  0.00     0.016 A 
ATOM     38  C   UNL A   1      40.334  25.741  28.558  1.00  0.00     0.016 A 
ATOM     39  C   UNL A   1      42.089  27.884  29.043  1.00  0.00     0.010 A 
ATOM     40  C   UNL A   1      40.044  26.679  29.553  1.00  0.00     0.010 A 
ATOM     41  C   UNL A   1      40.937  27.732  29.823  1.00  0.00    -0.014 A 
BRANCH  41  42
ATOM     42  C   UNL A   1      40.733  28.580  31.023  1.00  0.00     0.031 A 
ATOM     43  C   UNL A   1      39.676  29.649  30.986  1.00  0.00     0.074 A 
ATOM     44  C   UNL A   1      41.497  28.417  32.116  1.00  0.00     0.049 A 
ATOM     45  N   UNL A   1      39.402  30.574  31.869  1.00  0.00    -0.248 NA
ATOM     46  C   UNL A   1      38.820  29.682  29.791  1.00  0.00     0.031 C 
ATOM     47  C   UNL A   1      42.530  27.395  32.276  1.00  0.00     0.029 A 
ATOM     48  N   UNL A   1      41.540  29.130  33.288  1.00  0.00    -0.354 N 
ATOM     49  C   UNL A   1      38.361  31.316  31.326  1.00  0.00     0.074 A 
ATOM     50  C   UNL A   1      38.059  30.739  30.033  1.00  0.00     0.031 C 
ATOM     51  C   UNL A   1      43.133  27.571  33.464  1.00  0.00     0.029 A 
ATOM     52  C   UNL A   1      42.552  28.737  34.129  1.00  0.00     0.049 A 
ATOM     53  H   UNL A   1      40.908  29.853  33.504  1.00  0.00     0.167 HD
ATOM     54  C   UNL A   1      37.718  32.384  31.857  1.00  0.00     0.037 A 
ATOM     55  C   UNL A   1      42.987  29.279  35.284  1.00  0.00     0.037 A 
ATOM     56  C   UNL A   1      38.023  32.946  33.146  1.00  0.00     0.049 A 
ATOM     57  C   UNL A   1      42.288  30.489  35.843  1.00  0.00     0.074 A 
ATOM     58  C   UNL A   1      37.401  33.997  33.796  1.00  0.00     0.029 A 
ATOM     59  N   UNL A   1      39.047  32.512  33.975  1.00  0.00    -0.354 N 
ATOM     60  N   UNL A   1      41.277  31.158  35.341  1.00  0.00    -0.248 NA
ATOM     61  C   UNL A   1      42.783  31.019  37.121  1.00  0.00     0.031 C 
ATOM     62  C   UNL A   1      38.082  34.231  34.996  1.00  0.00     0.029 A 
ATOM     63  C   UNL A   1      39.096  33.293  35.117  1.00  0.00     0.049 A 
ATOM     64  H   UNL A   1      39.652  31.760  33.780  1.00  0.00     0.167 HD
ATOM     65  C   UNL A   1      41.001  32.173  36.251  1.00  0.00     0.074 A 
ATOM     66  C   UNL A   1      41.949  32.029  37.336  1.00  0.00     0.031 C 
ATOM     67  C   UNL A   1      40.042  33.132  36.194  1.00  0.00     0.037 A 
BRANCH  54  68
ATOM     68  C   UNL A   1      36.654  33.038  31.020  1.00  0.00     0.058 A 
ATOM     69  C   UNL A   1      36.962  33.987  30.032  1.00  0.00     0.135 A 
ATOM     70  C   UNL A   1      35.303  32.709  31.213  1.00  0.00     0.135 A 
ATOM     71  F   UNL A   1      38.236  34.349  29.816  1.00  0.00    -0.206 F 
ATOM     72  C   UNL A   1      35.964  34.615  29.292  1.00  0.00     0.059 A 
ATOM     73  C   UNL A   1      34.291  33.306  30.467  1.00  0.00     0.059 A 
ATOM     74  F   UNL A   1      34.952  31.808  32.145  1.00  0.00    -0.206 F 
ATOM     75  C   UNL A   1      34.631  34.273  29.523  1.00  0.00     0.060 A 
BRANCH  75  76
ATOM     76  S   UNL A   1      33.343  35.118  28.580  1.00  0.00     0.124 S 
ATOM     77  O   UNL A   1      34.141  35.928  27.664  1.00  0.00    -0.237 OA
ATOM     78  O   UNL A   1      32.617  34.007  27.974  1.00  0.00    -0.237 OA
ATOM     79  O   UNL A   1      32.609  35.862  29.598  1.00  0.00    -0.744 OA
ENDBRANCH  75  76
ENDBRANCH  54  68
BRANCH  55  80
ATOM     80  C   UNL A   1      44.165  28.683  35.966  1.00  0.00     0.058 A 
ATOM     81  C   UNL A   1      44.026  27.602  36.847  1.00  0.00     0.135 A 
ATOM     82  C   UNL A   1      45.462  29.149  35.699  1.00  0.00     0.135 A 
ATOM     83  F   UNL A   1      42.805  27.129  37.141  1.00  0.00    -0.206 F 
ATOM     84  C   UNL A   1      45.133  26.995  37.432  1.00  0.00     0.059 A 
ATOM     85  C   UNL A   1      46.585  28.546  36.255  1.00  0.00     0.059 A 
ATOM     86  F   UNL A   1      45.647  30.175  34.853  1.00  0.00    -0.206 F 
ATOM     87  C   UNL A   1      46.409  27.468  37.121  1.00  0.00     0.060 A 
BRANCH  87  88
ATOM     88  S   UNL A   1      47.843  26.610  37.809  1.00  0.00     0.124 S 
ATOM     89  O   UNL A   1      48.435  26.021  36.613  1.00  0.00    -0.237 OA
ATOM     90  O   UNL A   1      48.590  27.705  38.420  1.00  0.00    -0.237 OA
ATOM     91  O   UNL A   1      47.248  25.666  38.751  1.00  0.00    -0.744 OA
ENDBRANCH  87  88
ENDBRANCH  55  80
BRANCH  67  92
ATOM     92  C   UNL A   1      39.940  34.092  37.347  1.00  0.00     0.058 A 
ATOM     93  C   UNL A   1      39.252  33.759  38.522  1.00  0.00     0.135 A 
ATOM     94  C   UNL A   1      40.629  35.315  37.311  1.00  0.00     0.135 A 
ATOM     95  F   UNL A   1      38.571  32.606  38.604  1.00  0.00    -0.206 F 
ATOM     96  C   UNL A   1      39.252  34.606  39.626  1.00  0.00     0.059 A 
ATOM     97  C   UNL A   1      40.660  36.167  38.410  1.00  0.00     0.059 A 
ATOM     98  F   UNL A   1      41.310  35.675  36.211  1.00  0.00    -0.206 F 
ATOM     99  C   UNL A   1      39.967  35.805  39.563  1.00  0.00     0.060 A 
BRANCH  99 100
ATOM    100  S   UNL A   1      40.023  36.859  41.029  1.00  0.00     0.124 S 
ATOM    101  O   UNL A   1      39.843  35.884  42.099  1.00  0.00    -0.237 OA
ATOM    102  O   UNL A   1      41.350  37.459  40.933  1.00  0.00    -0.237 OA
ATOM    103  O   UNL A   1      38.909  37.781  40.826  1.00  0.00    -0.744 OA
ENDBRANCH  99 100
ENDBRANCH  67  92
ENDBRANCH  41  42
ENDBRANCH  34  36
ENDBRANCH  33  34
ENDBRANCH  32  33
ENDBRANCH  31  32
ENDBRANCH   1  31
TORSDOF 21
ENDMDL
