MODEL 1
REMARK VINA RESULT:     -11.2      0.000      0.000
REMARK SMILES COc1ccc(-c2nc(SCC(=O)OCCOCCOC(=O)c3ccc(-c4c5nc(c(-c6c(F)cc(S(=O)(=O)[O-])cc6F)c6ccc([nH]6)c(-c6c(F)cc(S(=O)(=O)[O-])cc6F)c6nc(c(-c7c(F)cc(S(=O)(=O)[O-])cc7F)c7ccc4[nH]7)C=C6)C=C5)cc3)cc(-c3ccncc3)n2)cc1
REMARK SMILES IDX 16 1 15 2 14 3 12 4 13 5 11 6 10 7 9 8 7 9 8 10 97 11 90 12
REMARK SMILES IDX 89 13 6 14 3 15 4 16 99 17 5 18 98 19 2 20 1 21 91 22 92 23
REMARK SMILES IDX 96 24 93 25 95 26 94 27 17 28 18 29 19 30 20 31 21 32 22 33
REMARK SMILES IDX 23 34 24 35 88 36 25 37 87 38 26 39 27 40 28 41 81 42 29 43
REMARK SMILES IDX 86 44 80 45 82 46 30 47 85 48 79 49 78 50 31 52 65 53 44 54
REMARK SMILES IDX 64 55 45 56 48 57 63 58 83 59 46 60 47 61 62 63 84 64 49 65
REMARK SMILES IDX 32 66 33 67 42 68 34 69 35 70 41 71 43 72 36 73 37 74 38 75
REMARK SMILES IDX 39 76 40 77 66 78 67 79 76 80 68 81 69 82 75 83 77 84 70 85
REMARK SMILES IDX 71 86 72 87 73 88 74 89 50 90 51 91 60 92 52 93 53 94 59 95
REMARK SMILES IDX 61 96 54 97 55 98 56 99 57 100 58 101
REMARK H PARENT 82 51 48 62
REMARK Flexibility Score: inf
ROOT
ATOM      1  C   UNL A   1      31.955  28.960  27.208  1.00  0.00     0.202 C 
ENDROOT
BRANCH   1   2
ATOM      2  C   UNL A   1      31.823  27.514  26.698  1.00  0.00     0.261 C 
BRANCH   2   3
ATOM      3  O   UNL A   1      31.258  27.405  25.368  1.00  0.00    -0.463 OA
BRANCH   3   4
ATOM      4  C   UNL A   1      31.011  26.140  24.927  1.00  0.00     0.316 C 
ATOM      5  O   UNL A   1      29.891  25.720  24.645  1.00  0.00    -0.251 OA
BRANCH   4   6
ATOM      6  C   UNL A   1      32.220  25.233  24.763  1.00  0.00     0.199 C 
BRANCH   6   7
ATOM      7  S   UNL A   1      31.973  23.572  24.079  1.00  0.00    -0.094 SA
BRANCH   7   8
ATOM      8  C   UNL A   1      33.492  22.642  24.261  1.00  0.00     0.101 A 
ATOM      9  C   UNL A   1      34.231  20.490  24.662  1.00  0.00     0.161 A 
ATOM     10  N   UNL A   1      33.250  21.315  24.264  1.00  0.00    -0.222 NA
ATOM     11  N   UNL A   1      35.450  20.889  25.057  1.00  0.00    -0.228 NA
ATOM     12  C   UNL A   1      35.707  22.209  24.983  1.00  0.00     0.076 A 
ATOM     13  C   UNL A   1      34.754  23.134  24.547  1.00  0.00     0.064 A 
BRANCH   9  14
ATOM     14  C   UNL A   1      33.918  19.059  24.737  1.00  0.00     0.019 A 
ATOM     15  C   UNL A   1      33.345  16.288  24.913  1.00  0.00     0.118 A 
ATOM     16  C   UNL A   1      34.559  16.732  24.387  1.00  0.00     0.047 A 
ATOM     17  C   UNL A   1      32.409  17.226  25.345  1.00  0.00     0.047 A 
ATOM     18  C   UNL A   1      34.835  18.100  24.281  1.00  0.00     0.016 A 
ATOM     19  C   UNL A   1      32.698  18.598  25.265  1.00  0.00     0.016 A 
BRANCH  15  20
ATOM     20  O   UNL A   1      33.219  14.930  25.004  1.00  0.00    -0.497 OA
ATOM     21  C   UNL A   1      32.171  14.444  25.836  1.00  0.00     0.278 C 
ENDBRANCH  15  20
ENDBRANCH   9  14
BRANCH  12  22
ATOM     22  C   UNL A   1      37.006  22.614  25.552  1.00  0.00     0.003 A 
ATOM     23  C   UNL A   1      38.101  21.739  25.575  1.00  0.00     0.030 A 
ATOM     24  C   UNL A   1      37.220  23.893  26.063  1.00  0.00     0.030 A 
ATOM     25  C   UNL A   1      39.282  22.104  26.200  1.00  0.00     0.111 A 
ATOM     26  C   UNL A   1      38.455  24.193  26.628  1.00  0.00     0.111 A 
ATOM     27  N   UNL A   1      39.476  23.317  26.741  1.00  0.00    -0.265 NA
ENDBRANCH  12  22
ENDBRANCH   7   8
ENDBRANCH   6   7
ENDBRANCH   4   6
ENDBRANCH   3   4
ENDBRANCH   2   3
ENDBRANCH   1   2
BRANCH   1  28
ATOM     28  O   UNL A   1      32.955  29.782  26.611  1.00  0.00    -0.374 OA
BRANCH  28  29
ATOM     29  C   UNL A   1      33.879  30.401  27.488  1.00  0.00     0.202 C 
BRANCH  29  30
ATOM     30  C   UNL A   1      35.051  29.572  28.014  1.00  0.00     0.261 C 
BRANCH  30  31
ATOM     31  O   UNL A   1      36.114  30.340  28.533  1.00  0.00    -0.460 OA
BRANCH  31  32
ATOM     32  C   UNL A   1      36.693  29.769  29.606  1.00  0.00     0.338 C 
ATOM     33  O   UNL A   1      36.172  29.310  30.612  1.00  0.00    -0.246 OA
BRANCH  32  34
ATOM     34  C   UNL A   1      38.100  29.648  29.284  1.00  0.00     0.060 A 
ATOM     35  C   UNL A   1      38.446  29.665  27.933  1.00  0.00     0.016 A 
ATOM     36  C   UNL A   1      39.042  29.542  30.307  1.00  0.00     0.016 A 
ATOM     37  C   UNL A   1      39.775  29.522  27.590  1.00  0.00     0.010 A 
ATOM     38  C   UNL A   1      40.375  29.401  29.960  1.00  0.00     0.010 A 
ATOM     39  C   UNL A   1      40.730  29.357  28.601  1.00  0.00    -0.014 A 
BRANCH  39  40
ATOM     40  C   UNL A   1      42.102  28.997  28.224  1.00  0.00     0.031 A 
ATOM     41  C   UNL A   1      42.377  27.576  27.840  1.00  0.00     0.074 A 
ATOM     42  C   UNL A   1      43.049  29.948  28.213  1.00  0.00     0.049 A 
ATOM     43  N   UNL A   1      43.508  27.022  27.505  1.00  0.00    -0.248 NA
ATOM     44  C   UNL A   1      41.226  26.653  27.836  1.00  0.00     0.031 C 
ATOM     45  C   UNL A   1      42.836  31.356  28.556  1.00  0.00     0.029 A 
ATOM     46  N   UNL A   1      44.378  29.871  27.909  1.00  0.00    -0.354 N 
ATOM     47  C   UNL A   1      43.212  25.687  27.266  1.00  0.00     0.074 A 
ATOM     48  C   UNL A   1      41.800  25.503  27.511  1.00  0.00     0.031 C 
ATOM     49  C   UNL A   1      44.005  32.010  28.454  1.00  0.00     0.029 A 
ATOM     50  C   UNL A   1      45.046  31.060  28.078  1.00  0.00     0.049 A 
ATOM     51  H   UNL A   1      44.815  29.046  27.599  1.00  0.00     0.167 HD
ATOM     52  C   UNL A   1      44.057  24.709  26.870  1.00  0.00     0.037 A 
ATOM     53  C   UNL A   1      46.360  31.326  27.966  1.00  0.00     0.037 A 
ATOM     54  C   UNL A   1      45.455  24.932  26.620  1.00  0.00     0.049 A 
ATOM     55  C   UNL A   1      47.280  30.203  27.565  1.00  0.00     0.074 A 
ATOM     56  C   UNL A   1      46.402  24.031  26.173  1.00  0.00     0.029 A 
ATOM     57  N   UNL A   1      46.105  26.144  26.806  1.00  0.00    -0.354 N 
ATOM     58  N   UNL A   1      46.985  28.953  27.289  1.00  0.00    -0.248 NA
ATOM     59  C   UNL A   1      48.707  30.523  27.455  1.00  0.00     0.031 C 
ATOM     60  C   UNL A   1      47.638  24.683  26.145  1.00  0.00     0.029 A 
ATOM     61  C   UNL A   1      47.450  26.007  26.513  1.00  0.00     0.049 A 
ATOM     62  H   UNL A   1      45.674  26.979  27.100  1.00  0.00     0.167 HD
ATOM     63  C   UNL A   1      48.187  28.345  26.947  1.00  0.00     0.074 A 
ATOM     64  C   UNL A   1      49.208  29.370  27.031  1.00  0.00     0.031 C 
ATOM     65  C   UNL A   1      48.433  27.058  26.597  1.00  0.00     0.037 A 
BRANCH  52  66
ATOM     66  C   UNL A   1      43.513  23.320  26.708  1.00  0.00     0.058 A 
ATOM     67  C   UNL A   1      43.319  22.741  25.445  1.00  0.00     0.135 A 
ATOM     68  C   UNL A   1      43.263  22.527  27.839  1.00  0.00     0.135 A 
ATOM     69  F   UNL A   1      43.514  23.464  24.330  1.00  0.00    -0.206 F 
ATOM     70  C   UNL A   1      42.903  21.420  25.309  1.00  0.00     0.059 A 
ATOM     71  C   UNL A   1      42.871  21.197  27.727  1.00  0.00     0.059 A 
ATOM     72  F   UNL A   1      43.416  23.040  29.070  1.00  0.00    -0.206 F 
ATOM     73  C   UNL A   1      42.696  20.653  26.457  1.00  0.00     0.060 A 
BRANCH  73  74
ATOM     74  S   UNL A   1      42.229  18.920  26.262  1.00  0.00     0.124 S 
ATOM     75  O   UNL A   1      40.857  19.038  25.779  1.00  0.00    -0.237 OA
ATOM     76  O   UNL A   1      43.206  18.444  25.286  1.00  0.00    -0.237 OA
ATOM     77  O   UNL A   1      42.374  18.374  27.608  1.00  0.00    -0.744 OA
ENDBRANCH  73  74
ENDBRANCH  52  66
BRANCH  53  78
ATOM     78  C   UNL A   1      46.882  32.683  28.268  1.00  0.00     0.058 A 
ATOM     79  C   UNL A   1      47.275  33.041  29.567  1.00  0.00     0.135 A 
ATOM     80  C   UNL A   1      46.970  33.664  27.267  1.00  0.00     0.135 A 
ATOM     81  F   UNL A   1      47.213  32.139  30.557  1.00  0.00    -0.206 F 
ATOM     82  C   UNL A   1      47.693  34.331  29.872  1.00  0.00     0.059 A 
ATOM     83  C   UNL A   1      47.415  34.952  27.541  1.00  0.00     0.059 A 
ATOM     84  F   UNL A   1      46.629  33.369  26.003  1.00  0.00    -0.206 F 
ATOM     85  C   UNL A   1      47.753  35.283  28.852  1.00  0.00     0.060 A 
BRANCH  85  86
ATOM     86  S   UNL A   1      48.287  36.959  29.259  1.00  0.00     0.124 S 
ATOM     87  O   UNL A   1      47.187  37.753  28.722  1.00  0.00    -0.237 OA
ATOM     88  O   UNL A   1      48.387  36.903  30.713  1.00  0.00    -0.237 OA
ATOM     89  O   UNL A   1      49.560  37.085  28.555  1.00  0.00    -0.744 OA
ENDBRANCH  85  86
ENDBRANCH  53  78
BRANCH  65  90
ATOM     90  C   UNL A   1      49.848  26.703  26.242  1.00  0.00     0.058 A 
ATOM     91  C   UNL A   1      50.750  26.224  27.204  1.00  0.00     0.135 A 
ATOM     92  C   UNL A   1      50.288  26.795  24.912  1.00  0.00     0.135 A 
ATOM     93  F   UNL A   1      50.379  26.124  28.491  1.00  0.00    -0.206 F 
ATOM     94  C   UNL A   1      52.051  25.874  26.863  1.00  0.00     0.059 A 
ATOM     95  C   UNL A   1      51.574  26.418  24.543  1.00  0.00     0.059 A 
ATOM     96  F   UNL A   1      49.457  27.235  23.954  1.00  0.00    -0.206 F 
ATOM     97  C   UNL A   1      52.453  25.972  25.529  1.00  0.00     0.060 A 
BRANCH  97  98
ATOM     98  S   UNL A   1      54.134  25.485  25.095  1.00  0.00     0.124 S 
ATOM     99  O   UNL A   1      54.869  25.867  26.297  1.00  0.00    -0.237 OA
ATOM    100  O   UNL A   1      53.994  24.050  24.868  1.00  0.00    -0.237 OA
ATOM    101  O   UNL A   1      54.422  26.277  23.904  1.00  0.00    -0.744 OA
ENDBRANCH  97  98
ENDBRANCH  65  90
ENDBRANCH  39  40
ENDBRANCH  32  34
ENDBRANCH  31  32
ENDBRANCH  30  31
ENDBRANCH  29  30
ENDBRANCH  28  29
ENDBRANCH   1  28
TORSDOF 22
ENDMDL
MODEL 2
REMARK VINA RESULT:     -10.8      6.990     12.377
REMARK SMILES COc1ccc(-c2nc(SCC(=O)OCCOCCOC(=O)c3ccc(-c4c5nc(c(-c6c(F)cc(S(=O)(=O)[O-])cc6F)c6ccc([nH]6)c(-c6c(F)cc(S(=O)(=O)[O-])cc6F)c6nc(c(-c7c(F)cc(S(=O)(=O)[O-])cc7F)c7ccc4[nH]7)C=C6)C=C5)cc3)cc(-c3ccncc3)n2)cc1
REMARK SMILES IDX 16 1 15 2 14 3 12 4 13 5 11 6 10 7 9 8 7 9 8 10 97 11 90 12
REMARK SMILES IDX 89 13 6 14 3 15 4 16 99 17 5 18 98 19 2 20 1 21 91 22 92 23
REMARK SMILES IDX 96 24 93 25 95 26 94 27 17 28 18 29 19 30 20 31 21 32 22 33
REMARK SMILES IDX 23 34 24 35 88 36 25 37 87 38 26 39 27 40 28 41 81 42 29 43
REMARK SMILES IDX 86 44 80 45 82 46 30 47 85 48 79 49 78 50 31 52 65 53 44 54
REMARK SMILES IDX 64 55 45 56 48 57 63 58 83 59 46 60 47 61 62 63 84 64 49 65
REMARK SMILES IDX 32 66 33 67 42 68 34 69 35 70 41 71 43 72 36 73 37 74 38 75
REMARK SMILES IDX 39 76 40 77 66 78 67 79 76 80 68 81 69 82 75 83 77 84 70 85
REMARK SMILES IDX 71 86 72 87 73 88 74 89 50 90 51 91 60 92 52 93 53 94 59 95
REMARK SMILES IDX 61 96 54 97 55 98 56 99 57 100 58 101
REMARK H PARENT 82 51 48 62
REMARK Flexibility Score: inf
ROOT
ATOM      1  C   UNL A   1      37.333  22.858  25.495  1.00  0.00     0.202 C 
ENDROOT
BRANCH   1   2
ATOM      2  C   UNL A   1      36.167  22.342  24.633  1.00  0.00     0.261 C 
BRANCH   2   3
ATOM      3  O   UNL A   1      34.855  22.676  25.151  1.00  0.00    -0.463 OA
BRANCH   3   4
ATOM      4  C   UNL A   1      34.175  23.641  24.473  1.00  0.00     0.316 C 
ATOM      5  O   UNL A   1      34.557  24.131  23.412  1.00  0.00    -0.251 OA
BRANCH   4   6
ATOM      6  C   UNL A   1      32.860  24.097  25.083  1.00  0.00     0.199 C 
BRANCH   6   7
ATOM      7  S   UNL A   1      31.736  25.100  24.074  1.00  0.00    -0.094 SA
BRANCH   7   8
ATOM      8  C   UNL A   1      31.649  26.747  24.772  1.00  0.00     0.101 A 
ATOM      9  C   UNL A   1      30.801  28.843  24.301  1.00  0.00     0.161 A 
ATOM     10  N   UNL A   1      30.782  27.519  24.086  1.00  0.00    -0.222 NA
ATOM     11  N   UNL A   1      31.622  29.465  25.162  1.00  0.00    -0.228 NA
ATOM     12  C   UNL A   1      32.434  28.680  25.895  1.00  0.00     0.076 A 
ATOM     13  C   UNL A   1      32.455  27.289  25.758  1.00  0.00     0.064 A 
BRANCH   9  14
ATOM     14  C   UNL A   1      29.907  29.671  23.484  1.00  0.00     0.019 A 
ATOM     15  C   UNL A   1      28.147  31.245  21.916  1.00  0.00     0.118 A 
ATOM     16  C   UNL A   1      28.482  29.949  21.524  1.00  0.00     0.047 A 
ATOM     17  C   UNL A   1      28.695  31.764  23.087  1.00  0.00     0.047 A 
ATOM     18  C   UNL A   1      29.367  29.178  22.286  1.00  0.00     0.016 A 
ATOM     19  C   UNL A   1      29.561  30.980  23.867  1.00  0.00     0.016 A 
BRANCH  15  20
ATOM     20  O   UNL A   1      27.238  31.873  21.109  1.00  0.00    -0.497 OA
ATOM     21  C   UNL A   1      27.765  32.777  20.144  1.00  0.00     0.278 C 
ENDBRANCH  15  20
ENDBRANCH   9  14
BRANCH  12  22
ATOM     22  C   UNL A   1      33.410  29.412  26.725  1.00  0.00     0.003 A 
ATOM     23  C   UNL A   1      34.628  28.834  27.107  1.00  0.00     0.030 A 
ATOM     24  C   UNL A   1      33.186  30.724  27.140  1.00  0.00     0.030 A 
ATOM     25  C   UNL A   1      35.487  29.501  27.965  1.00  0.00     0.111 A 
ATOM     26  C   UNL A   1      34.126  31.338  27.960  1.00  0.00     0.111 A 
ATOM     27  N   UNL A   1      35.251  30.745  28.412  1.00  0.00    -0.265 NA
ENDBRANCH  12  22
ENDBRANCH   7   8
ENDBRANCH   6   7
ENDBRANCH   4   6
ENDBRANCH   3   4
ENDBRANCH   2   3
ENDBRANCH   1   2
BRANCH   1  28
ATOM     28  O   UNL A   1      38.236  21.893  26.031  1.00  0.00    -0.374 OA
BRANCH  28  29
ATOM     29  C   UNL A   1      39.587  22.293  26.171  1.00  0.00     0.202 C 
BRANCH  29  30
ATOM     30  C   UNL A   1      39.942  23.279  27.283  1.00  0.00     0.261 C 
BRANCH  30  31
ATOM     31  O   UNL A   1      41.127  24.009  27.051  1.00  0.00    -0.460 OA
BRANCH  31  32
ATOM     32  C   UNL A   1      40.891  25.255  26.597  1.00  0.00     0.338 C 
ATOM     33  O   UNL A   1      40.606  25.623  25.467  1.00  0.00    -0.246 OA
BRANCH  32  34
ATOM     34  C   UNL A   1      40.881  26.111  27.765  1.00  0.00     0.060 A 
ATOM     35  C   UNL A   1      39.749  26.064  28.578  1.00  0.00     0.016 A 
ATOM     36  C   UNL A   1      41.984  26.918  28.045  1.00  0.00     0.016 A 
ATOM     37  C   UNL A   1      39.696  26.888  29.684  1.00  0.00     0.010 A 
ATOM     38  C   UNL A   1      41.929  27.742  29.156  1.00  0.00     0.010 A 
ATOM     39  C   UNL A   1      40.770  27.748  29.950  1.00  0.00    -0.014 A 
BRANCH  39  40
ATOM     40  C   UNL A   1      40.616  28.765  30.997  1.00  0.00     0.031 A 
ATOM     41  C   UNL A   1      41.482  28.661  32.213  1.00  0.00     0.074 A 
ATOM     42  C   UNL A   1      39.728  29.757  30.819  1.00  0.00     0.049 A 
ATOM     43  N   UNL A   1      41.500  29.419  33.273  1.00  0.00    -0.248 NA
ATOM     44  C   UNL A   1      42.458  27.555  32.244  1.00  0.00     0.031 C 
ATOM     45  C   UNL A   1      38.871  29.923  29.644  1.00  0.00     0.029 A 
ATOM     46  N   UNL A   1      39.398  30.806  31.630  1.00  0.00    -0.354 N 
ATOM     47  C   UNL A   1      42.472  28.877  34.103  1.00  0.00     0.074 A 
ATOM     48  C   UNL A   1      43.012  27.714  33.437  1.00  0.00     0.031 C 
ATOM     49  C   UNL A   1      38.099  31.009  29.818  1.00  0.00     0.029 A 
ATOM     50  C   UNL A   1      38.385  31.585  31.128  1.00  0.00     0.049 A 
ATOM     51  H   UNL A   1      39.842  30.985  32.490  1.00  0.00     0.167 HD
ATOM     52  C   UNL A   1      42.873  29.325  35.313  1.00  0.00     0.037 A 
ATOM     53  C   UNL A   1      37.748  32.627  31.691  1.00  0.00     0.037 A 
ATOM     54  C   UNL A   1      42.323  30.497  35.938  1.00  0.00     0.049 A 
ATOM     55  C   UNL A   1      38.192  33.074  33.060  1.00  0.00     0.074 A 
ATOM     56  C   UNL A   1      42.679  31.075  37.142  1.00  0.00     0.029 A 
ATOM     57  N   UNL A   1      41.294  31.263  35.410  1.00  0.00    -0.354 N 
ATOM     58  N   UNL A   1      39.148  32.588  33.818  1.00  0.00    -0.248 NA
ATOM     59  C   UNL A   1      37.476  34.211  33.650  1.00  0.00     0.031 C 
ATOM     60  C   UNL A   1      41.823  32.156  37.370  1.00  0.00     0.029 A 
ATOM     61  C   UNL A   1      40.978  32.291  36.280  1.00  0.00     0.049 A 
ATOM     62  H   UNL A   1      40.853  31.100  34.544  1.00  0.00     0.167 HD
ATOM     63  C   UNL A   1      39.166  33.377  34.961  1.00  0.00     0.074 A 
ATOM     64  C   UNL A   1      38.139  34.384  34.785  1.00  0.00     0.031 C 
ATOM     65  C   UNL A   1      39.955  33.282  36.061  1.00  0.00     0.037 A 
BRANCH  52  66
ATOM     66  C   UNL A   1      43.925  28.548  36.048  1.00  0.00     0.058 A 
ATOM     67  C   UNL A   1      45.287  28.880  35.967  1.00  0.00     0.135 A 
ATOM     68  C   UNL A   1      43.554  27.506  36.913  1.00  0.00     0.135 A 
ATOM     69  F   UNL A   1      45.700  29.847  35.132  1.00  0.00    -0.206 F 
ATOM     70  C   UNL A   1      46.242  28.211  36.726  1.00  0.00     0.059 A 
ATOM     71  C   UNL A   1      44.489  26.841  37.699  1.00  0.00     0.059 A 
ATOM     72  F   UNL A   1      42.267  27.139  37.012  1.00  0.00    -0.206 F 
ATOM     73  C   UNL A   1      45.831  27.203  37.600  1.00  0.00     0.060 A 
BRANCH  73  74
ATOM     74  S   UNL A   1      47.074  26.397  38.631  1.00  0.00     0.124 S 
ATOM     75  O   UNL A   1      47.130  25.066  38.036  1.00  0.00    -0.237 OA
ATOM     76  O   UNL A   1      48.247  27.238  38.416  1.00  0.00    -0.237 OA
ATOM     77  O   UNL A   1      46.498  26.460  39.971  1.00  0.00    -0.744 OA
ENDBRANCH  73  74
ENDBRANCH  52  66
BRANCH  53  78
ATOM     78  C   UNL A   1      36.617  33.288  30.991  1.00  0.00     0.058 A 
ATOM     79  C   UNL A   1      36.836  34.159  29.914  1.00  0.00     0.135 A 
ATOM     80  C   UNL A   1      35.291  33.085  31.407  1.00  0.00     0.135 A 
ATOM     81  F   UNL A   1      38.084  34.383  29.476  1.00  0.00    -0.206 F 
ATOM     82  C   UNL A   1      35.788  34.839  29.302  1.00  0.00     0.059 A 
ATOM     83  C   UNL A   1      34.223  33.729  30.791  1.00  0.00     0.059 A 
ATOM     84  F   UNL A   1      35.022  32.244  32.418  1.00  0.00    -0.206 F 
ATOM     85  C   UNL A   1      34.485  34.622  29.754  1.00  0.00     0.060 A 
BRANCH  85  86
ATOM     86  S   UNL A   1      33.132  35.518  28.962  1.00  0.00     0.124 S 
ATOM     87  O   UNL A   1      33.860  36.463  28.123  1.00  0.00    -0.237 OA
ATOM     88  O   UNL A   1      32.428  34.450  28.260  1.00  0.00    -0.237 OA
ATOM     89  O   UNL A   1      32.409  36.099  30.089  1.00  0.00    -0.744 OA
ENDBRANCH  85  86
ENDBRANCH  53  78
BRANCH  65  90
ATOM     90  C   UNL A   1      39.761  34.316  37.133  1.00  0.00     0.058 A 
ATOM     91  C   UNL A   1      39.009  34.049  38.286  1.00  0.00     0.135 A 
ATOM     92  C   UNL A   1      40.382  35.571  37.025  1.00  0.00     0.135 A 
ATOM     93  F   UNL A   1      38.391  32.866  38.433  1.00  0.00    -0.206 F 
ATOM     94  C   UNL A   1      38.856  35.002  39.286  1.00  0.00     0.059 A 
ATOM     95  C   UNL A   1      40.269  36.527  38.027  1.00  0.00     0.059 A 
ATOM     96  F   UNL A   1      41.123  35.869  35.945  1.00  0.00    -0.206 F 
ATOM     97  C   UNL A   1      39.492  36.238  39.148  1.00  0.00     0.060 A 
BRANCH  97  98
ATOM     98  S   UNL A   1      39.310  37.454  40.467  1.00  0.00     0.124 S 
ATOM     99  O   UNL A   1      38.368  38.395  39.870  1.00  0.00    -0.237 OA
ATOM    100  O   UNL A   1      38.790  36.647  41.566  1.00  0.00    -0.237 OA
ATOM    101  O   UNL A   1      40.667  37.959  40.655  1.00  0.00    -0.744 OA
ENDBRANCH  97  98
ENDBRANCH  65  90
ENDBRANCH  39  40
ENDBRANCH  32  34
ENDBRANCH  31  32
ENDBRANCH  30  31
ENDBRANCH  29  30
ENDBRANCH  28  29
ENDBRANCH   1  28
TORSDOF 22
ENDMDL
MODEL 3
REMARK VINA RESULT:     -10.7      4.090      9.833
REMARK SMILES COc1ccc(-c2nc(SCC(=O)OCCOCCOC(=O)c3ccc(-c4c5nc(c(-c6c(F)cc(S(=O)(=O)[O-])cc6F)c6ccc([nH]6)c(-c6c(F)cc(S(=O)(=O)[O-])cc6F)c6nc(c(-c7c(F)cc(S(=O)(=O)[O-])cc7F)c7ccc4[nH]7)C=C6)C=C5)cc3)cc(-c3ccncc3)n2)cc1
REMARK SMILES IDX 16 1 15 2 14 3 12 4 13 5 11 6 10 7 9 8 7 9 8 10 97 11 90 12
REMARK SMILES IDX 89 13 6 14 3 15 4 16 99 17 5 18 98 19 2 20 1 21 91 22 92 23
REMARK SMILES IDX 96 24 93 25 95 26 94 27 17 28 18 29 19 30 20 31 21 32 22 33
REMARK SMILES IDX 23 34 24 35 88 36 25 37 87 38 26 39 27 40 28 41 81 42 29 43
REMARK SMILES IDX 86 44 80 45 82 46 30 47 85 48 79 49 78 50 31 52 65 53 44 54
REMARK SMILES IDX 64 55 45 56 48 57 63 58 83 59 46 60 47 61 62 63 84 64 49 65
REMARK SMILES IDX 32 66 33 67 42 68 34 69 35 70 41 71 43 72 36 73 37 74 38 75
REMARK SMILES IDX 39 76 40 77 66 78 67 79 76 80 68 81 69 82 75 83 77 84 70 85
REMARK SMILES IDX 71 86 72 87 73 88 74 89 50 90 51 91 60 92 52 93 53 94 59 95
REMARK SMILES IDX 61 96 54 97 55 98 56 99 57 100 58 101
REMARK H PARENT 82 51 48 62
REMARK Flexibility Score: inf
ROOT
ATOM      1  C   UNL A   1      34.499  22.716  25.898  1.00  0.00     0.202 C 
ENDROOT
BRANCH   1   2
ATOM      2  C   UNL A   1      33.616  22.668  24.638  1.00  0.00     0.261 C 
BRANCH   2   3
ATOM      3  O   UNL A   1      34.035  23.573  23.587  1.00  0.00    -0.463 OA
BRANCH   3   4
ATOM      4  C   UNL A   1      33.588  24.855  23.690  1.00  0.00     0.316 C 
ATOM      5  O   UNL A   1      34.241  25.769  24.190  1.00  0.00    -0.251 OA
BRANCH   4   6
ATOM      6  C   UNL A   1      32.207  25.138  23.121  1.00  0.00     0.199 C 
BRANCH   6   7
ATOM      7  S   UNL A   1      30.845  25.468  24.272  1.00  0.00    -0.094 SA
BRANCH   7   8
ATOM      8  C   UNL A   1      31.016  27.135  24.904  1.00  0.00     0.101 A 
ATOM      9  C   UNL A   1      30.521  29.319  24.337  1.00  0.00     0.161 A 
ATOM     10  N   UNL A   1      30.292  28.007  24.173  1.00  0.00    -0.222 NA
ATOM     11  N   UNL A   1      31.421  29.835  25.189  1.00  0.00    -0.228 NA
ATOM     12  C   UNL A   1      32.088  28.961  25.966  1.00  0.00     0.076 A 
ATOM     13  C   UNL A   1      31.886  27.581  25.884  1.00  0.00     0.064 A 
BRANCH   9  14
ATOM     14  C   UNL A   1      29.782  30.245  23.472  1.00  0.00     0.019 A 
ATOM     15  C   UNL A   1      28.324  32.003  21.794  1.00  0.00     0.118 A 
ATOM     16  C   UNL A   1      29.002  30.907  21.259  1.00  0.00     0.047 A 
ATOM     17  C   UNL A   1      28.379  32.231  23.167  1.00  0.00     0.047 A 
ATOM     18  C   UNL A   1      29.739  30.050  22.084  1.00  0.00     0.016 A 
ATOM     19  C   UNL A   1      29.095  31.354  23.999  1.00  0.00     0.016 A 
BRANCH  15  20
ATOM     20  O   UNL A   1      27.606  32.734  20.888  1.00  0.00    -0.497 OA
ATOM     21  C   UNL A   1      27.581  32.240  19.552  1.00  0.00     0.278 C 
ENDBRANCH  15  20
ENDBRANCH   9  14
BRANCH  12  22
ATOM     22  C   UNL A   1      33.158  29.561  26.786  1.00  0.00     0.003 A 
ATOM     23  C   UNL A   1      33.066  30.876  27.264  1.00  0.00     0.030 A 
ATOM     24  C   UNL A   1      34.294  28.843  27.153  1.00  0.00     0.030 A 
ATOM     25  C   UNL A   1      34.122  31.452  27.949  1.00  0.00     0.111 A 
ATOM     26  C   UNL A   1      35.287  29.486  27.887  1.00  0.00     0.111 A 
ATOM     27  N   UNL A   1      35.243  30.782  28.260  1.00  0.00    -0.265 NA
ENDBRANCH  12  22
ENDBRANCH   7   8
ENDBRANCH   6   7
ENDBRANCH   4   6
ENDBRANCH   3   4
ENDBRANCH   2   3
ENDBRANCH   1   2
BRANCH   1  28
ATOM     28  O   UNL A   1      35.364  21.608  26.140  1.00  0.00    -0.374 OA
BRANCH  28  29
ATOM     29  C   UNL A   1      36.275  21.274  25.108  1.00  0.00     0.202 C 
BRANCH  29  30
ATOM     30  C   UNL A   1      37.471  22.195  24.867  1.00  0.00     0.261 C 
BRANCH  30  31
ATOM     31  O   UNL A   1      37.801  23.014  25.967  1.00  0.00    -0.460 OA
BRANCH  31  32
ATOM     32  C   UNL A   1      39.071  22.845  26.381  1.00  0.00     0.338 C 
ATOM     33  O   UNL A   1      39.801  21.873  26.253  1.00  0.00    -0.246 OA
BRANCH  32  34
ATOM     34  C   UNL A   1      39.498  24.130  26.893  1.00  0.00     0.060 A 
ATOM     35  C   UNL A   1      40.030  25.036  25.975  1.00  0.00     0.016 A 
ATOM     36  C   UNL A   1      39.350  24.423  28.249  1.00  0.00     0.016 A 
ATOM     37  C   UNL A   1      40.474  26.259  26.436  1.00  0.00     0.010 A 
ATOM     38  C   UNL A   1      39.794  25.652  28.707  1.00  0.00     0.010 A 
ATOM     39  C   UNL A   1      40.385  26.550  27.803  1.00  0.00    -0.014 A 
BRANCH  39  40
ATOM     40  C   UNL A   1      41.048  27.756  28.312  1.00  0.00     0.031 A 
ATOM     41  C   UNL A   1      42.545  27.796  28.300  1.00  0.00     0.074 A 
ATOM     42  C   UNL A   1      40.297  28.782  28.744  1.00  0.00     0.049 A 
ATOM     43  N   UNL A   1      43.342  28.734  28.726  1.00  0.00    -0.248 NA
ATOM     44  C   UNL A   1      43.238  26.622  27.737  1.00  0.00     0.031 C 
ATOM     45  C   UNL A   1      38.833  28.810  28.759  1.00  0.00     0.029 A 
ATOM     46  N   UNL A   1      40.664  29.993  29.259  1.00  0.00    -0.354 N 
ATOM     47  C   UNL A   1      44.628  28.262  28.499  1.00  0.00     0.074 A 
ATOM     48  C   UNL A   1      44.511  26.946  27.916  1.00  0.00     0.031 C 
ATOM     49  C   UNL A   1      38.425  29.982  29.273  1.00  0.00     0.029 A 
ATOM     50  C   UNL A   1      39.598  30.762  29.655  1.00  0.00     0.049 A 
ATOM     51  H   UNL A   1      41.600  30.285  29.339  1.00  0.00     0.167 HD
ATOM     52  C   UNL A   1      45.798  28.888  28.757  1.00  0.00     0.037 A 
ATOM     53  C   UNL A   1      39.588  31.952  30.284  1.00  0.00     0.037 A 
ATOM     54  C   UNL A   1      45.876  30.206  29.324  1.00  0.00     0.049 A 
ATOM     55  C   UNL A   1      40.911  32.601  30.593  1.00  0.00     0.074 A 
ATOM     56  C   UNL A   1      47.002  30.961  29.590  1.00  0.00     0.029 A 
ATOM     57  N   UNL A   1      44.780  30.960  29.721  1.00  0.00    -0.354 N 
ATOM     58  N   UNL A   1      42.124  32.172  30.329  1.00  0.00    -0.248 NA
ATOM     59  C   UNL A   1      40.868  33.896  31.283  1.00  0.00     0.031 C 
ATOM     60  C   UNL A   1      46.590  32.148  30.203  1.00  0.00     0.029 A 
ATOM     61  C   UNL A   1      45.205  32.160  30.261  1.00  0.00     0.049 A 
ATOM     62  H   UNL A   1      43.840  30.682  29.631  1.00  0.00     0.167 HD
ATOM     63  C   UNL A   1      42.986  33.156  30.795  1.00  0.00     0.074 A 
ATOM     64  C   UNL A   1      42.155  34.211  31.339  1.00  0.00     0.031 C 
ATOM     65  C   UNL A   1      44.343  33.191  30.781  1.00  0.00     0.037 A 
BRANCH  52  66
ATOM     66  C   UNL A   1      47.076  28.160  28.458  1.00  0.00     0.058 A 
ATOM     67  C   UNL A   1      47.737  27.389  29.427  1.00  0.00     0.135 A 
ATOM     68  C   UNL A   1      47.600  28.168  27.156  1.00  0.00     0.135 A 
ATOM     69  F   UNL A   1      47.295  27.371  30.695  1.00  0.00    -0.206 F 
ATOM     70  C   UNL A   1      48.869  26.644  29.112  1.00  0.00     0.059 A 
ATOM     71  C   UNL A   1      48.716  27.411  26.813  1.00  0.00     0.059 A 
ATOM     72  F   UNL A   1      47.016  28.904  26.197  1.00  0.00    -0.206 F 
ATOM     73  C   UNL A   1      49.342  26.650  27.799  1.00  0.00     0.060 A 
BRANCH  73  74
ATOM     74  S   UNL A   1      50.767  25.620  27.391  1.00  0.00     0.124 S 
ATOM     75  O   UNL A   1      50.239  24.281  27.632  1.00  0.00    -0.237 OA
ATOM     76  O   UNL A   1      51.007  25.964  25.993  1.00  0.00    -0.237 OA
ATOM     77  O   UNL A   1      51.791  26.068  28.329  1.00  0.00    -0.744 OA
ENDBRANCH  73  74
ENDBRANCH  52  66
BRANCH  53  78
ATOM     78  C   UNL A   1      38.304  32.580  30.688  1.00  0.00     0.058 A 
ATOM     79  C   UNL A   1      37.760  32.368  31.963  1.00  0.00     0.135 A 
ATOM     80  C   UNL A   1      37.578  33.382  29.794  1.00  0.00     0.135 A 
ATOM     81  F   UNL A   1      38.417  31.613  32.855  1.00  0.00    -0.206 F 
ATOM     82  C   UNL A   1      36.522  32.891  32.323  1.00  0.00     0.059 A 
ATOM     83  C   UNL A   1      36.353  33.942  30.141  1.00  0.00     0.059 A 
ATOM     84  F   UNL A   1      38.064  33.636  28.568  1.00  0.00    -0.206 F 
ATOM     85  C   UNL A   1      35.823  33.671  31.400  1.00  0.00     0.060 A 
BRANCH  85  86
ATOM     86  S   UNL A   1      34.212  34.338  31.871  1.00  0.00     0.124 S 
ATOM     87  O   UNL A   1      34.591  35.598  32.500  1.00  0.00    -0.237 OA
ATOM     88  O   UNL A   1      33.536  34.443  30.583  1.00  0.00    -0.237 OA
ATOM     89  O   UNL A   1      33.678  33.319  32.770  1.00  0.00    -0.744 OA
ENDBRANCH  85  86
ENDBRANCH  53  78
BRANCH  65  90
ATOM     90  C   UNL A   1      45.001  34.423  31.332  1.00  0.00     0.058 A 
ATOM     91  C   UNL A   1      45.309  35.521  30.515  1.00  0.00     0.135 A 
ATOM     92  C   UNL A   1      45.278  34.523  32.704  1.00  0.00     0.135 A 
ATOM     93  F   UNL A   1      45.070  35.472  29.194  1.00  0.00    -0.206 F 
ATOM     94  C   UNL A   1      45.896  36.668  31.037  1.00  0.00     0.059 A 
ATOM     95  C   UNL A   1      45.832  35.673  33.253  1.00  0.00     0.059 A 
ATOM     96  F   UNL A   1      44.988  33.503  33.529  1.00  0.00    -0.206 F 
ATOM     97  C   UNL A   1      46.151  36.735  32.408  1.00  0.00     0.060 A 
BRANCH  97  98
ATOM     98  S   UNL A   1      46.883  38.241  33.077  1.00  0.00     0.124 S 
ATOM     99  O   UNL A   1      45.759  38.811  33.814  1.00  0.00    -0.237 OA
ATOM    100  O   UNL A   1      47.976  37.721  33.892  1.00  0.00    -0.237 OA
ATOM    101  O   UNL A   1      47.292  38.980  31.887  1.00  0.00    -0.744 OA
ENDBRANCH  97  98
ENDBRANCH  65  90
ENDBRANCH  39  40
ENDBRANCH  32  34
ENDBRANCH  31  32
ENDBRANCH  30  31
ENDBRANCH  29  30
ENDBRANCH  28  29
ENDBRANCH   1  28
TORSDOF 22
ENDMDL
