MODEL 1
REMARK VINA RESULT:     -11.0      0.000      0.000
REMARK SMILES Cc1ccc(Cl)c(Nc2ccccc2C(=O)NCC(=O)OCCOCCOC(=O)c2ccc(-c3c4nc(c(-c5c(F)cc(S(=O)(=O)[O-])cc5F)c5ccc([nH]5)c(-c5c(F)cc(S(=O)(=O)[O-])cc5F)c5nc(c(-c6c(F)cc(S(=O)(=O)[O-])cc6F)c6ccc3[nH]6)C=C5)C=C4)cc2)c1Cl
REMARK SMILES IDX 23 1 22 2 21 3 19 4 20 5 18 6 17 7 15 8 16 9 14 11 9 12
REMARK SMILES IDX 10 13 11 14 13 15 12 16 8 17 7 19 1 20 2 21 3 22 96 23 4 24
REMARK SMILES IDX 97 25 5 26 6 27 24 28 25 29 26 30 27 31 28 32 29 33 30 34
REMARK SMILES IDX 31 35 95 36 32 37 94 38 33 39 34 40 35 41 88 42 36 43 93 44
REMARK SMILES IDX 87 45 89 46 37 47 92 48 86 49 85 50 38 52 72 53 51 54 71 55
REMARK SMILES IDX 52 56 55 57 70 58 90 59 53 60 54 61 69 63 91 64 56 65 39 66
REMARK SMILES IDX 40 67 49 68 41 69 42 70 48 71 50 72 43 73 44 74 45 75 46 76
REMARK SMILES IDX 47 77 73 78 74 79 83 80 75 81 76 82 82 83 84 84 77 85 78 86
REMARK SMILES IDX 79 87 80 88 81 89 57 90 58 91 67 92 59 93 60 94 66 95 68 96
REMARK SMILES IDX 61 97 62 98 63 99 64 100 65 101
REMARK H PARENT 17 10 8 18 89 51 55 62
REMARK Flexibility Score: inf
ROOT
ATOM      1  C   UNL A   1      40.355  22.665  26.684  1.00  0.00     0.202 C 
ENDROOT
BRANCH   1   2
ATOM      2  C   UNL A   1      39.243  21.816  26.045  1.00  0.00     0.261 C 
BRANCH   2   3
ATOM      3  O   UNL A   1      38.082  22.609  25.759  1.00  0.00    -0.462 OA
BRANCH   3   4
ATOM      4  C   UNL A   1      37.102  21.994  25.042  1.00  0.00     0.325 C 
ATOM      5  O   UNL A   1      36.567  20.934  25.339  1.00  0.00    -0.250 OA
BRANCH   4   6
ATOM      6  C   UNL A   1      36.596  22.923  23.951  1.00  0.00     0.239 C 
BRANCH   6   7
ATOM      7  N   UNL A   1      35.297  22.732  23.370  1.00  0.00    -0.341 N 
ATOM      8  C   UNL A   1      34.434  23.787  23.187  1.00  0.00     0.253 C 
ATOM      9  O   UNL A   1      34.065  24.059  22.046  1.00  0.00    -0.269 OA
ATOM     10  H   UNL A   1      35.019  21.829  23.097  1.00  0.00     0.164 HD
BRANCH   8  11
ATOM     11  C   UNL A   1      33.697  24.315  24.365  1.00  0.00     0.063 A 
ATOM     12  C   UNL A   1      32.575  23.773  25.022  1.00  0.00     0.051 A 
ATOM     13  C   UNL A   1      31.972  24.576  26.019  1.00  0.00     0.027 A 
ATOM     14  C   UNL A   1      32.480  25.823  26.393  1.00  0.00     0.002 A 
ATOM     15  C   UNL A   1      34.220  25.566  24.772  1.00  0.00     0.016 A 
ATOM     16  C   UNL A   1      33.623  26.310  25.782  1.00  0.00     0.001 A 
BRANCH  12  17
ATOM     17  N   UNL A   1      32.010  22.484  24.895  1.00  0.00    -0.352 N 
ATOM     18  H   UNL A   1      31.029  22.502  24.973  1.00  0.00     0.167 HD
BRANCH  17  19
ATOM     19  C   UNL A   1      32.504  21.173  24.685  1.00  0.00     0.077 A 
ATOM     20  C   UNL A   1      32.248  18.187  22.282  1.00  0.00     0.046 C 
ATOM     21  C   UNL A   1      32.529  19.021  23.503  1.00  0.00    -0.030 A 
ATOM     22  C   UNL A   1      32.986  18.383  24.666  1.00  0.00     0.006 A 
ATOM     23  C   UNL A   1      32.333  20.422  23.505  1.00  0.00     0.069 A 
ATOM     24  C   UNL A   1      33.305  19.129  25.793  1.00  0.00     0.023 A 
ATOM     25  Cl  UNL A   1      32.024  21.218  21.992  1.00  0.00    -0.082 Cl
ATOM     26  C   UNL A   1      33.088  20.506  25.793  1.00  0.00     0.066 A 
ATOM     27  Cl  UNL A   1      33.539  21.381  27.220  1.00  0.00    -0.082 Cl
ENDBRANCH  17  19
ENDBRANCH  12  17
ENDBRANCH   8  11
ENDBRANCH   6   7
ENDBRANCH   4   6
ENDBRANCH   3   4
ENDBRANCH   2   3
ENDBRANCH   1   2
BRANCH   1  28
ATOM     28  O   UNL A   1      41.566  22.009  27.060  1.00  0.00    -0.374 OA
BRANCH  28  29
ATOM     29  C   UNL A   1      42.724  22.196  26.252  1.00  0.00     0.202 C 
BRANCH  29  30
ATOM     30  C   UNL A   1      42.757  23.379  25.265  1.00  0.00     0.261 C 
BRANCH  30  31
ATOM     31  O   UNL A   1      43.246  24.604  25.847  1.00  0.00    -0.460 OA
BRANCH  31  32
ATOM     32  C   UNL A   1      42.342  25.612  25.900  1.00  0.00     0.338 C 
ATOM     33  O   UNL A   1      41.525  25.909  25.038  1.00  0.00    -0.246 OA
BRANCH  32  34
ATOM     34  C   UNL A   1      42.318  26.227  27.239  1.00  0.00     0.060 A 
ATOM     35  C   UNL A   1      41.239  25.914  28.076  1.00  0.00     0.016 A 
ATOM     36  C   UNL A   1      43.241  27.208  27.611  1.00  0.00     0.016 A 
ATOM     37  C   UNL A   1      41.059  26.601  29.272  1.00  0.00     0.010 A 
ATOM     38  C   UNL A   1      43.045  27.912  28.808  1.00  0.00     0.010 A 
ATOM     39  C   UNL A   1      41.931  27.638  29.622  1.00  0.00    -0.014 A 
BRANCH  39  40
ATOM     40  C   UNL A   1      41.550  28.527  30.748  1.00  0.00     0.031 A 
ATOM     41  C   UNL A   1      42.366  28.493  32.012  1.00  0.00     0.074 A 
ATOM     42  C   UNL A   1      40.554  29.419  30.610  1.00  0.00     0.049 A 
ATOM     43  N   UNL A   1      42.267  29.235  33.085  1.00  0.00    -0.248 NA
ATOM     44  C   UNL A   1      43.444  27.493  32.069  1.00  0.00     0.031 C 
ATOM     45  C   UNL A   1      39.717  29.571  29.422  1.00  0.00     0.029 A 
ATOM     46  N   UNL A   1      40.085  30.372  31.479  1.00  0.00    -0.354 N 
ATOM     47  C   UNL A   1      43.274  28.801  33.940  1.00  0.00     0.074 A 
ATOM     48  C   UNL A   1      43.946  27.704  33.277  1.00  0.00     0.031 C 
ATOM     49  C   UNL A   1      38.829  30.557  29.638  1.00  0.00     0.029 A 
ATOM     50  C   UNL A   1      39.027  31.094  30.984  1.00  0.00     0.049 A 
ATOM     51  H   UNL A   1      40.471  30.523  32.372  1.00  0.00     0.167 HD
ATOM     52  C   UNL A   1      43.615  29.278  35.161  1.00  0.00     0.037 A 
ATOM     53  C   UNL A   1      38.295  32.071  31.555  1.00  0.00     0.037 A 
ATOM     54  C   UNL A   1      42.931  30.356  35.828  1.00  0.00     0.049 A 
ATOM     55  C   UNL A   1      38.659  32.556  32.934  1.00  0.00     0.074 A 
ATOM     56  C   UNL A   1      43.190  30.907  37.071  1.00  0.00     0.029 A 
ATOM     57  N   UNL A   1      41.842  31.042  35.308  1.00  0.00    -0.354 N 
ATOM     58  N   UNL A   1      39.622  32.146  33.725  1.00  0.00    -0.248 NA
ATOM     59  C   UNL A   1      37.846  33.645  33.490  1.00  0.00     0.031 C 
ATOM     60  C   UNL A   1      42.233  31.900  37.319  1.00  0.00     0.029 A 
ATOM     61  C   UNL A   1      41.407  31.999  36.211  1.00  0.00     0.049 A 
ATOM     62  H   UNL A   1      41.436  30.872  34.426  1.00  0.00     0.167 HD
ATOM     63  C   UNL A   1      39.541  32.938  34.867  1.00  0.00     0.074 A 
ATOM     64  C   UNL A   1      38.446  33.862  34.653  1.00  0.00     0.031 C 
ATOM     65  C   UNL A   1      40.305  32.904  35.988  1.00  0.00     0.037 A 
BRANCH  52  66
ATOM     66  C   UNL A   1      44.767  28.609  35.860  1.00  0.00     0.058 A 
ATOM     67  C   UNL A   1      44.572  27.531  36.738  1.00  0.00     0.135 A 
ATOM     68  C   UNL A   1      46.081  29.061  35.662  1.00  0.00     0.135 A 
ATOM     69  F   UNL A   1      43.332  27.071  36.978  1.00  0.00    -0.206 F 
ATOM     70  C   UNL A   1      45.633  26.950  37.426  1.00  0.00     0.059 A 
ATOM     71  C   UNL A   1      47.161  28.478  36.320  1.00  0.00     0.059 A 
ATOM     72  F   UNL A   1      46.326  30.089  34.835  1.00  0.00    -0.206 F 
ATOM     73  C   UNL A   1      46.924  27.438  37.216  1.00  0.00     0.060 A 
BRANCH  73  74
ATOM     74  S   UNL A   1      48.289  26.698  38.137  1.00  0.00     0.124 S 
ATOM     75  O   UNL A   1      48.206  27.416  39.406  1.00  0.00    -0.237 OA
ATOM     76  O   UNL A   1      47.911  25.289  38.183  1.00  0.00    -0.237 OA
ATOM     77  O   UNL A   1      49.457  27.003  37.318  1.00  0.00    -0.744 OA
ENDBRANCH  73  74
ENDBRANCH  52  66
BRANCH  53  78
ATOM     78  C   UNL A   1      37.145  32.651  30.815  1.00  0.00     0.058 A 
ATOM     79  C   UNL A   1      35.863  32.088  30.896  1.00  0.00     0.135 A 
ATOM     80  C   UNL A   1      37.304  33.809  30.036  1.00  0.00     0.135 A 
ATOM     81  F   UNL A   1      35.664  30.975  31.618  1.00  0.00    -0.206 F 
ATOM     82  C   UNL A   1      34.778  32.652  30.231  1.00  0.00     0.059 A 
ATOM     83  C   UNL A   1      36.230  34.403  29.382  1.00  0.00     0.059 A 
ATOM     84  F   UNL A   1      38.509  34.391  29.936  1.00  0.00    -0.206 F 
ATOM     85  C   UNL A   1      34.971  33.815  29.483  1.00  0.00     0.060 A 
BRANCH  85  86
ATOM     86  S   UNL A   1      33.542  34.588  28.694  1.00  0.00     0.124 S 
ATOM     87  O   UNL A   1      33.062  33.512  27.834  1.00  0.00    -0.237 OA
ATOM     88  O   UNL A   1      32.698  34.914  29.839  1.00  0.00    -0.237 OA
ATOM     89  O   UNL A   1      34.120  35.737  28.005  1.00  0.00    -0.744 OA
ENDBRANCH  85  86
ENDBRANCH  53  78
BRANCH  65  90
ATOM     90  C   UNL A   1      39.989  33.911  37.061  1.00  0.00     0.058 A 
ATOM     91  C   UNL A   1      39.131  33.606  38.129  1.00  0.00     0.135 A 
ATOM     92  C   UNL A   1      40.567  35.190  37.030  1.00  0.00     0.135 A 
ATOM     93  F   UNL A   1      38.551  32.397  38.206  1.00  0.00    -0.206 F 
ATOM     94  C   UNL A   1      38.823  34.548  39.106  1.00  0.00     0.059 A 
ATOM     95  C   UNL A   1      40.293  36.140  38.011  1.00  0.00     0.059 A 
ATOM     96  F   UNL A   1      41.406  35.530  36.039  1.00  0.00    -0.206 F 
ATOM     97  C   UNL A   1      39.404  35.815  39.034  1.00  0.00     0.060 A 
BRANCH  97  98
ATOM     98  S   UNL A   1      38.994  37.034  40.301  1.00  0.00     0.124 S 
ATOM     99  O   UNL A   1      38.054  36.288  41.131  1.00  0.00    -0.237 OA
ATOM    100  O   UNL A   1      40.294  37.309  40.907  1.00  0.00    -0.237 OA
ATOM    101  O   UNL A   1      38.421  38.137  39.537  1.00  0.00    -0.744 OA
ENDBRANCH  97  98
ENDBRANCH  65  90
ENDBRANCH  39  40
ENDBRANCH  32  34
ENDBRANCH  31  32
ENDBRANCH  30  31
ENDBRANCH  29  30
ENDBRANCH  28  29
ENDBRANCH   1  28
TORSDOF 21
ENDMDL
MODEL 2
REMARK VINA RESULT:     -10.9      5.999     11.701
REMARK SMILES Cc1ccc(Cl)c(Nc2ccccc2C(=O)NCC(=O)OCCOCCOC(=O)c2ccc(-c3c4nc(c(-c5c(F)cc(S(=O)(=O)[O-])cc5F)c5ccc([nH]5)c(-c5c(F)cc(S(=O)(=O)[O-])cc5F)c5nc(c(-c6c(F)cc(S(=O)(=O)[O-])cc6F)c6ccc3[nH]6)C=C5)C=C4)cc2)c1Cl
REMARK SMILES IDX 23 1 22 2 21 3 19 4 20 5 18 6 17 7 15 8 16 9 14 11 9 12
REMARK SMILES IDX 10 13 11 14 13 15 12 16 8 17 7 19 1 20 2 21 3 22 96 23 4 24
REMARK SMILES IDX 97 25 5 26 6 27 24 28 25 29 26 30 27 31 28 32 29 33 30 34
REMARK SMILES IDX 31 35 95 36 32 37 94 38 33 39 34 40 35 41 88 42 36 43 93 44
REMARK SMILES IDX 87 45 89 46 37 47 92 48 86 49 85 50 38 52 72 53 51 54 71 55
REMARK SMILES IDX 52 56 55 57 70 58 90 59 53 60 54 61 69 63 91 64 56 65 39 66
REMARK SMILES IDX 40 67 49 68 41 69 42 70 48 71 50 72 43 73 44 74 45 75 46 76
REMARK SMILES IDX 47 77 73 78 74 79 83 80 75 81 76 82 82 83 84 84 77 85 78 86
REMARK SMILES IDX 79 87 80 88 81 89 57 90 58 91 67 92 59 93 60 94 66 95 68 96
REMARK SMILES IDX 61 97 62 98 63 99 64 100 65 101
REMARK H PARENT 17 10 8 18 89 51 55 62
REMARK Flexibility Score: inf
ROOT
ATOM      1  C   UNL A   1      35.571  32.882  27.998  1.00  0.00     0.202 C 
ENDROOT
BRANCH   1   2
ATOM      2  C   UNL A   1      34.323  32.021  28.251  1.00  0.00     0.261 C 
BRANCH   2   3
ATOM      3  O   UNL A   1      34.271  30.902  27.353  1.00  0.00    -0.462 OA
BRANCH   3   4
ATOM      4  C   UNL A   1      33.026  30.455  27.030  1.00  0.00     0.325 C 
ATOM      5  O   UNL A   1      32.104  31.155  26.631  1.00  0.00    -0.250 OA
BRANCH   4   6
ATOM      6  C   UNL A   1      33.011  28.936  27.005  1.00  0.00     0.239 C 
BRANCH   6   7
ATOM      7  N   UNL A   1      31.835  28.221  26.598  1.00  0.00    -0.341 N 
ATOM      8  C   UNL A   1      31.893  26.897  26.233  1.00  0.00     0.253 C 
ATOM      9  O   UNL A   1      31.243  26.076  26.877  1.00  0.00    -0.269 OA
ATOM     10  H   UNL A   1      30.968  28.688  26.581  1.00  0.00     0.164 HD
BRANCH   8  11
ATOM     11  C   UNL A   1      32.420  26.554  24.886  1.00  0.00     0.063 A 
ATOM     12  C   UNL A   1      33.257  25.485  24.510  1.00  0.00     0.051 A 
ATOM     13  C   UNL A   1      33.743  25.494  23.181  1.00  0.00     0.027 A 
ATOM     14  C   UNL A   1      33.377  26.471  22.251  1.00  0.00     0.002 A 
ATOM     15  C   UNL A   1      32.034  27.521  23.928  1.00  0.00     0.016 A 
ATOM     16  C   UNL A   1      32.501  27.477  22.620  1.00  0.00     0.001 A 
BRANCH  12  17
ATOM     17  N   UNL A   1      33.615  24.336  25.250  1.00  0.00    -0.352 N 
ATOM     18  H   UNL A   1      33.598  24.501  26.220  1.00  0.00     0.167 HD
BRANCH  17  19
ATOM     19  C   UNL A   1      33.991  23.005  24.942  1.00  0.00     0.077 A 
ATOM     20  C   UNL A   1      32.527  19.576  24.020  1.00  0.00     0.046 C 
ATOM     21  C   UNL A   1      33.476  20.650  24.479  1.00  0.00    -0.030 A 
ATOM     22  C   UNL A   1      34.725  20.271  24.992  1.00  0.00     0.006 A 
ATOM     23  C   UNL A   1      33.132  22.020  24.416  1.00  0.00     0.069 A 
ATOM     24  C   UNL A   1      35.646  21.238  25.376  1.00  0.00     0.023 A 
ATOM     25  Cl  UNL A   1      31.702  22.476  23.541  1.00  0.00    -0.082 Cl
ATOM     26  C   UNL A   1      35.290  22.585  25.329  1.00  0.00     0.066 A 
ATOM     27  Cl  UNL A   1      36.497  23.740  25.791  1.00  0.00    -0.082 Cl
ENDBRANCH  17  19
ENDBRANCH  12  17
ENDBRANCH   8  11
ENDBRANCH   6   7
ENDBRANCH   4   6
ENDBRANCH   3   4
ENDBRANCH   2   3
ENDBRANCH   1   2
BRANCH   1  28
ATOM     28  O   UNL A   1      35.868  33.921  28.931  1.00  0.00    -0.374 OA
BRANCH  28  29
ATOM     29  C   UNL A   1      35.246  33.890  30.212  1.00  0.00     0.202 C 
BRANCH  29  30
ATOM     30  C   UNL A   1      36.113  33.596  31.451  1.00  0.00     0.261 C 
BRANCH  30  31
ATOM     31  O   UNL A   1      37.233  32.730  31.180  1.00  0.00    -0.460 OA
BRANCH  31  32
ATOM     32  C   UNL A   1      36.976  31.405  31.307  1.00  0.00     0.338 C 
ATOM     33  O   UNL A   1      35.964  30.897  31.771  1.00  0.00    -0.246 OA
BRANCH  32  34
ATOM     34  C   UNL A   1      38.008  30.602  30.626  1.00  0.00     0.060 A 
ATOM     35  C   UNL A   1      38.989  30.000  31.422  1.00  0.00     0.016 A 
ATOM     36  C   UNL A   1      38.105  30.566  29.233  1.00  0.00     0.016 A 
ATOM     37  C   UNL A   1      40.091  29.389  30.832  1.00  0.00     0.010 A 
ATOM     38  C   UNL A   1      39.226  29.967  28.641  1.00  0.00     0.010 A 
ATOM     39  C   UNL A   1      40.242  29.411  29.440  1.00  0.00    -0.014 A 
BRANCH  39  40
ATOM     40  C   UNL A   1      41.551  29.006  28.869  1.00  0.00     0.031 A 
ATOM     41  C   UNL A   1      42.662  30.018  28.801  1.00  0.00     0.074 A 
ATOM     42  C   UNL A   1      41.775  27.731  28.506  1.00  0.00     0.049 A 
ATOM     43  N   UNL A   1      43.904  29.864  28.420  1.00  0.00    -0.248 NA
ATOM     44  C   UNL A   1      42.329  31.386  29.230  1.00  0.00     0.031 C 
ATOM     45  C   UNL A   1      40.789  26.654  28.560  1.00  0.00     0.029 A 
ATOM     46  N   UNL A   1      42.911  27.127  28.029  1.00  0.00    -0.354 N 
ATOM     47  C   UNL A   1      44.504  31.109  28.571  1.00  0.00     0.074 A 
ATOM     48  C   UNL A   1      43.479  32.016  29.042  1.00  0.00     0.031 C 
ATOM     49  C   UNL A   1      41.362  25.517  28.125  1.00  0.00     0.029 A 
ATOM     50  C   UNL A   1      42.748  25.792  27.749  1.00  0.00     0.049 A 
ATOM     51  H   UNL A   1      43.762  27.605  27.899  1.00  0.00     0.167 HD
ATOM     52  C   UNL A   1      45.793  31.463  28.350  1.00  0.00     0.037 A 
ATOM     53  C   UNL A   1      43.616  24.896  27.240  1.00  0.00     0.037 A 
ATOM     54  C   UNL A   1      46.806  30.563  27.863  1.00  0.00     0.049 A 
ATOM     55  C   UNL A   1      45.032  25.320  26.954  1.00  0.00     0.074 A 
ATOM     56  C   UNL A   1      48.138  30.825  27.594  1.00  0.00     0.029 A 
ATOM     57  N   UNL A   1      46.595  29.225  27.560  1.00  0.00    -0.354 N 
ATOM     58  N   UNL A   1      45.590  26.497  27.116  1.00  0.00    -0.248 NA
ATOM     59  C   UNL A   1      45.940  24.291  26.432  1.00  0.00     0.031 C 
ATOM     60  C   UNL A   1      48.723  29.655  27.092  1.00  0.00     0.029 A 
ATOM     61  C   UNL A   1      47.766  28.652  27.092  1.00  0.00     0.049 A 
ATOM     62  H   UNL A   1      45.737  28.752  27.661  1.00  0.00     0.167 HD
ATOM     63  C   UNL A   1      46.918  26.347  26.729  1.00  0.00     0.074 A 
ATOM     64  C   UNL A   1      47.083  24.959  26.344  1.00  0.00     0.031 C 
ATOM     65  C   UNL A   1      47.911  27.272  26.699  1.00  0.00     0.037 A 
BRANCH  52  66
ATOM     66  C   UNL A   1      46.163  32.898  28.612  1.00  0.00     0.058 A 
ATOM     67  C   UNL A   1      45.959  33.900  27.649  1.00  0.00     0.135 A 
ATOM     68  C   UNL A   1      46.743  33.274  29.833  1.00  0.00     0.135 A 
ATOM     69  F   UNL A   1      45.424  33.591  26.456  1.00  0.00    -0.206 F 
ATOM     70  C   UNL A   1      46.352  35.216  27.872  1.00  0.00     0.059 A 
ATOM     71  C   UNL A   1      47.121  34.590  30.088  1.00  0.00     0.059 A 
ATOM     72  F   UNL A   1      46.962  32.358  30.789  1.00  0.00    -0.206 F 
ATOM     73  C   UNL A   1      46.942  35.548  29.093  1.00  0.00     0.060 A 
BRANCH  73  74
ATOM     74  S   UNL A   1      47.479  37.252  29.359  1.00  0.00     0.124 S 
ATOM     75  O   UNL A   1      47.848  37.654  28.005  1.00  0.00    -0.237 OA
ATOM     76  O   UNL A   1      46.277  37.879  29.899  1.00  0.00    -0.237 OA
ATOM     77  O   UNL A   1      48.586  37.116  30.299  1.00  0.00    -0.744 OA
ENDBRANCH  73  74
ENDBRANCH  52  66
BRANCH  53  78
ATOM     78  C   UNL A   1      43.160  23.508  26.970  1.00  0.00     0.058 A 
ATOM     79  C   UNL A   1      42.900  23.063  25.665  1.00  0.00     0.135 A 
ATOM     80  C   UNL A   1      43.009  22.586  28.018  1.00  0.00     0.135 A 
ATOM     81  F   UNL A   1      43.020  23.910  24.632  1.00  0.00    -0.206 F 
ATOM     82  C   UNL A   1      42.508  21.753  25.408  1.00  0.00     0.059 A 
ATOM     83  C   UNL A   1      42.640  21.266  27.784  1.00  0.00     0.059 A 
ATOM     84  F   UNL A   1      43.255  22.961  29.283  1.00  0.00    -0.206 F 
ATOM     85  C   UNL A   1      42.388  20.859  26.475  1.00  0.00     0.060 A 
BRANCH  85  86
ATOM     86  S   UNL A   1      41.961  19.139  26.124  1.00  0.00     0.124 S 
ATOM     87  O   UNL A   1      42.848  18.838  25.006  1.00  0.00    -0.237 OA
ATOM     88  O   UNL A   1      42.281  18.480  27.387  1.00  0.00    -0.237 OA
ATOM     89  O   UNL A   1      40.540  19.206  25.804  1.00  0.00    -0.744 OA
ENDBRANCH  85  86
ENDBRANCH  53  78
BRANCH  65  90
ATOM     90  C   UNL A   1      49.268  26.803  26.248  1.00  0.00     0.058 A 
ATOM     91  C   UNL A   1      50.149  26.144  27.120  1.00  0.00     0.135 A 
ATOM     92  C   UNL A   1      49.686  27.001  24.922  1.00  0.00     0.135 A 
ATOM     93  F   UNL A   1      49.800  25.932  28.399  1.00  0.00    -0.206 F 
ATOM     94  C   UNL A   1      51.412  25.735  26.705  1.00  0.00     0.059 A 
ATOM     95  C   UNL A   1      50.935  26.576  24.478  1.00  0.00     0.059 A 
ATOM     96  F   UNL A   1      48.877  27.613  24.042  1.00  0.00    -0.206 F 
ATOM     97  C   UNL A   1      51.799  25.962  25.383  1.00  0.00     0.060 A 
BRANCH  97  98
ATOM     98  S   UNL A   1      53.442  25.433  24.855  1.00  0.00     0.124 S 
ATOM     99  O   UNL A   1      53.373  25.656  23.415  1.00  0.00    -0.237 OA
ATOM    100  O   UNL A   1      54.318  26.338  25.595  1.00  0.00    -0.237 OA
ATOM    101  O   UNL A   1      53.499  24.036  25.273  1.00  0.00    -0.744 OA
ENDBRANCH  97  98
ENDBRANCH  65  90
ENDBRANCH  39  40
ENDBRANCH  32  34
ENDBRANCH  31  32
ENDBRANCH  30  31
ENDBRANCH  29  30
ENDBRANCH  28  29
ENDBRANCH   1  28
TORSDOF 21
ENDMDL
MODEL 3
REMARK VINA RESULT:     -10.8      2.431      3.700
REMARK SMILES Cc1ccc(Cl)c(Nc2ccccc2C(=O)NCC(=O)OCCOCCOC(=O)c2ccc(-c3c4nc(c(-c5c(F)cc(S(=O)(=O)[O-])cc5F)c5ccc([nH]5)c(-c5c(F)cc(S(=O)(=O)[O-])cc5F)c5nc(c(-c6c(F)cc(S(=O)(=O)[O-])cc6F)c6ccc3[nH]6)C=C5)C=C4)cc2)c1Cl
REMARK SMILES IDX 23 1 22 2 21 3 19 4 20 5 18 6 17 7 15 8 16 9 14 11 9 12
REMARK SMILES IDX 10 13 11 14 13 15 12 16 8 17 7 19 1 20 2 21 3 22 96 23 4 24
REMARK SMILES IDX 97 25 5 26 6 27 24 28 25 29 26 30 27 31 28 32 29 33 30 34
REMARK SMILES IDX 31 35 95 36 32 37 94 38 33 39 34 40 35 41 88 42 36 43 93 44
REMARK SMILES IDX 87 45 89 46 37 47 92 48 86 49 85 50 38 52 72 53 51 54 71 55
REMARK SMILES IDX 52 56 55 57 70 58 90 59 53 60 54 61 69 63 91 64 56 65 39 66
REMARK SMILES IDX 40 67 49 68 41 69 42 70 48 71 50 72 43 73 44 74 45 75 46 76
REMARK SMILES IDX 47 77 73 78 74 79 83 80 75 81 76 82 82 83 84 84 77 85 78 86
REMARK SMILES IDX 79 87 80 88 81 89 57 90 58 91 67 92 59 93 60 94 66 95 68 96
REMARK SMILES IDX 61 97 62 98 63 99 64 100 65 101
REMARK H PARENT 17 10 8 18 89 51 55 62
REMARK Flexibility Score: inf
ROOT
ATOM      1  C   UNL A   1      37.446  22.415  25.912  1.00  0.00     0.202 C 
ENDROOT
BRANCH   1   2
ATOM      2  C   UNL A   1      37.005  23.644  25.098  1.00  0.00     0.261 C 
BRANCH   2   3
ATOM      3  O   UNL A   1      35.580  23.678  24.938  1.00  0.00    -0.462 OA
BRANCH   3   4
ATOM      4  C   UNL A   1      35.121  23.565  23.660  1.00  0.00     0.325 C 
ATOM      5  O   UNL A   1      35.795  23.236  22.693  1.00  0.00    -0.250 OA
BRANCH   4   6
ATOM      6  C   UNL A   1      33.606  23.672  23.642  1.00  0.00     0.239 C 
BRANCH   6   7
ATOM      7  N   UNL A   1      32.952  24.705  22.889  1.00  0.00    -0.341 N 
ATOM      8  C   UNL A   1      33.337  26.021  22.996  1.00  0.00     0.253 C 
ATOM      9  O   UNL A   1      33.745  26.602  21.993  1.00  0.00    -0.269 OA
ATOM     10  H   UNL A   1      32.214  24.467  22.283  1.00  0.00     0.164 HD
BRANCH   8  11
ATOM     11  C   UNL A   1      32.911  26.791  24.194  1.00  0.00     0.063 A 
ATOM     12  C   UNL A   1      31.663  27.387  24.464  1.00  0.00     0.051 A 
ATOM     13  C   UNL A   1      31.586  28.207  25.615  1.00  0.00     0.027 A 
ATOM     14  C   UNL A   1      32.661  28.384  26.489  1.00  0.00     0.002 A 
ATOM     15  C   UNL A   1      33.985  26.954  25.101  1.00  0.00     0.016 A 
ATOM     16  C   UNL A   1      33.860  27.736  26.243  1.00  0.00     0.001 A 
BRANCH  12  17
ATOM     17  N   UNL A   1      30.432  27.209  23.795  1.00  0.00    -0.352 N 
ATOM     18  H   UNL A   1      30.207  26.257  23.683  1.00  0.00     0.167 HD
BRANCH  17  19
ATOM     19  C   UNL A   1      29.442  28.059  23.244  1.00  0.00     0.077 A 
ATOM     20  C   UNL A   1      28.951  31.549  21.718  1.00  0.00     0.046 C 
ATOM     21  C   UNL A   1      28.674  30.216  22.359  1.00  0.00    -0.030 A 
ATOM     22  C   UNL A   1      27.368  29.930  22.783  1.00  0.00     0.006 A 
ATOM     23  C   UNL A   1      29.697  29.260  22.553  1.00  0.00     0.069 A 
ATOM     24  C   UNL A   1      27.066  28.689  23.330  1.00  0.00     0.023 A 
ATOM     25  Cl  UNL A   1      31.235  29.526  21.789  1.00  0.00    -0.082 Cl
ATOM     26  C   UNL A   1      28.085  27.761  23.536  1.00  0.00     0.066 A 
ATOM     27  Cl  UNL A   1      27.635  26.221  24.192  1.00  0.00    -0.082 Cl
ENDBRANCH  17  19
ENDBRANCH  12  17
ENDBRANCH   8  11
ENDBRANCH   6   7
ENDBRANCH   4   6
ENDBRANCH   3   4
ENDBRANCH   2   3
ENDBRANCH   1   2
BRANCH   1  28
ATOM     28  O   UNL A   1      38.743  21.876  25.662  1.00  0.00    -0.374 OA
BRANCH  28  29
ATOM     29  C   UNL A   1      39.756  22.043  26.651  1.00  0.00     0.202 C 
BRANCH  29  30
ATOM     30  C   UNL A   1      40.746  23.215  26.508  1.00  0.00     0.261 C 
BRANCH  30  31
ATOM     31  O   UNL A   1      40.106  24.493  26.324  1.00  0.00    -0.460 OA
BRANCH  31  32
ATOM     32  C   UNL A   1      40.950  25.550  26.247  1.00  0.00     0.338 C 
ATOM     33  O   UNL A   1      41.451  26.015  25.231  1.00  0.00    -0.246 OA
BRANCH  32  34
ATOM     34  C   UNL A   1      41.063  26.230  27.550  1.00  0.00     0.060 A 
ATOM     35  C   UNL A   1      40.036  26.023  28.478  1.00  0.00     0.016 A 
ATOM     36  C   UNL A   1      42.066  27.169  27.801  1.00  0.00     0.016 A 
ATOM     37  C   UNL A   1      39.986  26.777  29.647  1.00  0.00     0.010 A 
ATOM     38  C   UNL A   1      42.003  27.941  28.969  1.00  0.00     0.010 A 
ATOM     39  C   UNL A   1      40.941  27.775  29.877  1.00  0.00    -0.014 A 
BRANCH  39  40
ATOM     40  C   UNL A   1      40.698  28.739  30.979  1.00  0.00     0.031 A 
ATOM     41  C   UNL A   1      41.564  28.674  32.208  1.00  0.00     0.074 A 
ATOM     42  C   UNL A   1      39.786  29.717  30.846  1.00  0.00     0.049 A 
ATOM     43  N   UNL A   1      41.586  29.463  33.251  1.00  0.00    -0.248 NA
ATOM     44  C   UNL A   1      42.544  27.577  32.262  1.00  0.00     0.031 C 
ATOM     45  C   UNL A   1      38.914  29.904  29.688  1.00  0.00     0.029 A 
ATOM     46  N   UNL A   1      39.450  30.744  31.692  1.00  0.00    -0.354 N 
ATOM     47  C   UNL A   1      42.584  28.966  34.081  1.00  0.00     0.074 A 
ATOM     48  C   UNL A   1      43.118  27.785  33.437  1.00  0.00     0.031 C 
ATOM     49  C   UNL A   1      38.135  30.980  29.900  1.00  0.00     0.029 A 
ATOM     50  C   UNL A   1      38.444  31.546  31.212  1.00  0.00     0.049 A 
ATOM     51  H   UNL A   1      39.889  30.891  32.561  1.00  0.00     0.167 HD
ATOM     52  C   UNL A   1      43.025  29.455  35.266  1.00  0.00     0.037 A 
ATOM     53  C   UNL A   1      37.836  32.610  31.771  1.00  0.00     0.037 A 
ATOM     54  C   UNL A   1      42.478  30.618  35.914  1.00  0.00     0.049 A 
ATOM     55  C   UNL A   1      38.306  33.110  33.112  1.00  0.00     0.074 A 
ATOM     56  C   UNL A   1      42.845  31.189  37.120  1.00  0.00     0.029 A 
ATOM     57  N   UNL A   1      41.437  31.386  35.412  1.00  0.00    -0.354 N 
ATOM     58  N   UNL A   1      39.262  32.639  33.878  1.00  0.00    -0.248 NA
ATOM     59  C   UNL A   1      37.628  34.293  33.655  1.00  0.00     0.031 C 
ATOM     60  C   UNL A   1      42.000  32.278  37.366  1.00  0.00     0.029 A 
ATOM     61  C   UNL A   1      41.137  32.415  36.291  1.00  0.00     0.049 A 
ATOM     62  H   UNL A   1      40.977  31.223  34.556  1.00  0.00     0.167 HD
ATOM     63  C   UNL A   1      39.309  33.477  34.988  1.00  0.00     0.074 A 
ATOM     64  C   UNL A   1      38.298  34.495  34.781  1.00  0.00     0.031 C 
ATOM     65  C   UNL A   1      40.117  33.413  36.077  1.00  0.00     0.037 A 
BRANCH  52  66
ATOM     66  C   UNL A   1      44.139  28.704  35.943  1.00  0.00     0.058 A 
ATOM     67  C   UNL A   1      45.488  29.012  35.704  1.00  0.00     0.135 A 
ATOM     68  C   UNL A   1      43.856  27.654  36.831  1.00  0.00     0.135 A 
ATOM     69  F   UNL A   1      45.816  29.995  34.849  1.00  0.00    -0.206 F 
ATOM     70  C   UNL A   1      46.518  28.280  36.289  1.00  0.00     0.059 A 
ATOM     71  C   UNL A   1      44.870  26.925  37.447  1.00  0.00     0.059 A 
ATOM     72  F   UNL A   1      42.585  27.316  37.095  1.00  0.00    -0.206 F 
ATOM     73  C   UNL A   1      46.197  27.231  37.153  1.00  0.00     0.060 A 
BRANCH  73  74
ATOM     74  S   UNL A   1      47.539  26.268  37.881  1.00  0.00     0.124 S 
ATOM     75  O   UNL A   1      47.277  26.439  39.308  1.00  0.00    -0.237 OA
ATOM     76  O   UNL A   1      47.292  24.932  37.349  1.00  0.00    -0.237 OA
ATOM     77  O   UNL A   1      48.741  26.927  37.380  1.00  0.00    -0.744 OA
ENDBRANCH  73  74
ENDBRANCH  52  66
BRANCH  53  78
ATOM     78  C   UNL A   1      36.713  33.270  31.057  1.00  0.00     0.058 A 
ATOM     79  C   UNL A   1      35.377  33.031  31.411  1.00  0.00     0.135 A 
ATOM     80  C   UNL A   1      36.962  34.185  30.021  1.00  0.00     0.135 A 
ATOM     81  F   UNL A   1      35.089  32.156  32.386  1.00  0.00    -0.206 F 
ATOM     82  C   UNL A   1      34.327  33.676  30.765  1.00  0.00     0.059 A 
ATOM     83  C   UNL A   1      35.930  34.860  29.377  1.00  0.00     0.059 A 
ATOM     84  F   UNL A   1      38.223  34.456  29.652  1.00  0.00    -0.206 F 
ATOM     85  C   UNL A   1      34.614  34.596  29.754  1.00  0.00     0.060 A 
BRANCH  85  86
ATOM     86  S   UNL A   1      33.250  35.492  28.980  1.00  0.00     0.124 S 
ATOM     87  O   UNL A   1      32.594  36.087  30.139  1.00  0.00    -0.237 OA
ATOM     88  O   UNL A   1      33.953  36.419  28.099  1.00  0.00    -0.237 OA
ATOM     89  O   UNL A   1      32.502  34.440  28.300  1.00  0.00    -0.744 OA
ENDBRANCH  85  86
ENDBRANCH  53  78
BRANCH  65  90
ATOM     90  C   UNL A   1      39.948  34.486  37.119  1.00  0.00     0.058 A 
ATOM     91  C   UNL A   1      38.958  34.402  38.110  1.00  0.00     0.135 A 
ATOM     92  C   UNL A   1      40.799  35.602  37.136  1.00  0.00     0.135 A 
ATOM     93  F   UNL A   1      38.116  33.356  38.137  1.00  0.00    -0.206 F 
ATOM     94  C   UNL A   1      38.790  35.408  39.056  1.00  0.00     0.059 A 
ATOM     95  C   UNL A   1      40.666  36.608  38.089  1.00  0.00     0.059 A 
ATOM     96  F   UNL A   1      41.773  35.725  36.220  1.00  0.00    -0.206 F 
ATOM     97  C   UNL A   1      39.645  36.511  39.033  1.00  0.00     0.060 A 
BRANCH  97  98
ATOM     98  S   UNL A   1      39.416  37.815  40.261  1.00  0.00     0.124 S 
ATOM     99  O   UNL A   1      39.421  37.051  41.504  1.00  0.00    -0.237 OA
ATOM    100  O   UNL A   1      40.580  38.668  40.037  1.00  0.00    -0.237 OA
ATOM    101  O   UNL A   1      38.134  38.406  39.891  1.00  0.00    -0.744 OA
ENDBRANCH  97  98
ENDBRANCH  65  90
ENDBRANCH  39  40
ENDBRANCH  32  34
ENDBRANCH  31  32
ENDBRANCH  30  31
ENDBRANCH  29  30
ENDBRANCH  28  29
ENDBRANCH   1  28
TORSDOF 21
ENDMDL
