MODEL 1
REMARK VINA RESULT:     -10.4      0.000      0.000
REMARK SMILES CO[C@@H]1C[NH2+][C@@H](O[C@@H]2C[C@@H](C(=O)OCCOCCOC(=O)c3ccc(-c4c5nc(c(-c6c(F)cc(S(=O)(=O)[O-])cc6F)c6ccc([nH]6)c(-c6c(F)cc(S(=O)(=O)[O-])cc6F)c6nc(c(-c7c(F)cc(S(=O)(=O)[O-])cc7F)c7ccc4[nH]7)C=C6)C=C5)cc3)N(C(=O)OC(C)(C)C)C2)c2cc(Cl)ccc21
REMARK SMILES IDX 16 1 15 2 14 3 13 4 11 5 12 6 10 7 8 8 9 9 96 10 88 11 7 12
REMARK SMILES IDX 6 13 3 14 4 15 103 16 5 17 97 18 102 19 98 22 101 23 99 24
REMARK SMILES IDX 100 25 2 26 1 27 89 28 90 29 91 30 92 31 93 32 94 33 95 34
REMARK SMILES IDX 17 35 18 36 19 37 20 38 21 39 22 40 23 41 87 42 24 43 86 44
REMARK SMILES IDX 25 45 26 46 27 47 80 48 28 49 85 50 79 51 81 52 29 53 84 54
REMARK SMILES IDX 78 55 77 56 30 58 64 59 43 60 63 61 44 62 47 63 62 64 82 65
REMARK SMILES IDX 45 66 46 67 61 69 83 70 48 71 31 72 32 73 41 74 33 75 34 76
REMARK SMILES IDX 40 77 42 78 35 79 36 80 37 81 38 82 39 83 65 84 66 85 75 86
REMARK SMILES IDX 67 87 68 88 74 89 76 90 69 91 70 92 71 93 72 94 73 95 49 96
REMARK SMILES IDX 50 97 59 98 51 99 52 100 58 101 60 102 53 103 54 104 55 105
REMARK SMILES IDX 56 106 57 107
REMARK H PARENT 5 20 5 21 81 57 47 68
REMARK Flexibility Score: inf
ROOT
ATOM      1  O   UNL A   1      37.024  22.246  25.494  1.00  0.00    -0.374 OA
ENDROOT
BRANCH   1   2
ATOM      2  C   UNL A   1      35.964  22.241  26.436  1.00  0.00     0.202 C 
BRANCH   2   3
ATOM      3  C   UNL A   1      34.915  23.313  26.238  1.00  0.00     0.261 C 
BRANCH   3   4
ATOM      4  O   UNL A   1      35.393  24.491  25.610  1.00  0.00    -0.462 OA
BRANCH   4   5
ATOM      5  C   UNL A   1      34.429  25.433  25.390  1.00  0.00     0.329 C 
ATOM      6  O   UNL A   1      34.143  26.363  26.129  1.00  0.00    -0.250 OA
BRANCH   5   7
ATOM      7  C   UNL A   1      33.678  24.999  24.156  1.00  0.00     0.201 C 
ATOM      8  C   UNL A   1      33.661  23.957  22.027  1.00  0.00     0.147 C 
ATOM      9  C   UNL A   1      34.350  23.876  23.386  1.00  0.00     0.071 C 
ATOM     10  C   UNL A   1      33.399  25.461  21.837  1.00  0.00     0.156 C 
ATOM     11  N   UNL A   1      33.399  26.031  23.176  1.00  0.00    -0.292 N 
BRANCH   8  12
ATOM     12  O   UNL A   1      32.584  23.063  21.774  1.00  0.00    -0.320 OA
BRANCH  12  13
ATOM     13  C   UNL A   1      31.637  22.494  22.676  1.00  0.00     0.354 C 
ATOM     14  C   UNL A   1      31.483  22.815  25.635  1.00  0.00     0.203 C 
ATOM     15  C   UNL A   1      30.945  23.865  24.615  1.00  0.00     0.300 C 
ATOM     16  C   UNL A   1      32.001  21.524  25.007  1.00  0.00    -0.002 A 
ATOM     17  N   UNL A   1      30.697  23.430  23.246  1.00  0.00    -0.315 N 
ATOM     18  C   UNL A   1      32.079  21.382  23.605  1.00  0.00     0.046 A 
ATOM     19  C   UNL A   1      32.486  20.493  25.828  1.00  0.00     0.009 A 
ATOM     20  H   UNL A   1      30.694  24.261  22.655  1.00  0.00     0.349 HD
ATOM     21  H   UNL A   1      29.811  22.927  23.284  1.00  0.00     0.349 HD
ATOM     22  C   UNL A   1      32.539  20.167  23.062  1.00  0.00     0.033 A 
ATOM     23  C   UNL A   1      32.961  19.303  25.277  1.00  0.00     0.021 A 
ATOM     24  C   UNL A   1      32.967  19.136  23.897  1.00  0.00     0.041 A 
ATOM     25  Cl  UNL A   1      33.518  17.654  23.218  1.00  0.00    -0.084 Cl
BRANCH  14  26
ATOM     26  O   UNL A   1      30.620  22.621  26.759  1.00  0.00    -0.371 OA
ATOM     27  C   UNL A   1      29.706  23.674  27.011  1.00  0.00     0.196 C 
ENDBRANCH  14  26
ENDBRANCH  12  13
ENDBRANCH   8  12
BRANCH  11  28
ATOM     28  C   UNL A   1      32.859  27.277  23.416  1.00  0.00     0.411 C 
ATOM     29  O   UNL A   1      33.438  28.301  23.058  1.00  0.00    -0.224 OA
BRANCH  28  30
ATOM     30  O   UNL A   1      31.649  27.260  24.060  1.00  0.00    -0.444 OA
BRANCH  30  31
ATOM     31  C   UNL A   1      30.505  27.954  23.461  1.00  0.00     0.106 C 
ATOM     32  C   UNL A   1      30.350  29.340  24.099  1.00  0.00     0.056 C 
ATOM     33  C   UNL A   1      30.603  27.990  21.932  1.00  0.00     0.056 C 
ATOM     34  C   UNL A   1      29.209  27.176  23.777  1.00  0.00     0.056 C 
ENDBRANCH  30  31
ENDBRANCH  28  30
ENDBRANCH  11  28
ENDBRANCH   5   7
ENDBRANCH   4   5
ENDBRANCH   3   4
ENDBRANCH   2   3
ENDBRANCH   1   2
BRANCH   1  35
ATOM     35  C   UNL A   1      38.083  23.170  25.743  1.00  0.00     0.202 C 
BRANCH  35  36
ATOM     36  C   UNL A   1      39.386  22.558  26.272  1.00  0.00     0.261 C 
BRANCH  36  37
ATOM     37  O   UNL A   1      39.923  23.255  27.417  1.00  0.00    -0.460 OA
BRANCH  37  38
ATOM     38  C   UNL A   1      40.781  24.271  27.139  1.00  0.00     0.338 C 
ATOM     39  O   UNL A   1      41.592  24.312  26.228  1.00  0.00    -0.246 OA
BRANCH  38  40
ATOM     40  C   UNL A   1      40.486  25.439  27.999  1.00  0.00     0.060 A 
ATOM     41  C   UNL A   1      39.366  25.459  28.831  1.00  0.00     0.016 A 
ATOM     42  C   UNL A   1      41.406  26.496  28.033  1.00  0.00     0.016 A 
ATOM     43  C   UNL A   1      39.192  26.521  29.727  1.00  0.00     0.010 A 
ATOM     44  C   UNL A   1      41.235  27.550  28.936  1.00  0.00     0.010 A 
ATOM     45  C   UNL A   1      40.142  27.557  29.814  1.00  0.00    -0.014 A 
BRANCH  45  46
ATOM     46  C   UNL A   1      40.070  28.545  30.927  1.00  0.00     0.031 A 
ATOM     47  C   UNL A   1      40.949  28.447  32.140  1.00  0.00     0.074 A 
ATOM     48  C   UNL A   1      39.170  29.547  30.838  1.00  0.00     0.049 A 
ATOM     49  N   UNL A   1      41.052  29.279  33.146  1.00  0.00    -0.248 NA
ATOM     50  C   UNL A   1      41.820  27.268  32.243  1.00  0.00     0.031 C 
ATOM     51  C   UNL A   1      38.222  29.727  29.737  1.00  0.00     0.029 A 
ATOM     52  N   UNL A   1      38.909  30.605  31.676  1.00  0.00    -0.354 N 
ATOM     53  C   UNL A   1      42.016  28.743  33.990  1.00  0.00     0.074 A 
ATOM     54  C   UNL A   1      42.428  27.484  33.403  1.00  0.00     0.031 C 
ATOM     55  C   UNL A   1      37.512  30.847  29.946  1.00  0.00     0.029 A 
ATOM     56  C   UNL A   1      37.927  31.447  31.211  1.00  0.00     0.049 A 
ATOM     57  H   UNL A   1      39.380  30.744  32.529  1.00  0.00     0.167 HD
ATOM     58  C   UNL A   1      42.527  29.266  35.133  1.00  0.00     0.037 A 
ATOM     59  C   UNL A   1      37.416  32.580  31.735  1.00  0.00     0.037 A 
ATOM     60  C   UNL A   1      42.097  30.509  35.728  1.00  0.00     0.049 A 
ATOM     61  C   UNL A   1      37.961  33.108  33.034  1.00  0.00     0.074 A 
ATOM     62  C   UNL A   1      42.586  31.129  36.867  1.00  0.00     0.029 A 
ATOM     63  N   UNL A   1      41.072  31.313  35.252  1.00  0.00    -0.354 N 
ATOM     64  N   UNL A   1      38.933  32.631  33.774  1.00  0.00    -0.248 NA
ATOM     65  C   UNL A   1      37.341  34.329  33.569  1.00  0.00     0.031 C 
ATOM     66  C   UNL A   1      41.821  32.273  37.111  1.00  0.00     0.029 A 
ATOM     67  C   UNL A   1      40.891  32.402  36.092  1.00  0.00     0.049 A 
ATOM     68  H   UNL A   1      40.548  31.136  34.438  1.00  0.00     0.167 HD
ATOM     69  C   UNL A   1      39.055  33.504  34.850  1.00  0.00     0.074 A 
ATOM     70  C   UNL A   1      38.071  34.548  34.655  1.00  0.00     0.031 C 
ATOM     71  C   UNL A   1      39.906  33.440  35.903  1.00  0.00     0.037 A 
BRANCH  58  72
ATOM     72  C   UNL A   1      43.628  28.505  35.822  1.00  0.00     0.058 A 
ATOM     73  C   UNL A   1      44.979  28.817  35.598  1.00  0.00     0.135 A 
ATOM     74  C   UNL A   1      43.335  27.518  36.778  1.00  0.00     0.135 A 
ATOM     75  F   UNL A   1      45.318  29.746  34.691  1.00  0.00    -0.206 F 
ATOM     76  C   UNL A   1      45.999  28.164  36.283  1.00  0.00     0.059 A 
ATOM     77  C   UNL A   1      44.340  26.871  37.494  1.00  0.00     0.059 A 
ATOM     78  F   UNL A   1      42.061  27.184  37.037  1.00  0.00    -0.206 F 
ATOM     79  C   UNL A   1      45.670  27.196  37.232  1.00  0.00     0.060 A 
BRANCH  79  80
ATOM     80  S   UNL A   1      47.011  26.372  38.116  1.00  0.00     0.124 S 
ATOM     81  O   UNL A   1      47.892  27.497  38.422  1.00  0.00    -0.237 OA
ATOM     82  O   UNL A   1      46.315  25.786  39.256  1.00  0.00    -0.237 OA
ATOM     83  O   UNL A   1      47.530  25.419  37.140  1.00  0.00    -0.744 OA
ENDBRANCH  79  80
ENDBRANCH  58  72
BRANCH  59  84
ATOM     84  C   UNL A   1      36.343  33.310  31.008  1.00  0.00     0.058 A 
ATOM     85  C   UNL A   1      35.031  33.346  31.505  1.00  0.00     0.135 A 
ATOM     86  C   UNL A   1      36.609  34.004  29.817  1.00  0.00     0.135 A 
ATOM     87  F   UNL A   1      34.724  32.689  32.635  1.00  0.00    -0.206 F 
ATOM     88  C   UNL A   1      34.020  34.036  30.845  1.00  0.00     0.059 A 
ATOM     89  C   UNL A   1      35.621  34.725  29.154  1.00  0.00     0.059 A 
ATOM     90  F   UNL A   1      37.850  34.011  29.307  1.00  0.00    -0.206 F 
ATOM     91  C   UNL A   1      34.328  34.728  29.673  1.00  0.00     0.060 A 
BRANCH  91  92
ATOM     92  S   UNL A   1      33.017  35.666  28.857  1.00  0.00     0.124 S 
ATOM     93  O   UNL A   1      32.234  36.130  29.996  1.00  0.00    -0.237 OA
ATOM     94  O   UNL A   1      33.777  36.688  28.143  1.00  0.00    -0.237 OA
ATOM     95  O   UNL A   1      32.369  34.670  28.009  1.00  0.00    -0.744 OA
ENDBRANCH  91  92
ENDBRANCH  59  84
BRANCH  71  96
ATOM     96  C   UNL A   1      39.826  34.535  36.937  1.00  0.00     0.058 A 
ATOM     97  C   UNL A   1      38.987  34.429  38.058  1.00  0.00     0.135 A 
ATOM     98  C   UNL A   1      40.645  35.673  36.841  1.00  0.00     0.135 A 
ATOM     99  F   UNL A   1      38.176  33.368  38.197  1.00  0.00    -0.206 F 
ATOM    100  C   UNL A   1      38.949  35.418  39.036  1.00  0.00     0.059 A 
ATOM    101  C   UNL A   1      40.646  36.660  37.824  1.00  0.00     0.059 A 
ATOM    102  F   UNL A   1      41.474  35.824  35.795  1.00  0.00    -0.206 F 
ATOM    103  C   UNL A   1      39.787  36.527  38.913  1.00  0.00     0.060 A 
BRANCH 103 104
ATOM    104  S   UNL A   1      39.757  37.779  40.215  1.00  0.00     0.124 S 
ATOM    105  O   UNL A   1      38.736  38.697  39.717  1.00  0.00    -0.237 OA
ATOM    106  O   UNL A   1      39.386  36.996  41.389  1.00  0.00    -0.237 OA
ATOM    107  O   UNL A   1      41.119  38.302  40.221  1.00  0.00    -0.744 OA
ENDBRANCH 103 104
ENDBRANCH  71  96
ENDBRANCH  45  46
ENDBRANCH  38  40
ENDBRANCH  37  38
ENDBRANCH  36  37
ENDBRANCH  35  36
ENDBRANCH   1  35
TORSDOF 23
ENDMDL
MODEL 2
REMARK VINA RESULT:     -10.1      4.970      6.739
REMARK SMILES CO[C@@H]1C[NH2+][C@@H](O[C@@H]2C[C@@H](C(=O)OCCOCCOC(=O)c3ccc(-c4c5nc(c(-c6c(F)cc(S(=O)(=O)[O-])cc6F)c6ccc([nH]6)c(-c6c(F)cc(S(=O)(=O)[O-])cc6F)c6nc(c(-c7c(F)cc(S(=O)(=O)[O-])cc7F)c7ccc4[nH]7)C=C6)C=C5)cc3)N(C(=O)OC(C)(C)C)C2)c2cc(Cl)ccc21
REMARK SMILES IDX 16 1 15 2 14 3 13 4 11 5 12 6 10 7 8 8 9 9 96 10 88 11 7 12
REMARK SMILES IDX 6 13 3 14 4 15 103 16 5 17 97 18 102 19 98 22 101 23 99 24
REMARK SMILES IDX 100 25 2 26 1 27 89 28 90 29 91 30 92 31 93 32 94 33 95 34
REMARK SMILES IDX 17 35 18 36 19 37 20 38 21 39 22 40 23 41 87 42 24 43 86 44
REMARK SMILES IDX 25 45 26 46 27 47 80 48 28 49 85 50 79 51 81 52 29 53 84 54
REMARK SMILES IDX 78 55 77 56 30 58 64 59 43 60 63 61 44 62 47 63 62 64 82 65
REMARK SMILES IDX 45 66 46 67 61 69 83 70 48 71 31 72 32 73 41 74 33 75 34 76
REMARK SMILES IDX 40 77 42 78 35 79 36 80 37 81 38 82 39 83 65 84 66 85 75 86
REMARK SMILES IDX 67 87 68 88 74 89 76 90 69 91 70 92 71 93 72 94 73 95 49 96
REMARK SMILES IDX 50 97 59 98 51 99 52 100 58 101 60 102 53 103 54 104 55 105
REMARK SMILES IDX 56 106 57 107
REMARK H PARENT 5 20 5 21 81 57 47 68
REMARK Flexibility Score: inf
ROOT
ATOM      1  O   UNL A   1      35.197  21.761  26.896  1.00  0.00    -0.374 OA
ENDROOT
BRANCH   1   2
ATOM      2  C   UNL A   1      34.382  22.756  27.493  1.00  0.00     0.202 C 
BRANCH   2   3
ATOM      3  C   UNL A   1      32.925  22.383  27.668  1.00  0.00     0.261 C 
BRANCH   3   4
ATOM      4  O   UNL A   1      32.013  23.300  27.086  1.00  0.00    -0.462 OA
BRANCH   4   5
ATOM      5  C   UNL A   1      31.265  22.772  26.073  1.00  0.00     0.329 C 
ATOM      6  O   UNL A   1      30.335  21.989  26.190  1.00  0.00    -0.250 OA
BRANCH   5   7
ATOM      7  C   UNL A   1      31.924  23.202  24.785  1.00  0.00     0.201 C 
ATOM      8  C   UNL A   1      31.754  24.072  22.586  1.00  0.00     0.147 C 
ATOM      9  C   UNL A   1      31.094  24.169  23.959  1.00  0.00     0.071 C 
ATOM     10  C   UNL A   1      32.202  22.603  22.498  1.00  0.00     0.156 C 
ATOM     11  N   UNL A   1      32.309  22.142  23.874  1.00  0.00    -0.292 N 
BRANCH   8  12
ATOM     12  O   UNL A   1      32.699  25.074  22.233  1.00  0.00    -0.320 OA
BRANCH  12  13
ATOM     13  C   UNL A   1      33.188  26.178  22.990  1.00  0.00     0.354 C 
ATOM     14  C   UNL A   1      32.728  26.788  25.872  1.00  0.00     0.203 C 
ATOM     15  C   UNL A   1      33.783  25.762  25.356  1.00  0.00     0.300 C 
ATOM     16  C   UNL A   1      32.008  27.568  24.775  1.00  0.00    -0.002 A 
ATOM     17  N   UNL A   1      34.204  25.850  23.963  1.00  0.00    -0.315 N 
ATOM     18  C   UNL A   1      32.224  27.268  23.413  1.00  0.00     0.046 A 
ATOM     19  C   UNL A   1      31.055  28.539  25.120  1.00  0.00     0.009 A 
ATOM     20  H   UNL A   1      34.599  24.946  23.703  1.00  0.00     0.349 HD
ATOM     21  H   UNL A   1      34.862  26.629  23.933  1.00  0.00     0.349 HD
ATOM     22  C   UNL A   1      31.561  28.026  22.429  1.00  0.00     0.033 A 
ATOM     23  C   UNL A   1      30.387  29.267  24.134  1.00  0.00     0.021 A 
ATOM     24  C   UNL A   1      30.657  29.021  22.794  1.00  0.00     0.041 A 
ATOM     25  Cl  UNL A   1      29.861  29.944  21.578  1.00  0.00    -0.084 Cl
BRANCH  14  26
ATOM     26  O   UNL A   1      33.200  27.591  26.956  1.00  0.00    -0.371 OA
ATOM     27  C   UNL A   1      34.146  28.587  26.607  1.00  0.00     0.196 C 
ENDBRANCH  14  26
ENDBRANCH  12  13
ENDBRANCH   8  12
BRANCH  11  28
ATOM     28  C   UNL A   1      33.011  20.997  24.185  1.00  0.00     0.411 C 
ATOM     29  O   UNL A   1      34.239  20.999  24.243  1.00  0.00    -0.224 OA
BRANCH  28  30
ATOM     30  O   UNL A   1      32.229  19.897  24.427  1.00  0.00    -0.444 OA
BRANCH  30  31
ATOM     31  C   UNL A   1      32.738  18.564  24.088  1.00  0.00     0.106 C 
ATOM     32  C   UNL A   1      32.366  18.221  22.640  1.00  0.00     0.056 C 
ATOM     33  C   UNL A   1      34.238  18.439  24.382  1.00  0.00     0.056 C 
ATOM     34  C   UNL A   1      32.050  17.509  24.982  1.00  0.00     0.056 C 
ENDBRANCH  30  31
ENDBRANCH  28  30
ENDBRANCH  11  28
ENDBRANCH   5   7
ENDBRANCH   4   5
ENDBRANCH   3   4
ENDBRANCH   2   3
ENDBRANCH   1   2
BRANCH   1  35
ATOM     35  C   UNL A   1      36.213  22.229  26.009  1.00  0.00     0.202 C 
BRANCH  35  36
ATOM     36  C   UNL A   1      36.636  23.691  26.196  1.00  0.00     0.261 C 
BRANCH  36  37
ATOM     37  O   UNL A   1      37.950  23.979  25.671  1.00  0.00    -0.460 OA
BRANCH  37  38
ATOM     38  C   UNL A   1      38.990  23.454  26.369  1.00  0.00     0.338 C 
ATOM     39  O   UNL A   1      39.273  22.271  26.479  1.00  0.00    -0.246 OA
BRANCH  38  40
ATOM     40  C   UNL A   1      39.874  24.535  26.859  1.00  0.00     0.060 A 
ATOM     41  C   UNL A   1      40.365  25.514  25.994  1.00  0.00     0.016 A 
ATOM     42  C   UNL A   1      40.140  24.613  28.233  1.00  0.00     0.016 A 
ATOM     43  C   UNL A   1      41.088  26.594  26.516  1.00  0.00     0.010 A 
ATOM     44  C   UNL A   1      40.853  25.698  28.752  1.00  0.00     0.010 A 
ATOM     45  C   UNL A   1      41.308  26.717  27.902  1.00  0.00    -0.014 A 
BRANCH  45  46
ATOM     46  C   UNL A   1      41.864  27.980  28.461  1.00  0.00     0.031 A 
ATOM     47  C   UNL A   1      43.339  28.257  28.494  1.00  0.00     0.074 A 
ATOM     48  C   UNL A   1      41.006  28.891  28.967  1.00  0.00     0.049 A 
ATOM     49  N   UNL A   1      43.959  29.345  28.877  1.00  0.00    -0.248 NA
ATOM     50  C   UNL A   1      44.233  27.179  28.048  1.00  0.00     0.031 C 
ATOM     51  C   UNL A   1      39.553  28.723  29.041  1.00  0.00     0.029 A 
ATOM     52  N   UNL A   1      41.222  30.137  29.503  1.00  0.00    -0.354 N 
ATOM     53  C   UNL A   1      45.314  29.099  28.693  1.00  0.00     0.074 A 
ATOM     54  C   UNL A   1      45.428  27.735  28.217  1.00  0.00     0.031 C 
ATOM     55  C   UNL A   1      39.007  29.837  29.553  1.00  0.00     0.029 A 
ATOM     56  C   UNL A   1      40.068  30.785  29.876  1.00  0.00     0.049 A 
ATOM     57  H   UNL A   1      42.120  30.528  29.611  1.00  0.00     0.167 HD
ATOM     58  C   UNL A   1      46.361  29.941  28.881  1.00  0.00     0.037 A 
ATOM     59  C   UNL A   1      39.878  32.007  30.414  1.00  0.00     0.037 A 
ATOM     60  C   UNL A   1      46.248  31.291  29.379  1.00  0.00     0.049 A 
ATOM     61  C   UNL A   1      41.063  32.900  30.666  1.00  0.00     0.074 A 
ATOM     62  C   UNL A   1      47.254  32.224  29.566  1.00  0.00     0.029 A 
ATOM     63  N   UNL A   1      45.068  31.898  29.787  1.00  0.00    -0.354 N 
ATOM     64  N   UNL A   1      42.329  32.681  30.405  1.00  0.00    -0.248 NA
ATOM     65  C   UNL A   1      40.793  34.206  31.283  1.00  0.00     0.031 C 
ATOM     66  C   UNL A   1      46.694  33.370  30.139  1.00  0.00     0.029 A 
ATOM     67  C   UNL A   1      45.328  33.177  30.256  1.00  0.00     0.049 A 
ATOM     68  H   UNL A   1      44.177  31.481  29.749  1.00  0.00     0.167 HD
ATOM     69  C   UNL A   1      43.004  33.829  30.807  1.00  0.00     0.074 A 
ATOM     70  C   UNL A   1      42.004  34.747  31.311  1.00  0.00     0.031 C 
ATOM     71  C   UNL A   1      44.333  34.092  30.763  1.00  0.00     0.037 A 
BRANCH  58  72
ATOM     72  C   UNL A   1      47.737  29.439  28.533  1.00  0.00     0.058 A 
ATOM     73  C   UNL A   1      48.523  28.755  29.474  1.00  0.00     0.135 A 
ATOM     74  C   UNL A   1      48.242  29.562  27.227  1.00  0.00     0.135 A 
ATOM     75  F   UNL A   1      48.095  28.614  30.739  1.00  0.00    -0.206 F 
ATOM     76  C   UNL A   1      49.767  28.229  29.139  1.00  0.00     0.059 A 
ATOM     77  C   UNL A   1      49.472  29.019  26.863  1.00  0.00     0.059 A 
ATOM     78  F   UNL A   1      47.529  30.200  26.285  1.00  0.00    -0.206 F 
ATOM     79  C   UNL A   1      50.230  28.362  27.830  1.00  0.00     0.060 A 
BRANCH  79  80
ATOM     80  S   UNL A   1      51.841  27.659  27.417  1.00  0.00     0.124 S 
ATOM     81  O   UNL A   1      52.735  28.767  27.746  1.00  0.00    -0.237 OA
ATOM     82  O   UNL A   1      51.912  26.504  28.304  1.00  0.00    -0.237 OA
ATOM     83  O   UNL A   1      51.726  27.351  25.995  1.00  0.00    -0.744 OA
ENDBRANCH  79  80
ENDBRANCH  58  72
BRANCH  59  84
ATOM     84  C   UNL A   1      38.498  32.470  30.723  1.00  0.00     0.058 A 
ATOM     85  C   UNL A   1      37.916  32.217  31.974  1.00  0.00     0.135 A 
ATOM     86  C   UNL A   1      37.743  33.192  29.785  1.00  0.00     0.135 A 
ATOM     87  F   UNL A   1      38.594  31.521  32.901  1.00  0.00    -0.206 F 
ATOM     88  C   UNL A   1      36.633  32.655  32.283  1.00  0.00     0.059 A 
ATOM     89  C   UNL A   1      36.469  33.666  30.080  1.00  0.00     0.059 A 
ATOM     90  F   UNL A   1      38.260  33.472  28.578  1.00  0.00    -0.206 F 
ATOM     91  C   UNL A   1      35.920  33.385  31.330  1.00  0.00     0.060 A 
BRANCH  91  92
ATOM     92  S   UNL A   1      34.277  33.996  31.766  1.00  0.00     0.124 S 
ATOM     93  O   UNL A   1      33.694  34.238  30.452  1.00  0.00    -0.237 OA
ATOM     94  O   UNL A   1      33.725  32.870  32.515  1.00  0.00    -0.237 OA
ATOM     95  O   UNL A   1      34.561  35.188  32.560  1.00  0.00    -0.744 OA
ENDBRANCH  91  92
ENDBRANCH  59  84
BRANCH  71  96
ATOM     96  C   UNL A   1      44.799  35.434  31.266  1.00  0.00     0.058 A 
ATOM     97  C   UNL A   1      45.177  35.629  32.605  1.00  0.00     0.135 A 
ATOM     98  C   UNL A   1      44.932  36.522  30.387  1.00  0.00     0.135 A 
ATOM     99  F   UNL A   1      45.063  34.627  33.492  1.00  0.00    -0.206 F 
ATOM    100  C   UNL A   1      45.652  36.856  33.057  1.00  0.00     0.059 A 
ATOM    101  C   UNL A   1      45.434  37.751  30.811  1.00  0.00     0.059 A 
ATOM    102  F   UNL A   1      44.594  36.393  29.094  1.00  0.00    -0.206 F 
ATOM    103  C   UNL A   1      45.784  37.910  32.151  1.00  0.00     0.060 A 
BRANCH 103 104
ATOM    104  S   UNL A   1      46.444  39.482  32.746  1.00  0.00     0.124 S 
ATOM    105  O   UNL A   1      46.256  39.354  34.188  1.00  0.00    -0.237 OA
ATOM    106  O   UNL A   1      47.826  39.434  32.280  1.00  0.00    -0.237 OA
ATOM    107  O   UNL A   1      45.601  40.478  32.092  1.00  0.00    -0.744 OA
ENDBRANCH 103 104
ENDBRANCH  71  96
ENDBRANCH  45  46
ENDBRANCH  38  40
ENDBRANCH  37  38
ENDBRANCH  36  37
ENDBRANCH  35  36
ENDBRANCH   1  35
TORSDOF 23
ENDMDL
MODEL 3
REMARK VINA RESULT:     -10.0      5.694      9.332
REMARK SMILES CO[C@@H]1C[NH2+][C@@H](O[C@@H]2C[C@@H](C(=O)OCCOCCOC(=O)c3ccc(-c4c5nc(c(-c6c(F)cc(S(=O)(=O)[O-])cc6F)c6ccc([nH]6)c(-c6c(F)cc(S(=O)(=O)[O-])cc6F)c6nc(c(-c7c(F)cc(S(=O)(=O)[O-])cc7F)c7ccc4[nH]7)C=C6)C=C5)cc3)N(C(=O)OC(C)(C)C)C2)c2cc(Cl)ccc21
REMARK SMILES IDX 16 1 15 2 14 3 13 4 11 5 12 6 10 7 8 8 9 9 96 10 88 11 7 12
REMARK SMILES IDX 6 13 3 14 4 15 103 16 5 17 97 18 102 19 98 22 101 23 99 24
REMARK SMILES IDX 100 25 2 26 1 27 89 28 90 29 91 30 92 31 93 32 94 33 95 34
REMARK SMILES IDX 17 35 18 36 19 37 20 38 21 39 22 40 23 41 87 42 24 43 86 44
REMARK SMILES IDX 25 45 26 46 27 47 80 48 28 49 85 50 79 51 81 52 29 53 84 54
REMARK SMILES IDX 78 55 77 56 30 58 64 59 43 60 63 61 44 62 47 63 62 64 82 65
REMARK SMILES IDX 45 66 46 67 61 69 83 70 48 71 31 72 32 73 41 74 33 75 34 76
REMARK SMILES IDX 40 77 42 78 35 79 36 80 37 81 38 82 39 83 65 84 66 85 75 86
REMARK SMILES IDX 67 87 68 88 74 89 76 90 69 91 70 92 71 93 72 94 73 95 49 96
REMARK SMILES IDX 50 97 59 98 51 99 52 100 58 101 60 102 53 103 54 104 55 105
REMARK SMILES IDX 56 106 57 107
REMARK H PARENT 5 20 5 21 81 57 47 68
REMARK Flexibility Score: inf
ROOT
ATOM      1  O   UNL A   1      45.353  23.013  26.445  1.00  0.00    -0.374 OA
ENDROOT
BRANCH   1   2
ATOM      2  C   UNL A   1      45.416  23.963  27.496  1.00  0.00     0.202 C 
BRANCH   2   3
ATOM      3  C   UNL A   1      46.400  25.094  27.291  1.00  0.00     0.261 C 
BRANCH   3   4
ATOM      4  O   UNL A   1      47.104  25.041  26.061  1.00  0.00    -0.462 OA
BRANCH   4   5
ATOM      5  C   UNL A   1      47.914  26.118  25.838  1.00  0.00     0.329 C 
ATOM      6  O   UNL A   1      49.065  26.088  25.431  1.00  0.00    -0.250 OA
BRANCH   5   7
ATOM      7  C   UNL A   1      47.174  27.326  26.359  1.00  0.00     0.201 C 
ATOM      8  C   UNL A   1      46.180  29.444  25.975  1.00  0.00     0.147 C 
ATOM      9  C   UNL A   1      46.430  28.104  25.288  1.00  0.00     0.071 C 
ATOM     10  C   UNL A   1      47.424  29.641  26.859  1.00  0.00     0.156 C 
ATOM     11  N   UNL A   1      47.967  28.308  27.073  1.00  0.00    -0.292 N 
BRANCH   8  12
ATOM     12  O   UNL A   1      44.906  29.657  26.571  1.00  0.00    -0.320 OA
BRANCH  12  13
ATOM     13  C   UNL A   1      44.278  30.870  26.977  1.00  0.00     0.354 C 
ATOM     14  C   UNL A   1      45.345  33.648  26.808  1.00  0.00     0.203 C 
ATOM     15  C   UNL A   1      44.703  32.886  25.608  1.00  0.00     0.300 C 
ATOM     16  C   UNL A   1      45.286  32.905  28.140  1.00  0.00    -0.002 A 
ATOM     17  N   UNL A   1      43.860  31.733  25.898  1.00  0.00    -0.315 N 
ATOM     18  C   UNL A   1      44.787  31.587  28.211  1.00  0.00     0.046 A 
ATOM     19  C   UNL A   1      45.809  33.503  29.298  1.00  0.00     0.009 A 
ATOM     20  H   UNL A   1      43.813  31.166  25.051  1.00  0.00     0.349 HD
ATOM     21  H   UNL A   1      42.969  32.125  26.201  1.00  0.00     0.349 HD
ATOM     22  C   UNL A   1      44.724  30.943  29.462  1.00  0.00     0.033 A 
ATOM     23  C   UNL A   1      45.761  32.845  30.526  1.00  0.00     0.021 A 
ATOM     24  C   UNL A   1      45.201  31.576  30.608  1.00  0.00     0.041 A 
ATOM     25  Cl  UNL A   1      45.109  30.779  32.130  1.00  0.00    -0.084 Cl
BRANCH  14  26
ATOM     26  O   UNL A   1      44.961  35.023  26.879  1.00  0.00    -0.371 OA
ATOM     27  C   UNL A   1      45.947  35.952  26.463  1.00  0.00     0.196 C 
ENDBRANCH  14  26
ENDBRANCH  12  13
ENDBRANCH   8  12
BRANCH  11  28
ATOM     28  C   UNL A   1      48.868  28.064  28.089  1.00  0.00     0.411 C 
ATOM     29  O   UNL A   1      49.988  28.571  28.080  1.00  0.00    -0.224 OA
BRANCH  28  30
ATOM     30  O   UNL A   1      48.401  27.240  29.079  1.00  0.00    -0.444 OA
BRANCH  30  31
ATOM     31  C   UNL A   1      47.667  27.818  30.210  1.00  0.00     0.106 C 
ATOM     32  C   UNL A   1      48.131  29.260  30.445  1.00  0.00     0.056 C 
ATOM     33  C   UNL A   1      46.151  27.683  30.027  1.00  0.00     0.056 C 
ATOM     34  C   UNL A   1      48.003  27.031  31.496  1.00  0.00     0.056 C 
ENDBRANCH  30  31
ENDBRANCH  28  30
ENDBRANCH  11  28
ENDBRANCH   5   7
ENDBRANCH   4   5
ENDBRANCH   3   4
ENDBRANCH   2   3
ENDBRANCH   1   2
BRANCH   1  35
ATOM     35  C   UNL A   1      44.054  22.513  26.126  1.00  0.00     0.202 C 
BRANCH  35  36
ATOM     36  C   UNL A   1      43.143  23.475  25.355  1.00  0.00     0.261 C 
BRANCH  36  37
ATOM     37  O   UNL A   1      42.093  24.045  26.168  1.00  0.00    -0.460 OA
BRANCH  37  38
ATOM     38  C   UNL A   1      41.890  25.379  26.016  1.00  0.00     0.338 C 
ATOM     39  O   UNL A   1      41.617  25.962  24.979  1.00  0.00    -0.246 OA
BRANCH  38  40
ATOM     40  C   UNL A   1      41.869  26.046  27.337  1.00  0.00     0.060 A 
ATOM     41  C   UNL A   1      42.845  26.979  27.690  1.00  0.00     0.016 A 
ATOM     42  C   UNL A   1      40.795  25.791  28.200  1.00  0.00     0.016 A 
ATOM     43  C   UNL A   1      42.719  27.686  28.892  1.00  0.00     0.010 A 
ATOM     44  C   UNL A   1      40.666  26.506  29.395  1.00  0.00     0.010 A 
ATOM     45  C   UNL A   1      41.611  27.484  29.738  1.00  0.00    -0.014 A 
BRANCH  45  46
ATOM     46  C   UNL A   1      41.367  28.405  30.883  1.00  0.00     0.031 A 
ATOM     47  C   UNL A   1      42.194  28.359  32.135  1.00  0.00     0.074 A 
ATOM     48  C   UNL A   1      40.357  29.295  30.787  1.00  0.00     0.049 A 
ATOM     49  N   UNL A   1      42.148  29.151  33.177  1.00  0.00    -0.248 NA
ATOM     50  C   UNL A   1      43.196  27.289  32.237  1.00  0.00     0.031 C 
ATOM     51  C   UNL A   1      39.446  29.410  29.646  1.00  0.00     0.029 A 
ATOM     52  N   UNL A   1      39.930  30.275  31.650  1.00  0.00    -0.354 N 
ATOM     53  C   UNL A   1      43.129  28.697  34.048  1.00  0.00     0.074 A 
ATOM     54  C   UNL A   1      43.718  27.523  33.435  1.00  0.00     0.031 C 
ATOM     55  C   UNL A   1      38.597  30.426  29.862  1.00  0.00     0.029 A 
ATOM     56  C   UNL A   1      38.876  31.015  31.168  1.00  0.00     0.049 A 
ATOM     57  H   UNL A   1      40.340  30.432  32.532  1.00  0.00     0.167 HD
ATOM     58  C   UNL A   1      43.518  29.225  35.236  1.00  0.00     0.037 A 
ATOM     59  C   UNL A   1      38.207  32.053  31.709  1.00  0.00     0.037 A 
ATOM     60  C   UNL A   1      42.914  30.380  35.856  1.00  0.00     0.049 A 
ATOM     61  C   UNL A   1      38.622  32.584  33.054  1.00  0.00     0.074 A 
ATOM     62  C   UNL A   1      43.270  31.002  37.042  1.00  0.00     0.029 A 
ATOM     63  N   UNL A   1      41.821  31.076  35.359  1.00  0.00    -0.354 N 
ATOM     64  N   UNL A   1      39.609  32.194  33.824  1.00  0.00    -0.248 NA
ATOM     65  C   UNL A   1      37.834  33.696  33.604  1.00  0.00     0.031 C 
ATOM     66  C   UNL A   1      42.360  32.034  37.290  1.00  0.00     0.029 A 
ATOM     67  C   UNL A   1      41.470  32.097  36.231  1.00  0.00     0.049 A 
ATOM     68  H   UNL A   1      41.362  30.875  34.513  1.00  0.00     0.167 HD
ATOM     69  C   UNL A   1      39.574  33.026  34.938  1.00  0.00     0.074 A 
ATOM     70  C   UNL A   1      38.480  33.952  34.733  1.00  0.00     0.031 C 
ATOM     71  C   UNL A   1      40.376  33.017  36.031  1.00  0.00     0.037 A 
BRANCH  58  72
ATOM     72  C   UNL A   1      44.671  28.571  35.951  1.00  0.00     0.058 A 
ATOM     73  C   UNL A   1      44.468  27.485  36.817  1.00  0.00     0.135 A 
ATOM     74  C   UNL A   1      45.995  28.973  35.706  1.00  0.00     0.135 A 
ATOM     75  F   UNL A   1      43.225  27.062  37.094  1.00  0.00    -0.206 F 
ATOM     76  C   UNL A   1      45.535  26.832  37.428  1.00  0.00     0.059 A 
ATOM     77  C   UNL A   1      47.078  28.317  36.285  1.00  0.00     0.059 A 
ATOM     78  F   UNL A   1      46.247  30.003  34.881  1.00  0.00    -0.206 F 
ATOM     79  C   UNL A   1      46.836  27.253  37.152  1.00  0.00     0.060 A 
BRANCH  79  80
ATOM     80  S   UNL A   1      48.204  26.383  37.947  1.00  0.00     0.124 S 
ATOM     81  O   UNL A   1      49.355  27.125  37.438  1.00  0.00    -0.237 OA
ATOM     82  O   UNL A   1      47.907  26.569  39.363  1.00  0.00    -0.237 OA
ATOM     83  O   UNL A   1      48.074  25.016  37.453  1.00  0.00    -0.744 OA
ENDBRANCH  79  80
ENDBRANCH  58  72
BRANCH  59  84
ATOM     84  C   UNL A   1      37.088  32.682  30.956  1.00  0.00     0.058 A 
ATOM     85  C   UNL A   1      35.778  32.194  31.072  1.00  0.00     0.135 A 
ATOM     86  C   UNL A   1      37.300  33.793  30.126  1.00  0.00     0.135 A 
ATOM     87  F   UNL A   1      35.526  31.126  31.846  1.00  0.00    -0.206 F 
ATOM     88  C   UNL A   1      34.719  32.779  30.386  1.00  0.00     0.059 A 
ATOM     89  C   UNL A   1      36.253  34.414  29.452  1.00  0.00     0.059 A 
ATOM     90  F   UNL A   1      38.533  34.306  29.991  1.00  0.00    -0.206 F 
ATOM     91  C   UNL A   1      34.966  33.894  29.584  1.00  0.00     0.060 A 
BRANCH  91  92
ATOM     92  S   UNL A   1      33.573  34.677  28.744  1.00  0.00     0.124 S 
ATOM     93  O   UNL A   1      33.146  33.622  27.832  1.00  0.00    -0.237 OA
ATOM     94  O   UNL A   1      32.671  34.963  29.857  1.00  0.00    -0.237 OA
ATOM     95  O   UNL A   1      34.173  35.849  28.116  1.00  0.00    -0.744 OA
ENDBRANCH  91  92
ENDBRANCH  59  84
BRANCH  71  96
ATOM     96  C   UNL A   1      40.115  34.046  37.101  1.00  0.00     0.058 A 
ATOM     97  C   UNL A   1      40.665  35.337  37.031  1.00  0.00     0.135 A 
ATOM     98  C   UNL A   1      39.255  33.762  38.175  1.00  0.00     0.135 A 
ATOM     99  F   UNL A   1      41.501  35.663  36.032  1.00  0.00    -0.206 F 
ATOM    100  C   UNL A   1      40.385  36.302  37.994  1.00  0.00     0.059 A 
ATOM    101  C   UNL A   1      38.936  34.721  39.134  1.00  0.00     0.059 A 
ATOM    102  F   UNL A   1      38.694  32.547  38.289  1.00  0.00    -0.206 F 
ATOM    103  C   UNL A   1      39.514  35.986  39.039  1.00  0.00     0.060 A 
BRANCH 103 104
ATOM    104  S   UNL A   1      39.127  37.264  40.255  1.00  0.00     0.124 S 
ATOM    105  O   UNL A   1      38.366  36.508  41.245  1.00  0.00    -0.237 OA
ATOM    106  O   UNL A   1      40.454  37.703  40.676  1.00  0.00    -0.237 OA
ATOM    107  O   UNL A   1      38.361  38.244  39.492  1.00  0.00    -0.744 OA
ENDBRANCH 103 104
ENDBRANCH  71  96
ENDBRANCH  45  46
ENDBRANCH  38  40
ENDBRANCH  37  38
ENDBRANCH  36  37
ENDBRANCH  35  36
ENDBRANCH   1  35
TORSDOF 23
ENDMDL
