MODEL 1
REMARK VINA RESULT:      -9.0      0.000      0.000
REMARK SMILES CCCN(C(=O)NCC(=O)OCCOCCOC(=O)c1ccc(-c2c3nc(c(-c4c(F)cc(S(=O)(=O)[O-])cc4F)c4ccc([nH]4)c(-c4c(F)cc(S(=O)(=O)[O-])cc4F)c4nc(c(-c5c(F)cc(S(=O)(=O)[O-])cc5F)c5ccc2[nH]5)C=C4)C=C3)cc1)C(C)C
REMARK SMILES IDX 13 1 12 2 11 3 9 4 10 5 8 6 7 7 5 8 6 9 4 11 3 12 2 13 1 14
REMARK SMILES IDX 86 15 87 16 88 17 14 18 15 19 16 20 17 21 18 22 19 23 20 24
REMARK SMILES IDX 21 25 85 26 22 27 84 28 23 29 24 30 25 31 78 32 26 33 83 34
REMARK SMILES IDX 77 35 79 36 27 37 82 38 76 39 75 40 28 42 62 43 41 44 61 45
REMARK SMILES IDX 42 46 45 47 60 48 80 49 43 50 44 51 59 53 81 54 46 55 29 56
REMARK SMILES IDX 30 57 39 58 31 59 32 60 38 61 40 62 33 63 34 64 35 65 36 66
REMARK SMILES IDX 37 67 63 68 64 69 73 70 65 71 66 72 72 73 74 74 67 75 68 76
REMARK SMILES IDX 69 77 70 78 71 79 47 80 48 81 57 82 49 83 50 84 56 85 58 86
REMARK SMILES IDX 51 87 52 88 53 89 54 90 55 91
REMARK H PARENT 7 10 79 41 45 52
REMARK Flexibility Score: inf
ROOT
ATOM      1  C   UNL A   1      40.665  20.302  26.182  1.00  0.00     0.202 C 
ENDROOT
BRANCH   1   2
ATOM      2  C   UNL A   1      39.642  21.415  26.428  1.00  0.00     0.261 C 
BRANCH   2   3
ATOM      3  O   UNL A   1      38.650  21.419  25.390  1.00  0.00    -0.462 OA
BRANCH   3   4
ATOM      4  C   UNL A   1      37.645  22.323  25.528  1.00  0.00     0.325 C 
ATOM      5  O   UNL A   1      37.729  23.391  26.122  1.00  0.00    -0.250 OA
BRANCH   4   6
ATOM      6  C   UNL A   1      36.409  21.938  24.719  1.00  0.00     0.240 C 
BRANCH   6   7
ATOM      7  N   UNL A   1      35.312  21.276  25.405  1.00  0.00    -0.327 N 
ATOM      8  C   UNL A   1      33.995  21.468  25.574  1.00  0.00     0.318 C 
ATOM      9  O   UNL A   1      33.422  20.498  26.084  1.00  0.00    -0.249 OA
ATOM     10  H   UNL A   1      35.618  20.466  25.872  1.00  0.00     0.166 HD
BRANCH   8  11
ATOM     11  N   UNL A   1      33.332  22.619  25.219  1.00  0.00    -0.322 N 
BRANCH  11  12
ATOM     12  C   UNL A   1      33.257  23.852  26.012  1.00  0.00     0.121 C 
BRANCH  12  13
ATOM     13  C   UNL A   1      34.333  24.901  25.704  1.00  0.00     0.018 C 
ATOM     14  C   UNL A   1      33.824  26.173  25.050  1.00  0.00     0.006 C 
ENDBRANCH  12  13
ENDBRANCH  11  12
BRANCH  11  15
ATOM     15  C   UNL A   1      32.516  22.536  23.974  1.00  0.00     0.080 C 
ATOM     16  C   UNL A   1      31.209  23.334  24.035  1.00  0.00     0.031 C 
ATOM     17  C   UNL A   1      33.317  22.886  22.723  1.00  0.00     0.031 C 
ENDBRANCH  11  15
ENDBRANCH   8  11
ENDBRANCH   6   7
ENDBRANCH   4   6
ENDBRANCH   3   4
ENDBRANCH   2   3
ENDBRANCH   1   2
BRANCH   1  18
ATOM     18  O   UNL A   1      41.853  20.365  26.976  1.00  0.00    -0.374 OA
BRANCH  18  19
ATOM     19  C   UNL A   1      42.214  21.637  27.515  1.00  0.00     0.202 C 
BRANCH  19  20
ATOM     20  C   UNL A   1      43.165  22.504  26.681  1.00  0.00     0.261 C 
BRANCH  20  21
ATOM     21  O   UNL A   1      43.351  23.813  27.242  1.00  0.00    -0.460 OA
BRANCH  21  22
ATOM     22  C   UNL A   1      42.766  24.812  26.541  1.00  0.00     0.338 C 
ATOM     23  O   UNL A   1      42.576  24.846  25.330  1.00  0.00    -0.246 OA
BRANCH  22  24
ATOM     24  C   UNL A   1      42.202  25.827  27.451  1.00  0.00     0.060 A 
ATOM     25  C   UNL A   1      42.868  27.057  27.525  1.00  0.00     0.016 A 
ATOM     26  C   UNL A   1      41.105  25.565  28.274  1.00  0.00     0.016 A 
ATOM     27  C   UNL A   1      42.475  28.009  28.463  1.00  0.00     0.010 A 
ATOM     28  C   UNL A   1      40.717  26.520  29.221  1.00  0.00     0.010 A 
ATOM     29  C   UNL A   1      41.423  27.730  29.345  1.00  0.00    -0.014 A 
BRANCH  29  30
ATOM     30  C   UNL A   1      41.161  28.655  30.476  1.00  0.00     0.031 A 
ATOM     31  C   UNL A   1      41.995  28.542  31.725  1.00  0.00     0.074 A 
ATOM     32  C   UNL A   1      40.215  29.607  30.377  1.00  0.00     0.049 A 
ATOM     33  N   UNL A   1      41.932  29.241  32.827  1.00  0.00    -0.248 NA
ATOM     34  C   UNL A   1      43.037  27.502  31.731  1.00  0.00     0.031 C 
ATOM     35  C   UNL A   1      39.358  29.828  29.213  1.00  0.00     0.029 A 
ATOM     36  N   UNL A   1      39.811  30.561  31.278  1.00  0.00    -0.354 N 
ATOM     37  C   UNL A   1      42.911  28.719  33.665  1.00  0.00     0.074 A 
ATOM     38  C   UNL A   1      43.545  27.634  32.949  1.00  0.00     0.031 C 
ATOM     39  C   UNL A   1      38.512  30.839  29.479  1.00  0.00     0.029 A 
ATOM     40  C   UNL A   1      38.753  31.321  30.838  1.00  0.00     0.049 A 
ATOM     41  H   UNL A   1      40.237  30.689  32.156  1.00  0.00     0.167 HD
ATOM     42  C   UNL A   1      43.253  29.113  34.915  1.00  0.00     0.037 A 
ATOM     43  C   UNL A   1      38.045  32.279  31.468  1.00  0.00     0.037 A 
ATOM     44  C   UNL A   1      42.634  30.209  35.615  1.00  0.00     0.049 A 
ATOM     45  C   UNL A   1      38.429  32.681  32.869  1.00  0.00     0.074 A 
ATOM     46  C   UNL A   1      42.952  30.721  36.861  1.00  0.00     0.029 A 
ATOM     47  N   UNL A   1      41.566  30.954  35.138  1.00  0.00    -0.354 N 
ATOM     48  N   UNL A   1      39.396  32.217  33.624  1.00  0.00    -0.248 NA
ATOM     49  C   UNL A   1      37.631  33.743  33.501  1.00  0.00     0.031 C 
ATOM     50  C   UNL A   1      42.046  31.744  37.158  1.00  0.00     0.029 A 
ATOM     51  C   UNL A   1      41.193  31.900  36.077  1.00  0.00     0.049 A 
ATOM     52  H   UNL A   1      41.136  30.828  34.261  1.00  0.00     0.167 HD
ATOM     53  C   UNL A   1      39.337  32.945  34.809  1.00  0.00     0.074 A 
ATOM     54  C   UNL A   1      38.249  33.889  34.666  1.00  0.00     0.031 C 
ATOM     55  C   UNL A   1      40.112  32.839  35.917  1.00  0.00     0.037 A 
BRANCH  42  56
ATOM     56  C   UNL A   1      44.332  28.349  35.626  1.00  0.00     0.058 A 
ATOM     57  C   UNL A   1      44.041  27.255  36.457  1.00  0.00     0.135 A 
ATOM     58  C   UNL A   1      45.682  28.670  35.412  1.00  0.00     0.135 A 
ATOM     59  F   UNL A   1      42.766  26.918  36.709  1.00  0.00    -0.206 F 
ATOM     60  C   UNL A   1      45.052  26.511  37.056  1.00  0.00     0.059 A 
ATOM     61  C   UNL A   1      46.710  27.925  35.983  1.00  0.00     0.059 A 
ATOM     62  F   UNL A   1      46.014  29.708  34.630  1.00  0.00    -0.206 F 
ATOM     63  C   UNL A   1      46.384  26.850  36.809  1.00  0.00     0.060 A 
BRANCH  63  64
ATOM     64  S   UNL A   1      47.685  25.848  37.560  1.00  0.00     0.124 S 
ATOM     65  O   UNL A   1      48.677  26.864  37.897  1.00  0.00    -0.237 OA
ATOM     66  O   UNL A   1      46.995  25.236  38.691  1.00  0.00    -0.237 OA
ATOM     67  O   UNL A   1      48.067  24.929  36.491  1.00  0.00    -0.744 OA
ENDBRANCH  63  64
ENDBRANCH  42  56
BRANCH  43  68
ATOM     68  C   UNL A   1      36.876  32.906  30.795  1.00  0.00     0.058 A 
ATOM     69  C   UNL A   1      37.037  33.932  29.853  1.00  0.00     0.135 A 
ATOM     70  C   UNL A   1      35.568  32.500  31.103  1.00  0.00     0.135 A 
ATOM     71  F   UNL A   1      38.267  34.361  29.532  1.00  0.00    -0.206 F 
ATOM     72  C   UNL A   1      35.943  34.551  29.256  1.00  0.00     0.059 A 
ATOM     73  C   UNL A   1      34.459  33.086  30.500  1.00  0.00     0.059 A 
ATOM     74  F   UNL A   1      35.359  31.514  31.989  1.00  0.00    -0.206 F 
ATOM     75  C   UNL A   1      34.657  34.122  29.589  1.00  0.00     0.060 A 
BRANCH  75  76
ATOM     76  S   UNL A   1      33.241  34.908  28.789  1.00  0.00     0.124 S 
ATOM     77  O   UNL A   1      32.362  35.154  29.926  1.00  0.00    -0.237 OA
ATOM     78  O   UNL A   1      33.847  36.088  28.181  1.00  0.00    -0.237 OA
ATOM     79  O   UNL A   1      32.785  33.892  27.845  1.00  0.00    -0.744 OA
ENDBRANCH  75  76
ENDBRANCH  43  68
BRANCH  55  80
ATOM     80  C   UNL A   1      39.838  33.789  37.050  1.00  0.00     0.058 A 
ATOM     81  C   UNL A   1      38.918  33.479  38.064  1.00  0.00     0.135 A 
ATOM     82  C   UNL A   1      40.545  34.998  37.153  1.00  0.00     0.135 A 
ATOM     83  F   UNL A   1      38.213  32.338  38.011  1.00  0.00    -0.206 F 
ATOM     84  C   UNL A   1      38.691  34.347  39.129  1.00  0.00     0.059 A 
ATOM     85  C   UNL A   1      40.353  35.868  38.221  1.00  0.00     0.059 A 
ATOM     86  F   UNL A   1      41.445  35.336  36.216  1.00  0.00    -0.206 F 
ATOM     87  C   UNL A   1      39.414  35.540  39.198  1.00  0.00     0.060 A 
BRANCH  87  88
ATOM     88  S   UNL A   1      39.133  36.644  40.598  1.00  0.00     0.124 S 
ATOM     89  O   UNL A   1      38.519  37.796  39.946  1.00  0.00    -0.237 OA
ATOM     90  O   UNL A   1      38.249  35.853  41.450  1.00  0.00    -0.237 OA
ATOM     91  O   UNL A   1      40.475  36.864  41.131  1.00  0.00    -0.744 OA
ENDBRANCH  87  88
ENDBRANCH  55  80
ENDBRANCH  29  30
ENDBRANCH  22  24
ENDBRANCH  21  22
ENDBRANCH  20  21
ENDBRANCH  19  20
ENDBRANCH  18  19
ENDBRANCH   1  18
TORSDOF 22
ENDMDL
MODEL 2
REMARK VINA RESULT:      -8.5      6.308      8.477
REMARK SMILES CCCN(C(=O)NCC(=O)OCCOCCOC(=O)c1ccc(-c2c3nc(c(-c4c(F)cc(S(=O)(=O)[O-])cc4F)c4ccc([nH]4)c(-c4c(F)cc(S(=O)(=O)[O-])cc4F)c4nc(c(-c5c(F)cc(S(=O)(=O)[O-])cc5F)c5ccc2[nH]5)C=C4)C=C3)cc1)C(C)C
REMARK SMILES IDX 13 1 12 2 11 3 9 4 10 5 8 6 7 7 5 8 6 9 4 11 3 12 2 13 1 14
REMARK SMILES IDX 86 15 87 16 88 17 14 18 15 19 16 20 17 21 18 22 19 23 20 24
REMARK SMILES IDX 21 25 85 26 22 27 84 28 23 29 24 30 25 31 78 32 26 33 83 34
REMARK SMILES IDX 77 35 79 36 27 37 82 38 76 39 75 40 28 42 62 43 41 44 61 45
REMARK SMILES IDX 42 46 45 47 60 48 80 49 43 50 44 51 59 53 81 54 46 55 29 56
REMARK SMILES IDX 30 57 39 58 31 59 32 60 38 61 40 62 33 63 34 64 35 65 36 66
REMARK SMILES IDX 37 67 63 68 64 69 73 70 65 71 66 72 72 73 74 74 67 75 68 76
REMARK SMILES IDX 69 77 70 78 71 79 47 80 48 81 57 82 49 83 50 84 56 85 58 86
REMARK SMILES IDX 51 87 52 88 53 89 54 90 55 91
REMARK H PARENT 7 10 79 41 45 52
REMARK Flexibility Score: inf
ROOT
ATOM      1  C   UNL A   1      38.836  23.597  26.634  1.00  0.00     0.202 C 
ENDROOT
BRANCH   1   2
ATOM      2  C   UNL A   1      37.606  23.606  25.720  1.00  0.00     0.261 C 
BRANCH   2   3
ATOM      3  O   UNL A   1      36.693  22.565  26.103  1.00  0.00    -0.462 OA
BRANCH   3   4
ATOM      4  C   UNL A   1      36.479  21.590  25.180  1.00  0.00     0.325 C 
ATOM      5  O   UNL A   1      37.198  20.614  25.000  1.00  0.00    -0.250 OA
BRANCH   4   6
ATOM      6  C   UNL A   1      35.138  21.753  24.471  1.00  0.00     0.240 C 
BRANCH   6   7
ATOM      7  N   UNL A   1      34.029  20.908  24.885  1.00  0.00    -0.327 N 
ATOM      8  C   UNL A   1      32.689  20.964  24.874  1.00  0.00     0.318 C 
ATOM      9  O   UNL A   1      32.153  19.885  25.155  1.00  0.00    -0.249 OA
ATOM     10  H   UNL A   1      34.349  20.066  25.281  1.00  0.00     0.166 HD
BRANCH   8  11
ATOM     11  N   UNL A   1      31.967  22.096  24.579  1.00  0.00    -0.322 N 
BRANCH  11  12
ATOM     12  C   UNL A   1      31.264  22.949  25.545  1.00  0.00     0.121 C 
BRANCH  12  13
ATOM     13  C   UNL A   1      32.143  23.571  26.637  1.00  0.00     0.018 C 
ATOM     14  C   UNL A   1      33.264  24.464  26.131  1.00  0.00     0.006 C 
ENDBRANCH  12  13
ENDBRANCH  11  12
BRANCH  11  15
ATOM     15  C   UNL A   1      31.789  22.389  23.128  1.00  0.00     0.080 C 
ATOM     16  C   UNL A   1      32.663  23.537  22.615  1.00  0.00     0.031 C 
ATOM     17  C   UNL A   1      31.942  21.146  22.256  1.00  0.00     0.031 C 
ENDBRANCH  11  15
ENDBRANCH   8  11
ENDBRANCH   6   7
ENDBRANCH   4   6
ENDBRANCH   3   4
ENDBRANCH   2   3
ENDBRANCH   1   2
BRANCH   1  18
ATOM     18  O   UNL A   1      39.896  22.723  26.238  1.00  0.00    -0.374 OA
BRANCH  18  19
ATOM     19  C   UNL A   1      40.026  21.489  26.944  1.00  0.00     0.202 C 
BRANCH  19  20
ATOM     20  C   UNL A   1      40.408  20.251  26.122  1.00  0.00     0.261 C 
BRANCH  20  21
ATOM     21  O   UNL A   1      41.587  19.601  26.622  1.00  0.00    -0.460 OA
BRANCH  21  22
ATOM     22  C   UNL A   1      42.672  19.715  25.821  1.00  0.00     0.338 C 
ATOM     23  O   UNL A   1      43.022  18.931  24.945  1.00  0.00    -0.246 OA
BRANCH  22  24
ATOM     24  C   UNL A   1      43.324  21.024  26.007  1.00  0.00     0.060 A 
ATOM     25  C   UNL A   1      43.514  21.462  27.324  1.00  0.00     0.016 A 
ATOM     26  C   UNL A   1      43.669  21.846  24.932  1.00  0.00     0.016 A 
ATOM     27  C   UNL A   1      43.995  22.744  27.573  1.00  0.00     0.010 A 
ATOM     28  C   UNL A   1      44.145  23.138  25.184  1.00  0.00     0.010 A 
ATOM     29  C   UNL A   1      44.274  23.606  26.505  1.00  0.00    -0.014 A 
BRANCH  29  30
ATOM     30  C   UNL A   1      44.572  25.033  26.783  1.00  0.00     0.031 A 
ATOM     31  C   UNL A   1      45.992  25.522  26.668  1.00  0.00     0.074 A 
ATOM     32  C   UNL A   1      43.584  25.890  27.101  1.00  0.00     0.049 A 
ATOM     33  N   UNL A   1      46.472  26.721  26.871  1.00  0.00    -0.248 NA
ATOM     34  C   UNL A   1      47.003  24.528  26.273  1.00  0.00     0.031 C 
ATOM     35  C   UNL A   1      42.169  25.539  27.225  1.00  0.00     0.029 A 
ATOM     36  N   UNL A   1      43.624  27.232  27.389  1.00  0.00    -0.354 N 
ATOM     37  C   UNL A   1      47.841  26.625  26.645  1.00  0.00     0.074 A 
ATOM     38  C   UNL A   1      48.117  25.246  26.303  1.00  0.00     0.031 C 
ATOM     39  C   UNL A   1      41.478  26.635  27.585  1.00  0.00     0.029 A 
ATOM     40  C   UNL A   1      42.403  27.756  27.740  1.00  0.00     0.049 A 
ATOM     41  H   UNL A   1      44.448  27.768  27.348  1.00  0.00     0.167 HD
ATOM     42  C   UNL A   1      48.779  27.599  26.711  1.00  0.00     0.037 A 
ATOM     43  C   UNL A   1      42.073  28.994  28.160  1.00  0.00     0.037 A 
ATOM     44  C   UNL A   1      48.496  28.975  27.029  1.00  0.00     0.049 A 
ATOM     45  C   UNL A   1      43.141  30.054  28.250  1.00  0.00     0.074 A 
ATOM     46  C   UNL A   1      49.372  30.046  27.062  1.00  0.00     0.029 A 
ATOM     47  N   UNL A   1      47.248  29.467  27.379  1.00  0.00    -0.354 N 
ATOM     48  N   UNL A   1      44.420  29.960  27.975  1.00  0.00    -0.248 NA
ATOM     49  C   UNL A   1      42.720  31.389  28.700  1.00  0.00     0.031 C 
ATOM     50  C   UNL A   1      48.664  31.177  27.479  1.00  0.00     0.029 A 
ATOM     51  C   UNL A   1      47.337  30.820  27.660  1.00  0.00     0.049 A 
ATOM     52  H   UNL A   1      46.421  28.934  27.422  1.00  0.00     0.167 HD
ATOM     53  C   UNL A   1      44.951  31.227  28.197  1.00  0.00     0.074 A 
ATOM     54  C   UNL A   1      43.853  32.073  28.615  1.00  0.00     0.031 C 
ATOM     55  C   UNL A   1      46.233  31.652  28.067  1.00  0.00     0.037 A 
BRANCH  42  56
ATOM     56  C   UNL A   1      50.210  27.220  26.455  1.00  0.00     0.058 A 
ATOM     57  C   UNL A   1      51.066  26.814  27.492  1.00  0.00     0.135 A 
ATOM     58  C   UNL A   1      50.708  27.191  25.143  1.00  0.00     0.135 A 
ATOM     59  F   UNL A   1      50.644  26.841  28.766  1.00  0.00    -0.206 F 
ATOM     60  C   UNL A   1      52.368  26.399  27.236  1.00  0.00     0.059 A 
ATOM     61  C   UNL A   1      52.001  26.758  24.861  1.00  0.00     0.059 A 
ATOM     62  F   UNL A   1      49.932  27.572  24.117  1.00  0.00    -0.206 F 
ATOM     63  C   UNL A   1      52.825  26.368  25.916  1.00  0.00     0.060 A 
BRANCH  63  64
ATOM     64  S   UNL A   1      54.504  25.786  25.596  1.00  0.00     0.124 S 
ATOM     65  O   UNL A   1      55.265  27.029  25.686  1.00  0.00    -0.237 OA
ATOM     66  O   UNL A   1      54.717  24.833  26.681  1.00  0.00    -0.237 OA
ATOM     67  O   UNL A   1      54.413  25.202  24.261  1.00  0.00    -0.744 OA
ENDBRANCH  63  64
ENDBRANCH  42  56
BRANCH  43  68
ATOM     68  C   UNL A   1      40.673  29.295  28.563  1.00  0.00     0.058 A 
ATOM     69  C   UNL A   1      40.310  29.426  29.911  1.00  0.00     0.135 A 
ATOM     70  C   UNL A   1      39.663  29.434  27.598  1.00  0.00     0.135 A 
ATOM     71  F   UNL A   1      41.239  29.292  30.871  1.00  0.00    -0.206 F 
ATOM     72  C   UNL A   1      38.993  29.663  30.292  1.00  0.00     0.059 A 
ATOM     73  C   UNL A   1      38.343  29.697  27.952  1.00  0.00     0.059 A 
ATOM     74  F   UNL A   1      39.958  29.330  26.293  1.00  0.00    -0.206 F 
ATOM     75  C   UNL A   1      38.016  29.794  29.303  1.00  0.00     0.060 A 
BRANCH  75  76
ATOM     76  S   UNL A   1      36.312  30.131  29.801  1.00  0.00     0.124 S 
ATOM     77  O   UNL A   1      36.198  29.330  31.014  1.00  0.00    -0.237 OA
ATOM     78  O   UNL A   1      36.327  31.578  29.989  1.00  0.00    -0.237 OA
ATOM     79  O   UNL A   1      35.533  29.664  28.658  1.00  0.00    -0.744 OA
ENDBRANCH  75  76
ENDBRANCH  43  68
BRANCH  55  80
ATOM     80  C   UNL A   1      46.516  33.102  28.347  1.00  0.00     0.058 A 
ATOM     81  C   UNL A   1      46.410  34.079  27.345  1.00  0.00     0.135 A 
ATOM     82  C   UNL A   1      46.844  33.526  29.645  1.00  0.00     0.135 A 
ATOM     83  F   UNL A   1      46.105  33.727  26.086  1.00  0.00    -0.206 F 
ATOM     84  C   UNL A   1      46.642  35.425  27.616  1.00  0.00     0.059 A 
ATOM     85  C   UNL A   1      47.054  34.868  29.944  1.00  0.00     0.059 A 
ATOM     86  F   UNL A   1      46.946  32.633  30.642  1.00  0.00    -0.206 F 
ATOM     87  C   UNL A   1      46.963  35.810  28.919  1.00  0.00     0.060 A 
BRANCH  87  88
ATOM     88  S   UNL A   1      47.233  37.560  29.265  1.00  0.00     0.124 S 
ATOM     89  O   UNL A   1      46.840  37.647  30.668  1.00  0.00    -0.237 OA
ATOM     90  O   UNL A   1      48.660  37.718  28.996  1.00  0.00    -0.237 OA
ATOM     91  O   UNL A   1      46.346  38.234  28.322  1.00  0.00    -0.744 OA
ENDBRANCH  87  88
ENDBRANCH  55  80
ENDBRANCH  29  30
ENDBRANCH  22  24
ENDBRANCH  21  22
ENDBRANCH  20  21
ENDBRANCH  19  20
ENDBRANCH  18  19
ENDBRANCH   1  18
TORSDOF 22
ENDMDL
MODEL 3
REMARK VINA RESULT:      -8.1      6.303     11.114
REMARK SMILES CCCN(C(=O)NCC(=O)OCCOCCOC(=O)c1ccc(-c2c3nc(c(-c4c(F)cc(S(=O)(=O)[O-])cc4F)c4ccc([nH]4)c(-c4c(F)cc(S(=O)(=O)[O-])cc4F)c4nc(c(-c5c(F)cc(S(=O)(=O)[O-])cc5F)c5ccc2[nH]5)C=C4)C=C3)cc1)C(C)C
REMARK SMILES IDX 13 1 12 2 11 3 9 4 10 5 8 6 7 7 5 8 6 9 4 11 3 12 2 13 1 14
REMARK SMILES IDX 86 15 87 16 88 17 14 18 15 19 16 20 17 21 18 22 19 23 20 24
REMARK SMILES IDX 21 25 85 26 22 27 84 28 23 29 24 30 25 31 78 32 26 33 83 34
REMARK SMILES IDX 77 35 79 36 27 37 82 38 76 39 75 40 28 42 62 43 41 44 61 45
REMARK SMILES IDX 42 46 45 47 60 48 80 49 43 50 44 51 59 53 81 54 46 55 29 56
REMARK SMILES IDX 30 57 39 58 31 59 32 60 38 61 40 62 33 63 34 64 35 65 36 66
REMARK SMILES IDX 37 67 63 68 64 69 73 70 65 71 66 72 72 73 74 74 67 75 68 76
REMARK SMILES IDX 69 77 70 78 71 79 47 80 48 81 57 82 49 83 50 84 56 85 58 86
REMARK SMILES IDX 51 87 52 88 53 89 54 90 55 91
REMARK H PARENT 7 10 79 41 45 52
REMARK Flexibility Score: inf
ROOT
ATOM      1  C   UNL A   1      37.737  22.962  25.405  1.00  0.00     0.202 C 
ENDROOT
BRANCH   1   2
ATOM      2  C   UNL A   1      36.768  22.621  24.268  1.00  0.00     0.261 C 
BRANCH   2   3
ATOM      3  O   UNL A   1      35.692  23.571  24.229  1.00  0.00    -0.462 OA
BRANCH   3   4
ATOM      4  C   UNL A   1      34.763  23.462  25.214  1.00  0.00     0.325 C 
ATOM      5  O   UNL A   1      34.679  24.193  26.194  1.00  0.00    -0.250 OA
BRANCH   4   6
ATOM      6  C   UNL A   1      33.710  22.403  24.898  1.00  0.00     0.240 C 
BRANCH   6   7
ATOM      7  N   UNL A   1      32.350  22.617  25.365  1.00  0.00    -0.327 N 
ATOM      8  C   UNL A   1      31.336  23.453  25.098  1.00  0.00     0.318 C 
ATOM      9  O   UNL A   1      30.270  23.109  25.622  1.00  0.00    -0.249 OA
ATOM     10  H   UNL A   1      32.108  21.974  26.070  1.00  0.00     0.166 HD
BRANCH   8  11
ATOM     11  N   UNL A   1      31.450  24.579  24.318  1.00  0.00    -0.322 N 
BRANCH  11  12
ATOM     12  C   UNL A   1      31.475  24.616  22.851  1.00  0.00     0.121 C 
BRANCH  12  13
ATOM     13  C   UNL A   1      32.757  25.183  22.227  1.00  0.00     0.018 C 
ATOM     14  C   UNL A   1      32.625  25.633  20.782  1.00  0.00     0.006 C 
ENDBRANCH  12  13
ENDBRANCH  11  12
BRANCH  11  15
ATOM     15  C   UNL A   1      31.702  25.852  25.054  1.00  0.00     0.080 C 
ATOM     16  C   UNL A   1      30.741  26.984  24.680  1.00  0.00     0.031 C 
ATOM     17  C   UNL A   1      31.760  25.652  26.566  1.00  0.00     0.031 C 
ENDBRANCH  11  15
ENDBRANCH   8  11
ENDBRANCH   6   7
ENDBRANCH   4   6
ENDBRANCH   3   4
ENDBRANCH   2   3
ENDBRANCH   1   2
BRANCH   1  18
ATOM     18  O   UNL A   1      38.607  21.903  25.816  1.00  0.00    -0.374 OA
BRANCH  18  19
ATOM     19  C   UNL A   1      38.473  20.649  25.148  1.00  0.00     0.202 C 
BRANCH  19  20
ATOM     20  C   UNL A   1      39.315  19.482  25.679  1.00  0.00     0.261 C 
BRANCH  20  21
ATOM     21  O   UNL A   1      40.291  19.903  26.645  1.00  0.00    -0.460 OA
BRANCH  21  22
ATOM     22  C   UNL A   1      41.574  19.653  26.293  1.00  0.00     0.338 C 
ATOM     23  O   UNL A   1      42.001  18.640  25.749  1.00  0.00    -0.246 OA
BRANCH  22  24
ATOM     24  C   UNL A   1      42.411  20.851  26.487  1.00  0.00     0.060 A 
ATOM     25  C   UNL A   1      42.481  21.378  27.783  1.00  0.00     0.016 A 
ATOM     26  C   UNL A   1      43.048  21.497  25.425  1.00  0.00     0.016 A 
ATOM     27  C   UNL A   1      43.139  22.583  28.013  1.00  0.00     0.010 A 
ATOM     28  C   UNL A   1      43.701  22.713  25.657  1.00  0.00     0.010 A 
ATOM     29  C   UNL A   1      43.717  23.280  26.945  1.00  0.00    -0.014 A 
BRANCH  29  30
ATOM     30  C   UNL A   1      44.218  24.660  27.166  1.00  0.00     0.031 A 
ATOM     31  C   UNL A   1      43.250  25.731  27.596  1.00  0.00     0.074 A 
ATOM     32  C   UNL A   1      45.524  24.947  27.019  1.00  0.00     0.049 A 
ATOM     33  N   UNL A   1      43.472  26.996  27.837  1.00  0.00    -0.248 NA
ATOM     34  C   UNL A   1      41.848  25.321  27.775  1.00  0.00     0.031 C 
ATOM     35  C   UNL A   1      46.559  23.991  26.625  1.00  0.00     0.029 A 
ATOM     36  N   UNL A   1      46.202  26.131  27.174  1.00  0.00    -0.354 N 
ATOM     37  C   UNL A   1      42.239  27.539  28.181  1.00  0.00     0.074 A 
ATOM     38  C   UNL A   1      41.269  26.468  28.103  1.00  0.00     0.031 C 
ATOM     39  C   UNL A   1      47.739  24.632  26.549  1.00  0.00     0.029 A 
ATOM     40  C   UNL A   1      47.538  26.045  26.864  1.00  0.00     0.049 A 
ATOM     41  H   UNL A   1      45.772  26.962  27.478  1.00  0.00     0.167 HD
ATOM     42  C   UNL A   1      41.945  28.812  28.536  1.00  0.00     0.037 A 
ATOM     43  C   UNL A   1      48.486  27.002  26.818  1.00  0.00     0.037 A 
ATOM     44  C   UNL A   1      42.918  29.870  28.635  1.00  0.00     0.049 A 
ATOM     45  C   UNL A   1      48.127  28.418  27.192  1.00  0.00     0.074 A 
ATOM     46  C   UNL A   1      42.725  31.178  29.043  1.00  0.00     0.029 A 
ATOM     47  N   UNL A   1      44.260  29.745  28.313  1.00  0.00    -0.354 N 
ATOM     48  N   UNL A   1      46.968  28.901  27.572  1.00  0.00    -0.248 NA
ATOM     49  C   UNL A   1      49.205  29.416  27.138  1.00  0.00     0.031 C 
ATOM     50  C   UNL A   1      43.941  31.858  28.922  1.00  0.00     0.029 A 
ATOM     51  C   UNL A   1      44.901  30.961  28.483  1.00  0.00     0.049 A 
ATOM     52  H   UNL A   1      44.694  28.915  28.007  1.00  0.00     0.167 HD
ATOM     53  C   UNL A   1      47.183  30.253  27.824  1.00  0.00     0.074 A 
ATOM     54  C   UNL A   1      48.585  30.507  27.567  1.00  0.00     0.031 C 
ATOM     55  C   UNL A   1      46.300  31.198  28.231  1.00  0.00     0.037 A 
BRANCH  42  56
ATOM     56  C   UNL A   1      40.511  29.151  28.826  1.00  0.00     0.058 A 
ATOM     57  C   UNL A   1      40.028  29.271  30.139  1.00  0.00     0.135 A 
ATOM     58  C   UNL A   1      39.625  29.434  27.774  1.00  0.00     0.135 A 
ATOM     59  F   UNL A   1      40.829  28.994  31.181  1.00  0.00    -0.206 F 
ATOM     60  C   UNL A   1      38.716  29.654  30.398  1.00  0.00     0.059 A 
ATOM     61  C   UNL A   1      38.315  29.840  28.009  1.00  0.00     0.059 A 
ATOM     62  F   UNL A   1      40.036  29.331  26.500  1.00  0.00    -0.206 F 
ATOM     63  C   UNL A   1      37.869  29.941  29.326  1.00  0.00     0.060 A 
BRANCH  63  64
ATOM     64  S   UNL A   1      36.180  30.478  29.679  1.00  0.00     0.124 S 
ATOM     65  O   UNL A   1      36.304  31.927  29.558  1.00  0.00    -0.237 OA
ATOM     66  O   UNL A   1      35.417  29.816  28.626  1.00  0.00    -0.237 OA
ATOM     67  O   UNL A   1      35.941  29.979  31.030  1.00  0.00    -0.744 OA
ENDBRANCH  63  64
ENDBRANCH  42  56
BRANCH  43  68
ATOM     68  C   UNL A   1      49.864  26.665  26.368  1.00  0.00     0.058 A 
ATOM     69  C   UNL A   1      50.231  26.735  25.017  1.00  0.00     0.135 A 
ATOM     70  C   UNL A   1      50.835  26.241  27.288  1.00  0.00     0.135 A 
ATOM     71  F   UNL A   1      49.334  27.126  24.098  1.00  0.00    -0.206 F 
ATOM     72  C   UNL A   1      51.505  26.377  24.588  1.00  0.00     0.059 A 
ATOM     73  C   UNL A   1      52.124  25.902  26.888  1.00  0.00     0.059 A 
ATOM     74  F   UNL A   1      50.539  26.167  28.595  1.00  0.00    -0.206 F 
ATOM     75  C   UNL A   1      52.445  25.959  25.533  1.00  0.00     0.060 A 
BRANCH  75  76
ATOM     76  S   UNL A   1      54.107  25.523  24.976  1.00  0.00     0.124 S 
ATOM     77  O   UNL A   1      53.999  24.075  24.840  1.00  0.00    -0.237 OA
ATOM     78  O   UNL A   1      54.221  26.276  23.731  1.00  0.00    -0.237 OA
ATOM     79  O   UNL A   1      54.958  25.995  26.064  1.00  0.00    -0.744 OA
ENDBRANCH  75  76
ENDBRANCH  43  68
BRANCH  55  80
ATOM     80  C   UNL A   1      46.824  32.588  28.456  1.00  0.00     0.058 A 
ATOM     81  C   UNL A   1      46.816  33.553  27.437  1.00  0.00     0.135 A 
ATOM     82  C   UNL A   1      47.290  32.977  29.724  1.00  0.00     0.135 A 
ATOM     83  F   UNL A   1      46.387  33.232  26.206  1.00  0.00    -0.206 F 
ATOM     84  C   UNL A   1      47.274  34.849  27.659  1.00  0.00     0.059 A 
ATOM     85  C   UNL A   1      47.727  34.273  29.975  1.00  0.00     0.059 A 
ATOM     86  F   UNL A   1      47.307  32.096  30.736  1.00  0.00    -0.206 F 
ATOM     87  C   UNL A   1      47.727  35.200  28.933  1.00  0.00     0.060 A 
BRANCH  87  88
ATOM     88  S   UNL A   1      48.290  36.890  29.218  1.00  0.00     0.124 S 
ATOM     89  O   UNL A   1      47.026  37.619  29.258  1.00  0.00    -0.237 OA
ATOM     90  O   UNL A   1      48.995  36.777  30.492  1.00  0.00    -0.237 OA
ATOM     91  O   UNL A   1      49.138  37.166  28.062  1.00  0.00    -0.744 OA
ENDBRANCH  87  88
ENDBRANCH  55  80
ENDBRANCH  29  30
ENDBRANCH  22  24
ENDBRANCH  21  22
ENDBRANCH  20  21
ENDBRANCH  19  20
ENDBRANCH  18  19
ENDBRANCH   1  18
TORSDOF 22
ENDMDL
