MODEL 1
REMARK VINA RESULT:     -11.8      0.000      0.000
REMARK SMILES Cc1cc(C)n2nc(SCC(=O)N3CCC(C(=O)OCCOCCOC(=O)c4ccc(-c5c6nc(c(-c7c(F)cc(S(=O)(=O)[O-])cc7F)c7ccc([nH]7)c(-c7c(F)cc(S(=O)(=O)[O-])cc7F)c7nc(c(-c8c(F)cc(S(=O)(=O)[O-])cc8F)c8ccc5[nH]8)C=C7)C=C6)cc4)CC3)nc2n1
REMARK SMILES IDX 22 1 21 2 20 3 19 4 17 5 18 6 16 7 11 8 12 9 13 10 14 11
REMARK SMILES IDX 95 12 15 13 94 14 10 15 9 16 8 17 1 18 2 19 3 20 98 21 4 22
REMARK SMILES IDX 97 23 5 24 6 25 96 26 7 27 23 28 24 29 25 30 26 31 27 32
REMARK SMILES IDX 28 33 29 34 93 35 30 36 92 37 31 38 32 39 33 40 86 41 34 42
REMARK SMILES IDX 91 43 85 44 87 45 35 46 90 47 84 48 83 49 36 51 70 52 49 53
REMARK SMILES IDX 69 54 50 55 53 56 68 57 88 58 51 59 52 60 67 62 89 63 54 64
REMARK SMILES IDX 37 65 38 66 47 67 39 68 40 69 46 70 48 71 41 72 42 73 43 74
REMARK SMILES IDX 44 75 45 76 71 77 72 78 81 79 73 80 74 81 80 82 82 83 75 84
REMARK SMILES IDX 76 85 77 86 78 87 79 88 55 89 56 90 65 91 57 92 58 93 64 94
REMARK SMILES IDX 66 95 59 96 60 97 61 98 62 99 63 100
REMARK H PARENT 87 50 53 61
REMARK Flexibility Score: inf
ROOT
ATOM      1  O   UNL A   1      41.571  19.520  25.792  1.00  0.00    -0.374 OA
ENDROOT
BRANCH   1   2
ATOM      2  C   UNL A   1      41.397  20.899  26.113  1.00  0.00     0.202 C 
BRANCH   2   3
ATOM      3  C   UNL A   1      40.073  21.345  26.727  1.00  0.00     0.261 C 
BRANCH   3   4
ATOM      4  O   UNL A   1      39.051  21.532  25.739  1.00  0.00    -0.463 OA
BRANCH   4   5
ATOM      5  C   UNL A   1      38.376  22.703  25.834  1.00  0.00     0.309 C 
ATOM      6  O   UNL A   1      38.844  23.753  26.263  1.00  0.00    -0.252 OA
BRANCH   5   7
ATOM      7  C   UNL A   1      36.956  22.619  25.325  1.00  0.00     0.103 C 
ATOM      8  C   UNL A   1      33.318  21.830  26.719  1.00  0.00     0.233 C 
ATOM      9  O   UNL A   1      33.339  20.639  27.053  1.00  0.00    -0.274 OA
ATOM     10  N   UNL A   1      34.140  22.281  25.687  1.00  0.00    -0.342 N 
ATOM     11  C   UNL A   1      34.850  21.297  24.873  1.00  0.00     0.120 C 
ATOM     12  C   UNL A   1      34.691  23.625  25.587  1.00  0.00     0.120 C 
ATOM     13  C   UNL A   1      36.325  21.216  25.275  1.00  0.00     0.037 C 
ATOM     14  C   UNL A   1      36.106  23.590  26.151  1.00  0.00     0.037 C 
BRANCH   8  15
ATOM     15  C   UNL A   1      32.224  22.735  27.267  1.00  0.00     0.178 C 
BRANCH  15  16
ATOM     16  S   UNL A   1      30.767  23.050  26.267  1.00  0.00    -0.074 SA
BRANCH  16  17
ATOM     17  C   UNL A   1      30.951  24.679  25.707  1.00  0.00     0.211 A 
ATOM     18  C   UNL A   1      30.327  29.429  22.546  1.00  0.00     0.067 C 
ATOM     19  C   UNL A   1      30.679  28.439  23.628  1.00  0.00     0.043 A 
ATOM     20  C   UNL A   1      31.196  28.995  24.921  1.00  0.00     0.047 A 
ATOM     21  N   UNL A   1      30.481  27.178  23.383  1.00  0.00    -0.216 NA
ATOM     22  C   UNL A   1      31.452  28.105  25.897  1.00  0.00     0.045 A 
ATOM     23  C   UNL A   1      30.754  26.312  24.400  1.00  0.00     0.253 A 
ATOM     24  C   UNL A   1      31.959  28.498  27.250  1.00  0.00     0.067 C 
ATOM     25  N   UNL A   1      31.222  26.748  25.647  1.00  0.00    -0.200 N 
ATOM     26  N   UNL A   1      30.604  25.008  24.433  1.00  0.00    -0.183 NA
ATOM     27  N   UNL A   1      31.352  25.685  26.476  1.00  0.00    -0.138 NA
ENDBRANCH  16  17
ENDBRANCH  15  16
ENDBRANCH   8  15
ENDBRANCH   5   7
ENDBRANCH   4   5
ENDBRANCH   3   4
ENDBRANCH   2   3
ENDBRANCH   1   2
BRANCH   1  28
ATOM     28  C   UNL A   1      42.646  18.769  26.352  1.00  0.00     0.202 C 
BRANCH  28  29
ATOM     29  C   UNL A   1      43.977  18.737  25.614  1.00  0.00     0.261 C 
BRANCH  29  30
ATOM     30  O   UNL A   1      44.569  20.024  25.591  1.00  0.00    -0.460 OA
BRANCH  30  31
ATOM     31  C   UNL A   1      44.710  20.536  24.345  1.00  0.00     0.338 C 
ATOM     32  O   UNL A   1      44.530  19.966  23.291  1.00  0.00    -0.246 OA
BRANCH  31  33
ATOM     33  C   UNL A   1      45.233  21.903  24.469  1.00  0.00     0.060 A 
ATOM     34  C   UNL A   1      46.104  22.082  25.543  1.00  0.00     0.016 A 
ATOM     35  C   UNL A   1      44.490  22.951  23.911  1.00  0.00     0.016 A 
ATOM     36  C   UNL A   1      45.932  23.208  26.302  1.00  0.00     0.010 A 
ATOM     37  C   UNL A   1      44.294  24.057  24.688  1.00  0.00     0.010 A 
ATOM     38  C   UNL A   1      44.932  24.108  25.926  1.00  0.00    -0.014 A 
BRANCH  38  39
ATOM     39  C   UNL A   1      44.657  25.218  26.804  1.00  0.00     0.031 A 
ATOM     40  C   UNL A   1      45.716  26.236  26.672  1.00  0.00     0.074 A 
ATOM     41  C   UNL A   1      43.521  25.299  27.524  1.00  0.00     0.049 A 
ATOM     42  N   UNL A   1      46.701  26.460  27.477  1.00  0.00    -0.248 NA
ATOM     43  C   UNL A   1      45.871  26.873  25.348  1.00  0.00     0.031 C 
ATOM     44  C   UNL A   1      42.342  24.427  27.453  1.00  0.00     0.029 A 
ATOM     45  N   UNL A   1      43.139  26.254  28.413  1.00  0.00    -0.354 N 
ATOM     46  C   UNL A   1      47.411  27.489  26.871  1.00  0.00     0.074 A 
ATOM     47  C   UNL A   1      47.057  27.469  25.480  1.00  0.00     0.031 C 
ATOM     48  C   UNL A   1      41.303  25.025  28.084  1.00  0.00     0.029 A 
ATOM     49  C   UNL A   1      41.776  26.243  28.718  1.00  0.00     0.049 A 
ATOM     50  H   UNL A   1      43.769  26.898  28.810  1.00  0.00     0.167 HD
ATOM     51  C   UNL A   1      47.892  28.522  27.614  1.00  0.00     0.037 A 
ATOM     52  C   UNL A   1      41.117  27.226  29.386  1.00  0.00     0.037 A 
ATOM     53  C   UNL A   1      47.902  28.186  29.013  1.00  0.00     0.049 A 
ATOM     54  C   UNL A   1      42.153  27.993  30.129  1.00  0.00     0.074 A 
ATOM     55  C   UNL A   1      48.635  27.345  29.822  1.00  0.00     0.029 A 
ATOM     56  N   UNL A   1      46.717  28.447  29.655  1.00  0.00    -0.354 N 
ATOM     57  N   UNL A   1      42.861  27.487  31.102  1.00  0.00    -0.248 NA
ATOM     58  C   UNL A   1      42.690  29.213  29.537  1.00  0.00     0.031 C 
ATOM     59  C   UNL A   1      47.763  26.958  30.883  1.00  0.00     0.029 A 
ATOM     60  C   UNL A   1      46.541  27.612  30.725  1.00  0.00     0.049 A 
ATOM     61  H   UNL A   1      46.079  29.145  29.382  1.00  0.00     0.167 HD
ATOM     62  C   UNL A   1      44.107  28.074  30.971  1.00  0.00     0.074 A 
ATOM     63  C   UNL A   1      43.898  29.230  30.105  1.00  0.00     0.031 C 
ATOM     64  C   UNL A   1      45.235  27.390  31.312  1.00  0.00     0.037 A 
BRANCH  51  65
ATOM     65  C   UNL A   1      47.868  29.955  27.134  1.00  0.00     0.058 A 
ATOM     66  C   UNL A   1      49.044  30.724  27.180  1.00  0.00     0.135 A 
ATOM     67  C   UNL A   1      46.682  30.679  26.859  1.00  0.00     0.135 A 
ATOM     68  F   UNL A   1      50.218  30.153  27.491  1.00  0.00    -0.206 F 
ATOM     69  C   UNL A   1      49.039  32.105  26.961  1.00  0.00     0.059 A 
ATOM     70  C   UNL A   1      46.663  32.035  26.573  1.00  0.00     0.059 A 
ATOM     71  F   UNL A   1      45.465  30.130  26.954  1.00  0.00    -0.206 F 
ATOM     72  C   UNL A   1      47.843  32.748  26.648  1.00  0.00     0.060 A 
BRANCH  72  73
ATOM     73  S   UNL A   1      47.822  34.528  26.381  1.00  0.00     0.124 S 
ATOM     74  O   UNL A   1      47.229  34.618  25.053  1.00  0.00    -0.237 OA
ATOM     75  O   UNL A   1      46.992  34.986  27.490  1.00  0.00    -0.237 OA
ATOM     76  O   UNL A   1      49.233  34.897  26.470  1.00  0.00    -0.744 OA
ENDBRANCH  72  73
ENDBRANCH  51  65
BRANCH  52  77
ATOM     77  C   UNL A   1      39.751  27.776  29.170  1.00  0.00     0.058 A 
ATOM     78  C   UNL A   1      38.868  27.952  30.255  1.00  0.00     0.135 A 
ATOM     79  C   UNL A   1      39.409  28.444  27.980  1.00  0.00     0.135 A 
ATOM     80  F   UNL A   1      39.116  27.354  31.431  1.00  0.00    -0.206 F 
ATOM     81  C   UNL A   1      37.764  28.809  30.190  1.00  0.00     0.059 A 
ATOM     82  C   UNL A   1      38.309  29.300  27.890  1.00  0.00     0.059 A 
ATOM     83  F   UNL A   1      40.195  28.364  26.896  1.00  0.00    -0.206 F 
ATOM     84  C   UNL A   1      37.512  29.506  29.010  1.00  0.00     0.060 A 
BRANCH  84  85
ATOM     85  S   UNL A   1      36.220  30.775  28.991  1.00  0.00     0.124 S 
ATOM     86  O   UNL A   1      35.817  30.818  30.393  1.00  0.00    -0.237 OA
ATOM     87  O   UNL A   1      36.945  31.941  28.500  1.00  0.00    -0.237 OA
ATOM     88  O   UNL A   1      35.225  30.229  28.072  1.00  0.00    -0.744 OA
ENDBRANCH  84  85
ENDBRANCH  52  77
BRANCH  64  89
ATOM     89  C   UNL A   1      45.087  26.241  32.270  1.00  0.00     0.058 A 
ATOM     90  C   UNL A   1      44.883  24.899  31.903  1.00  0.00     0.135 A 
ATOM     91  C   UNL A   1      45.263  26.516  33.633  1.00  0.00     0.135 A 
ATOM     92  F   UNL A   1      44.780  24.547  30.614  1.00  0.00    -0.206 F 
ATOM     93  C   UNL A   1      44.833  23.880  32.859  1.00  0.00     0.059 A 
ATOM     94  C   UNL A   1      45.247  25.516  34.598  1.00  0.00     0.059 A 
ATOM     95  F   UNL A   1      45.505  27.774  34.038  1.00  0.00    -0.206 F 
ATOM     96  C   UNL A   1      45.021  24.200  34.204  1.00  0.00     0.060 A 
BRANCH  96  97
ATOM     97  S   UNL A   1      45.025  22.880  35.438  1.00  0.00     0.124 S 
ATOM     98  O   UNL A   1      45.015  23.629  36.690  1.00  0.00    -0.237 OA
ATOM     99  O   UNL A   1      43.798  22.153  35.124  1.00  0.00    -0.237 OA
ATOM    100  O   UNL A   1      46.259  22.152  35.158  1.00  0.00    -0.744 OA
ENDBRANCH  96  97
ENDBRANCH  64  89
ENDBRANCH  38  39
ENDBRANCH  31  33
ENDBRANCH  30  31
ENDBRANCH  29  30
ENDBRANCH  28  29
ENDBRANCH   1  28
TORSDOF 20
ENDMDL
MODEL 2
REMARK VINA RESULT:     -11.6      1.453      2.249
REMARK SMILES Cc1cc(C)n2nc(SCC(=O)N3CCC(C(=O)OCCOCCOC(=O)c4ccc(-c5c6nc(c(-c7c(F)cc(S(=O)(=O)[O-])cc7F)c7ccc([nH]7)c(-c7c(F)cc(S(=O)(=O)[O-])cc7F)c7nc(c(-c8c(F)cc(S(=O)(=O)[O-])cc8F)c8ccc5[nH]8)C=C7)C=C6)cc4)CC3)nc2n1
REMARK SMILES IDX 22 1 21 2 20 3 19 4 17 5 18 6 16 7 11 8 12 9 13 10 14 11
REMARK SMILES IDX 95 12 15 13 94 14 10 15 9 16 8 17 1 18 2 19 3 20 98 21 4 22
REMARK SMILES IDX 97 23 5 24 6 25 96 26 7 27 23 28 24 29 25 30 26 31 27 32
REMARK SMILES IDX 28 33 29 34 93 35 30 36 92 37 31 38 32 39 33 40 86 41 34 42
REMARK SMILES IDX 91 43 85 44 87 45 35 46 90 47 84 48 83 49 36 51 70 52 49 53
REMARK SMILES IDX 69 54 50 55 53 56 68 57 88 58 51 59 52 60 67 62 89 63 54 64
REMARK SMILES IDX 37 65 38 66 47 67 39 68 40 69 46 70 48 71 41 72 42 73 43 74
REMARK SMILES IDX 44 75 45 76 71 77 72 78 81 79 73 80 74 81 80 82 82 83 75 84
REMARK SMILES IDX 76 85 77 86 78 87 79 88 55 89 56 90 65 91 57 92 58 93 64 94
REMARK SMILES IDX 66 95 59 96 60 97 61 98 62 99 63 100
REMARK H PARENT 87 50 53 61
REMARK Flexibility Score: inf
ROOT
ATOM      1  O   UNL A   1      42.377  19.903  26.605  1.00  0.00    -0.374 OA
ENDROOT
BRANCH   1   2
ATOM      2  C   UNL A   1      40.954  19.953  26.690  1.00  0.00     0.202 C 
BRANCH   2   3
ATOM      3  C   UNL A   1      40.247  21.259  26.339  1.00  0.00     0.261 C 
BRANCH   3   4
ATOM      4  O   UNL A   1      38.953  21.039  25.761  1.00  0.00    -0.463 OA
BRANCH   4   5
ATOM      5  C   UNL A   1      38.174  22.145  25.674  1.00  0.00     0.309 C 
ATOM      6  O   UNL A   1      38.446  23.237  26.159  1.00  0.00    -0.252 OA
BRANCH   5   7
ATOM      7  C   UNL A   1      36.910  21.924  24.876  1.00  0.00     0.103 C 
ATOM      8  C   UNL A   1      33.399  23.690  24.284  1.00  0.00     0.233 C 
ATOM      9  O   UNL A   1      32.805  23.625  25.366  1.00  0.00    -0.274 OA
ATOM     10  N   UNL A   1      34.327  22.710  23.935  1.00  0.00    -0.342 N 
ATOM     11  C   UNL A   1      34.420  21.506  24.759  1.00  0.00     0.120 C 
ATOM     12  C   UNL A   1      35.492  22.928  23.089  1.00  0.00     0.120 C 
ATOM     13  C   UNL A   1      35.645  21.565  25.676  1.00  0.00     0.037 C 
ATOM     14  C   UNL A   1      36.690  23.163  24.000  1.00  0.00     0.037 C 
BRANCH   8  15
ATOM     15  C   UNL A   1      32.933  24.697  23.242  1.00  0.00     0.178 C 
BRANCH  15  16
ATOM     16  S   UNL A   1      33.398  26.421  23.422  1.00  0.00    -0.074 SA
BRANCH  16  17
ATOM     17  C   UNL A   1      31.926  27.309  23.213  1.00  0.00     0.211 A 
ATOM     18  C   UNL A   1      28.101  31.059  21.153  1.00  0.00     0.067 C 
ATOM     19  C   UNL A   1      28.778  29.930  21.889  1.00  0.00     0.043 A 
ATOM     20  C   UNL A   1      27.894  28.937  22.581  1.00  0.00     0.047 A 
ATOM     21  N   UNL A   1      30.077  29.874  21.847  1.00  0.00    -0.216 NA
ATOM     22  C   UNL A   1      28.509  27.905  23.186  1.00  0.00     0.045 A 
ATOM     23  C   UNL A   1      30.658  28.811  22.473  1.00  0.00     0.253 A 
ATOM     24  C   UNL A   1      27.771  26.822  23.909  1.00  0.00     0.067 C 
ATOM     25  N   UNL A   1      29.905  27.827  23.129  1.00  0.00    -0.200 N 
ATOM     26  N   UNL A   1      31.930  28.494  22.546  1.00  0.00    -0.183 NA
ATOM     27  N   UNL A   1      30.735  26.870  23.607  1.00  0.00    -0.138 NA
ENDBRANCH  16  17
ENDBRANCH  15  16
ENDBRANCH   8  15
ENDBRANCH   5   7
ENDBRANCH   4   5
ENDBRANCH   3   4
ENDBRANCH   2   3
ENDBRANCH   1   2
BRANCH   1  28
ATOM     28  C   UNL A   1      43.027  18.920  25.803  1.00  0.00     0.202 C 
BRANCH  28  29
ATOM     29  C   UNL A   1      44.001  19.381  24.728  1.00  0.00     0.261 C 
BRANCH  29  30
ATOM     30  O   UNL A   1      44.124  20.792  24.737  1.00  0.00    -0.460 OA
BRANCH  30  31
ATOM     31  C   UNL A   1      45.388  21.227  24.961  1.00  0.00     0.338 C 
ATOM     32  O   UNL A   1      46.345  20.564  25.296  1.00  0.00    -0.246 OA
BRANCH  31  33
ATOM     33  C   UNL A   1      45.398  22.690  24.832  1.00  0.00     0.060 A 
ATOM     34  C   UNL A   1      46.441  23.312  25.518  1.00  0.00     0.016 A 
ATOM     35  C   UNL A   1      44.194  23.338  24.530  1.00  0.00     0.016 A 
ATOM     36  C   UNL A   1      46.129  24.433  26.239  1.00  0.00     0.010 A 
ATOM     37  C   UNL A   1      43.874  24.436  25.278  1.00  0.00     0.010 A 
ATOM     38  C   UNL A   1      44.810  24.892  26.205  1.00  0.00    -0.014 A 
BRANCH  38  39
ATOM     39  C   UNL A   1      44.452  25.984  27.075  1.00  0.00     0.031 A 
ATOM     40  C   UNL A   1      45.488  27.033  27.015  1.00  0.00     0.074 A 
ATOM     41  C   UNL A   1      43.274  26.026  27.725  1.00  0.00     0.049 A 
ATOM     42  N   UNL A   1      46.416  27.274  27.881  1.00  0.00    -0.248 NA
ATOM     43  C   UNL A   1      45.704  27.687  25.709  1.00  0.00     0.031 C 
ATOM     44  C   UNL A   1      42.126  25.122  27.576  1.00  0.00     0.029 A 
ATOM     45  N   UNL A   1      42.812  26.960  28.599  1.00  0.00    -0.354 N 
ATOM     46  C   UNL A   1      47.132  28.329  27.327  1.00  0.00     0.074 A 
ATOM     47  C   UNL A   1      46.863  28.314  25.917  1.00  0.00     0.031 C 
ATOM     48  C   UNL A   1      41.035  25.685  28.149  1.00  0.00     0.029 A 
ATOM     49  C   UNL A   1      41.434  26.908  28.821  1.00  0.00     0.049 A 
ATOM     50  H   UNL A   1      43.399  27.617  29.039  1.00  0.00     0.167 HD
ATOM     51  C   UNL A   1      47.538  29.367  28.107  1.00  0.00     0.037 A 
ATOM     52  C   UNL A   1      40.709  27.865  29.458  1.00  0.00     0.037 A 
ATOM     53  C   UNL A   1      47.474  29.016  29.501  1.00  0.00     0.049 A 
ATOM     54  C   UNL A   1      41.676  28.653  30.268  1.00  0.00     0.074 A 
ATOM     55  C   UNL A   1      48.181  28.188  30.345  1.00  0.00     0.029 A 
ATOM     56  N   UNL A   1      46.246  29.238  30.073  1.00  0.00    -0.354 N 
ATOM     57  N   UNL A   1      42.339  28.156  31.277  1.00  0.00    -0.248 NA
ATOM     58  C   UNL A   1      42.213  29.893  29.720  1.00  0.00     0.031 C 
ATOM     59  C   UNL A   1      47.258  27.765  31.348  1.00  0.00     0.029 A 
ATOM     60  C   UNL A   1      46.030  28.386  31.123  1.00  0.00     0.049 A 
ATOM     61  H   UNL A   1      45.606  29.921  29.769  1.00  0.00     0.167 HD
ATOM     62  C   UNL A   1      43.573  28.779  31.227  1.00  0.00     0.074 A 
ATOM     63  C   UNL A   1      43.384  29.937  30.360  1.00  0.00     0.031 C 
ATOM     64  C   UNL A   1      44.698  28.122  31.629  1.00  0.00     0.037 A 
BRANCH  51  65
ATOM     65  C   UNL A   1      47.502  30.804  27.639  1.00  0.00     0.058 A 
ATOM     66  C   UNL A   1      46.269  31.408  27.340  1.00  0.00     0.135 A 
ATOM     67  C   UNL A   1      48.647  31.536  27.239  1.00  0.00     0.135 A 
ATOM     68  F   UNL A   1      45.117  30.777  27.620  1.00  0.00    -0.206 F 
ATOM     69  C   UNL A   1      46.182  32.648  26.700  1.00  0.00     0.059 A 
ATOM     70  C   UNL A   1      48.586  32.796  26.664  1.00  0.00     0.059 A 
ATOM     71  F   UNL A   1      49.883  31.025  27.290  1.00  0.00    -0.206 F 
ATOM     72  C   UNL A   1      47.350  33.337  26.375  1.00  0.00     0.060 A 
BRANCH  72  73
ATOM     73  S   UNL A   1      47.251  34.925  25.535  1.00  0.00     0.124 S 
ATOM     74  O   UNL A   1      47.082  35.840  26.657  1.00  0.00    -0.237 OA
ATOM     75  O   UNL A   1      48.537  34.980  24.847  1.00  0.00    -0.237 OA
ATOM     76  O   UNL A   1      46.089  34.773  24.663  1.00  0.00    -0.744 OA
ENDBRANCH  72  73
ENDBRANCH  51  65
BRANCH  52  77
ATOM     77  C   UNL A   1      39.343  28.379  29.165  1.00  0.00     0.058 A 
ATOM     78  C   UNL A   1      38.398  28.536  30.199  1.00  0.00     0.135 A 
ATOM     79  C   UNL A   1      39.050  29.034  27.954  1.00  0.00     0.135 A 
ATOM     80  F   UNL A   1      38.597  27.949  31.389  1.00  0.00    -0.206 F 
ATOM     81  C   UNL A   1      37.278  29.365  30.070  1.00  0.00     0.059 A 
ATOM     82  C   UNL A   1      37.935  29.862  27.800  1.00  0.00     0.059 A 
ATOM     83  F   UNL A   1      39.895  28.971  26.915  1.00  0.00    -0.206 F 
ATOM     84  C   UNL A   1      37.073  30.051  28.875  1.00  0.00     0.060 A 
BRANCH  84  85
ATOM     85  S   UNL A   1      35.752  31.287  28.779  1.00  0.00     0.124 S 
ATOM     86  O   UNL A   1      36.444  32.423  28.180  1.00  0.00    -0.237 OA
ATOM     87  O   UNL A   1      34.771  30.618  27.932  1.00  0.00    -0.237 OA
ATOM     88  O   UNL A   1      35.353  31.463  30.173  1.00  0.00    -0.744 OA
ENDBRANCH  84  85
ENDBRANCH  52  77
BRANCH  64  89
ATOM     89  C   UNL A   1      44.525  26.959  32.565  1.00  0.00     0.058 A 
ATOM     90  C   UNL A   1      44.273  27.058  33.945  1.00  0.00     0.135 A 
ATOM     91  C   UNL A   1      44.517  25.676  31.999  1.00  0.00     0.135 A 
ATOM     92  F   UNL A   1      44.192  28.253  34.545  1.00  0.00    -0.206 F 
ATOM     93  C   UNL A   1      44.048  25.922  34.729  1.00  0.00     0.059 A 
ATOM     94  C   UNL A   1      44.266  24.537  32.753  1.00  0.00     0.059 A 
ATOM     95  F   UNL A   1      44.708  25.525  30.678  1.00  0.00    -0.206 F 
ATOM     96  C   UNL A   1      44.042  24.666  34.121  1.00  0.00     0.060 A 
BRANCH  96  97
ATOM     97  S   UNL A   1      43.685  23.200  35.115  1.00  0.00     0.124 S 
ATOM     98  O   UNL A   1      44.511  23.421  36.297  1.00  0.00    -0.237 OA
ATOM     99  O   UNL A   1      42.243  23.303  35.319  1.00  0.00    -0.237 OA
ATOM    100  O   UNL A   1      44.108  22.095  34.258  1.00  0.00    -0.744 OA
ENDBRANCH  96  97
ENDBRANCH  64  89
ENDBRANCH  38  39
ENDBRANCH  31  33
ENDBRANCH  30  31
ENDBRANCH  29  30
ENDBRANCH  28  29
ENDBRANCH   1  28
TORSDOF 20
ENDMDL
MODEL 3
REMARK VINA RESULT:     -11.3      3.300      5.034
REMARK SMILES Cc1cc(C)n2nc(SCC(=O)N3CCC(C(=O)OCCOCCOC(=O)c4ccc(-c5c6nc(c(-c7c(F)cc(S(=O)(=O)[O-])cc7F)c7ccc([nH]7)c(-c7c(F)cc(S(=O)(=O)[O-])cc7F)c7nc(c(-c8c(F)cc(S(=O)(=O)[O-])cc8F)c8ccc5[nH]8)C=C7)C=C6)cc4)CC3)nc2n1
REMARK SMILES IDX 22 1 21 2 20 3 19 4 17 5 18 6 16 7 11 8 12 9 13 10 14 11
REMARK SMILES IDX 95 12 15 13 94 14 10 15 9 16 8 17 1 18 2 19 3 20 98 21 4 22
REMARK SMILES IDX 97 23 5 24 6 25 96 26 7 27 23 28 24 29 25 30 26 31 27 32
REMARK SMILES IDX 28 33 29 34 93 35 30 36 92 37 31 38 32 39 33 40 86 41 34 42
REMARK SMILES IDX 91 43 85 44 87 45 35 46 90 47 84 48 83 49 36 51 70 52 49 53
REMARK SMILES IDX 69 54 50 55 53 56 68 57 88 58 51 59 52 60 67 62 89 63 54 64
REMARK SMILES IDX 37 65 38 66 47 67 39 68 40 69 46 70 48 71 41 72 42 73 43 74
REMARK SMILES IDX 44 75 45 76 71 77 72 78 81 79 73 80 74 81 80 82 82 83 75 84
REMARK SMILES IDX 76 85 77 86 78 87 79 88 55 89 56 90 65 91 57 92 58 93 64 94
REMARK SMILES IDX 66 95 59 96 60 97 61 98 62 99 63 100
REMARK H PARENT 87 50 53 61
REMARK Flexibility Score: inf
ROOT
ATOM      1  O   UNL A   1      36.514  22.143  26.108  1.00  0.00    -0.374 OA
ENDROOT
BRANCH   1   2
ATOM      2  C   UNL A   1      35.287  21.414  26.146  1.00  0.00     0.202 C 
BRANCH   2   3
ATOM      3  C   UNL A   1      34.375  21.456  24.923  1.00  0.00     0.261 C 
BRANCH   3   4
ATOM      4  O   UNL A   1      33.803  22.754  24.716  1.00  0.00    -0.463 OA
BRANCH   4   5
ATOM      5  C   UNL A   1      34.235  23.393  23.602  1.00  0.00     0.309 C 
ATOM      6  O   UNL A   1      35.391  23.392  23.192  1.00  0.00    -0.252 OA
BRANCH   5   7
ATOM      7  C   UNL A   1      33.132  24.111  22.859  1.00  0.00     0.103 C 
ATOM      8  C   UNL A   1      30.706  27.218  23.373  1.00  0.00     0.233 C 
ATOM      9  O   UNL A   1      29.963  26.910  24.312  1.00  0.00    -0.274 OA
ATOM     10  N   UNL A   1      31.236  26.228  22.546  1.00  0.00    -0.342 N 
ATOM     11  C   UNL A   1      30.726  24.863  22.670  1.00  0.00     0.120 C 
ATOM     12  C   UNL A   1      32.517  26.311  21.861  1.00  0.00     0.120 C 
ATOM     13  C   UNL A   1      31.712  23.980  23.439  1.00  0.00     0.037 C 
ATOM     14  C   UNL A   1      33.547  25.580  22.712  1.00  0.00     0.037 C 
BRANCH   8  15
ATOM     15  C   UNL A   1      30.837  28.683  22.980  1.00  0.00     0.178 C 
BRANCH  15  16
ATOM     16  S   UNL A   1      30.295  29.948  24.132  1.00  0.00    -0.074 SA
BRANCH  16  17
ATOM     17  C   UNL A   1      31.582  30.092  25.282  1.00  0.00     0.211 A 
ATOM     18  C   UNL A   1      36.609  29.264  27.925  1.00  0.00     0.067 C 
ATOM     19  C   UNL A   1      35.265  29.794  27.491  1.00  0.00     0.043 A 
ATOM     20  C   UNL A   1      34.851  31.130  28.028  1.00  0.00     0.047 A 
ATOM     21  N   UNL A   1      34.572  29.075  26.657  1.00  0.00    -0.216 NA
ATOM     22  C   UNL A   1      33.676  31.616  27.588  1.00  0.00     0.045 A 
ATOM     23  C   UNL A   1      33.388  29.606  26.238  1.00  0.00     0.253 A 
ATOM     24  C   UNL A   1      33.126  32.941  28.017  1.00  0.00     0.067 C 
ATOM     25  N   UNL A   1      32.934  30.858  26.676  1.00  0.00    -0.200 N 
ATOM     26  N   UNL A   1      32.526  29.116  25.377  1.00  0.00    -0.183 NA
ATOM     27  N   UNL A   1      31.766  31.154  26.058  1.00  0.00    -0.138 NA
ENDBRANCH  16  17
ENDBRANCH  15  16
ENDBRANCH   8  15
ENDBRANCH   5   7
ENDBRANCH   4   5
ENDBRANCH   3   4
ENDBRANCH   2   3
ENDBRANCH   1   2
BRANCH   1  28
ATOM     28  C   UNL A   1      37.616  21.678  25.333  1.00  0.00     0.202 C 
BRANCH  28  29
ATOM     29  C   UNL A   1      39.004  21.688  25.958  1.00  0.00     0.261 C 
BRANCH  29  30
ATOM     30  O   UNL A   1      39.285  22.951  26.534  1.00  0.00    -0.460 OA
BRANCH  30  31
ATOM     31  C   UNL A   1      40.426  22.975  27.264  1.00  0.00     0.338 C 
ATOM     32  O   UNL A   1      40.833  22.120  28.021  1.00  0.00    -0.246 OA
BRANCH  31  33
ATOM     33  C   UNL A   1      41.065  24.284  27.073  1.00  0.00     0.060 A 
ATOM     34  C   UNL A   1      42.208  24.475  27.848  1.00  0.00     0.016 A 
ATOM     35  C   UNL A   1      40.279  25.344  26.604  1.00  0.00     0.016 A 
ATOM     36  C   UNL A   1      42.337  25.684  28.479  1.00  0.00     0.010 A 
ATOM     37  C   UNL A   1      40.389  26.537  27.261  1.00  0.00     0.010 A 
ATOM     38  C   UNL A   1      41.344  26.643  28.270  1.00  0.00    -0.014 A 
BRANCH  38  39
ATOM     39  C   UNL A   1      41.406  27.859  29.043  1.00  0.00     0.031 A 
ATOM     40  C   UNL A   1      42.555  28.673  28.605  1.00  0.00     0.074 A 
ATOM     41  C   UNL A   1      40.454  28.190  29.936  1.00  0.00     0.049 A 
ATOM     42  N   UNL A   1      43.698  28.805  29.192  1.00  0.00    -0.248 NA
ATOM     43  C   UNL A   1      42.542  29.152  27.208  1.00  0.00     0.031 C 
ATOM     44  C   UNL A   1      39.170  27.520  30.180  1.00  0.00     0.029 A 
ATOM     45  N   UNL A   1      40.391  29.271  30.758  1.00  0.00    -0.354 N 
ATOM     46  C   UNL A   1      44.419  29.645  28.351  1.00  0.00     0.074 A 
ATOM     47  C   UNL A   1      43.805  29.556  27.056  1.00  0.00     0.031 C 
ATOM     48  C   UNL A   1      38.369  28.335  30.906  1.00  0.00     0.029 A 
ATOM     49  C   UNL A   1      39.125  29.512  31.297  1.00  0.00     0.049 A 
ATOM     50  H   UNL A   1      41.172  29.837  30.957  1.00  0.00     0.167 HD
ATOM     51  C   UNL A   1      45.178  30.648  28.868  1.00  0.00     0.037 A 
ATOM     52  C   UNL A   1      38.756  30.646  31.948  1.00  0.00     0.037 A 
ATOM     53  C   UNL A   1      45.408  30.444  30.273  1.00  0.00     0.049 A 
ATOM     54  C   UNL A   1      40.015  31.298  32.399  1.00  0.00     0.074 A 
ATOM     55  C   UNL A   1      46.154  29.572  31.036  1.00  0.00     0.029 A 
ATOM     56  N   UNL A   1      44.419  30.953  31.078  1.00  0.00    -0.354 N 
ATOM     57  N   UNL A   1      40.816  30.773  33.286  1.00  0.00    -0.248 NA
ATOM     58  C   UNL A   1      40.597  32.354  31.579  1.00  0.00     0.031 C 
ATOM     59  C   UNL A   1      45.457  29.431  32.273  1.00  0.00     0.029 A 
ATOM     60  C   UNL A   1      44.334  30.259  32.255  1.00  0.00     0.049 A 
ATOM     61  H   UNL A   1      43.848  31.718  30.840  1.00  0.00     0.167 HD
ATOM     62  C   UNL A   1      42.085  31.134  32.868  1.00  0.00     0.074 A 
ATOM     63  C   UNL A   1      41.882  32.225  31.920  1.00  0.00     0.031 C 
ATOM     64  C   UNL A   1      43.148  30.308  33.085  1.00  0.00     0.037 A 
BRANCH  51  65
ATOM     65  C   UNL A   1      45.268  32.016  28.231  1.00  0.00     0.058 A 
ATOM     66  C   UNL A   1      46.513  32.497  27.789  1.00  0.00     0.135 A 
ATOM     67  C   UNL A   1      44.225  32.974  28.260  1.00  0.00     0.135 A 
ATOM     68  F   UNL A   1      47.587  31.693  27.778  1.00  0.00    -0.206 F 
ATOM     69  C   UNL A   1      46.701  33.826  27.397  1.00  0.00     0.059 A 
ATOM     70  C   UNL A   1      44.372  34.278  27.813  1.00  0.00     0.059 A 
ATOM     71  F   UNL A   1      43.034  32.725  28.816  1.00  0.00    -0.206 F 
ATOM     72  C   UNL A   1      45.620  34.705  27.405  1.00  0.00     0.060 A 
BRANCH  72  73
ATOM     73  S   UNL A   1      45.855  36.422  26.919  1.00  0.00     0.124 S 
ATOM     74  O   UNL A   1      46.591  36.951  28.059  1.00  0.00    -0.237 OA
ATOM     75  O   UNL A   1      46.606  36.280  25.676  1.00  0.00    -0.237 OA
ATOM     76  O   UNL A   1      44.489  36.917  26.763  1.00  0.00    -0.744 OA
ENDBRANCH  72  73
ENDBRANCH  51  65
BRANCH  52  77
ATOM     77  C   UNL A   1      37.467  31.390  31.911  1.00  0.00     0.058 A 
ATOM     78  C   UNL A   1      36.776  31.686  33.103  1.00  0.00     0.135 A 
ATOM     79  C   UNL A   1      37.067  32.107  30.769  1.00  0.00     0.135 A 
ATOM     80  F   UNL A   1      37.092  31.052  34.243  1.00  0.00    -0.206 F 
ATOM     81  C   UNL A   1      35.809  32.695  33.177  1.00  0.00     0.059 A 
ATOM     82  C   UNL A   1      36.101  33.115  30.816  1.00  0.00     0.059 A 
ATOM     83  F   UNL A   1      37.678  31.921  29.589  1.00  0.00    -0.206 F 
ATOM     84  C   UNL A   1      35.503  33.429  32.032  1.00  0.00     0.060 A 
BRANCH  84  85
ATOM     85  S   UNL A   1      34.417  34.872  32.170  1.00  0.00     0.124 S 
ATOM     86  O   UNL A   1      33.314  34.346  32.967  1.00  0.00    -0.237 OA
ATOM     87  O   UNL A   1      35.281  35.840  32.836  1.00  0.00    -0.237 OA
ATOM     88  O   UNL A   1      34.091  35.183  30.781  1.00  0.00    -0.744 OA
ENDBRANCH  84  85
ENDBRANCH  52  77
BRANCH  64  89
ATOM     89  C   UNL A   1      43.023  29.291  34.184  1.00  0.00     0.058 A 
ATOM     90  C   UNL A   1      43.159  29.558  35.558  1.00  0.00     0.135 A 
ATOM     91  C   UNL A   1      42.642  27.993  33.816  1.00  0.00     0.135 A 
ATOM     92  F   UNL A   1      43.447  30.793  35.992  1.00  0.00    -0.206 F 
ATOM     93  C   UNL A   1      42.950  28.566  36.520  1.00  0.00     0.059 A 
ATOM     94  C   UNL A   1      42.399  26.998  34.755  1.00  0.00     0.059 A 
ATOM     95  F   UNL A   1      42.453  27.691  32.521  1.00  0.00    -0.206 F 
ATOM     96  C   UNL A   1      42.565  27.289  36.107  1.00  0.00     0.060 A 
BRANCH  96  97
ATOM     97  S   UNL A   1      42.227  26.019  37.347  1.00  0.00     0.124 S 
ATOM     98  O   UNL A   1      40.804  26.210  37.603  1.00  0.00    -0.237 OA
ATOM     99  O   UNL A   1      42.587  24.791  36.643  1.00  0.00    -0.237 OA
ATOM    100  O   UNL A   1      43.113  26.376  38.452  1.00  0.00    -0.744 OA
ENDBRANCH  96  97
ENDBRANCH  64  89
ENDBRANCH  38  39
ENDBRANCH  31  33
ENDBRANCH  30  31
ENDBRANCH  29  30
ENDBRANCH  28  29
ENDBRANCH   1  28
TORSDOF 20
ENDMDL
