MODEL 1
REMARK VINA RESULT:     -11.3      0.000      0.000
REMARK SMILES COc1cc([C@@H]2CC(=O)Nc3c(C(=O)OCCOCCOC(=O)c4ccc(-c5c6nc(c(-c7c(F)cc(S(=O)(=O)[O-])cc7F)c7ccc([nH]7)c(-c7c(F)cc(S(=O)(=O)[O-])cc7F)c7nc(c(-c8c(F)cc(S(=O)(=O)[O-])cc8F)c8ccc5[nH]8)C=C7)C=C6)cc4)cn(-c4ccc(F)cc4)c32)c(OC)c2c1OCO2
REMARK SMILES IDX 19 1 18 2 17 3 16 4 15 5 13 6 14 7 12 8 6 9 7 10 99 11 8 12
REMARK SMILES IDX 11 13 91 14 9 15 10 16 90 17 5 19 3 20 4 21 104 22 103 23
REMARK SMILES IDX 105 24 100 25 107 26 106 27 2 28 1 29 101 30 102 31 92 32
REMARK SMILES IDX 93 33 98 34 94 35 97 36 95 37 96 38 20 39 21 40 22 41 23 42
REMARK SMILES IDX 24 43 25 44 89 45 26 46 88 47 27 48 28 49 29 50 82 51 30 52
REMARK SMILES IDX 87 53 81 54 83 55 31 56 86 57 80 58 79 59 32 61 66 62 45 63
REMARK SMILES IDX 65 64 46 65 49 66 64 67 84 68 47 69 48 70 63 72 85 73 50 74
REMARK SMILES IDX 33 75 34 76 43 77 35 78 36 79 42 80 44 81 37 82 38 83 39 84
REMARK SMILES IDX 40 85 41 86 67 87 68 88 77 89 69 90 70 91 76 92 78 93 71 94
REMARK SMILES IDX 72 95 73 96 74 97 75 98 51 99 52 100 61 101 53 102 54 103
REMARK SMILES IDX 60 104 62 105 55 106 56 107 57 108 58 109 59 110
REMARK H PARENT 10 18 83 60 49 71
REMARK Flexibility Score: inf
ROOT
ATOM      1  C   UNL A   1      33.383  31.345  27.499  1.00  0.00     0.202 C 
ENDROOT
BRANCH   1   2
ATOM      2  O   UNL A   1      33.117  30.184  26.719  1.00  0.00    -0.374 OA
BRANCH   2   3
ATOM      3  C   UNL A   1      31.883  29.487  26.877  1.00  0.00     0.202 C 
BRANCH   3   4
ATOM      4  C   UNL A   1      31.920  27.957  26.930  1.00  0.00     0.261 C 
BRANCH   4   5
ATOM      5  O   UNL A   1      31.734  27.339  25.646  1.00  0.00    -0.460 OA
BRANCH   5   6
ATOM      6  C   UNL A   1      32.891  27.025  24.991  1.00  0.00     0.341 C 
ATOM      7  O   UNL A   1      33.515  27.793  24.271  1.00  0.00    -0.246 OA
BRANCH   6   8
ATOM      8  C   UNL A   1      33.393  25.703  25.336  1.00  0.00     0.102 A 
ATOM      9  C   UNL A   1      33.321  22.125  26.344  1.00  0.00     0.082 C 
ATOM     10  C   UNL A   1      32.001  22.162  27.144  1.00  0.00     0.115 C 
ATOM     11  C   UNL A   1      33.644  23.508  25.861  1.00  0.00     0.055 A 
ATOM     12  C   UNL A   1      30.957  23.148  26.628  1.00  0.00     0.225 C 
ATOM     13  C   UNL A   1      32.731  24.538  25.785  1.00  0.00     0.078 A 
ATOM     14  N   UNL A   1      34.891  24.036  25.601  1.00  0.00    -0.317 N 
ATOM     15  O   UNL A   1      29.751  22.956  26.782  1.00  0.00    -0.275 OA
ATOM     16  N   UNL A   1      31.410  24.330  26.095  1.00  0.00    -0.324 N 
ATOM     17  C   UNL A   1      34.742  25.378  25.330  1.00  0.00     0.109 A 
ATOM     18  H   UNL A   1      30.763  25.053  25.931  1.00  0.00     0.170 HD
BRANCH   9  19
ATOM     19  C   UNL A   1      33.290  21.000  25.302  1.00  0.00     0.012 A 
ATOM     20  C   UNL A   1      33.464  18.559  24.952  1.00  0.00     0.165 A 
ATOM     21  C   UNL A   1      33.617  19.691  25.756  1.00  0.00     0.059 A 
ATOM     22  C   UNL A   1      32.915  18.745  23.701  1.00  0.00     0.211 A 
ATOM     23  C   UNL A   1      32.606  20.009  23.226  1.00  0.00     0.211 A 
ATOM     24  O   UNL A   1      32.576  17.769  22.810  1.00  0.00    -0.449 OA
ATOM     25  C   UNL A   1      32.812  21.160  23.983  1.00  0.00     0.168 A 
ATOM     26  O   UNL A   1      32.067  19.945  21.971  1.00  0.00    -0.449 OA
ATOM     27  C   UNL A   1      31.882  18.532  21.813  1.00  0.00     0.468 C 
BRANCH  20  28
ATOM     28  O   UNL A   1      33.807  17.376  25.537  1.00  0.00    -0.493 OA
ATOM     29  C   UNL A   1      32.739  16.464  25.764  1.00  0.00     0.278 C 
ENDBRANCH  20  28
BRANCH  25  30
ATOM     30  O   UNL A   1      32.589  22.439  23.570  1.00  0.00    -0.492 OA
ATOM     31  C   UNL A   1      33.318  22.921  22.450  1.00  0.00     0.278 C 
ENDBRANCH  25  30
ENDBRANCH   9  19
BRANCH  14  32
ATOM     32  C   UNL A   1      36.130  23.367  25.594  1.00  0.00     0.046 A 
ATOM     33  C   UNL A   1      36.276  22.224  24.804  1.00  0.00     0.029 A 
ATOM     34  C   UNL A   1      37.202  23.875  26.338  1.00  0.00     0.029 A 
ATOM     35  C   UNL A   1      37.498  21.554  24.792  1.00  0.00     0.041 A 
ATOM     36  C   UNL A   1      38.414  23.184  26.336  1.00  0.00     0.041 A 
ATOM     37  C   UNL A   1      38.550  22.031  25.566  1.00  0.00     0.123 A 
ATOM     38  F   UNL A   1      39.717  21.374  25.563  1.00  0.00    -0.207 F 
ENDBRANCH  14  32
ENDBRANCH   6   8
ENDBRANCH   5   6
ENDBRANCH   4   5
ENDBRANCH   3   4
ENDBRANCH   2   3
ENDBRANCH   1   2
BRANCH   1  39
ATOM     39  C   UNL A   1      34.818  31.834  27.614  1.00  0.00     0.261 C 
BRANCH  39  40
ATOM     40  O   UNL A   1      35.597  30.988  28.442  1.00  0.00    -0.460 OA
BRANCH  40  41
ATOM     41  C   UNL A   1      35.697  31.415  29.725  1.00  0.00     0.338 C 
ATOM     42  O   UNL A   1      35.094  32.331  30.244  1.00  0.00    -0.246 OA
BRANCH  41  43
ATOM     43  C   UNL A   1      36.799  30.680  30.356  1.00  0.00     0.060 A 
ATOM     44  C   UNL A   1      37.844  31.462  30.849  1.00  0.00     0.016 A 
ATOM     45  C   UNL A   1      36.934  29.304  30.120  1.00  0.00     0.016 A 
ATOM     46  C   UNL A   1      39.105  30.919  30.842  1.00  0.00     0.010 A 
ATOM     47  C   UNL A   1      38.194  28.771  30.094  1.00  0.00     0.010 A 
ATOM     48  C   UNL A   1      39.266  29.617  30.355  1.00  0.00    -0.014 A 
BRANCH  48  49
ATOM     49  C   UNL A   1      40.605  29.098  30.229  1.00  0.00     0.031 A 
ATOM     50  C   UNL A   1      41.272  29.002  31.541  1.00  0.00     0.074 A 
ATOM     51  C   UNL A   1      41.113  28.669  29.059  1.00  0.00     0.049 A 
ATOM     52  N   UNL A   1      42.163  29.806  32.015  1.00  0.00    -0.248 NA
ATOM     53  C   UNL A   1      40.701  28.080  32.537  1.00  0.00     0.031 C 
ATOM     54  C   UNL A   1      40.443  28.494  27.770  1.00  0.00     0.029 A 
ATOM     55  N   UNL A   1      42.366  28.209  28.812  1.00  0.00    -0.354 N 
ATOM     56  C   UNL A   1      42.453  29.313  33.279  1.00  0.00     0.074 A 
ATOM     57  C   UNL A   1      41.364  28.446  33.634  1.00  0.00     0.031 C 
ATOM     58  C   UNL A   1      41.231  27.754  26.954  1.00  0.00     0.029 A 
ATOM     59  C   UNL A   1      42.504  27.519  27.612  1.00  0.00     0.049 A 
ATOM     60  H   UNL A   1      43.117  28.353  29.434  1.00  0.00     0.167 HD
ATOM     61  C   UNL A   1      43.708  29.421  33.795  1.00  0.00     0.037 A 
ATOM     62  C   UNL A   1      43.576  26.753  27.269  1.00  0.00     0.037 A 
ATOM     63  C   UNL A   1      44.486  30.392  33.064  1.00  0.00     0.049 A 
ATOM     64  C   UNL A   1      44.714  27.210  28.125  1.00  0.00     0.074 A 
ATOM     65  C   UNL A   1      44.337  31.739  32.794  1.00  0.00     0.029 A 
ATOM     66  N   UNL A   1      45.380  29.916  32.132  1.00  0.00    -0.354 N 
ATOM     67  N   UNL A   1      45.256  28.395  28.020  1.00  0.00    -0.248 NA
ATOM     68  C   UNL A   1      44.883  26.564  29.421  1.00  0.00     0.031 C 
ATOM     69  C   UNL A   1      44.758  31.894  31.441  1.00  0.00     0.029 A 
ATOM     70  C   UNL A   1      45.221  30.659  30.988  1.00  0.00     0.049 A 
ATOM     71  H   UNL A   1      46.018  29.179  32.262  1.00  0.00     0.167 HD
ATOM     72  C   UNL A   1      45.454  28.818  29.328  1.00  0.00     0.074 A 
ATOM     73  C   UNL A   1      45.257  27.623  30.148  1.00  0.00     0.031 C 
ATOM     74  C   UNL A   1      45.458  30.145  29.655  1.00  0.00     0.037 A 
BRANCH  61  75
ATOM     75  C   UNL A   1      44.335  28.378  34.683  1.00  0.00     0.058 A 
ATOM     76  C   UNL A   1      44.940  28.784  35.887  1.00  0.00     0.135 A 
ATOM     77  C   UNL A   1      44.606  27.050  34.280  1.00  0.00     0.135 A 
ATOM     78  F   UNL A   1      44.761  30.030  36.356  1.00  0.00    -0.206 F 
ATOM     79  C   UNL A   1      45.801  27.954  36.602  1.00  0.00     0.059 A 
ATOM     80  C   UNL A   1      45.411  26.187  35.010  1.00  0.00     0.059 A 
ATOM     81  F   UNL A   1      44.188  26.548  33.113  1.00  0.00    -0.206 F 
ATOM     82  C   UNL A   1      46.038  26.660  36.148  1.00  0.00     0.060 A 
BRANCH  82  83
ATOM     83  S   UNL A   1      47.216  25.617  37.018  1.00  0.00     0.124 S 
ATOM     84  O   UNL A   1      46.445  25.225  38.192  1.00  0.00    -0.237 OA
ATOM     85  O   UNL A   1      47.468  24.567  36.035  1.00  0.00    -0.237 OA
ATOM     86  O   UNL A   1      48.339  26.515  37.270  1.00  0.00    -0.744 OA
ENDBRANCH  82  83
ENDBRANCH  61  75
BRANCH  62  87
ATOM     87  C   UNL A   1      43.572  25.438  26.567  1.00  0.00     0.058 A 
ATOM     88  C   UNL A   1      44.365  25.210  25.425  1.00  0.00     0.135 A 
ATOM     89  C   UNL A   1      43.008  24.290  27.160  1.00  0.00     0.135 A 
ATOM     90  F   UNL A   1      44.961  26.238  24.803  1.00  0.00    -0.206 F 
ATOM     91  C   UNL A   1      44.621  23.921  24.934  1.00  0.00     0.059 A 
ATOM     92  C   UNL A   1      43.243  22.999  26.685  1.00  0.00     0.059 A 
ATOM     93  F   UNL A   1      42.281  24.376  28.284  1.00  0.00    -0.206 F 
ATOM     94  C   UNL A   1      44.072  22.818  25.586  1.00  0.00     0.060 A 
BRANCH  94  95
ATOM     95  S   UNL A   1      44.538  21.145  25.076  1.00  0.00     0.124 S 
ATOM     96  O   UNL A   1      44.443  21.234  23.622  1.00  0.00    -0.237 OA
ATOM     97  O   UNL A   1      45.886  21.019  25.620  1.00  0.00    -0.237 OA
ATOM     98  O   UNL A   1      43.530  20.302  25.715  1.00  0.00    -0.744 OA
ENDBRANCH  94  95
ENDBRANCH  62  87
BRANCH  74  99
ATOM     99  C   UNL A   1      45.500  31.163  28.542  1.00  0.00     0.058 A 
ATOM    100  C   UNL A   1      44.365  31.744  27.946  1.00  0.00     0.135 A 
ATOM    101  C   UNL A   1      46.748  31.695  28.189  1.00  0.00     0.135 A 
ATOM    102  F   UNL A   1      43.130  31.369  28.306  1.00  0.00    -0.206 F 
ATOM    103  C   UNL A   1      44.472  32.778  27.012  1.00  0.00     0.059 A 
ATOM    104  C   UNL A   1      46.878  32.746  27.286  1.00  0.00     0.059 A 
ATOM    105  F   UNL A   1      47.866  31.230  28.772  1.00  0.00    -0.206 F 
ATOM    106  C   UNL A   1      45.735  33.274  26.689  1.00  0.00     0.060 A 
BRANCH 106 107
ATOM    107  S   UNL A   1      45.876  34.653  25.530  1.00  0.00     0.124 S 
ATOM    108  O   UNL A   1      44.975  34.245  24.458  1.00  0.00    -0.237 OA
ATOM    109  O   UNL A   1      45.434  35.789  26.334  1.00  0.00    -0.237 OA
ATOM    110  O   UNL A   1      47.296  34.663  25.183  1.00  0.00    -0.744 OA
ENDBRANCH 106 107
ENDBRANCH  74  99
ENDBRANCH  48  49
ENDBRANCH  41  43
ENDBRANCH  40  41
ENDBRANCH  39  40
ENDBRANCH   1  39
TORSDOF 21
ENDMDL
MODEL 2
REMARK VINA RESULT:     -10.4      5.204      9.702
REMARK SMILES COc1cc([C@@H]2CC(=O)Nc3c(C(=O)OCCOCCOC(=O)c4ccc(-c5c6nc(c(-c7c(F)cc(S(=O)(=O)[O-])cc7F)c7ccc([nH]7)c(-c7c(F)cc(S(=O)(=O)[O-])cc7F)c7nc(c(-c8c(F)cc(S(=O)(=O)[O-])cc8F)c8ccc5[nH]8)C=C7)C=C6)cc4)cn(-c4ccc(F)cc4)c32)c(OC)c2c1OCO2
REMARK SMILES IDX 19 1 18 2 17 3 16 4 15 5 13 6 14 7 12 8 6 9 7 10 99 11 8 12
REMARK SMILES IDX 11 13 91 14 9 15 10 16 90 17 5 19 3 20 4 21 104 22 103 23
REMARK SMILES IDX 105 24 100 25 107 26 106 27 2 28 1 29 101 30 102 31 92 32
REMARK SMILES IDX 93 33 98 34 94 35 97 36 95 37 96 38 20 39 21 40 22 41 23 42
REMARK SMILES IDX 24 43 25 44 89 45 26 46 88 47 27 48 28 49 29 50 82 51 30 52
REMARK SMILES IDX 87 53 81 54 83 55 31 56 86 57 80 58 79 59 32 61 66 62 45 63
REMARK SMILES IDX 65 64 46 65 49 66 64 67 84 68 47 69 48 70 63 72 85 73 50 74
REMARK SMILES IDX 33 75 34 76 43 77 35 78 36 79 42 80 44 81 37 82 38 83 39 84
REMARK SMILES IDX 40 85 41 86 67 87 68 88 77 89 69 90 70 91 76 92 78 93 71 94
REMARK SMILES IDX 72 95 73 96 74 97 75 98 51 99 52 100 61 101 53 102 54 103
REMARK SMILES IDX 60 104 62 105 55 106 56 107 57 108 58 109 59 110
REMARK H PARENT 10 18 83 60 49 71
REMARK Flexibility Score: inf
ROOT
ATOM      1  C   UNL A   1      41.967  22.639  27.793  1.00  0.00     0.202 C 
ENDROOT
BRANCH   1   2
ATOM      2  O   UNL A   1      41.014  23.679  27.983  1.00  0.00    -0.374 OA
BRANCH   2   3
ATOM      3  C   UNL A   1      41.454  25.011  28.242  1.00  0.00     0.202 C 
BRANCH   3   4
ATOM      4  C   UNL A   1      40.909  26.136  27.358  1.00  0.00     0.261 C 
BRANCH   4   5
ATOM      5  O   UNL A   1      39.835  26.870  27.970  1.00  0.00    -0.460 OA
BRANCH   5   6
ATOM      6  C   UNL A   1      39.859  28.216  27.738  1.00  0.00     0.341 C 
ATOM      7  O   UNL A   1      40.596  28.770  26.934  1.00  0.00    -0.246 OA
BRANCH   6   8
ATOM      8  C   UNL A   1      38.818  28.932  28.459  1.00  0.00     0.102 A 
ATOM      9  C   UNL A   1      36.841  30.184  31.348  1.00  0.00     0.082 C 
ATOM     10  C   UNL A   1      37.128  29.017  32.317  1.00  0.00     0.115 C 
ATOM     11  C   UNL A   1      37.485  29.897  30.025  1.00  0.00     0.055 A 
ATOM     12  C   UNL A   1      38.501  28.369  32.162  1.00  0.00     0.225 C 
ATOM     13  C   UNL A   1      38.490  28.972  29.833  1.00  0.00     0.078 A 
ATOM     14  N   UNL A   1      37.082  30.337  28.781  1.00  0.00    -0.317 N 
ATOM     15  O   UNL A   1      39.076  27.833  33.110  1.00  0.00    -0.275 OA
ATOM     16  N   UNL A   1      39.023  28.285  30.895  1.00  0.00    -0.324 N 
ATOM     17  C   UNL A   1      37.860  29.714  27.831  1.00  0.00     0.109 A 
ATOM     18  H   UNL A   1      39.809  27.711  30.744  1.00  0.00     0.170 HD
BRANCH   9  19
ATOM     19  C   UNL A   1      37.159  31.529  32.014  1.00  0.00     0.012 A 
ATOM     20  C   UNL A   1      36.295  33.310  33.494  1.00  0.00     0.165 A 
ATOM     21  C   UNL A   1      36.096  32.171  32.709  1.00  0.00     0.059 A 
ATOM     22  C   UNL A   1      37.590  33.764  33.629  1.00  0.00     0.211 A 
ATOM     23  C   UNL A   1      38.640  33.169  32.948  1.00  0.00     0.211 A 
ATOM     24  O   UNL A   1      38.015  34.779  34.435  1.00  0.00    -0.449 OA
ATOM     25  C   UNL A   1      38.457  32.075  32.106  1.00  0.00     0.168 A 
ATOM     26  O   UNL A   1      39.826  33.782  33.244  1.00  0.00    -0.449 OA
ATOM     27  C   UNL A   1      39.438  34.652  34.315  1.00  0.00     0.468 C 
BRANCH  20  28
ATOM     28  O   UNL A   1      35.179  33.798  34.109  1.00  0.00    -0.493 OA
ATOM     29  C   UNL A   1      33.952  33.597  33.418  1.00  0.00     0.278 C 
ENDBRANCH  20  28
BRANCH  25  30
ATOM     30  O   UNL A   1      39.424  31.472  31.359  1.00  0.00    -0.492 OA
ATOM     31  C   UNL A   1      40.055  32.228  30.335  1.00  0.00     0.278 C 
ENDBRANCH  25  30
ENDBRANCH   9  19
BRANCH  14  32
ATOM     32  C   UNL A   1      36.065  31.263  28.480  1.00  0.00     0.046 A 
ATOM     33  C   UNL A   1      36.340  32.629  28.588  1.00  0.00     0.029 A 
ATOM     34  C   UNL A   1      34.816  30.809  28.038  1.00  0.00     0.029 A 
ATOM     35  C   UNL A   1      35.340  33.552  28.293  1.00  0.00     0.041 A 
ATOM     36  C   UNL A   1      33.815  31.741  27.767  1.00  0.00     0.041 A 
ATOM     37  C   UNL A   1      34.085  33.102  27.898  1.00  0.00     0.123 A 
ATOM     38  F   UNL A   1      33.122  33.994  27.632  1.00  0.00    -0.207 F 
ENDBRANCH  14  32
ENDBRANCH   6   8
ENDBRANCH   5   6
ENDBRANCH   4   5
ENDBRANCH   3   4
ENDBRANCH   2   3
ENDBRANCH   1   2
BRANCH   1  39
ATOM     39  C   UNL A   1      41.814  21.717  26.593  1.00  0.00     0.261 C 
BRANCH  39  40
ATOM     40  O   UNL A   1      42.280  22.324  25.401  1.00  0.00    -0.460 OA
BRANCH  40  41
ATOM     41  C   UNL A   1      43.547  21.975  25.066  1.00  0.00     0.338 C 
ATOM     42  O   UNL A   1      43.947  20.873  24.752  1.00  0.00    -0.246 OA
BRANCH  41  43
ATOM     43  C   UNL A   1      44.409  23.136  25.310  1.00  0.00     0.060 A 
ATOM     44  C   UNL A   1      45.612  22.870  25.964  1.00  0.00     0.016 A 
ATOM     45  C   UNL A   1      43.867  24.427  25.225  1.00  0.00     0.016 A 
ATOM     46  C   UNL A   1      46.130  23.853  26.771  1.00  0.00     0.010 A 
ATOM     47  C   UNL A   1      44.373  25.398  26.046  1.00  0.00     0.010 A 
ATOM     48  C   UNL A   1      45.432  25.060  26.882  1.00  0.00    -0.014 A 
BRANCH  48  49
ATOM     49  C   UNL A   1      45.908  26.039  27.827  1.00  0.00     0.031 A 
ATOM     50  C   UNL A   1      45.310  25.835  29.160  1.00  0.00     0.074 A 
ATOM     51  C   UNL A   1      46.854  26.946  27.523  1.00  0.00     0.049 A 
ATOM     52  N   UNL A   1      44.354  26.520  29.690  1.00  0.00    -0.248 NA
ATOM     53  C   UNL A   1      45.619  24.582  29.868  1.00  0.00     0.031 C 
ATOM     54  C   UNL A   1      47.674  27.056  26.315  1.00  0.00     0.029 A 
ATOM     55  N   UNL A   1      47.342  27.939  28.310  1.00  0.00    -0.354 N 
ATOM     56  C   UNL A   1      44.133  25.929  30.926  1.00  0.00     0.074 A 
ATOM     57  C   UNL A   1      44.732  24.625  30.863  1.00  0.00     0.031 C 
ATOM     58  C   UNL A   1      48.702  27.905  26.550  1.00  0.00     0.029 A 
ATOM     59  C   UNL A   1      48.539  28.494  27.868  1.00  0.00     0.049 A 
ATOM     60  H   UNL A   1      46.884  28.242  29.128  1.00  0.00     0.167 HD
ATOM     61  C   UNL A   1      43.746  26.678  31.994  1.00  0.00     0.037 A 
ATOM     62  C   UNL A   1      49.343  29.306  28.606  1.00  0.00     0.037 A 
ATOM     63  C   UNL A   1      43.256  27.967  31.571  1.00  0.00     0.049 A 
ATOM     64  C   UNL A   1      48.487  29.881  29.688  1.00  0.00     0.074 A 
ATOM     65  C   UNL A   1      42.233  28.383  30.739  1.00  0.00     0.029 A 
ATOM     66  N   UNL A   1      44.112  29.040  31.683  1.00  0.00    -0.354 N 
ATOM     67  N   UNL A   1      47.503  30.709  29.457  1.00  0.00    -0.248 NA
ATOM     68  C   UNL A   1      48.386  29.133  30.936  1.00  0.00     0.031 C 
ATOM     69  C   UNL A   1      42.770  29.488  30.017  1.00  0.00     0.029 A 
ATOM     70  C   UNL A   1      44.053  29.742  30.504  1.00  0.00     0.049 A 
ATOM     71  H   UNL A   1      44.666  29.262  32.465  1.00  0.00     0.167 HD
ATOM     72  C   UNL A   1      46.472  30.286  30.286  1.00  0.00     0.074 A 
ATOM     73  C   UNL A   1      47.096  29.344  31.216  1.00  0.00     0.031 C 
ATOM     74  C   UNL A   1      45.161  30.496  29.960  1.00  0.00     0.037 A 
BRANCH  61  75
ATOM     75  C   UNL A   1      44.181  26.397  33.409  1.00  0.00     0.058 A 
ATOM     76  C   UNL A   1      43.219  26.429  34.436  1.00  0.00     0.135 A 
ATOM     77  C   UNL A   1      45.529  26.366  33.834  1.00  0.00     0.135 A 
ATOM     78  F   UNL A   1      41.909  26.475  34.144  1.00  0.00    -0.206 F 
ATOM     79  C   UNL A   1      43.573  26.493  35.783  1.00  0.00     0.059 A 
ATOM     80  C   UNL A   1      45.901  26.367  35.171  1.00  0.00     0.059 A 
ATOM     81  F   UNL A   1      46.559  26.435  32.983  1.00  0.00    -0.206 F 
ATOM     82  C   UNL A   1      44.918  26.472  36.138  1.00  0.00     0.060 A 
BRANCH  82  83
ATOM     83  S   UNL A   1      45.381  26.644  37.867  1.00  0.00     0.124 S 
ATOM     84  O   UNL A   1      44.282  27.451  38.384  1.00  0.00    -0.237 OA
ATOM     85  O   UNL A   1      45.418  25.252  38.306  1.00  0.00    -0.237 OA
ATOM     86  O   UNL A   1      46.679  27.310  37.804  1.00  0.00    -0.744 OA
ENDBRANCH  82  83
ENDBRANCH  61  75
BRANCH  62  87
ATOM     87  C   UNL A   1      50.832  29.300  28.674  1.00  0.00     0.058 A 
ATOM     88  C   UNL A   1      51.586  30.470  28.451  1.00  0.00     0.135 A 
ATOM     89  C   UNL A   1      51.538  28.215  29.233  1.00  0.00     0.135 A 
ATOM     90  F   UNL A   1      50.996  31.562  27.942  1.00  0.00    -0.206 F 
ATOM     91  C   UNL A   1      52.939  30.571  28.806  1.00  0.00     0.059 A 
ATOM     92  C   UNL A   1      52.886  28.290  29.588  1.00  0.00     0.059 A 
ATOM     93  F   UNL A   1      50.916  27.068  29.542  1.00  0.00    -0.206 F 
ATOM     94  C   UNL A   1      53.575  29.480  29.396  1.00  0.00     0.060 A 
BRANCH  94  95
ATOM     95  S   UNL A   1      55.264  29.654  30.024  1.00  0.00     0.124 S 
ATOM     96  O   UNL A   1      56.025  28.846  29.077  1.00  0.00    -0.237 OA
ATOM     97  O   UNL A   1      55.477  31.095  29.949  1.00  0.00    -0.237 OA
ATOM     98  O   UNL A   1      55.180  29.110  31.378  1.00  0.00    -0.744 OA
ENDBRANCH  94  95
ENDBRANCH  62  87
BRANCH  74  99
ATOM     99  C   UNL A   1      44.844  31.421  28.811  1.00  0.00     0.058 A 
ATOM    100  C   UNL A   1      44.819  32.826  28.898  1.00  0.00     0.135 A 
ATOM    101  C   UNL A   1      44.731  30.860  27.531  1.00  0.00     0.135 A 
ATOM    102  F   UNL A   1      45.027  33.447  30.067  1.00  0.00    -0.206 F 
ATOM    103  C   UNL A   1      44.649  33.631  27.768  1.00  0.00     0.059 A 
ATOM    104  C   UNL A   1      44.594  31.641  26.388  1.00  0.00     0.059 A 
ATOM    105  F   UNL A   1      44.814  29.528  27.372  1.00  0.00    -0.206 F 
ATOM    106  C   UNL A   1      44.539  33.028  26.515  1.00  0.00     0.060 A 
BRANCH 106 107
ATOM    107  S   UNL A   1      44.383  34.064  25.043  1.00  0.00     0.124 S 
ATOM    108  O   UNL A   1      45.693  34.702  24.978  1.00  0.00    -0.237 OA
ATOM    109  O   UNL A   1      44.099  33.087  23.996  1.00  0.00    -0.237 OA
ATOM    110  O   UNL A   1      43.271  34.954  25.369  1.00  0.00    -0.744 OA
ENDBRANCH 106 107
ENDBRANCH  74  99
ENDBRANCH  48  49
ENDBRANCH  41  43
ENDBRANCH  40  41
ENDBRANCH  39  40
ENDBRANCH   1  39
TORSDOF 21
ENDMDL
MODEL 3
REMARK VINA RESULT:     -10.3      4.521     11.055
REMARK SMILES COc1cc([C@@H]2CC(=O)Nc3c(C(=O)OCCOCCOC(=O)c4ccc(-c5c6nc(c(-c7c(F)cc(S(=O)(=O)[O-])cc7F)c7ccc([nH]7)c(-c7c(F)cc(S(=O)(=O)[O-])cc7F)c7nc(c(-c8c(F)cc(S(=O)(=O)[O-])cc8F)c8ccc5[nH]8)C=C7)C=C6)cc4)cn(-c4ccc(F)cc4)c32)c(OC)c2c1OCO2
REMARK SMILES IDX 19 1 18 2 17 3 16 4 15 5 13 6 14 7 12 8 6 9 7 10 99 11 8 12
REMARK SMILES IDX 11 13 91 14 9 15 10 16 90 17 5 19 3 20 4 21 104 22 103 23
REMARK SMILES IDX 105 24 100 25 107 26 106 27 2 28 1 29 101 30 102 31 92 32
REMARK SMILES IDX 93 33 98 34 94 35 97 36 95 37 96 38 20 39 21 40 22 41 23 42
REMARK SMILES IDX 24 43 25 44 89 45 26 46 88 47 27 48 28 49 29 50 82 51 30 52
REMARK SMILES IDX 87 53 81 54 83 55 31 56 86 57 80 58 79 59 32 61 66 62 45 63
REMARK SMILES IDX 65 64 46 65 49 66 64 67 84 68 47 69 48 70 63 72 85 73 50 74
REMARK SMILES IDX 33 75 34 76 43 77 35 78 36 79 42 80 44 81 37 82 38 83 39 84
REMARK SMILES IDX 40 85 41 86 67 87 68 88 77 89 69 90 70 91 76 92 78 93 71 94
REMARK SMILES IDX 72 95 73 96 74 97 75 98 51 99 52 100 61 101 53 102 54 103
REMARK SMILES IDX 60 104 62 105 55 106 56 107 57 108 58 109 59 110
REMARK H PARENT 10 18 83 60 49 71
REMARK Flexibility Score: inf
ROOT
ATOM      1  C   UNL A   1      34.336  29.997  27.128  1.00  0.00     0.202 C 
ENDROOT
BRANCH   1   2
ATOM      2  O   UNL A   1      35.423  29.379  27.807  1.00  0.00    -0.374 OA
BRANCH   2   3
ATOM      3  C   UNL A   1      36.747  29.880  27.639  1.00  0.00     0.202 C 
BRANCH   3   4
ATOM      4  C   UNL A   1      37.916  28.993  28.078  1.00  0.00     0.261 C 
BRANCH   4   5
ATOM      5  O   UNL A   1      38.116  28.981  29.501  1.00  0.00    -0.460 OA
BRANCH   5   6
ATOM      6  C   UNL A   1      39.213  28.280  29.917  1.00  0.00     0.341 C 
ATOM      7  O   UNL A   1      39.654  28.290  31.058  1.00  0.00    -0.246 OA
BRANCH   6   8
ATOM      8  C   UNL A   1      39.747  27.405  28.885  1.00  0.00     0.102 A 
ATOM      9  C   UNL A   1      41.893  26.285  26.062  1.00  0.00     0.082 C 
ATOM     10  C   UNL A   1      42.170  27.675  25.449  1.00  0.00     0.115 C 
ATOM     11  C   UNL A   1      40.956  26.436  27.224  1.00  0.00     0.055 A 
ATOM     12  C   UNL A   1      42.236  28.824  26.451  1.00  0.00     0.225 C 
ATOM     13  C   UNL A   1      40.717  27.625  27.881  1.00  0.00     0.078 A 
ATOM     14  N   UNL A   1      40.056  25.508  27.703  1.00  0.00    -0.317 N 
ATOM     15  O   UNL A   1      42.921  29.826  26.245  1.00  0.00    -0.275 OA
ATOM     16  N   UNL A   1      41.400  28.766  27.539  1.00  0.00    -0.324 N 
ATOM     17  C   UNL A   1      39.293  26.111  28.677  1.00  0.00     0.109 A 
ATOM     18  H   UNL A   1      41.288  29.572  28.093  1.00  0.00     0.170 HD
BRANCH   9  19
ATOM     19  C   UNL A   1      43.205  25.530  26.304  1.00  0.00     0.012 A 
ATOM     20  C   UNL A   1      44.588  23.600  25.616  1.00  0.00     0.165 A 
ATOM     21  C   UNL A   1      43.377  24.298  25.613  1.00  0.00     0.059 A 
ATOM     22  C   UNL A   1      45.651  24.186  26.269  1.00  0.00     0.211 A 
ATOM     23  C   UNL A   1      45.507  25.375  26.966  1.00  0.00     0.211 A 
ATOM     24  O   UNL A   1      46.939  23.735  26.294  1.00  0.00    -0.449 OA
ATOM     25  C   UNL A   1      44.293  26.055  27.035  1.00  0.00     0.168 A 
ATOM     26  O   UNL A   1      46.693  25.766  27.522  1.00  0.00    -0.449 OA
ATOM     27  C   UNL A   1      47.607  24.832  26.930  1.00  0.00     0.468 C 
BRANCH  20  28
ATOM     28  O   UNL A   1      44.597  22.443  24.894  1.00  0.00    -0.493 OA
ATOM     29  C   UNL A   1      45.040  22.556  23.547  1.00  0.00     0.278 C 
ENDBRANCH  20  28
BRANCH  25  30
ATOM     30  O   UNL A   1      44.055  27.194  27.744  1.00  0.00    -0.492 OA
ATOM     31  C   UNL A   1      44.136  27.135  29.161  1.00  0.00     0.278 C 
ENDBRANCH  25  30
ENDBRANCH   9  19
BRANCH  14  32
ATOM     32  C   UNL A   1      39.906  24.165  27.307  1.00  0.00     0.046 A 
ATOM     33  C   UNL A   1      38.876  23.830  26.425  1.00  0.00     0.029 A 
ATOM     34  C   UNL A   1      40.811  23.198  27.765  1.00  0.00     0.029 A 
ATOM     35  C   UNL A   1      38.720  22.503  26.029  1.00  0.00     0.041 A 
ATOM     36  C   UNL A   1      40.632  21.869  27.380  1.00  0.00     0.041 A 
ATOM     37  C   UNL A   1      39.589  21.534  26.519  1.00  0.00     0.123 A 
ATOM     38  F   UNL A   1      39.424  20.258  26.148  1.00  0.00    -0.207 F 
ENDBRANCH  14  32
ENDBRANCH   6   8
ENDBRANCH   5   6
ENDBRANCH   4   5
ENDBRANCH   3   4
ENDBRANCH   2   3
ENDBRANCH   1   2
BRANCH   1  39
ATOM     39  C   UNL A   1      33.759  31.286  27.692  1.00  0.00     0.261 C 
BRANCH  39  40
ATOM     40  O   UNL A   1      34.743  32.053  28.363  1.00  0.00    -0.460 OA
BRANCH  40  41
ATOM     41  C   UNL A   1      34.242  32.870  29.322  1.00  0.00     0.338 C 
ATOM     42  O   UNL A   1      33.342  33.675  29.206  1.00  0.00    -0.246 OA
BRANCH  41  43
ATOM     43  C   UNL A   1      35.095  32.741  30.509  1.00  0.00     0.060 A 
ATOM     44  C   UNL A   1      35.316  33.916  31.228  1.00  0.00     0.016 A 
ATOM     45  C   UNL A   1      35.905  31.605  30.654  1.00  0.00     0.016 A 
ATOM     46  C   UNL A   1      36.515  34.046  31.884  1.00  0.00     0.010 A 
ATOM     47  C   UNL A   1      37.109  31.744  31.292  1.00  0.00     0.010 A 
ATOM     48  C   UNL A   1      37.435  32.995  31.805  1.00  0.00    -0.014 A 
BRANCH  48  49
ATOM     49  C   UNL A   1      38.740  33.186  32.385  1.00  0.00     0.031 A 
ATOM     50  C   UNL A   1      39.730  33.581  31.367  1.00  0.00     0.074 A 
ATOM     51  C   UNL A   1      38.968  33.104  33.710  1.00  0.00     0.049 A 
ATOM     52  N   UNL A   1      40.629  32.827  30.829  1.00  0.00    -0.248 NA
ATOM     53  C   UNL A   1      39.534  34.868  30.679  1.00  0.00     0.031 C 
ATOM     54  C   UNL A   1      38.007  32.968  34.805  1.00  0.00     0.029 A 
ATOM     55  N   UNL A   1      40.154  33.216  34.360  1.00  0.00    -0.354 N 
ATOM     56  C   UNL A   1      41.285  33.644  29.920  1.00  0.00     0.074 A 
ATOM     57  C   UNL A   1      40.419  34.766  29.687  1.00  0.00     0.031 C 
ATOM     58  C   UNL A   1      38.627  33.239  35.978  1.00  0.00     0.029 A 
ATOM     59  C   UNL A   1      40.045  33.435  35.730  1.00  0.00     0.049 A 
ATOM     60  H   UNL A   1      41.022  33.148  33.899  1.00  0.00     0.167 HD
ATOM     61  C   UNL A   1      42.613  33.480  29.672  1.00  0.00     0.037 A 
ATOM     62  C   UNL A   1      41.062  33.833  36.541  1.00  0.00     0.037 A 
ATOM     63  C   UNL A   1      43.073  32.196  30.144  1.00  0.00     0.049 A 
ATOM     64  C   UNL A   1      42.331  33.480  35.834  1.00  0.00     0.074 A 
ATOM     65  C   UNL A   1      42.723  30.888  29.869  1.00  0.00     0.029 A 
ATOM     66  N   UNL A   1      43.738  32.164  31.349  1.00  0.00    -0.354 N 
ATOM     67  N   UNL A   1      42.705  32.247  35.611  1.00  0.00    -0.248 NA
ATOM     68  C   UNL A   1      42.895  34.472  34.927  1.00  0.00     0.031 C 
ATOM     69  C   UNL A   1      42.762  30.221  31.128  1.00  0.00     0.029 A 
ATOM     70  C   UNL A   1      43.213  31.131  32.085  1.00  0.00     0.049 A 
ATOM     71  H   UNL A   1      44.459  32.772  31.631  1.00  0.00     0.167 HD
ATOM     72  C   UNL A   1      43.192  32.248  34.311  1.00  0.00     0.074 A 
ATOM     73  C   UNL A   1      43.336  33.660  33.959  1.00  0.00     0.031 C 
ATOM     74  C   UNL A   1      43.146  31.125  33.531  1.00  0.00     0.037 A 
BRANCH  61  75
ATOM     75  C   UNL A   1      43.551  34.620  29.375  1.00  0.00     0.058 A 
ATOM     76  C   UNL A   1      43.654  35.676  30.301  1.00  0.00     0.135 A 
ATOM     77  C   UNL A   1      44.143  34.855  28.112  1.00  0.00     0.135 A 
ATOM     78  F   UNL A   1      43.114  35.565  31.526  1.00  0.00    -0.206 F 
ATOM     79  C   UNL A   1      44.242  36.896  29.974  1.00  0.00     0.059 A 
ATOM     80  C   UNL A   1      44.788  36.040  27.787  1.00  0.00     0.059 A 
ATOM     81  F   UNL A   1      44.043  33.993  27.095  1.00  0.00    -0.206 F 
ATOM     82  C   UNL A   1      44.796  37.071  28.710  1.00  0.00     0.060 A 
BRANCH  82  83
ATOM     83  S   UNL A   1      45.477  38.671  28.253  1.00  0.00     0.124 S 
ATOM     84  O   UNL A   1      44.303  39.340  27.705  1.00  0.00    -0.237 OA
ATOM     85  O   UNL A   1      45.958  39.169  29.537  1.00  0.00    -0.237 OA
ATOM     86  O   UNL A   1      46.519  38.331  27.288  1.00  0.00    -0.744 OA
ENDBRANCH  82  83
ENDBRANCH  61  75
BRANCH  62  87
ATOM     87  C   UNL A   1      41.009  34.821  37.657  1.00  0.00     0.058 A 
ATOM     88  C   UNL A   1      40.406  36.084  37.495  1.00  0.00     0.135 A 
ATOM     89  C   UNL A   1      41.295  34.445  38.985  1.00  0.00     0.135 A 
ATOM     90  F   UNL A   1      40.076  36.520  36.270  1.00  0.00    -0.206 F 
ATOM     91  C   UNL A   1      40.066  36.899  38.584  1.00  0.00     0.059 A 
ATOM     92  C   UNL A   1      40.973  35.243  40.084  1.00  0.00     0.059 A 
ATOM     93  F   UNL A   1      41.818  33.243  39.269  1.00  0.00    -0.206 F 
ATOM     94  C   UNL A   1      40.334  36.459  39.879  1.00  0.00     0.060 A 
BRANCH  94  95
ATOM     95  S   UNL A   1      39.740  37.414  41.298  1.00  0.00     0.124 S 
ATOM     96  O   UNL A   1      40.986  37.899  41.881  1.00  0.00    -0.237 OA
ATOM     97  O   UNL A   1      38.898  38.421  40.662  1.00  0.00    -0.237 OA
ATOM     98  O   UNL A   1      39.023  36.422  42.098  1.00  0.00    -0.744 OA
ENDBRANCH  94  95
ENDBRANCH  62  87
BRANCH  74  99
ATOM     99  C   UNL A   1      42.795  29.809  34.181  1.00  0.00     0.058 A 
ATOM    100  C   UNL A   1      41.503  29.252  34.212  1.00  0.00     0.135 A 
ATOM    101  C   UNL A   1      43.849  29.004  34.638  1.00  0.00     0.135 A 
ATOM    102  F   UNL A   1      40.457  29.911  33.697  1.00  0.00    -0.206 F 
ATOM    103  C   UNL A   1      41.267  27.968  34.712  1.00  0.00     0.059 A 
ATOM    104  C   UNL A   1      43.642  27.711  35.110  1.00  0.00     0.059 A 
ATOM    105  F   UNL A   1      45.113  29.452  34.574  1.00  0.00    -0.206 F 
ATOM    106  C   UNL A   1      42.346  27.204  35.159  1.00  0.00     0.060 A 
BRANCH 106 107
ATOM    107  S   UNL A   1      42.055  25.521  35.748  1.00  0.00     0.124 S 
ATOM    108  O   UNL A   1      40.598  25.453  35.775  1.00  0.00    -0.237 OA
ATOM    109  O   UNL A   1      42.710  24.710  34.725  1.00  0.00    -0.237 OA
ATOM    110  O   UNL A   1      42.706  25.500  37.056  1.00  0.00    -0.744 OA
ENDBRANCH 106 107
ENDBRANCH  74  99
ENDBRANCH  48  49
ENDBRANCH  41  43
ENDBRANCH  40  41
ENDBRANCH  39  40
ENDBRANCH   1  39
TORSDOF 21
ENDMDL
