MODEL 1
REMARK VINA RESULT:      -9.6      0.000      0.000
REMARK SMILES CCCCCCNC(=O)Oc1cccc(-c2ccc([C@@H](C)C(=O)OCCOCCOC(=O)c3ccc(-c4c5nc(c(-c6c(F)cc(S(=O)(=O)[O-])cc6F)c6ccc([nH]6)c(-c6c(F)cc(S(=O)(=O)[O-])cc6F)c6nc(c(-c7c(F)cc(S(=O)(=O)[O-])cc7F)c7ccc4[nH]7)C=C6)C=C5)cc3)cc2O)c1
REMARK SMILES IDX 24 1 22 2 23 3 20 4 21 5 19 6 16 7 17 8 100 9 18 10 99 11
REMARK SMILES IDX 15 12 11 13 12 14 102 15 13 16 14 17 10 18 8 19 7 20 9 22
REMARK SMILES IDX 6 23 5 24 4 25 3 26 2 27 1 28 101 29 25 31 26 32 27 33 28 34
REMARK SMILES IDX 29 35 30 36 31 37 32 38 33 39 34 40 98 41 35 42 97 43 36 44
REMARK SMILES IDX 37 45 38 46 91 47 39 48 96 49 90 50 92 51 40 52 95 53 89 54
REMARK SMILES IDX 88 55 41 57 75 58 54 59 74 60 55 61 58 62 73 63 93 64 56 65
REMARK SMILES IDX 57 66 72 68 94 69 59 70 42 71 43 72 52 73 44 74 45 75 51 76
REMARK SMILES IDX 53 77 46 78 47 79 48 80 49 81 50 82 76 83 77 84 86 85 78 86
REMARK SMILES IDX 79 87 85 88 87 89 80 90 81 91 82 92 83 93 84 94 60 95 61 96
REMARK SMILES IDX 70 97 62 98 63 99 69 100 71 101 64 102 65 103 66 104 67 105
REMARK SMILES IDX 68 106
REMARK H PARENT 7 21 101 30 92 56 58 67
REMARK Flexibility Score: inf
ROOT
ATOM      1  O   UNL A   1      43.727  21.603  26.382  1.00  0.00    -0.463 OA
ENDROOT
BRANCH   1   2
ATOM      2  C   UNL A   1      42.918  22.063  27.370  1.00  0.00     0.313 C 
ATOM      3  O   UNL A   1      43.176  23.026  28.089  1.00  0.00    -0.252 OA
BRANCH   2   4
ATOM      4  C   UNL A   1      41.643  21.253  27.549  1.00  0.00     0.126 C 
ATOM      5  C   UNL A   1      41.932  19.788  27.239  1.00  0.00     0.025 C 
BRANCH   4   6
ATOM      6  C   UNL A   1      40.377  21.746  26.855  1.00  0.00    -0.030 A 
ATOM      7  C   UNL A   1      37.909  22.697  25.765  1.00  0.00     0.024 A 
ATOM      8  C   UNL A   1      38.369  21.391  25.516  1.00  0.00     0.013 A 
ATOM      9  C   UNL A   1      38.728  23.521  26.553  1.00  0.00     0.123 A 
ATOM     10  C   UNL A   1      39.577  20.921  26.055  1.00  0.00     0.005 A 
ATOM     11  C   UNL A   1      39.941  23.064  27.077  1.00  0.00     0.051 A 
BRANCH   7  12
ATOM     12  C   UNL A   1      36.597  23.129  25.244  1.00  0.00    -0.011 A 
ATOM     13  C   UNL A   1      34.262  23.718  25.569  1.00  0.00     0.133 A 
ATOM     14  C   UNL A   1      34.076  23.855  24.196  1.00  0.00     0.047 A 
ATOM     15  C   UNL A   1      35.504  23.353  26.097  1.00  0.00     0.056 A 
ATOM     16  C   UNL A   1      35.153  23.651  23.339  1.00  0.00     0.004 A 
ATOM     17  C   UNL A   1      36.399  23.290  23.859  1.00  0.00     0.009 A 
BRANCH  13  18
ATOM     18  O   UNL A   1      33.119  23.849  26.376  1.00  0.00    -0.410 OA
BRANCH  18  19
ATOM     19  C   UNL A   1      32.771  22.788  27.194  1.00  0.00     0.412 C 
ATOM     20  N   UNL A   1      32.042  21.825  26.557  1.00  0.00    -0.321 N 
ATOM     21  H   UNL A   1      31.779  21.046  27.099  1.00  0.00     0.167 HD
ATOM     22  O   UNL A   1      33.062  22.671  28.385  1.00  0.00    -0.224 OA
BRANCH  20  23
ATOM     23  C   UNL A   1      31.612  21.822  25.172  1.00  0.00     0.119 C 
BRANCH  23  24
ATOM     24  C   UNL A   1      32.162  20.619  24.404  1.00  0.00     0.021 C 
BRANCH  24  25
ATOM     25  C   UNL A   1      33.193  19.779  25.171  1.00  0.00     0.002 C 
BRANCH  25  26
ATOM     26  C   UNL A   1      34.162  18.969  24.304  1.00  0.00    -0.000 C 
BRANCH  26  27
ATOM     27  C   UNL A   1      34.097  17.450  24.486  1.00  0.00    -0.003 C 
ATOM     28  C   UNL A   1      34.051  16.686  23.171  1.00  0.00     0.004 C 
ENDBRANCH  26  27
ENDBRANCH  25  26
ENDBRANCH  24  25
ENDBRANCH  23  24
ENDBRANCH  20  23
ENDBRANCH  18  19
ENDBRANCH  13  18
ENDBRANCH   7  12
BRANCH   9  29
ATOM     29  O   UNL A   1      38.381  24.800  26.904  1.00  0.00    -0.507 OA
ATOM     30  H   UNL A   1      38.414  25.487  26.267  1.00  0.00     0.293 HD
ENDBRANCH   9  29
ENDBRANCH   4   6
ENDBRANCH   2   4
ENDBRANCH   1   2
BRANCH   1  31
ATOM     31  C   UNL A   1      43.404  22.037  25.048  1.00  0.00     0.261 C 
BRANCH  31  32
ATOM     32  C   UNL A   1      43.581  23.550  24.894  1.00  0.00     0.202 C 
BRANCH  32  33
ATOM     33  O   UNL A   1      44.866  24.003  24.470  1.00  0.00    -0.374 OA
BRANCH  33  34
ATOM     34  C   UNL A   1      45.871  24.164  25.470  1.00  0.00     0.202 C 
BRANCH  34  35
ATOM     35  C   UNL A   1      45.507  24.997  26.706  1.00  0.00     0.261 C 
BRANCH  35  36
ATOM     36  O   UNL A   1      45.645  26.411  26.488  1.00  0.00    -0.460 OA
BRANCH  36  37
ATOM     37  C   UNL A   1      44.533  27.016  26.002  1.00  0.00     0.338 C 
ATOM     38  O   UNL A   1      44.109  26.966  24.859  1.00  0.00    -0.246 OA
BRANCH  37  39
ATOM     39  C   UNL A   1      43.753  27.608  27.106  1.00  0.00     0.060 A 
ATOM     40  C   UNL A   1      43.794  29.002  27.240  1.00  0.00     0.016 A 
ATOM     41  C   UNL A   1      43.067  26.827  28.038  1.00  0.00     0.016 A 
ATOM     42  C   UNL A   1      43.200  29.616  28.340  1.00  0.00     0.010 A 
ATOM     43  C   UNL A   1      42.473  27.447  29.145  1.00  0.00     0.010 A 
ATOM     44  C   UNL A   1      42.571  28.839  29.322  1.00  0.00    -0.014 A 
BRANCH  44  45
ATOM     45  C   UNL A   1      42.157  29.484  30.594  1.00  0.00     0.031 A 
ATOM     46  C   UNL A   1      40.874  30.272  30.632  1.00  0.00     0.074 A 
ATOM     47  C   UNL A   1      42.881  29.320  31.716  1.00  0.00     0.049 A 
ATOM     48  N   UNL A   1      40.316  30.900  31.635  1.00  0.00    -0.248 NA
ATOM     49  C   UNL A   1      40.118  30.364  29.372  1.00  0.00     0.031 C 
ATOM     50  C   UNL A   1      44.119  28.548  31.815  1.00  0.00     0.029 A 
ATOM     51  N   UNL A   1      42.675  29.791  32.989  1.00  0.00    -0.354 N 
ATOM     52  C   UNL A   1      39.150  31.464  31.129  1.00  0.00     0.074 A 
ATOM     53  C   UNL A   1      39.097  31.131  29.722  1.00  0.00     0.031 C 
ATOM     54  C   UNL A   1      44.566  28.602  33.081  1.00  0.00     0.029 A 
ATOM     55  C   UNL A   1      43.663  29.433  33.876  1.00  0.00     0.049 A 
ATOM     56  H   UNL A   1      41.895  30.334  33.242  1.00  0.00     0.167 HD
ATOM     57  C   UNL A   1      38.203  32.181  31.780  1.00  0.00     0.037 A 
ATOM     58  C   UNL A   1      43.827  29.752  35.175  1.00  0.00     0.037 A 
ATOM     59  C   UNL A   1      38.256  32.505  33.183  1.00  0.00     0.049 A 
ATOM     60  C   UNL A   1      42.791  30.601  35.866  1.00  0.00     0.074 A 
ATOM     61  C   UNL A   1      37.336  33.210  33.938  1.00  0.00     0.029 A 
ATOM     62  N   UNL A   1      39.289  32.152  34.039  1.00  0.00    -0.354 N 
ATOM     63  N   UNL A   1      41.680  31.105  35.380  1.00  0.00    -0.248 NA
ATOM     64  C   UNL A   1      43.025  30.920  37.281  1.00  0.00     0.031 C 
ATOM     65  C   UNL A   1      37.836  33.327  35.239  1.00  0.00     0.029 A 
ATOM     66  C   UNL A   1      39.041  32.648  35.309  1.00  0.00     0.049 A 
ATOM     67  H   UNL A   1      40.082  31.627  33.782  1.00  0.00     0.167 HD
ATOM     68  C   UNL A   1      41.071  31.775  36.437  1.00  0.00     0.074 A 
ATOM     69  C   UNL A   1      41.932  31.605  37.588  1.00  0.00     0.031 C 
ATOM     70  C   UNL A   1      39.904  32.467  36.451  1.00  0.00     0.037 A 
BRANCH  57  71
ATOM     71  C   UNL A   1      37.037  32.689  30.976  1.00  0.00     0.058 A 
ATOM     72  C   UNL A   1      35.855  31.944  30.832  1.00  0.00     0.135 A 
ATOM     73  C   UNL A   1      37.091  33.953  30.366  1.00  0.00     0.135 A 
ATOM     74  F   UNL A   1      35.755  30.722  31.381  1.00  0.00    -0.206 F 
ATOM     75  C   UNL A   1      34.779  32.423  30.092  1.00  0.00     0.059 A 
ATOM     76  C   UNL A   1      36.016  34.463  29.644  1.00  0.00     0.059 A 
ATOM     77  F   UNL A   1      38.196  34.706  30.470  1.00  0.00    -0.206 F 
ATOM     78  C   UNL A   1      34.869  33.683  29.499  1.00  0.00     0.060 A 
BRANCH  78  79
ATOM     79  S   UNL A   1      33.464  34.293  28.544  1.00  0.00     0.124 S 
ATOM     80  O   UNL A   1      34.089  35.340  27.741  1.00  0.00    -0.237 OA
ATOM     81  O   UNL A   1      33.041  33.102  27.814  1.00  0.00    -0.237 OA
ATOM     82  O   UNL A   1      32.533  34.761  29.567  1.00  0.00    -0.744 OA
ENDBRANCH  78  79
ENDBRANCH  57  71
BRANCH  58  83
ATOM     83  C   UNL A   1      45.026  29.268  35.911  1.00  0.00     0.058 A 
ATOM     84  C   UNL A   1      46.177  30.060  36.031  1.00  0.00     0.135 A 
ATOM     85  C   UNL A   1      45.041  28.000  36.515  1.00  0.00     0.135 A 
ATOM     86  F   UNL A   1      46.217  31.274  35.461  1.00  0.00    -0.206 F 
ATOM     87  C   UNL A   1      47.304  29.611  36.712  1.00  0.00     0.059 A 
ATOM     88  C   UNL A   1      46.145  27.539  37.223  1.00  0.00     0.059 A 
ATOM     89  F   UNL A   1      43.961  27.206  36.437  1.00  0.00    -0.206 F 
ATOM     90  C   UNL A   1      47.276  28.348  37.308  1.00  0.00     0.060 A 
BRANCH  90  91
ATOM     91  S   UNL A   1      48.723  27.795  38.237  1.00  0.00     0.124 S 
ATOM     92  O   UNL A   1      48.220  27.816  39.605  1.00  0.00    -0.237 OA
ATOM     93  O   UNL A   1      48.968  26.474  37.666  1.00  0.00    -0.237 OA
ATOM     94  O   UNL A   1      49.730  28.804  37.919  1.00  0.00    -0.744 OA
ENDBRANCH  90  91
ENDBRANCH  58  83
BRANCH  70  95
ATOM     95  C   UNL A   1      39.465  33.064  37.761  1.00  0.00     0.058 A 
ATOM     96  C   UNL A   1      40.054  34.227  38.278  1.00  0.00     0.135 A 
ATOM     97  C   UNL A   1      38.401  32.493  38.480  1.00  0.00     0.135 A 
ATOM     98  F   UNL A   1      41.077  34.811  37.635  1.00  0.00    -0.206 F 
ATOM     99  C   UNL A   1      39.619  34.791  39.474  1.00  0.00     0.059 A 
ATOM    100  C   UNL A   1      37.932  33.056  39.663  1.00  0.00     0.059 A 
ATOM    101  F   UNL A   1      37.794  31.386  38.024  1.00  0.00    -0.206 F 
ATOM    102  C   UNL A   1      38.556  34.200  40.159  1.00  0.00     0.060 A 
BRANCH 102 103
ATOM    103  S   UNL A   1      37.980  34.960  41.691  1.00  0.00     0.124 S 
ATOM    104  O   UNL A   1      38.872  34.353  42.674  1.00  0.00    -0.237 OA
ATOM    105  O   UNL A   1      38.194  36.381  41.435  1.00  0.00    -0.237 OA
ATOM    106  O   UNL A   1      36.582  34.548  41.772  1.00  0.00    -0.744 OA
ENDBRANCH 102 103
ENDBRANCH  70  95
ENDBRANCH  44  45
ENDBRANCH  37  39
ENDBRANCH  36  37
ENDBRANCH  35  36
ENDBRANCH  34  35
ENDBRANCH  33  34
ENDBRANCH  32  33
ENDBRANCH  31  32
ENDBRANCH   1  31
TORSDOF 27
ENDMDL
MODEL 2
REMARK VINA RESULT:      -9.5      1.940      8.304
REMARK SMILES CCCCCCNC(=O)Oc1cccc(-c2ccc([C@@H](C)C(=O)OCCOCCOC(=O)c3ccc(-c4c5nc(c(-c6c(F)cc(S(=O)(=O)[O-])cc6F)c6ccc([nH]6)c(-c6c(F)cc(S(=O)(=O)[O-])cc6F)c6nc(c(-c7c(F)cc(S(=O)(=O)[O-])cc7F)c7ccc4[nH]7)C=C6)C=C5)cc3)cc2O)c1
REMARK SMILES IDX 24 1 22 2 23 3 20 4 21 5 19 6 16 7 17 8 100 9 18 10 99 11
REMARK SMILES IDX 15 12 11 13 12 14 102 15 13 16 14 17 10 18 8 19 7 20 9 22
REMARK SMILES IDX 6 23 5 24 4 25 3 26 2 27 1 28 101 29 25 31 26 32 27 33 28 34
REMARK SMILES IDX 29 35 30 36 31 37 32 38 33 39 34 40 98 41 35 42 97 43 36 44
REMARK SMILES IDX 37 45 38 46 91 47 39 48 96 49 90 50 92 51 40 52 95 53 89 54
REMARK SMILES IDX 88 55 41 57 75 58 54 59 74 60 55 61 58 62 73 63 93 64 56 65
REMARK SMILES IDX 57 66 72 68 94 69 59 70 42 71 43 72 52 73 44 74 45 75 51 76
REMARK SMILES IDX 53 77 46 78 47 79 48 80 49 81 50 82 76 83 77 84 86 85 78 86
REMARK SMILES IDX 79 87 85 88 87 89 80 90 81 91 82 92 83 93 84 94 60 95 61 96
REMARK SMILES IDX 70 97 62 98 63 99 69 100 71 101 64 102 65 103 66 104 67 105
REMARK SMILES IDX 68 106
REMARK H PARENT 7 21 101 30 92 56 58 67
REMARK Flexibility Score: inf
ROOT
ATOM      1  O   UNL A   1      44.079  21.334  26.296  1.00  0.00    -0.463 OA
ENDROOT
BRANCH   1   2
ATOM      2  C   UNL A   1      43.038  21.803  27.030  1.00  0.00     0.313 C 
ATOM      3  O   UNL A   1      43.050  22.860  27.657  1.00  0.00    -0.252 OA
BRANCH   2   4
ATOM      4  C   UNL A   1      41.830  20.879  27.045  1.00  0.00     0.126 C 
ATOM      5  C   UNL A   1      42.173  19.593  26.302  1.00  0.00     0.025 C 
BRANCH   4   6
ATOM      6  C   UNL A   1      40.484  21.452  26.608  1.00  0.00    -0.030 A 
ATOM      7  C   UNL A   1      38.019  22.466  25.571  1.00  0.00     0.024 A 
ATOM      8  C   UNL A   1      38.965  23.311  26.179  1.00  0.00     0.013 A 
ATOM      9  C   UNL A   1      38.329  21.098  25.518  1.00  0.00     0.123 A 
ATOM     10  C   UNL A   1      40.178  22.816  26.683  1.00  0.00     0.005 A 
ATOM     11  C   UNL A   1      39.528  20.597  26.036  1.00  0.00     0.051 A 
BRANCH   7  12
ATOM     12  C   UNL A   1      36.790  23.035  24.985  1.00  0.00    -0.011 A 
ATOM     13  C   UNL A   1      34.628  24.123  25.206  1.00  0.00     0.133 A 
ATOM     14  C   UNL A   1      34.403  24.019  23.835  1.00  0.00     0.047 A 
ATOM     15  C   UNL A   1      35.802  23.634  25.785  1.00  0.00     0.056 A 
ATOM     16  C   UNL A   1      35.378  23.441  23.028  1.00  0.00     0.004 A 
ATOM     17  C   UNL A   1      36.557  22.953  23.598  1.00  0.00     0.009 A 
BRANCH  13  18
ATOM     18  O   UNL A   1      33.572  24.635  25.980  1.00  0.00    -0.410 OA
BRANCH  18  19
ATOM     19  C   UNL A   1      32.433  23.861  26.123  1.00  0.00     0.412 C 
ATOM     20  N   UNL A   1      31.361  24.334  25.423  1.00  0.00    -0.321 N 
ATOM     21  H   UNL A   1      30.530  23.810  25.489  1.00  0.00     0.167 HD
ATOM     22  O   UNL A   1      32.339  22.837  26.801  1.00  0.00    -0.224 OA
BRANCH  20  23
ATOM     23  C   UNL A   1      31.309  25.523  24.594  1.00  0.00     0.119 C 
BRANCH  23  24
ATOM     24  C   UNL A   1      30.960  26.772  25.405  1.00  0.00     0.021 C 
BRANCH  24  25
ATOM     25  C   UNL A   1      30.705  28.035  24.570  1.00  0.00     0.002 C 
BRANCH  25  26
ATOM     26  C   UNL A   1      30.060  27.803  23.200  1.00  0.00    -0.000 C 
BRANCH  26  27
ATOM     27  C   UNL A   1      29.220  28.965  22.662  1.00  0.00    -0.003 C 
ATOM     28  C   UNL A   1      27.744  28.855  23.011  1.00  0.00     0.004 C 
ENDBRANCH  26  27
ENDBRANCH  25  26
ENDBRANCH  24  25
ENDBRANCH  23  24
ENDBRANCH  20  23
ENDBRANCH  18  19
ENDBRANCH  13  18
ENDBRANCH   7  12
BRANCH   9  29
ATOM     29  O   UNL A   1      37.515  20.171  24.919  1.00  0.00    -0.507 OA
ATOM     30  H   UNL A   1      36.946  19.639  25.441  1.00  0.00     0.293 HD
ENDBRANCH   9  29
ENDBRANCH   4   6
ENDBRANCH   2   4
ENDBRANCH   1   2
BRANCH   1  31
ATOM     31  C   UNL A   1      43.970  21.492  24.870  1.00  0.00     0.261 C 
BRANCH  31  32
ATOM     32  C   UNL A   1      43.913  22.970  24.474  1.00  0.00     0.202 C 
BRANCH  32  33
ATOM     33  O   UNL A   1      45.159  23.603  24.187  1.00  0.00    -0.374 OA
BRANCH  33  34
ATOM     34  C   UNL A   1      45.696  24.480  25.177  1.00  0.00     0.202 C 
BRANCH  34  35
ATOM     35  C   UNL A   1      44.709  25.112  26.167  1.00  0.00     0.261 C 
BRANCH  35  36
ATOM     36  O   UNL A   1      43.999  26.231  25.611  1.00  0.00    -0.460 OA
BRANCH  36  37
ATOM     37  C   UNL A   1      42.654  26.070  25.551  1.00  0.00     0.338 C 
ATOM     38  O   UNL A   1      42.036  25.304  24.829  1.00  0.00    -0.246 OA
BRANCH  37  39
ATOM     39  C   UNL A   1      42.004  26.817  26.645  1.00  0.00     0.060 A 
ATOM     40  C   UNL A   1      42.179  28.207  26.659  1.00  0.00     0.016 A 
ATOM     41  C   UNL A   1      41.312  26.179  27.677  1.00  0.00     0.016 A 
ATOM     42  C   UNL A   1      41.715  28.958  27.737  1.00  0.00     0.010 A 
ATOM     43  C   UNL A   1      40.850  26.937  28.761  1.00  0.00     0.010 A 
ATOM     44  C   UNL A   1      41.085  28.323  28.815  1.00  0.00    -0.014 A 
BRANCH  44  45
ATOM     45  C   UNL A   1      40.814  29.101  30.051  1.00  0.00     0.031 A 
ATOM     46  C   UNL A   1      41.685  28.881  31.260  1.00  0.00     0.074 A 
ATOM     47  C   UNL A   1      39.846  30.034  30.078  1.00  0.00     0.049 A 
ATOM     48  N   UNL A   1      41.637  29.461  32.432  1.00  0.00    -0.248 NA
ATOM     49  C   UNL A   1      42.751  27.875  31.131  1.00  0.00     0.031 C 
ATOM     50  C   UNL A   1      38.962  30.366  28.960  1.00  0.00     0.029 A 
ATOM     51  N   UNL A   1      39.445  30.877  31.085  1.00  0.00    -0.354 N 
ATOM     52  C   UNL A   1      42.661  28.890  33.180  1.00  0.00     0.074 A 
ATOM     53  C   UNL A   1      43.291  27.894  32.341  1.00  0.00     0.031 C 
ATOM     54  C   UNL A   1      38.120  31.340  29.345  1.00  0.00     0.029 A 
ATOM     55  C   UNL A   1      38.385  31.683  30.741  1.00  0.00     0.049 A 
ATOM     56  H   UNL A   1      39.876  30.903  31.969  1.00  0.00     0.167 HD
ATOM     57  C   UNL A   1      43.049  29.177  34.446  1.00  0.00     0.037 A 
ATOM     58  C   UNL A   1      37.697  32.581  31.474  1.00  0.00     0.037 A 
ATOM     59  C   UNL A   1      42.423  30.174  35.276  1.00  0.00     0.049 A 
ATOM     60  C   UNL A   1      38.109  32.843  32.900  1.00  0.00     0.074 A 
ATOM     61  C   UNL A   1      42.756  30.552  36.565  1.00  0.00     0.029 A 
ATOM     62  N   UNL A   1      41.331  30.944  34.904  1.00  0.00    -0.354 N 
ATOM     63  N   UNL A   1      39.095  32.313  33.585  1.00  0.00    -0.248 NA
ATOM     64  C   UNL A   1      37.319  33.829  33.652  1.00  0.00     0.031 C 
ATOM     65  C   UNL A   1      41.834  31.515  36.990  1.00  0.00     0.029 A 
ATOM     66  C   UNL A   1      40.961  31.778  35.947  1.00  0.00     0.049 A 
ATOM     67  H   UNL A   1      40.885  30.905  34.027  1.00  0.00     0.167 HD
ATOM     68  C   UNL A   1      39.061  32.922  34.836  1.00  0.00     0.074 A 
ATOM     69  C   UNL A   1      37.963  33.865  34.810  1.00  0.00     0.031 C 
ATOM     70  C   UNL A   1      39.868  32.718  35.907  1.00  0.00     0.037 A 
BRANCH  57  71
ATOM     71  C   UNL A   1      44.191  28.385  35.022  1.00  0.00     0.058 A 
ATOM     72  C   UNL A   1      45.498  28.897  35.071  1.00  0.00     0.135 A 
ATOM     73  C   UNL A   1      43.969  27.108  35.562  1.00  0.00     0.135 A 
ATOM     74  F   UNL A   1      45.770  30.107  34.555  1.00  0.00    -0.206 F 
ATOM     75  C   UNL A   1      46.548  28.161  35.611  1.00  0.00     0.059 A 
ATOM     76  C   UNL A   1      44.999  26.365  36.132  1.00  0.00     0.059 A 
ATOM     77  F   UNL A   1      42.741  26.570  35.541  1.00  0.00    -0.206 F 
ATOM     78  C   UNL A   1      46.289  26.895  36.137  1.00  0.00     0.060 A 
BRANCH  78  79
ATOM     79  S   UNL A   1      47.661  25.953  36.838  1.00  0.00     0.124 S 
ATOM     80  O   UNL A   1      46.965  24.801  37.403  1.00  0.00    -0.237 OA
ATOM     81  O   UNL A   1      48.486  25.681  35.665  1.00  0.00    -0.237 OA
ATOM     82  O   UNL A   1      48.244  26.871  37.811  1.00  0.00    -0.744 OA
ENDBRANCH  78  79
ENDBRANCH  57  71
BRANCH  58  83
ATOM     83  C   UNL A   1      36.541  33.298  30.872  1.00  0.00     0.058 A 
ATOM     84  C   UNL A   1      35.225  33.032  31.278  1.00  0.00     0.135 A 
ATOM     85  C   UNL A   1      36.733  34.272  29.879  1.00  0.00     0.135 A 
ATOM     86  F   UNL A   1      34.989  32.101  32.216  1.00  0.00    -0.206 F 
ATOM     87  C   UNL A   1      34.140  33.694  30.715  1.00  0.00     0.059 A 
ATOM     88  C   UNL A   1      35.666  34.968  29.319  1.00  0.00     0.059 A 
ATOM     89  F   UNL A   1      37.973  34.572  29.461  1.00  0.00    -0.206 F 
ATOM     90  C   UNL A   1      34.372  34.665  29.737  1.00  0.00     0.060 A 
BRANCH  90  91
ATOM     91  S   UNL A   1      32.960  35.559  29.051  1.00  0.00     0.124 S 
ATOM     92  O   UNL A   1      32.196  35.869  30.253  1.00  0.00    -0.237 OA
ATOM     93  O   UNL A   1      33.606  36.691  28.393  1.00  0.00    -0.237 OA
ATOM     94  O   UNL A   1      32.352  34.584  28.150  1.00  0.00    -0.744 OA
ENDBRANCH  90  91
ENDBRANCH  58  83
BRANCH  70  95
ATOM     95  C   UNL A   1      39.622  33.556  37.133  1.00  0.00     0.058 A 
ATOM     96  C   UNL A   1      38.740  33.147  38.144  1.00  0.00     0.135 A 
ATOM     97  C   UNL A   1      40.322  34.759  37.323  1.00  0.00     0.135 A 
ATOM     98  F   UNL A   1      38.040  32.008  38.012  1.00  0.00    -0.206 F 
ATOM     99  C   UNL A   1      38.542  33.912  39.290  1.00  0.00     0.059 A 
ATOM    100  C   UNL A   1      40.162  35.525  38.474  1.00  0.00     0.059 A 
ATOM    101  F   UNL A   1      41.188  35.192  36.393  1.00  0.00    -0.206 F 
ATOM    102  C   UNL A   1      39.260  35.099  39.447  1.00  0.00     0.060 A 
BRANCH 102 103
ATOM    103  S   UNL A   1      39.020  36.065  40.953  1.00  0.00     0.124 S 
ATOM    104  O   UNL A   1      38.002  35.281  41.647  1.00  0.00    -0.237 OA
ATOM    105  O   UNL A   1      40.351  36.046  41.553  1.00  0.00    -0.237 OA
ATOM    106  O   UNL A   1      38.581  37.366  40.458  1.00  0.00    -0.744 OA
ENDBRANCH 102 103
ENDBRANCH  70  95
ENDBRANCH  44  45
ENDBRANCH  37  39
ENDBRANCH  36  37
ENDBRANCH  35  36
ENDBRANCH  34  35
ENDBRANCH  33  34
ENDBRANCH  32  33
ENDBRANCH  31  32
ENDBRANCH   1  31
TORSDOF 27
ENDMDL
MODEL 3
REMARK VINA RESULT:      -9.0      6.219      9.252
REMARK SMILES CCCCCCNC(=O)Oc1cccc(-c2ccc([C@@H](C)C(=O)OCCOCCOC(=O)c3ccc(-c4c5nc(c(-c6c(F)cc(S(=O)(=O)[O-])cc6F)c6ccc([nH]6)c(-c6c(F)cc(S(=O)(=O)[O-])cc6F)c6nc(c(-c7c(F)cc(S(=O)(=O)[O-])cc7F)c7ccc4[nH]7)C=C6)C=C5)cc3)cc2O)c1
REMARK SMILES IDX 24 1 22 2 23 3 20 4 21 5 19 6 16 7 17 8 100 9 18 10 99 11
REMARK SMILES IDX 15 12 11 13 12 14 102 15 13 16 14 17 10 18 8 19 7 20 9 22
REMARK SMILES IDX 6 23 5 24 4 25 3 26 2 27 1 28 101 29 25 31 26 32 27 33 28 34
REMARK SMILES IDX 29 35 30 36 31 37 32 38 33 39 34 40 98 41 35 42 97 43 36 44
REMARK SMILES IDX 37 45 38 46 91 47 39 48 96 49 90 50 92 51 40 52 95 53 89 54
REMARK SMILES IDX 88 55 41 57 75 58 54 59 74 60 55 61 58 62 73 63 93 64 56 65
REMARK SMILES IDX 57 66 72 68 94 69 59 70 42 71 43 72 52 73 44 74 45 75 51 76
REMARK SMILES IDX 53 77 46 78 47 79 48 80 49 81 50 82 76 83 77 84 86 85 78 86
REMARK SMILES IDX 79 87 85 88 87 89 80 90 81 91 82 92 83 93 84 94 60 95 61 96
REMARK SMILES IDX 70 97 62 98 63 99 69 100 71 101 64 102 65 103 66 104 67 105
REMARK SMILES IDX 68 106
REMARK H PARENT 7 21 101 30 92 56 58 67
REMARK Flexibility Score: inf
ROOT
ATOM      1  O   UNL A   1      42.169  22.772  27.188  1.00  0.00    -0.463 OA
ENDROOT
BRANCH   1   2
ATOM      2  C   UNL A   1      42.027  21.910  26.149  1.00  0.00     0.313 C 
ATOM      3  O   UNL A   1      42.566  22.046  25.054  1.00  0.00    -0.252 OA
BRANCH   2   4
ATOM      4  C   UNL A   1      41.095  20.743  26.441  1.00  0.00     0.126 C 
ATOM      5  C   UNL A   1      41.788  19.440  26.056  1.00  0.00     0.025 C 
BRANCH   4   6
ATOM      6  C   UNL A   1      39.668  20.814  25.904  1.00  0.00    -0.030 A 
ATOM      7  C   UNL A   1      36.921  20.957  25.119  1.00  0.00     0.024 A 
ATOM      8  C   UNL A   1      37.707  19.822  24.848  1.00  0.00     0.013 A 
ATOM      9  C   UNL A   1      37.555  22.028  25.770  1.00  0.00     0.123 A 
ATOM     10  C   UNL A   1      39.053  19.747  25.238  1.00  0.00     0.005 A 
ATOM     11  C   UNL A   1      38.901  21.966  26.144  1.00  0.00     0.051 A 
BRANCH   7  12
ATOM     12  C   UNL A   1      35.490  20.968  24.761  1.00  0.00    -0.011 A 
ATOM     13  C   UNL A   1      33.473  22.134  24.072  1.00  0.00     0.133 A 
ATOM     14  C   UNL A   1      32.724  20.965  24.184  1.00  0.00     0.047 A 
ATOM     15  C   UNL A   1      34.840  22.148  24.361  1.00  0.00     0.056 A 
ATOM     16  C   UNL A   1      33.356  19.786  24.564  1.00  0.00     0.004 A 
ATOM     17  C   UNL A   1      34.724  19.789  24.851  1.00  0.00     0.009 A 
BRANCH  13  18
ATOM     18  O   UNL A   1      32.763  23.310  23.771  1.00  0.00    -0.410 OA
BRANCH  18  19
ATOM     19  C   UNL A   1      33.434  24.326  23.111  1.00  0.00     0.412 C 
ATOM     20  N   UNL A   1      33.531  25.477  23.839  1.00  0.00    -0.321 N 
ATOM     21  H   UNL A   1      34.008  26.226  23.411  1.00  0.00     0.167 HD
ATOM     22  O   UNL A   1      33.916  24.255  21.979  1.00  0.00    -0.224 OA
BRANCH  20  23
ATOM     23  C   UNL A   1      33.009  25.722  25.169  1.00  0.00     0.119 C 
BRANCH  23  24
ATOM     24  C   UNL A   1      33.837  26.761  25.927  1.00  0.00     0.021 C 
BRANCH  24  25
ATOM     25  C   UNL A   1      33.341  28.207  25.789  1.00  0.00     0.002 C 
BRANCH  25  26
ATOM     26  C   UNL A   1      33.001  28.919  27.103  1.00  0.00    -0.000 C 
BRANCH  26  27
ATOM     27  C   UNL A   1      32.804  30.433  27.000  1.00  0.00    -0.003 C 
ATOM     28  C   UNL A   1      33.898  31.233  27.691  1.00  0.00     0.004 C 
ENDBRANCH  26  27
ENDBRANCH  25  26
ENDBRANCH  24  25
ENDBRANCH  23  24
ENDBRANCH  20  23
ENDBRANCH  18  19
ENDBRANCH  13  18
ENDBRANCH   7  12
BRANCH   9  29
ATOM     29  O   UNL A   1      36.897  23.176  26.129  1.00  0.00    -0.507 OA
ATOM     30  H   UNL A   1      37.146  23.997  25.751  1.00  0.00     0.293 HD
ENDBRANCH   9  29
ENDBRANCH   4   6
ENDBRANCH   2   4
ENDBRANCH   1   2
BRANCH   1  31
ATOM     31  C   UNL A   1      42.710  24.066  26.866  1.00  0.00     0.261 C 
BRANCH  31  32
ATOM     32  C   UNL A   1      42.415  25.086  27.968  1.00  0.00     0.202 C 
BRANCH  32  33
ATOM     33  O   UNL A   1      41.069  25.549  28.066  1.00  0.00    -0.374 OA
BRANCH  33  34
ATOM     34  C   UNL A   1      40.851  26.959  28.007  1.00  0.00     0.202 C 
BRANCH  34  35
ATOM     35  C   UNL A   1      39.410  27.457  28.175  1.00  0.00     0.261 C 
BRANCH  35  36
ATOM     36  O   UNL A   1      39.305  28.890  28.131  1.00  0.00    -0.460 OA
BRANCH  36  37
ATOM     37  C   UNL A   1      38.730  29.446  29.225  1.00  0.00     0.338 C 
ATOM     38  O   UNL A   1      37.884  28.944  29.947  1.00  0.00    -0.246 OA
BRANCH  37  39
ATOM     39  C   UNL A   1      39.417  30.704  29.576  1.00  0.00     0.060 A 
ATOM     40  C   UNL A   1      40.771  30.616  29.925  1.00  0.00     0.016 A 
ATOM     41  C   UNL A   1      38.746  31.927  29.645  1.00  0.00     0.016 A 
ATOM     42  C   UNL A   1      41.444  31.738  30.403  1.00  0.00     0.010 A 
ATOM     43  C   UNL A   1      39.425  33.053  30.129  1.00  0.00     0.010 A 
ATOM     44  C   UNL A   1      40.764  32.954  30.548  1.00  0.00    -0.014 A 
BRANCH  44  45
ATOM     45  C   UNL A   1      41.426  34.067  31.276  1.00  0.00     0.031 A 
ATOM     46  C   UNL A   1      41.338  34.113  32.780  1.00  0.00     0.074 A 
ATOM     47  C   UNL A   1      42.147  34.990  30.615  1.00  0.00     0.049 A 
ATOM     48  N   UNL A   1      41.852  34.980  33.613  1.00  0.00    -0.248 NA
ATOM     49  C   UNL A   1      40.569  33.039  33.428  1.00  0.00     0.031 C 
ATOM     50  C   UNL A   1      42.339  35.029  29.165  1.00  0.00     0.029 A 
ATOM     51  N   UNL A   1      42.855  36.071  31.078  1.00  0.00    -0.354 N 
ATOM     52  C   UNL A   1      41.467  34.561  34.883  1.00  0.00     0.074 A 
ATOM     53  C   UNL A   1      40.648  33.381  34.706  1.00  0.00     0.031 C 
ATOM     54  C   UNL A   1      43.112  36.085  28.857  1.00  0.00     0.029 A 
ATOM     55  C   UNL A   1      43.447  36.811  30.081  1.00  0.00     0.049 A 
ATOM     56  H   UNL A   1      42.933  36.295  32.033  1.00  0.00     0.167 HD
ATOM     57  C   UNL A   1      41.778  35.101  36.085  1.00  0.00     0.037 A 
ATOM     58  C   UNL A   1      44.163  37.951  30.148  1.00  0.00     0.037 A 
ATOM     59  C   UNL A   1      42.599  36.273  36.257  1.00  0.00     0.049 A 
ATOM     60  C   UNL A   1      44.448  38.568  31.493  1.00  0.00     0.074 A 
ATOM     61  C   UNL A   1      42.986  36.885  37.435  1.00  0.00     0.029 A 
ATOM     62  N   UNL A   1      43.151  37.013  35.221  1.00  0.00    -0.354 N 
ATOM     63  N   UNL A   1      44.098  38.145  32.685  1.00  0.00    -0.248 NA
ATOM     64  C   UNL A   1      45.229  39.813  31.504  1.00  0.00     0.031 C 
ATOM     65  C   UNL A   1      43.731  38.025  37.111  1.00  0.00     0.029 A 
ATOM     66  C   UNL A   1      43.855  38.091  35.733  1.00  0.00     0.049 A 
ATOM     67  H   UNL A   1      43.057  36.802  34.264  1.00  0.00     0.167 HD
ATOM     68  C   UNL A   1      44.640  39.056  33.587  1.00  0.00     0.074 A 
ATOM     69  C   UNL A   1      45.348  40.047  32.803  1.00  0.00     0.031 C 
ATOM     70  C   UNL A   1      44.561  39.069  34.941  1.00  0.00     0.037 A 
BRANCH  57  71
ATOM     71  C   UNL A   1      41.207  34.445  37.313  1.00  0.00     0.058 A 
ATOM     72  C   UNL A   1      41.902  33.443  38.009  1.00  0.00     0.135 A 
ATOM     73  C   UNL A   1      39.960  34.848  37.819  1.00  0.00     0.135 A 
ATOM     74  F   UNL A   1      43.091  33.009  37.561  1.00  0.00    -0.206 F 
ATOM     75  C   UNL A   1      41.370  32.845  39.147  1.00  0.00     0.059 A 
ATOM     76  C   UNL A   1      39.421  34.283  38.971  1.00  0.00     0.059 A 
ATOM     77  F   UNL A   1      39.253  35.800  37.193  1.00  0.00    -0.206 F 
ATOM     78  C   UNL A   1      40.128  33.271  39.620  1.00  0.00     0.060 A 
BRANCH  78  79
ATOM     79  S   UNL A   1      39.451  32.488  41.100  1.00  0.00     0.124 S 
ATOM     80  O   UNL A   1      40.567  31.646  41.521  1.00  0.00    -0.237 OA
ATOM     81  O   UNL A   1      39.164  33.634  41.957  1.00  0.00    -0.237 OA
ATOM     82  O   UNL A   1      38.281  31.772  40.602  1.00  0.00    -0.744 OA
ENDBRANCH  78  79
ENDBRANCH  57  71
BRANCH  58  83
ATOM     83  C   UNL A   1      44.659  38.588  28.899  1.00  0.00     0.058 A 
ATOM     84  C   UNL A   1      43.858  39.474  28.163  1.00  0.00     0.135 A 
ATOM     85  C   UNL A   1      45.952  38.325  28.417  1.00  0.00     0.135 A 
ATOM     86  F   UNL A   1      42.611  39.748  28.576  1.00  0.00    -0.206 F 
ATOM     87  C   UNL A   1      44.314  40.068  26.991  1.00  0.00     0.059 A 
ATOM     88  C   UNL A   1      46.441  38.926  27.262  1.00  0.00     0.059 A 
ATOM     89  F   UNL A   1      46.762  37.490  29.088  1.00  0.00    -0.206 F 
ATOM     90  C   UNL A   1      45.610  39.790  26.550  1.00  0.00     0.060 A 
BRANCH  90  91
ATOM     91  S   UNL A   1      46.213  40.608  25.057  1.00  0.00     0.124 S 
ATOM     92  O   UNL A   1      46.741  39.481  24.297  1.00  0.00    -0.237 OA
ATOM     93  O   UNL A   1      44.997  41.221  24.531  1.00  0.00    -0.237 OA
ATOM     94  O   UNL A   1      47.208  41.546  25.568  1.00  0.00    -0.744 OA
ENDBRANCH  90  91
ENDBRANCH  58  83
BRANCH  70  95
ATOM     95  C   UNL A   1      45.286  40.167  35.671  1.00  0.00     0.058 A 
ATOM     96  C   UNL A   1      44.697  41.419  35.898  1.00  0.00     0.135 A 
ATOM     97  C   UNL A   1      46.569  39.941  36.199  1.00  0.00     0.135 A 
ATOM     98  F   UNL A   1      43.476  41.691  35.411  1.00  0.00    -0.206 F 
ATOM     99  C   UNL A   1      45.363  42.418  36.602  1.00  0.00     0.059 A 
ATOM    100  C   UNL A   1      47.241  40.916  36.931  1.00  0.00     0.059 A 
ATOM    101  F   UNL A   1      47.175  38.756  36.022  1.00  0.00    -0.206 F 
ATOM    102  C   UNL A   1      46.633  42.157  37.117  1.00  0.00     0.060 A 
BRANCH 102 103
ATOM    103  S   UNL A   1      47.472  43.450  38.058  1.00  0.00     0.124 S 
ATOM    104  O   UNL A   1      47.595  42.825  39.371  1.00  0.00    -0.237 OA
ATOM    105  O   UNL A   1      48.718  43.617  37.317  1.00  0.00    -0.237 OA
ATOM    106  O   UNL A   1      46.549  44.579  37.983  1.00  0.00    -0.744 OA
ENDBRANCH 102 103
ENDBRANCH  70  95
ENDBRANCH  44  45
ENDBRANCH  37  39
ENDBRANCH  36  37
ENDBRANCH  35  36
ENDBRANCH  34  35
ENDBRANCH  33  34
ENDBRANCH  32  33
ENDBRANCH  31  32
ENDBRANCH   1  31
TORSDOF 27
ENDMDL
