MODEL 1
REMARK VINA RESULT:     -11.0      0.000      0.000
REMARK SMILES COC(=O)c1ccc(Cl)c(-c2ccc(C(=O)OCCOCCOC(=O)c3ccc(-c4c5nc(c(-c6c(F)cc(S(=O)(=O)[O-])cc6F)c6ccc([nH]6)c(-c6c(F)cc(S(=O)(=O)[O-])cc6F)c6nc(c(-c7c(F)cc(S(=O)(=O)[O-])cc7F)c7ccc4[nH]7)C=C6)C=C5)cc3)c(F)c2)c1
REMARK SMILES IDX 20 1 19 2 18 3 17 4 15 5 16 6 14 7 11 8 12 9 94 10 13 11
REMARK SMILES IDX 92 12 93 13 10 14 5 15 6 16 95 17 7 18 8 19 9 20 3 21 4 22
REMARK SMILES IDX 2 23 1 24 21 25 22 26 23 27 24 28 25 29 26 30 27 31 91 32
REMARK SMILES IDX 28 33 90 34 29 35 30 36 31 37 84 38 32 39 89 40 83 41 85 42
REMARK SMILES IDX 33 43 88 44 82 45 81 46 34 48 68 49 47 50 67 51 48 52 51 53
REMARK SMILES IDX 66 54 86 55 49 56 50 57 65 59 87 60 52 61 35 62 36 63 45 64
REMARK SMILES IDX 37 65 38 66 44 67 46 68 39 69 40 70 41 71 42 72 43 73 69 74
REMARK SMILES IDX 70 75 79 76 71 77 72 78 78 79 80 80 73 81 74 82 75 83 76 84
REMARK SMILES IDX 77 85 53 86 54 87 63 88 55 89 56 90 62 91 64 92 57 93 58 94
REMARK SMILES IDX 59 95 60 96 61 97
REMARK H PARENT 85 47 51 58
REMARK Flexibility Score: inf
ROOT
ATOM      1  O   UNL A   1      43.508  22.198  24.534  1.00  0.00    -0.374 OA
ENDROOT
BRANCH   1   2
ATOM      2  C   UNL A   1      43.628  21.110  25.451  1.00  0.00     0.202 C 
BRANCH   2   3
ATOM      3  C   UNL A   1      42.338  20.577  26.082  1.00  0.00     0.261 C 
BRANCH   3   4
ATOM      4  O   UNL A   1      41.202  21.370  25.709  1.00  0.00    -0.460 OA
BRANCH   4   5
ATOM      5  C   UNL A   1      40.403  21.743  26.735  1.00  0.00     0.341 C 
ATOM      6  O   UNL A   1      40.722  21.859  27.909  1.00  0.00    -0.246 OA
BRANCH   5   7
ATOM      7  C   UNL A   1      39.097  22.214  26.240  1.00  0.00     0.095 A 
ATOM      8  C   UNL A   1      36.582  23.221  25.473  1.00  0.00    -0.014 A 
ATOM      9  C   UNL A   1      37.515  24.046  26.121  1.00  0.00     0.010 A 
ATOM     10  C   UNL A   1      36.952  21.899  25.171  1.00  0.00     0.049 A 
ATOM     11  C   UNL A   1      38.760  23.547  26.504  1.00  0.00     0.019 A 
ATOM     12  C   UNL A   1      38.202  21.405  25.550  1.00  0.00     0.138 A 
ATOM     13  F   UNL A   1      38.491  20.125  25.273  1.00  0.00    -0.206 F 
BRANCH   8  14
ATOM     14  C   UNL A   1      35.214  23.707  25.237  1.00  0.00     0.001 A 
ATOM     15  C   UNL A   1      33.677  24.856  23.714  1.00  0.00     0.060 A 
ATOM     16  C   UNL A   1      32.609  24.585  24.573  1.00  0.00     0.017 A 
ATOM     17  C   UNL A   1      34.964  24.416  24.045  1.00  0.00     0.026 A 
ATOM     18  C   UNL A   1      32.836  23.884  25.759  1.00  0.00     0.022 A 
ATOM     19  C   UNL A   1      34.127  23.450  26.093  1.00  0.00     0.048 A 
ATOM     20  Cl  UNL A   1      34.317  22.592  27.582  1.00  0.00    -0.084 Cl
BRANCH  15  21
ATOM     21  C   UNL A   1      33.496  25.569  22.428  1.00  0.00     0.337 C 
ATOM     22  O   UNL A   1      33.273  25.000  21.369  1.00  0.00    -0.246 OA
BRANCH  21  23
ATOM     23  O   UNL A   1      33.662  26.901  22.604  1.00  0.00    -0.465 OA
ATOM     24  C   UNL A   1      32.440  27.640  22.584  1.00  0.00     0.282 C 
ENDBRANCH  21  23
ENDBRANCH  15  21
ENDBRANCH   8  14
ENDBRANCH   5   7
ENDBRANCH   4   5
ENDBRANCH   3   4
ENDBRANCH   2   3
ENDBRANCH   1   2
BRANCH   1  25
ATOM     25  C   UNL A   1      44.407  23.296  24.689  1.00  0.00     0.202 C 
BRANCH  25  26
ATOM     26  C   UNL A   1      44.077  24.348  25.757  1.00  0.00     0.261 C 
BRANCH  26  27
ATOM     27  O   UNL A   1      42.706  24.309  26.186  1.00  0.00    -0.460 OA
BRANCH  27  28
ATOM     28  C   UNL A   1      42.012  25.452  25.966  1.00  0.00     0.338 C 
ATOM     29  O   UNL A   1      41.386  25.752  24.962  1.00  0.00    -0.246 OA
BRANCH  28  30
ATOM     30  C   UNL A   1      41.955  26.251  27.205  1.00  0.00     0.060 A 
ATOM     31  C   UNL A   1      41.003  25.892  28.167  1.00  0.00     0.016 A 
ATOM     32  C   UNL A   1      42.768  27.369  27.393  1.00  0.00     0.016 A 
ATOM     33  C   UNL A   1      40.837  26.672  29.310  1.00  0.00     0.010 A 
ATOM     34  C   UNL A   1      42.593  28.156  28.536  1.00  0.00     0.010 A 
ATOM     35  C   UNL A   1      41.610  27.827  29.487  1.00  0.00    -0.014 A 
BRANCH  35  36
ATOM     36  C   UNL A   1      41.320  28.745  30.616  1.00  0.00     0.031 A 
ATOM     37  C   UNL A   1      42.157  28.668  31.863  1.00  0.00     0.074 A 
ATOM     38  C   UNL A   1      40.331  29.653  30.518  1.00  0.00     0.049 A 
ATOM     39  N   UNL A   1      42.038  29.333  32.982  1.00  0.00    -0.248 NA
ATOM     40  C   UNL A   1      43.279  27.714  31.849  1.00  0.00     0.031 C 
ATOM     41  C   UNL A   1      39.481  29.850  29.344  1.00  0.00     0.029 A 
ATOM     42  N   UNL A   1      39.870  30.576  31.425  1.00  0.00    -0.354 N 
ATOM     43  C   UNL A   1      43.061  28.880  33.806  1.00  0.00     0.074 A 
ATOM     44  C   UNL A   1      43.775  27.860  33.070  1.00  0.00     0.031 C 
ATOM     45  C   UNL A   1      38.598  30.829  29.604  1.00  0.00     0.029 A 
ATOM     46  C   UNL A   1      38.793  31.300  30.973  1.00  0.00     0.049 A 
ATOM     47  H   UNL A   1      40.274  30.707  32.313  1.00  0.00     0.167 HD
ATOM     48  C   UNL A   1      43.380  29.288  35.057  1.00  0.00     0.037 A 
ATOM     49  C   UNL A   1      38.033  32.219  31.603  1.00  0.00     0.037 A 
ATOM     50  C   UNL A   1      42.668  30.311  35.778  1.00  0.00     0.049 A 
ATOM     51  C   UNL A   1      38.359  32.599  33.024  1.00  0.00     0.074 A 
ATOM     52  C   UNL A   1      42.929  30.807  37.044  1.00  0.00     0.029 A 
ATOM     53  N   UNL A   1      41.556  30.991  35.304  1.00  0.00    -0.354 N 
ATOM     54  N   UNL A   1      39.339  32.172  33.786  1.00  0.00    -0.248 NA
ATOM     55  C   UNL A   1      37.478  33.579  33.674  1.00  0.00     0.031 C 
ATOM     56  C   UNL A   1      41.942  31.745  37.357  1.00  0.00     0.029 A 
ATOM     57  C   UNL A   1      41.101  31.880  36.264  1.00  0.00     0.049 A 
ATOM     58  H   UNL A   1      41.150  30.862  34.417  1.00  0.00     0.167 HD
ATOM     59  C   UNL A   1      39.203  32.848  34.995  1.00  0.00     0.074 A 
ATOM     60  C   UNL A   1      38.058  33.722  34.859  1.00  0.00     0.031 C 
ATOM     61  C   UNL A   1      39.961  32.749  36.116  1.00  0.00     0.037 A 
BRANCH  48  62
ATOM     62  C   UNL A   1      44.546  28.629  35.743  1.00  0.00     0.058 A 
ATOM     63  C   UNL A   1      45.859  29.044  35.469  1.00  0.00     0.135 A 
ATOM     64  C   UNL A   1      44.371  27.529  36.598  1.00  0.00     0.135 A 
ATOM     65  F   UNL A   1      46.083  30.095  34.666  1.00  0.00    -0.206 F 
ATOM     66  C   UNL A   1      46.959  28.374  35.995  1.00  0.00     0.059 A 
ATOM     67  C   UNL A   1      45.457  26.860  37.157  1.00  0.00     0.059 A 
ATOM     68  F   UNL A   1      43.136  27.106  36.910  1.00  0.00    -0.206 F 
ATOM     69  C   UNL A   1      46.748  27.279  36.834  1.00  0.00     0.060 A 
BRANCH  69  70
ATOM     70  S   UNL A   1      48.187  26.423  37.508  1.00  0.00     0.124 S 
ATOM     71  O   UNL A   1      48.559  27.288  38.621  1.00  0.00    -0.237 OA
ATOM     72  O   UNL A   1      47.627  25.124  37.870  1.00  0.00    -0.237 OA
ATOM     73  O   UNL A   1      49.124  26.401  36.388  1.00  0.00    -0.744 OA
ENDBRANCH  69  70
ENDBRANCH  48  62
BRANCH  49  74
ATOM     74  C   UNL A   1      36.879  32.838  30.893  1.00  0.00     0.058 A 
ATOM     75  C   UNL A   1      37.057  33.940  30.039  1.00  0.00     0.135 A 
ATOM     76  C   UNL A   1      35.575  32.352  31.068  1.00  0.00     0.135 A 
ATOM     77  F   UNL A   1      38.283  34.446  29.839  1.00  0.00    -0.206 F 
ATOM     78  C   UNL A   1      35.981  34.552  29.406  1.00  0.00     0.059 A 
ATOM     79  C   UNL A   1      34.485  32.931  30.421  1.00  0.00     0.059 A 
ATOM     80  F   UNL A   1      35.356  31.291  31.859  1.00  0.00    -0.206 F 
ATOM     81  C   UNL A   1      34.698  34.041  29.606  1.00  0.00     0.060 A 
BRANCH  81  82
ATOM     82  S   UNL A   1      33.316  34.857  28.778  1.00  0.00     0.124 S 
ATOM     83  O   UNL A   1      32.480  35.238  29.911  1.00  0.00    -0.237 OA
ATOM     84  O   UNL A   1      33.983  35.953  28.081  1.00  0.00    -0.237 OA
ATOM     85  O   UNL A   1      32.771  33.809  27.919  1.00  0.00    -0.744 OA
ENDBRANCH  81  82
ENDBRANCH  49  74
BRANCH  61  86
ATOM     86  C   UNL A   1      39.596  33.618  37.291  1.00  0.00     0.058 A 
ATOM     87  C   UNL A   1      40.163  34.895  37.437  1.00  0.00     0.135 A 
ATOM     88  C   UNL A   1      38.762  33.150  38.319  1.00  0.00     0.135 A 
ATOM     89  F   UNL A   1      40.973  35.388  36.487  1.00  0.00    -0.206 F 
ATOM     90  C   UNL A   1      39.936  35.666  38.571  1.00  0.00     0.059 A 
ATOM     91  C   UNL A   1      38.498  33.919  39.450  1.00  0.00     0.059 A 
ATOM     92  F   UNL A   1      38.187  31.941  38.224  1.00  0.00    -0.206 F 
ATOM     93  C   UNL A   1      39.105  35.168  39.574  1.00  0.00     0.060 A 
BRANCH  93  94
ATOM     94  S   UNL A   1      38.823  36.184  41.040  1.00  0.00     0.124 S 
ATOM     95  O   UNL A   1      38.566  37.494  40.452  1.00  0.00    -0.237 OA
ATOM     96  O   UNL A   1      37.673  35.526  41.654  1.00  0.00    -0.237 OA
ATOM     97  O   UNL A   1      40.075  36.065  41.782  1.00  0.00    -0.744 OA
ENDBRANCH  93  94
ENDBRANCH  61  86
ENDBRANCH  35  36
ENDBRANCH  28  30
ENDBRANCH  27  28
ENDBRANCH  26  27
ENDBRANCH  25  26
ENDBRANCH   1  25
TORSDOF 20
ENDMDL
MODEL 2
REMARK VINA RESULT:     -10.6      0.797      8.149
REMARK SMILES COC(=O)c1ccc(Cl)c(-c2ccc(C(=O)OCCOCCOC(=O)c3ccc(-c4c5nc(c(-c6c(F)cc(S(=O)(=O)[O-])cc6F)c6ccc([nH]6)c(-c6c(F)cc(S(=O)(=O)[O-])cc6F)c6nc(c(-c7c(F)cc(S(=O)(=O)[O-])cc7F)c7ccc4[nH]7)C=C6)C=C5)cc3)c(F)c2)c1
REMARK SMILES IDX 20 1 19 2 18 3 17 4 15 5 16 6 14 7 11 8 12 9 94 10 13 11
REMARK SMILES IDX 92 12 93 13 10 14 5 15 6 16 95 17 7 18 8 19 9 20 3 21 4 22
REMARK SMILES IDX 2 23 1 24 21 25 22 26 23 27 24 28 25 29 26 30 27 31 91 32
REMARK SMILES IDX 28 33 90 34 29 35 30 36 31 37 84 38 32 39 89 40 83 41 85 42
REMARK SMILES IDX 33 43 88 44 82 45 81 46 34 48 68 49 47 50 67 51 48 52 51 53
REMARK SMILES IDX 66 54 86 55 49 56 50 57 65 59 87 60 52 61 35 62 36 63 45 64
REMARK SMILES IDX 37 65 38 66 44 67 46 68 39 69 40 70 41 71 42 72 43 73 69 74
REMARK SMILES IDX 70 75 79 76 71 77 72 78 78 79 80 80 73 81 74 82 75 83 76 84
REMARK SMILES IDX 77 85 53 86 54 87 63 88 55 89 56 90 62 91 64 92 57 93 58 94
REMARK SMILES IDX 59 95 60 96 61 97
REMARK H PARENT 85 47 51 58
REMARK Flexibility Score: inf
ROOT
ATOM      1  O   UNL A   1      43.359  20.749  25.214  1.00  0.00    -0.374 OA
ENDROOT
BRANCH   1   2
ATOM      2  C   UNL A   1      42.560  19.701  25.762  1.00  0.00     0.202 C 
BRANCH   2   3
ATOM      3  C   UNL A   1      41.455  20.099  26.746  1.00  0.00     0.261 C 
BRANCH   3   4
ATOM      4  O   UNL A   1      40.264  20.511  26.061  1.00  0.00    -0.460 OA
BRANCH   4   5
ATOM      5  C   UNL A   1      39.664  21.613  26.568  1.00  0.00     0.341 C 
ATOM      6  O   UNL A   1      40.123  22.379  27.402  1.00  0.00    -0.246 OA
BRANCH   5   7
ATOM      7  C   UNL A   1      38.427  21.925  25.830  1.00  0.00     0.095 A 
ATOM      8  C   UNL A   1      36.001  22.630  24.588  1.00  0.00    -0.014 A 
ATOM      9  C   UNL A   1      36.715  23.570  25.348  1.00  0.00     0.010 A 
ATOM     10  C   UNL A   1      36.550  21.347  24.421  1.00  0.00     0.049 A 
ATOM     11  C   UNL A   1      37.915  23.221  25.966  1.00  0.00     0.019 A 
ATOM     12  C   UNL A   1      37.756  21.003  25.036  1.00  0.00     0.138 A 
ATOM     13  F   UNL A   1      38.217  19.754  24.877  1.00  0.00    -0.206 F 
BRANCH   8  14
ATOM     14  C   UNL A   1      34.655  22.958  24.094  1.00  0.00     0.001 A 
ATOM     15  C   UNL A   1      33.262  24.509  22.807  1.00  0.00     0.060 A 
ATOM     16  C   UNL A   1      32.162  23.661  22.959  1.00  0.00     0.017 A 
ATOM     17  C   UNL A   1      34.494  24.155  23.368  1.00  0.00     0.026 A 
ATOM     18  C   UNL A   1      32.300  22.470  23.675  1.00  0.00     0.022 A 
ATOM     19  C   UNL A   1      33.534  22.121  24.242  1.00  0.00     0.048 A 
ATOM     20  Cl  UNL A   1      33.614  20.630  25.115  1.00  0.00    -0.084 Cl
BRANCH  15  21
ATOM     21  C   UNL A   1      33.186  25.771  22.034  1.00  0.00     0.337 C 
ATOM     22  O   UNL A   1      33.305  25.822  20.818  1.00  0.00    -0.246 OA
BRANCH  21  23
ATOM     23  O   UNL A   1      33.021  26.823  22.871  1.00  0.00    -0.465 OA
ATOM     24  C   UNL A   1      31.763  26.825  23.548  1.00  0.00     0.282 C 
ENDBRANCH  21  23
ENDBRANCH  15  21
ENDBRANCH   8  14
ENDBRANCH   5   7
ENDBRANCH   4   5
ENDBRANCH   3   4
ENDBRANCH   2   3
ENDBRANCH   1   2
BRANCH   1  25
ATOM     25  C   UNL A   1      43.444  21.970  25.949  1.00  0.00     0.202 C 
BRANCH  25  26
ATOM     26  C   UNL A   1      42.999  23.262  25.250  1.00  0.00     0.261 C 
BRANCH  26  27
ATOM     27  O   UNL A   1      42.378  24.203  26.141  1.00  0.00    -0.460 OA
BRANCH  27  28
ATOM     28  C   UNL A   1      42.737  25.495  25.939  1.00  0.00     0.338 C 
ATOM     29  O   UNL A   1      43.264  25.966  24.944  1.00  0.00    -0.246 OA
BRANCH  28  30
ATOM     30  C   UNL A   1      42.234  26.333  27.043  1.00  0.00     0.060 A 
ATOM     31  C   UNL A   1      42.770  27.620  27.180  1.00  0.00     0.016 A 
ATOM     32  C   UNL A   1      41.308  25.848  27.967  1.00  0.00     0.016 A 
ATOM     33  C   UNL A   1      42.405  28.416  28.264  1.00  0.00     0.010 A 
ATOM     34  C   UNL A   1      40.951  26.646  29.060  1.00  0.00     0.010 A 
ATOM     35  C   UNL A   1      41.517  27.923  29.228  1.00  0.00    -0.014 A 
BRANCH  35  36
ATOM     36  C   UNL A   1      41.258  28.702  30.464  1.00  0.00     0.031 A 
ATOM     37  C   UNL A   1      40.138  29.705  30.482  1.00  0.00     0.074 A 
ATOM     38  C   UNL A   1      42.005  28.499  31.566  1.00  0.00     0.049 A 
ATOM     39  N   UNL A   1      39.779  30.528  31.433  1.00  0.00    -0.248 NA
ATOM     40  C   UNL A   1      39.310  29.795  29.268  1.00  0.00     0.031 C 
ATOM     41  C   UNL A   1      43.089  27.524  31.680  1.00  0.00     0.029 A 
ATOM     42  N   UNL A   1      41.968  29.107  32.796  1.00  0.00    -0.354 N 
ATOM     43  C   UNL A   1      38.692  31.235  30.935  1.00  0.00     0.074 A 
ATOM     44  C   UNL A   1      38.465  30.766  29.585  1.00  0.00     0.031 C 
ATOM     45  C   UNL A   1      43.618  27.604  32.913  1.00  0.00     0.029 A 
ATOM     46  C   UNL A   1      42.939  28.660  33.660  1.00  0.00     0.049 A 
ATOM     47  H   UNL A   1      41.307  29.796  33.037  1.00  0.00     0.167 HD
ATOM     48  C   UNL A   1      37.944  32.179  31.554  1.00  0.00     0.037 A 
ATOM     49  C   UNL A   1      43.262  29.075  34.902  1.00  0.00     0.037 A 
ATOM     50  C   UNL A   1      38.172  32.633  32.902  1.00  0.00     0.049 A 
ATOM     51  C   UNL A   1      42.465  30.183  35.540  1.00  0.00     0.074 A 
ATOM     52  C   UNL A   1      37.455  33.572  33.623  1.00  0.00     0.029 A 
ATOM     53  N   UNL A   1      39.192  32.187  33.730  1.00  0.00    -0.354 N 
ATOM     54  N   UNL A   1      41.429  30.833  35.063  1.00  0.00    -0.248 NA
ATOM     55  C   UNL A   1      42.880  30.620  36.880  1.00  0.00     0.031 C 
ATOM     56  C   UNL A   1      38.075  33.736  34.864  1.00  0.00     0.029 A 
ATOM     57  C   UNL A   1      39.143  32.855  34.942  1.00  0.00     0.049 A 
ATOM     58  H   UNL A   1      39.854  31.499  33.491  1.00  0.00     0.167 HD
ATOM     59  C   UNL A   1      41.058  31.738  36.052  1.00  0.00     0.074 A 
ATOM     60  C   UNL A   1      41.969  31.542  37.160  1.00  0.00     0.031 C 
ATOM     61  C   UNL A   1      40.053  32.649  36.041  1.00  0.00     0.037 A 
BRANCH  48  62
ATOM     62  C   UNL A   1      36.809  32.801  30.788  1.00  0.00     0.058 A 
ATOM     63  C   UNL A   1      37.038  33.898  29.943  1.00  0.00     0.135 A 
ATOM     64  C   UNL A   1      35.482  32.375  30.962  1.00  0.00     0.135 A 
ATOM     65  F   UNL A   1      38.287  34.342  29.734  1.00  0.00    -0.206 F 
ATOM     66  C   UNL A   1      35.991  34.568  29.319  1.00  0.00     0.059 A 
ATOM     67  C   UNL A   1      34.421  33.014  30.327  1.00  0.00     0.059 A 
ATOM     68  F   UNL A   1      35.210  31.317  31.743  1.00  0.00    -0.206 F 
ATOM     69  C   UNL A   1      34.685  34.122  29.521  1.00  0.00     0.060 A 
BRANCH  69  70
ATOM     70  S   UNL A   1      33.339  35.004  28.703  1.00  0.00     0.124 S 
ATOM     71  O   UNL A   1      32.740  33.953  27.889  1.00  0.00    -0.237 OA
ATOM     72  O   UNL A   1      32.543  35.465  29.837  1.00  0.00    -0.237 OA
ATOM     73  O   UNL A   1      34.025  36.059  27.962  1.00  0.00    -0.744 OA
ENDBRANCH  69  70
ENDBRANCH  48  62
BRANCH  49  74
ATOM     74  C   UNL A   1      44.401  28.442  35.622  1.00  0.00     0.058 A 
ATOM     75  C   UNL A   1      45.707  28.944  35.500  1.00  0.00     0.135 A 
ATOM     76  C   UNL A   1      44.210  27.311  36.430  1.00  0.00     0.135 A 
ATOM     77  F   UNL A   1      45.946  30.022  34.737  1.00  0.00    -0.206 F 
ATOM     78  C   UNL A   1      46.785  28.334  36.132  1.00  0.00     0.059 A 
ATOM     79  C   UNL A   1      45.270  26.701  37.097  1.00  0.00     0.059 A 
ATOM     80  F   UNL A   1      42.979  26.804  36.592  1.00  0.00    -0.206 F 
ATOM     81  C   UNL A   1      46.556  27.210  36.927  1.00  0.00     0.060 A 
BRANCH  81  82
ATOM     82  S   UNL A   1      47.972  26.431  37.733  1.00  0.00     0.124 S 
ATOM     83  O   UNL A   1      47.765  25.028  37.393  1.00  0.00    -0.237 OA
ATOM     84  O   UNL A   1      49.096  27.087  37.072  1.00  0.00    -0.237 OA
ATOM     85  O   UNL A   1      47.788  26.772  39.140  1.00  0.00    -0.744 OA
ENDBRANCH  81  82
ENDBRANCH  49  74
BRANCH  61  86
ATOM     86  C   UNL A   1      39.861  33.502  37.266  1.00  0.00     0.058 A 
ATOM     87  C   UNL A   1      38.901  33.158  38.232  1.00  0.00     0.135 A 
ATOM     88  C   UNL A   1      40.559  34.708  37.438  1.00  0.00     0.135 A 
ATOM     89  F   UNL A   1      38.201  32.018  38.114  1.00  0.00    -0.206 F 
ATOM     90  C   UNL A   1      38.622  33.991  39.311  1.00  0.00     0.059 A 
ATOM     91  C   UNL A   1      40.316  35.543  38.526  1.00  0.00     0.059 A 
ATOM     92  F   UNL A   1      41.493  35.080  36.549  1.00  0.00    -0.206 F 
ATOM     93  C   UNL A   1      39.332  35.183  39.447  1.00  0.00     0.060 A 
BRANCH  93  94
ATOM     94  S   UNL A   1      38.955  36.252  40.852  1.00  0.00     0.124 S 
ATOM     95  O   UNL A   1      37.842  35.545  41.477  1.00  0.00    -0.237 OA
ATOM     96  O   UNL A   1      40.213  36.240  41.594  1.00  0.00    -0.237 OA
ATOM     97  O   UNL A   1      38.615  37.528  40.228  1.00  0.00    -0.744 OA
ENDBRANCH  93  94
ENDBRANCH  61  86
ENDBRANCH  35  36
ENDBRANCH  28  30
ENDBRANCH  27  28
ENDBRANCH  26  27
ENDBRANCH  25  26
ENDBRANCH   1  25
TORSDOF 20
ENDMDL
MODEL 3
REMARK VINA RESULT:     -10.6      6.212     12.187
REMARK SMILES COC(=O)c1ccc(Cl)c(-c2ccc(C(=O)OCCOCCOC(=O)c3ccc(-c4c5nc(c(-c6c(F)cc(S(=O)(=O)[O-])cc6F)c6ccc([nH]6)c(-c6c(F)cc(S(=O)(=O)[O-])cc6F)c6nc(c(-c7c(F)cc(S(=O)(=O)[O-])cc7F)c7ccc4[nH]7)C=C6)C=C5)cc3)c(F)c2)c1
REMARK SMILES IDX 20 1 19 2 18 3 17 4 15 5 16 6 14 7 11 8 12 9 94 10 13 11
REMARK SMILES IDX 92 12 93 13 10 14 5 15 6 16 95 17 7 18 8 19 9 20 3 21 4 22
REMARK SMILES IDX 2 23 1 24 21 25 22 26 23 27 24 28 25 29 26 30 27 31 91 32
REMARK SMILES IDX 28 33 90 34 29 35 30 36 31 37 84 38 32 39 89 40 83 41 85 42
REMARK SMILES IDX 33 43 88 44 82 45 81 46 34 48 68 49 47 50 67 51 48 52 51 53
REMARK SMILES IDX 66 54 86 55 49 56 50 57 65 59 87 60 52 61 35 62 36 63 45 64
REMARK SMILES IDX 37 65 38 66 44 67 46 68 39 69 40 70 41 71 42 72 43 73 69 74
REMARK SMILES IDX 70 75 79 76 71 77 72 78 78 79 80 80 73 81 74 82 75 83 76 84
REMARK SMILES IDX 77 85 53 86 54 87 63 88 55 89 56 90 62 91 64 92 57 93 58 94
REMARK SMILES IDX 59 95 60 96 61 97
REMARK H PARENT 85 47 51 58
REMARK Flexibility Score: inf
ROOT
ATOM      1  O   UNL A   1      34.300  32.155  27.444  1.00  0.00    -0.374 OA
ENDROOT
BRANCH   1   2
ATOM      2  C   UNL A   1      34.601  30.779  27.676  1.00  0.00     0.202 C 
BRANCH   2   3
ATOM      3  C   UNL A   1      33.558  29.747  27.234  1.00  0.00     0.261 C 
BRANCH   3   4
ATOM      4  O   UNL A   1      33.757  29.347  25.870  1.00  0.00    -0.460 OA
BRANCH   4   5
ATOM      5  C   UNL A   1      32.717  28.690  25.309  1.00  0.00     0.341 C 
ATOM      6  O   UNL A   1      31.711  29.187  24.824  1.00  0.00    -0.246 OA
BRANCH   5   7
ATOM      7  C   UNL A   1      33.024  27.257  25.149  1.00  0.00     0.095 A 
ATOM      8  C   UNL A   1      33.652  24.515  25.050  1.00  0.00    -0.014 A 
ATOM      9  C   UNL A   1      32.910  25.040  26.119  1.00  0.00     0.010 A 
ATOM     10  C   UNL A   1      34.028  25.379  24.007  1.00  0.00     0.049 A 
ATOM     11  C   UNL A   1      32.601  26.399  26.171  1.00  0.00     0.019 A 
ATOM     12  C   UNL A   1      33.711  26.739  24.059  1.00  0.00     0.138 A 
ATOM     13  F   UNL A   1      34.127  27.527  23.058  1.00  0.00    -0.206 F 
BRANCH   8  14
ATOM     14  C   UNL A   1      34.122  23.122  25.098  1.00  0.00     0.001 A 
ATOM     15  C   UNL A   1      33.598  20.763  24.692  1.00  0.00     0.060 A 
ATOM     16  C   UNL A   1      34.913  20.409  25.005  1.00  0.00     0.017 A 
ATOM     17  C   UNL A   1      33.213  22.108  24.736  1.00  0.00     0.026 A 
ATOM     18  C   UNL A   1      35.830  21.398  25.366  1.00  0.00     0.022 A 
ATOM     19  C   UNL A   1      35.439  22.744  25.416  1.00  0.00     0.048 A 
ATOM     20  Cl  UNL A   1      36.639  23.903  25.876  1.00  0.00    -0.084 Cl
BRANCH  15  21
ATOM     21  C   UNL A   1      32.588  19.763  24.274  1.00  0.00     0.337 C 
ATOM     22  O   UNL A   1      32.175  19.665  23.127  1.00  0.00    -0.246 OA
BRANCH  21  23
ATOM     23  O   UNL A   1      32.178  19.038  25.341  1.00  0.00    -0.465 OA
ATOM     24  C   UNL A   1      32.567  17.665  25.286  1.00  0.00     0.282 C 
ENDBRANCH  21  23
ENDBRANCH  15  21
ENDBRANCH   8  14
ENDBRANCH   5   7
ENDBRANCH   4   5
ENDBRANCH   3   4
ENDBRANCH   2   3
ENDBRANCH   1   2
BRANCH   1  25
ATOM     25  C   UNL A   1      34.850  33.114  28.347  1.00  0.00     0.202 C 
BRANCH  25  26
ATOM     26  C   UNL A   1      35.127  32.666  29.789  1.00  0.00     0.261 C 
BRANCH  26  27
ATOM     27  O   UNL A   1      36.521  32.438  30.053  1.00  0.00    -0.460 OA
BRANCH  27  28
ATOM     28  C   UNL A   1      36.781  31.347  30.814  1.00  0.00     0.338 C 
ATOM     29  O   UNL A   1      36.080  30.881  31.698  1.00  0.00    -0.246 OA
BRANCH  28  30
ATOM     30  C   UNL A   1      37.981  30.656  30.306  1.00  0.00     0.060 A 
ATOM     31  C   UNL A   1      38.972  30.305  31.232  1.00  0.00     0.016 A 
ATOM     32  C   UNL A   1      38.167  30.418  28.944  1.00  0.00     0.016 A 
ATOM     33  C   UNL A   1      40.169  29.743  30.794  1.00  0.00     0.010 A 
ATOM     34  C   UNL A   1      39.374  29.862  28.506  1.00  0.00     0.010 A 
ATOM     35  C   UNL A   1      40.390  29.546  29.425  1.00  0.00    -0.014 A 
BRANCH  35  36
ATOM     36  C   UNL A   1      41.724  29.104  28.947  1.00  0.00     0.031 A 
ATOM     37  C   UNL A   1      42.842  30.104  28.853  1.00  0.00     0.074 A 
ATOM     38  C   UNL A   1      41.936  27.814  28.621  1.00  0.00     0.049 A 
ATOM     39  N   UNL A   1      44.062  29.942  28.408  1.00  0.00    -0.248 NA
ATOM     40  C   UNL A   1      42.551  31.469  29.320  1.00  0.00     0.031 C 
ATOM     41  C   UNL A   1      40.941  26.747  28.713  1.00  0.00     0.029 A 
ATOM     42  N   UNL A   1      43.059  27.186  28.141  1.00  0.00    -0.354 N 
ATOM     43  C   UNL A   1      44.681  31.179  28.537  1.00  0.00     0.074 A 
ATOM     44  C   UNL A   1      43.695  32.091  29.074  1.00  0.00     0.031 C 
ATOM     45  C   UNL A   1      41.496  25.596  28.298  1.00  0.00     0.029 A 
ATOM     46  C   UNL A   1      42.871  25.852  27.873  1.00  0.00     0.049 A 
ATOM     47  H   UNL A   1      43.918  27.648  28.004  1.00  0.00     0.167 HD
ATOM     48  C   UNL A   1      45.959  31.517  28.245  1.00  0.00     0.037 A 
ATOM     49  C   UNL A   1      43.704  24.945  27.322  1.00  0.00     0.037 A 
ATOM     50  C   UNL A   1      46.936  30.598  27.720  1.00  0.00     0.049 A 
ATOM     51  C   UNL A   1      45.097  25.365  26.931  1.00  0.00     0.074 A 
ATOM     52  C   UNL A   1      48.263  30.843  27.411  1.00  0.00     0.029 A 
ATOM     53  N   UNL A   1      46.696  29.265  27.421  1.00  0.00    -0.354 N 
ATOM     54  N   UNL A   1      45.674  26.535  27.072  1.00  0.00    -0.248 NA
ATOM     55  C   UNL A   1      45.951  24.348  26.303  1.00  0.00     0.031 C 
ATOM     56  C   UNL A   1      48.809  29.675  26.873  1.00  0.00     0.029 A 
ATOM     57  C   UNL A   1      47.841  28.683  26.902  1.00  0.00     0.049 A 
ATOM     58  H   UNL A   1      45.838  28.801  27.557  1.00  0.00     0.167 HD
ATOM     59  C   UNL A   1      46.964  26.387  26.571  1.00  0.00     0.074 A 
ATOM     60  C   UNL A   1      47.088  25.012  26.137  1.00  0.00     0.031 C 
ATOM     61  C   UNL A   1      47.954  27.310  26.478  1.00  0.00     0.037 A 
BRANCH  48  62
ATOM     62  C   UNL A   1      46.389  32.940  28.475  1.00  0.00     0.058 A 
ATOM     63  C   UNL A   1      46.302  33.885  27.441  1.00  0.00     0.135 A 
ATOM     64  C   UNL A   1      46.972  33.346  29.686  1.00  0.00     0.135 A 
ATOM     65  F   UNL A   1      45.745  33.552  26.266  1.00  0.00    -0.206 F 
ATOM     66  C   UNL A   1      46.803  35.174  27.588  1.00  0.00     0.059 A 
ATOM     67  C   UNL A   1      47.458  34.639  29.865  1.00  0.00     0.059 A 
ATOM     68  F   UNL A   1      47.060  32.488  30.715  1.00  0.00    -0.206 F 
ATOM     69  C   UNL A   1      47.385  35.541  28.802  1.00  0.00     0.060 A 
BRANCH  69  70
ATOM     70  S   UNL A   1      48.030  37.218  28.974  1.00  0.00     0.124 S 
ATOM     71  O   UNL A   1      46.967  37.874  29.725  1.00  0.00    -0.237 OA
ATOM     72  O   UNL A   1      49.277  36.991  29.700  1.00  0.00    -0.237 OA
ATOM     73  O   UNL A   1      48.192  37.662  27.592  1.00  0.00    -0.744 OA
ENDBRANCH  69  70
ENDBRANCH  48  62
BRANCH  49  74
ATOM     74  C   UNL A   1      43.236  23.549  27.098  1.00  0.00     0.058 A 
ATOM     75  C   UNL A   1      43.266  22.598  28.131  1.00  0.00     0.135 A 
ATOM     76  C   UNL A   1      42.767  23.134  25.843  1.00  0.00     0.135 A 
ATOM     77  F   UNL A   1      43.708  22.942  29.350  1.00  0.00    -0.206 F 
ATOM     78  C   UNL A   1      42.873  21.281  27.921  1.00  0.00     0.059 A 
ATOM     79  C   UNL A   1      42.340  21.828  25.617  1.00  0.00     0.059 A 
ATOM     80  F   UNL A   1      42.703  24.010  24.829  1.00  0.00    -0.206 F 
ATOM     81  C   UNL A   1      42.413  20.905  26.658  1.00  0.00     0.060 A 
BRANCH  81  82
ATOM     82  S   UNL A   1      41.914  19.188  26.408  1.00  0.00     0.124 S 
ATOM     83  O   UNL A   1      40.606  19.352  25.784  1.00  0.00    -0.237 OA
ATOM     84  O   UNL A   1      42.975  18.686  25.540  1.00  0.00    -0.237 OA
ATOM     85  O   UNL A   1      41.901  18.640  27.761  1.00  0.00    -0.744 OA
ENDBRANCH  81  82
ENDBRANCH  49  74
BRANCH  61  86
ATOM     86  C   UNL A   1      49.274  26.872  25.900  1.00  0.00     0.058 A 
ATOM     87  C   UNL A   1      50.295  26.395  26.738  1.00  0.00     0.135 A 
ATOM     88  C   UNL A   1      49.560  27.012  24.533  1.00  0.00     0.135 A 
ATOM     89  F   UNL A   1      50.077  26.248  28.055  1.00  0.00    -0.206 F 
ATOM     90  C   UNL A   1      51.561  26.098  26.245  1.00  0.00     0.059 A 
ATOM     91  C   UNL A   1      50.812  26.692  24.014  1.00  0.00     0.059 A 
ATOM     92  F   UNL A   1      48.616  27.454  23.688  1.00  0.00    -0.206 F 
ATOM     93  C   UNL A   1      51.811  26.253  24.882  1.00  0.00     0.060 A 
BRANCH  93  94
ATOM     94  S   UNL A   1      53.462  25.863  24.261  1.00  0.00     0.124 S 
ATOM     95  O   UNL A   1      53.299  26.072  22.827  1.00  0.00    -0.237 OA
ATOM     96  O   UNL A   1      54.291  26.843  24.957  1.00  0.00    -0.237 OA
ATOM     97  O   UNL A   1      53.661  24.477  24.674  1.00  0.00    -0.744 OA
ENDBRANCH  93  94
ENDBRANCH  61  86
ENDBRANCH  35  36
ENDBRANCH  28  30
ENDBRANCH  27  28
ENDBRANCH  26  27
ENDBRANCH  25  26
ENDBRANCH   1  25
TORSDOF 20
ENDMDL
