MODEL 1
REMARK VINA RESULT:     -11.1      0.000      0.000
REMARK SMILES O=C(COc1ccccc1[C@@H]1[NH2+]CCc2cc(O)c(O)cc21)OCCOCCOC(=O)c1ccc(-c2c3nc(c(-c4c(F)cc(S(=O)(=O)[O-])cc4F)c4ccc([nH]4)c(-c4c(F)cc(S(=O)(=O)[O-])cc4F)c4nc(c(-c5c(F)cc(S(=O)(=O)[O-])cc5F)c5ccc2[nH]5)C=C4)C=C3)cc1
REMARK SMILES IDX 25 1 24 2 23 3 2 4 1 5 3 6 4 7 5 8 6 9 10 10 7 11 9 12 8 13
REMARK SMILES IDX 11 14 12 15 22 16 13 17 15 20 21 21 14 22 16 23 19 24 17 25
REMARK SMILES IDX 20 26 18 28 26 30 27 31 28 32 29 33 30 34 31 35 32 36 33 37
REMARK SMILES IDX 97 38 34 39 96 40 35 41 36 42 37 43 90 44 38 45 95 46 89 47
REMARK SMILES IDX 91 48 39 49 94 50 88 51 87 52 40 54 74 55 53 56 73 57 54 58
REMARK SMILES IDX 57 59 72 60 92 61 55 62 56 63 71 65 93 66 58 67 41 68 42 69
REMARK SMILES IDX 51 70 43 71 44 72 50 73 52 74 45 75 46 76 47 77 48 78 49 79
REMARK SMILES IDX 75 80 76 81 85 82 77 83 78 84 84 85 86 86 79 87 80 88 81 89
REMARK SMILES IDX 82 90 83 91 59 92 60 93 69 94 61 95 62 96 68 97 70 98 63 99
REMARK SMILES IDX 64 100 65 101 66 102 67 103
REMARK H PARENT 12 18 12 19 20 27 18 29 91 53 57 64
REMARK Flexibility Score: inf
ROOT
ATOM      1  C   UNL A   1      36.969  21.847  24.953  1.00  0.00     0.202 C 
ENDROOT
BRANCH   1   2
ATOM      2  C   UNL A   1      35.675  21.718  25.776  1.00  0.00     0.261 C 
BRANCH   2   3
ATOM      3  O   UNL A   1      35.321  22.955  26.417  1.00  0.00    -0.461 OA
BRANCH   3   4
ATOM      4  C   UNL A   1      34.081  22.970  26.959  1.00  0.00     0.344 C 
ATOM      5  O   UNL A   1      33.802  22.240  27.906  1.00  0.00    -0.248 OA
BRANCH   4   6
ATOM      6  C   UNL A   1      33.109  23.923  26.250  1.00  0.00     0.351 C 
BRANCH   6   7
ATOM      7  O   UNL A   1      33.583  24.863  25.326  1.00  0.00    -0.481 OA
BRANCH   7   8
ATOM      8  C   UNL A   1      33.194  24.960  24.024  1.00  0.00     0.129 A 
ATOM      9  C   UNL A   1      33.674  23.815  23.351  1.00  0.00     0.047 A 
ATOM     10  C   UNL A   1      32.442  25.926  23.313  1.00  0.00     0.056 A 
ATOM     11  C   UNL A   1      33.486  23.620  21.990  1.00  0.00     0.004 A 
ATOM     12  C   UNL A   1      32.308  25.717  21.915  1.00  0.00     0.014 A 
ATOM     13  C   UNL A   1      32.814  24.585  21.265  1.00  0.00     0.001 A 
BRANCH  10  14
ATOM     14  C   UNL A   1      31.844  27.215  23.887  1.00  0.00     0.249 C 
ATOM     15  N   UNL A   1      31.475  27.123  25.310  1.00  0.00    -0.336 N 
ATOM     16  C   UNL A   1      30.632  27.875  23.212  1.00  0.00     0.021 A 
ATOM     17  C   UNL A   1      30.282  26.313  25.579  1.00  0.00     0.266 C 
ATOM     18  H   UNL A   1      31.303  28.067  25.656  1.00  0.00     0.347 HD
ATOM     19  H   UNL A   1      32.252  26.659  25.782  1.00  0.00     0.347 HD
ATOM     20  C   UNL A   1      29.350  27.378  23.550  1.00  0.00    -0.029 A 
ATOM     21  C   UNL A   1      30.750  29.088  22.516  1.00  0.00     0.060 A 
ATOM     22  C   UNL A   1      29.308  26.142  24.407  1.00  0.00     0.097 C 
ATOM     23  C   UNL A   1      28.199  28.094  23.219  1.00  0.00     0.054 A 
ATOM     24  C   UNL A   1      29.598  29.808  22.224  1.00  0.00     0.157 A 
ATOM     25  C   UNL A   1      28.340  29.318  22.585  1.00  0.00     0.157 A 
BRANCH  24  26
ATOM     26  O   UNL A   1      29.647  31.045  21.641  1.00  0.00    -0.504 OA
ATOM     27  H   UNL A   1      30.095  31.748  22.069  1.00  0.00     0.293 HD
ENDBRANCH  24  26
BRANCH  25  28
ATOM     28  O   UNL A   1      27.229  30.085  22.372  1.00  0.00    -0.504 OA
ATOM     29  H   UNL A   1      26.520  29.749  21.859  1.00  0.00     0.293 HD
ENDBRANCH  25  28
ENDBRANCH  10  14
ENDBRANCH   7   8
ENDBRANCH   6   7
ENDBRANCH   4   6
ENDBRANCH   3   4
ENDBRANCH   2   3
ENDBRANCH   1   2
BRANCH   1  30
ATOM     30  O   UNL A   1      38.008  22.633  25.540  1.00  0.00    -0.374 OA
BRANCH  30  31
ATOM     31  C   UNL A   1      39.124  21.987  26.161  1.00  0.00     0.202 C 
BRANCH  31  32
ATOM     32  C   UNL A   1      39.541  20.547  25.811  1.00  0.00     0.261 C 
BRANCH  32  33
ATOM     33  O   UNL A   1      40.394  19.915  26.763  1.00  0.00    -0.460 OA
BRANCH  33  34
ATOM     34  C   UNL A   1      41.648  19.690  26.301  1.00  0.00     0.338 C 
ATOM     35  O   UNL A   1      42.039  18.725  25.670  1.00  0.00    -0.246 OA
BRANCH  34  36
ATOM     36  C   UNL A   1      42.442  20.917  26.479  1.00  0.00     0.060 A 
ATOM     37  C   UNL A   1      42.586  21.400  27.786  1.00  0.00     0.016 A 
ATOM     38  C   UNL A   1      43.006  21.592  25.395  1.00  0.00     0.016 A 
ATOM     39  C   UNL A   1      43.266  22.586  28.016  1.00  0.00     0.010 A 
ATOM     40  C   UNL A   1      43.654  22.806  25.620  1.00  0.00     0.010 A 
ATOM     41  C   UNL A   1      43.745  23.320  26.926  1.00  0.00    -0.014 A 
BRANCH  41  42
ATOM     42  C   UNL A   1      44.095  24.737  27.142  1.00  0.00     0.031 A 
ATOM     43  C   UNL A   1      45.534  25.130  26.954  1.00  0.00     0.074 A 
ATOM     44  C   UNL A   1      43.152  25.643  27.442  1.00  0.00     0.049 A 
ATOM     45  N   UNL A   1      46.102  26.294  27.107  1.00  0.00    -0.248 NA
ATOM     46  C   UNL A   1      46.457  24.060  26.533  1.00  0.00     0.031 C 
ATOM     47  C   UNL A   1      41.724  25.362  27.586  1.00  0.00     0.029 A 
ATOM     48  N   UNL A   1      43.260  26.986  27.683  1.00  0.00    -0.354 N 
ATOM     49  C   UNL A   1      47.445  26.098  26.808  1.00  0.00     0.074 A 
ATOM     50  C   UNL A   1      47.615  24.701  26.486  1.00  0.00     0.031 C 
ATOM     51  C   UNL A   1      41.089  26.501  27.913  1.00  0.00     0.029 A 
ATOM     52  C   UNL A   1      42.069  27.579  28.026  1.00  0.00     0.049 A 
ATOM     53  H   UNL A   1      44.109  27.480  27.618  1.00  0.00     0.167 HD
ATOM     54  C   UNL A   1      48.445  27.009  26.800  1.00  0.00     0.037 A 
ATOM     55  C   UNL A   1      41.816  28.845  28.410  1.00  0.00     0.037 A 
ATOM     56  C   UNL A   1      48.255  28.394  27.133  1.00  0.00     0.049 A 
ATOM     57  C   UNL A   1      42.958  29.827  28.458  1.00  0.00     0.074 A 
ATOM     58  C   UNL A   1      49.193  29.410  27.164  1.00  0.00     0.029 A 
ATOM     59  N   UNL A   1      47.039  28.955  27.498  1.00  0.00    -0.354 N 
ATOM     60  N   UNL A   1      44.224  29.636  28.168  1.00  0.00    -0.248 NA
ATOM     61  C   UNL A   1      42.639  31.198  28.881  1.00  0.00     0.031 C 
ATOM     62  C   UNL A   1      48.550  30.577  27.591  1.00  0.00     0.029 A 
ATOM     63  C   UNL A   1      47.204  30.300  27.777  1.00  0.00     0.049 A 
ATOM     64  H   UNL A   1      46.185  28.467  27.552  1.00  0.00     0.167 HD
ATOM     65  C   UNL A   1      44.848  30.865  28.346  1.00  0.00     0.074 A 
ATOM     66  C   UNL A   1      43.817  31.795  28.762  1.00  0.00     0.031 C 
ATOM     67  C   UNL A   1      46.152  31.200  28.179  1.00  0.00     0.037 A 
BRANCH  54  68
ATOM     68  C   UNL A   1      49.823  26.523  26.457  1.00  0.00     0.058 A 
ATOM     69  C   UNL A   1      50.641  25.886  27.404  1.00  0.00     0.135 A 
ATOM     70  C   UNL A   1      50.331  26.685  25.158  1.00  0.00     0.135 A 
ATOM     71  F   UNL A   1      50.216  25.729  28.668  1.00  0.00    -0.206 F 
ATOM     72  C   UNL A   1      51.921  25.444  27.081  1.00  0.00     0.059 A 
ATOM     73  C   UNL A   1      51.598  26.231  24.806  1.00  0.00     0.059 A 
ATOM     74  F   UNL A   1      49.596  27.300  24.217  1.00  0.00    -0.206 F 
ATOM     75  C   UNL A   1      52.391  25.623  25.778  1.00  0.00     0.060 A 
BRANCH  75  76
ATOM     76  S   UNL A   1      54.048  25.036  25.370  1.00  0.00     0.124 S 
ATOM     77  O   UNL A   1      53.869  23.589  25.431  1.00  0.00    -0.237 OA
ATOM     78  O   UNL A   1      54.259  25.592  24.037  1.00  0.00    -0.237 OA
ATOM     79  O   UNL A   1      54.880  25.610  26.424  1.00  0.00    -0.744 OA
ENDBRANCH  75  76
ENDBRANCH  54  68
BRANCH  55  80
ATOM     80  C   UNL A   1      40.436  29.245  28.791  1.00  0.00     0.058 A 
ATOM     81  C   UNL A   1      40.055  29.359  30.135  1.00  0.00     0.135 A 
ATOM     82  C   UNL A   1      39.469  29.531  27.813  1.00  0.00     0.135 A 
ATOM     83  F   UNL A   1      40.940  29.088  31.107  1.00  0.00    -0.206 F 
ATOM     84  C   UNL A   1      38.764  29.730  30.499  1.00  0.00     0.059 A 
ATOM     85  C   UNL A   1      38.180  29.927  28.150  1.00  0.00     0.059 A 
ATOM     86  F   UNL A   1      39.785  29.449  26.510  1.00  0.00    -0.206 F 
ATOM     87  C   UNL A   1      37.834  30.014  29.498  1.00  0.00     0.060 A 
BRANCH  87  88
ATOM     88  S   UNL A   1      36.174  30.543  29.980  1.00  0.00     0.124 S 
ATOM     89  O   UNL A   1      35.386  30.120  28.830  1.00  0.00    -0.237 OA
ATOM     90  O   UNL A   1      35.959  29.793  31.214  1.00  0.00    -0.237 OA
ATOM     91  O   UNL A   1      36.320  31.986  30.152  1.00  0.00    -0.744 OA
ENDBRANCH  87  88
ENDBRANCH  55  80
BRANCH  67  92
ATOM     92  C   UNL A   1      46.531  32.636  28.407  1.00  0.00     0.058 A 
ATOM     93  C   UNL A   1      46.430  33.594  27.388  1.00  0.00     0.135 A 
ATOM     94  C   UNL A   1      46.934  33.066  29.680  1.00  0.00     0.135 A 
ATOM     95  F   UNL A   1      46.053  33.231  26.152  1.00  0.00    -0.206 F 
ATOM     96  C   UNL A   1      46.737  34.930  27.620  1.00  0.00     0.059 A 
ATOM     97  C   UNL A   1      47.221  34.400  29.942  1.00  0.00     0.059 A 
ATOM     98  F   UNL A   1      47.034  32.187  30.692  1.00  0.00    -0.206 F 
ATOM     99  C   UNL A   1      47.129  35.324  28.901  1.00  0.00     0.060 A 
BRANCH  99 100
ATOM    100  S   UNL A   1      47.487  37.068  29.200  1.00  0.00     0.124 S 
ATOM    101  O   UNL A   1      48.589  37.303  28.272  1.00  0.00    -0.237 OA
ATOM    102  O   UNL A   1      46.223  37.710  28.859  1.00  0.00    -0.237 OA
ATOM    103  O   UNL A   1      47.840  37.104  30.617  1.00  0.00    -0.744 OA
ENDBRANCH  99 100
ENDBRANCH  67  92
ENDBRANCH  41  42
ENDBRANCH  34  36
ENDBRANCH  33  34
ENDBRANCH  32  33
ENDBRANCH  31  32
ENDBRANCH  30  31
ENDBRANCH   1  30
TORSDOF 22
ENDMDL
MODEL 2
REMARK VINA RESULT:     -11.1      2.448      9.076
REMARK SMILES O=C(COc1ccccc1[C@@H]1[NH2+]CCc2cc(O)c(O)cc21)OCCOCCOC(=O)c1ccc(-c2c3nc(c(-c4c(F)cc(S(=O)(=O)[O-])cc4F)c4ccc([nH]4)c(-c4c(F)cc(S(=O)(=O)[O-])cc4F)c4nc(c(-c5c(F)cc(S(=O)(=O)[O-])cc5F)c5ccc2[nH]5)C=C4)C=C3)cc1
REMARK SMILES IDX 25 1 24 2 23 3 2 4 1 5 3 6 4 7 5 8 6 9 10 10 7 11 9 12 8 13
REMARK SMILES IDX 11 14 12 15 22 16 13 17 15 20 21 21 14 22 16 23 19 24 17 25
REMARK SMILES IDX 20 26 18 28 26 30 27 31 28 32 29 33 30 34 31 35 32 36 33 37
REMARK SMILES IDX 97 38 34 39 96 40 35 41 36 42 37 43 90 44 38 45 95 46 89 47
REMARK SMILES IDX 91 48 39 49 94 50 88 51 87 52 40 54 74 55 53 56 73 57 54 58
REMARK SMILES IDX 57 59 72 60 92 61 55 62 56 63 71 65 93 66 58 67 41 68 42 69
REMARK SMILES IDX 51 70 43 71 44 72 50 73 52 74 45 75 46 76 47 77 48 78 49 79
REMARK SMILES IDX 75 80 76 81 85 82 77 83 78 84 84 85 86 86 79 87 80 88 81 89
REMARK SMILES IDX 82 90 83 91 59 92 60 93 69 94 61 95 62 96 68 97 70 98 63 99
REMARK SMILES IDX 64 100 65 101 66 102 67 103
REMARK H PARENT 12 18 12 19 20 27 18 29 91 53 57 64
REMARK Flexibility Score: inf
ROOT
ATOM      1  C   UNL A   1      35.069  32.889  27.988  1.00  0.00     0.202 C 
ENDROOT
BRANCH   1   2
ATOM      2  C   UNL A   1      33.922  31.865  27.964  1.00  0.00     0.261 C 
BRANCH   2   3
ATOM      3  O   UNL A   1      34.183  30.789  27.047  1.00  0.00    -0.461 OA
BRANCH   3   4
ATOM      4  C   UNL A   1      33.202  29.858  26.980  1.00  0.00     0.344 C 
ATOM      5  O   UNL A   1      33.314  28.786  27.567  1.00  0.00    -0.248 OA
BRANCH   4   6
ATOM      6  C   UNL A   1      32.021  30.270  26.090  1.00  0.00     0.351 C 
BRANCH   6   7
ATOM      7  O   UNL A   1      31.914  29.780  24.782  1.00  0.00    -0.481 OA
BRANCH   7   8
ATOM      8  C   UNL A   1      30.940  28.945  24.326  1.00  0.00     0.129 A 
ATOM      9  C   UNL A   1      30.092  29.701  23.486  1.00  0.00     0.047 A 
ATOM     10  C   UNL A   1      30.679  27.568  24.527  1.00  0.00     0.056 A 
ATOM     11  C   UNL A   1      28.965  29.158  22.885  1.00  0.00     0.004 A 
ATOM     12  C   UNL A   1      29.493  27.058  23.934  1.00  0.00     0.014 A 
ATOM     13  C   UNL A   1      28.655  27.834  23.125  1.00  0.00     0.001 A 
BRANCH  10  14
ATOM     14  C   UNL A   1      31.497  26.605  25.395  1.00  0.00     0.249 C 
ATOM     15  N   UNL A   1      32.950  26.688  25.174  1.00  0.00    -0.336 N 
ATOM     16  C   UNL A   1      31.186  25.101  25.387  1.00  0.00     0.021 A 
ATOM     17  C   UNL A   1      33.408  26.115  23.904  1.00  0.00     0.266 C 
ATOM     18  H   UNL A   1      33.416  26.191  25.933  1.00  0.00     0.347 HD
ATOM     19  H   UNL A   1      33.183  27.681  25.144  1.00  0.00     0.347 HD
ATOM     20  C   UNL A   1      31.760  24.324  24.352  1.00  0.00    -0.029 A 
ATOM     21  C   UNL A   1      30.601  24.467  26.494  1.00  0.00     0.060 A 
ATOM     22  C   UNL A   1      32.481  25.073  23.264  1.00  0.00     0.097 C 
ATOM     23  C   UNL A   1      31.774  22.931  24.432  1.00  0.00     0.054 A 
ATOM     24  C   UNL A   1      30.654  23.081  26.578  1.00  0.00     0.157 A 
ATOM     25  C   UNL A   1      31.246  22.327  25.562  1.00  0.00     0.157 A 
BRANCH  24  26
ATOM     26  O   UNL A   1      30.197  22.405  27.677  1.00  0.00    -0.504 OA
ATOM     27  H   UNL A   1      30.145  21.469  27.664  1.00  0.00     0.293 HD
ENDBRANCH  24  26
BRANCH  25  28
ATOM     28  O   UNL A   1      31.370  20.974  25.707  1.00  0.00    -0.504 OA
ATOM     29  H   UNL A   1      32.037  20.621  26.263  1.00  0.00     0.293 HD
ENDBRANCH  25  28
ENDBRANCH  10  14
ENDBRANCH   7   8
ENDBRANCH   6   7
ENDBRANCH   4   6
ENDBRANCH   3   4
ENDBRANCH   2   3
ENDBRANCH   1   2
BRANCH   1  30
ATOM     30  O   UNL A   1      34.876  34.025  28.834  1.00  0.00    -0.374 OA
BRANCH  30  31
ATOM     31  C   UNL A   1      34.294  33.855  30.131  1.00  0.00     0.202 C 
BRANCH  31  32
ATOM     32  C   UNL A   1      35.024  33.123  31.271  1.00  0.00     0.261 C 
BRANCH  32  33
ATOM     33  O   UNL A   1      35.805  32.000  30.867  1.00  0.00    -0.460 OA
BRANCH  33  34
ATOM     34  C   UNL A   1      36.747  31.642  31.774  1.00  0.00     0.338 C 
ATOM     35  O   UNL A   1      36.675  31.737  32.986  1.00  0.00    -0.246 OA
BRANCH  34  36
ATOM     36  C   UNL A   1      37.808  30.894  31.081  1.00  0.00     0.060 A 
ATOM     37  C   UNL A   1      38.691  30.153  31.876  1.00  0.00     0.016 A 
ATOM     38  C   UNL A   1      37.953  30.938  29.693  1.00  0.00     0.016 A 
ATOM     39  C   UNL A   1      39.751  29.478  31.292  1.00  0.00     0.010 A 
ATOM     40  C   UNL A   1      39.043  30.296  29.109  1.00  0.00     0.010 A 
ATOM     41  C   UNL A   1      39.963  29.602  29.915  1.00  0.00    -0.014 A 
BRANCH  41  42
ATOM     42  C   UNL A   1      41.286  29.230  29.379  1.00  0.00     0.031 A 
ATOM     43  C   UNL A   1      42.339  30.302  29.331  1.00  0.00     0.074 A 
ATOM     44  C   UNL A   1      41.548  27.969  29.000  1.00  0.00     0.049 A 
ATOM     45  N   UNL A   1      43.564  30.241  28.884  1.00  0.00    -0.248 NA
ATOM     46  C   UNL A   1      41.956  31.622  29.862  1.00  0.00     0.031 C 
ATOM     47  C   UNL A   1      40.605  26.853  29.067  1.00  0.00     0.029 A 
ATOM     48  N   UNL A   1      42.688  27.420  28.479  1.00  0.00    -0.354 N 
ATOM     49  C   UNL A   1      44.095  31.511  29.074  1.00  0.00     0.074 A 
ATOM     50  C   UNL A   1      43.057  32.329  29.656  1.00  0.00     0.031 C 
ATOM     51  C   UNL A   1      41.204  25.751  28.582  1.00  0.00     0.029 A 
ATOM     52  C   UNL A   1      42.556  26.093  28.149  1.00  0.00     0.049 A 
ATOM     53  H   UNL A   1      43.523  27.927  28.352  1.00  0.00     0.167 HD
ATOM     54  C   UNL A   1      45.342  31.950  28.791  1.00  0.00     0.037 A 
ATOM     55  C   UNL A   1      43.429  25.265  27.542  1.00  0.00     0.037 A 
ATOM     56  C   UNL A   1      46.358  31.121  28.203  1.00  0.00     0.049 A 
ATOM     57  C   UNL A   1      44.791  25.795  27.175  1.00  0.00     0.074 A 
ATOM     58  C   UNL A   1      47.656  31.455  27.866  1.00  0.00     0.029 A 
ATOM     59  N   UNL A   1      46.182  29.787  27.860  1.00  0.00    -0.354 N 
ATOM     60  N   UNL A   1      45.289  26.996  27.364  1.00  0.00    -0.248 NA
ATOM     61  C   UNL A   1      45.713  24.861  26.516  1.00  0.00     0.031 C 
ATOM     62  C   UNL A   1      48.253  30.334  27.279  1.00  0.00     0.029 A 
ATOM     63  C   UNL A   1      47.342  29.287  27.296  1.00  0.00     0.049 A 
ATOM     64  H   UNL A   1      45.353  29.273  27.997  1.00  0.00     0.167 HD
ATOM     65  C   UNL A   1      46.588  26.954  26.873  1.00  0.00     0.074 A 
ATOM     66  C   UNL A   1      46.803  25.605  26.386  1.00  0.00     0.031 C 
ATOM     67  C   UNL A   1      47.524  27.935  26.831  1.00  0.00     0.037 A 
BRANCH  54  68
ATOM     68  C   UNL A   1      45.653  33.391  29.080  1.00  0.00     0.058 A 
ATOM     69  C   UNL A   1      45.420  34.403  28.135  1.00  0.00     0.135 A 
ATOM     70  C   UNL A   1      46.181  33.767  30.325  1.00  0.00     0.135 A 
ATOM     71  F   UNL A   1      44.942  34.095  26.918  1.00  0.00    -0.206 F 
ATOM     72  C   UNL A   1      45.717  35.735  28.407  1.00  0.00     0.059 A 
ATOM     73  C   UNL A   1      46.464  35.096  30.628  1.00  0.00     0.059 A 
ATOM     74  F   UNL A   1      46.435  32.838  31.260  1.00  0.00    -0.206 F 
ATOM     75  C   UNL A   1      46.240  36.071  29.658  1.00  0.00     0.060 A 
BRANCH  75  76
ATOM     76  S   UNL A   1      46.612  37.803  30.000  1.00  0.00     0.124 S 
ATOM     77  O   UNL A   1      46.678  37.805  31.459  1.00  0.00    -0.237 OA
ATOM     78  O   UNL A   1      47.884  37.994  29.310  1.00  0.00    -0.237 OA
ATOM     79  O   UNL A   1      45.476  38.515  29.423  1.00  0.00    -0.744 OA
ENDBRANCH  75  76
ENDBRANCH  54  68
BRANCH  55  80
ATOM     80  C   UNL A   1      43.035  23.866  27.234  1.00  0.00     0.058 A 
ATOM     81  C   UNL A   1      42.684  23.477  25.934  1.00  0.00     0.135 A 
ATOM     82  C   UNL A   1      43.012  22.883  28.237  1.00  0.00     0.135 A 
ATOM     83  F   UNL A   1      42.682  24.381  24.942  1.00  0.00    -0.206 F 
ATOM     84  C   UNL A   1      42.311  22.169  25.639  1.00  0.00     0.059 A 
ATOM     85  C   UNL A   1      42.667  21.564  27.964  1.00  0.00     0.059 A 
ATOM     86  F   UNL A   1      43.352  23.200  29.498  1.00  0.00    -0.206 F 
ATOM     87  C   UNL A   1      42.308  21.218  26.661  1.00  0.00     0.060 A 
BRANCH  87  88
ATOM     88  S   UNL A   1      41.871  19.512  26.259  1.00  0.00     0.124 S 
ATOM     89  O   UNL A   1      42.333  18.803  27.446  1.00  0.00    -0.237 OA
ATOM     90  O   UNL A   1      40.425  19.598  26.088  1.00  0.00    -0.237 OA
ATOM     91  O   UNL A   1      42.625  19.254  25.035  1.00  0.00    -0.744 OA
ENDBRANCH  87  88
ENDBRANCH  55  80
BRANCH  67  92
ATOM     92  C   UNL A   1      48.874  27.579  26.275  1.00  0.00     0.058 A 
ATOM     93  C   UNL A   1      49.942  27.223  27.110  1.00  0.00     0.135 A 
ATOM     94  C   UNL A   1      49.075  27.530  24.887  1.00  0.00     0.135 A 
ATOM     95  F   UNL A   1      49.800  27.258  28.445  1.00  0.00    -0.206 F 
ATOM     96  C   UNL A   1      51.175  26.848  26.587  1.00  0.00     0.059 A 
ATOM     97  C   UNL A   1      50.290  27.134  24.341  1.00  0.00     0.059 A 
ATOM     98  F   UNL A   1      48.077  27.851  24.047  1.00  0.00    -0.206 F 
ATOM     99  C   UNL A   1      51.338  26.804  25.200  1.00  0.00     0.060 A 
BRANCH  99 100
ATOM    100  S   UNL A   1      52.930  26.279  24.532  1.00  0.00     0.124 S 
ATOM    101  O   UNL A   1      53.845  27.203  25.194  1.00  0.00    -0.237 OA
ATOM    102  O   UNL A   1      53.009  24.888  24.966  1.00  0.00    -0.237 OA
ATOM    103  O   UNL A   1      52.774  26.471  23.092  1.00  0.00    -0.744 OA
ENDBRANCH  99 100
ENDBRANCH  67  92
ENDBRANCH  41  42
ENDBRANCH  34  36
ENDBRANCH  33  34
ENDBRANCH  32  33
ENDBRANCH  31  32
ENDBRANCH  30  31
ENDBRANCH   1  30
TORSDOF 22
ENDMDL
MODEL 3
REMARK VINA RESULT:     -11.0      3.542      9.512
REMARK SMILES O=C(COc1ccccc1[C@@H]1[NH2+]CCc2cc(O)c(O)cc21)OCCOCCOC(=O)c1ccc(-c2c3nc(c(-c4c(F)cc(S(=O)(=O)[O-])cc4F)c4ccc([nH]4)c(-c4c(F)cc(S(=O)(=O)[O-])cc4F)c4nc(c(-c5c(F)cc(S(=O)(=O)[O-])cc5F)c5ccc2[nH]5)C=C4)C=C3)cc1
REMARK SMILES IDX 25 1 24 2 23 3 2 4 1 5 3 6 4 7 5 8 6 9 10 10 7 11 9 12 8 13
REMARK SMILES IDX 11 14 12 15 22 16 13 17 15 20 21 21 14 22 16 23 19 24 17 25
REMARK SMILES IDX 20 26 18 28 26 30 27 31 28 32 29 33 30 34 31 35 32 36 33 37
REMARK SMILES IDX 97 38 34 39 96 40 35 41 36 42 37 43 90 44 38 45 95 46 89 47
REMARK SMILES IDX 91 48 39 49 94 50 88 51 87 52 40 54 74 55 53 56 73 57 54 58
REMARK SMILES IDX 57 59 72 60 92 61 55 62 56 63 71 65 93 66 58 67 41 68 42 69
REMARK SMILES IDX 51 70 43 71 44 72 50 73 52 74 45 75 46 76 47 77 48 78 49 79
REMARK SMILES IDX 75 80 76 81 85 82 77 83 78 84 84 85 86 86 79 87 80 88 81 89
REMARK SMILES IDX 82 90 83 91 59 92 60 93 69 94 61 95 62 96 68 97 70 98 63 99
REMARK SMILES IDX 64 100 65 101 66 102 67 103
REMARK H PARENT 12 18 12 19 20 27 18 29 91 53 57 64
REMARK Flexibility Score: inf
ROOT
ATOM      1  C   UNL A   1      32.423  29.209  24.449  1.00  0.00     0.202 C 
ENDROOT
BRANCH   1   2
ATOM      2  C   UNL A   1      31.852  28.568  23.172  1.00  0.00     0.261 C 
BRANCH   2   3
ATOM      3  O   UNL A   1      32.803  27.697  22.538  1.00  0.00    -0.461 OA
BRANCH   3   4
ATOM      4  C   UNL A   1      32.696  26.395  22.896  1.00  0.00     0.344 C 
ATOM      5  O   UNL A   1      31.753  25.714  22.505  1.00  0.00    -0.248 OA
BRANCH   4   6
ATOM      6  C   UNL A   1      33.811  25.920  23.837  1.00  0.00     0.351 C 
BRANCH   6   7
ATOM      7  O   UNL A   1      33.512  25.519  25.146  1.00  0.00    -0.481 OA
BRANCH   7   8
ATOM      8  C   UNL A   1      32.445  24.761  25.519  1.00  0.00     0.129 A 
ATOM      9  C   UNL A   1      31.399  25.643  25.868  1.00  0.00     0.047 A 
ATOM     10  C   UNL A   1      32.234  23.362  25.588  1.00  0.00     0.056 A 
ATOM     11  C   UNL A   1      30.172  25.193  26.336  1.00  0.00     0.004 A 
ATOM     12  C   UNL A   1      30.984  22.939  26.114  1.00  0.00     0.014 A 
ATOM     13  C   UNL A   1      29.971  23.834  26.476  1.00  0.00     0.001 A 
BRANCH  10  14
ATOM     14  C   UNL A   1      33.252  22.271  25.241  1.00  0.00     0.249 C 
ATOM     15  N   UNL A   1      34.133  22.611  24.111  1.00  0.00    -0.336 N 
ATOM     16  C   UNL A   1      32.783  20.837  24.951  1.00  0.00     0.021 A 
ATOM     17  C   UNL A   1      33.481  22.582  22.799  1.00  0.00     0.266 C 
ATOM     18  H   UNL A   1      34.905  21.945  24.098  1.00  0.00     0.347 HD
ATOM     19  H   UNL A   1      34.439  23.574  24.262  1.00  0.00     0.347 HD
ATOM     20  C   UNL A   1      32.342  20.551  23.636  1.00  0.00    -0.029 A 
ATOM     21  C   UNL A   1      33.036  19.787  25.847  1.00  0.00     0.060 A 
ATOM     22  C   UNL A   1      32.217  21.719  22.696  1.00  0.00     0.097 C 
ATOM     23  C   UNL A   1      32.180  19.232  23.211  1.00  0.00     0.054 A 
ATOM     24  C   UNL A   1      32.904  18.478  25.399  1.00  0.00     0.157 A 
ATOM     25  C   UNL A   1      32.493  18.209  24.092  1.00  0.00     0.157 A 
BRANCH  24  26
ATOM     26  O   UNL A   1      33.235  17.408  26.186  1.00  0.00    -0.504 OA
ATOM     27  H   UNL A   1      33.292  17.510  27.116  1.00  0.00     0.293 HD
ENDBRANCH  24  26
BRANCH  25  28
ATOM     28  O   UNL A   1      32.460  16.918  23.644  1.00  0.00    -0.504 OA
ATOM     29  H   UNL A   1      31.641  16.467  23.578  1.00  0.00     0.293 HD
ENDBRANCH  25  28
ENDBRANCH  10  14
ENDBRANCH   7   8
ENDBRANCH   6   7
ENDBRANCH   4   6
ENDBRANCH   3   4
ENDBRANCH   2   3
ENDBRANCH   1   2
BRANCH   1  30
ATOM     30  O   UNL A   1      31.600  29.120  25.615  1.00  0.00    -0.374 OA
BRANCH  30  31
ATOM     31  C   UNL A   1      31.983  29.809  26.810  1.00  0.00     0.202 C 
BRANCH  31  32
ATOM     32  C   UNL A   1      33.416  29.752  27.369  1.00  0.00     0.261 C 
BRANCH  32  33
ATOM     33  O   UNL A   1      34.140  30.980  27.304  1.00  0.00    -0.460 OA
BRANCH  33  34
ATOM     34  C   UNL A   1      34.803  31.277  28.449  1.00  0.00     0.338 C 
ATOM     35  O   UNL A   1      34.388  31.925  29.393  1.00  0.00    -0.246 OA
BRANCH  34  36
ATOM     36  C   UNL A   1      36.048  30.495  28.489  1.00  0.00     0.060 A 
ATOM     37  C   UNL A   1      36.410  29.932  29.719  1.00  0.00     0.016 A 
ATOM     38  C   UNL A   1      36.857  30.340  27.360  1.00  0.00     0.016 A 
ATOM     39  C   UNL A   1      37.604  29.238  29.840  1.00  0.00     0.010 A 
ATOM     40  C   UNL A   1      38.077  29.680  27.491  1.00  0.00     0.010 A 
ATOM     41  C   UNL A   1      38.467  29.167  28.741  1.00  0.00    -0.014 A 
BRANCH  41  42
ATOM     42  C   UNL A   1      39.873  28.794  28.983  1.00  0.00     0.031 A 
ATOM     43  C   UNL A   1      40.768  29.833  29.601  1.00  0.00     0.074 A 
ATOM     44  C   UNL A   1      40.316  27.557  28.710  1.00  0.00     0.049 A 
ATOM     45  N   UNL A   1      42.038  29.767  29.889  1.00  0.00    -0.248 NA
ATOM     46  C   UNL A   1      40.138  31.123  29.941  1.00  0.00     0.031 C 
ATOM     47  C   UNL A   1      39.505  26.470  28.165  1.00  0.00     0.029 A 
ATOM     48  N   UNL A   1      41.564  27.012  28.852  1.00  0.00    -0.354 N 
ATOM     49  C   UNL A   1      42.363  31.003  30.437  1.00  0.00     0.074 A 
ATOM     50  C   UNL A   1      41.164  31.808  30.422  1.00  0.00     0.031 C 
ATOM     51  C   UNL A   1      40.287  25.388  27.999  1.00  0.00     0.029 A 
ATOM     52  C   UNL A   1      41.652  25.718  28.400  1.00  0.00     0.049 A 
ATOM     53  H   UNL A   1      42.326  27.501  29.241  1.00  0.00     0.167 HD
ATOM     54  C   UNL A   1      43.557  31.422  30.914  1.00  0.00     0.037 A 
ATOM     55  C   UNL A   1      42.726  24.911  28.303  1.00  0.00     0.037 A 
ATOM     56  C   UNL A   1      44.740  30.607  30.910  1.00  0.00     0.049 A 
ATOM     57  C   UNL A   1      44.061  25.423  28.779  1.00  0.00     0.074 A 
ATOM     58  C   UNL A   1      46.007  30.924  31.362  1.00  0.00     0.029 A 
ATOM     59  N   UNL A   1      44.798  29.308  30.423  1.00  0.00    -0.354 N 
ATOM     60  N   UNL A   1      44.358  26.590  29.302  1.00  0.00    -0.248 NA
ATOM     61  C   UNL A   1      45.206  24.511  28.657  1.00  0.00     0.031 C 
ATOM     62  C   UNL A   1      46.843  29.831  31.107  1.00  0.00     0.029 A 
ATOM     63  C   UNL A   1      46.085  28.815  30.544  1.00  0.00     0.049 A 
ATOM     64  H   UNL A   1      44.035  28.812  30.045  1.00  0.00     0.167 HD
ATOM     65  C   UNL A   1      45.715  26.544  29.597  1.00  0.00     0.074 A 
ATOM     66  C   UNL A   1      46.179  25.228  29.200  1.00  0.00     0.031 C 
ATOM     67  C   UNL A   1      46.509  27.496  30.148  1.00  0.00     0.037 A 
BRANCH  54  68
ATOM     68  C   UNL A   1      43.639  32.827  31.438  1.00  0.00     0.058 A 
ATOM     69  C   UNL A   1      43.730  33.934  30.579  1.00  0.00     0.135 A 
ATOM     70  C   UNL A   1      43.616  33.072  32.820  1.00  0.00     0.135 A 
ATOM     71  F   UNL A   1      43.784  33.755  29.248  1.00  0.00    -0.206 F 
ATOM     72  C   UNL A   1      43.814  35.232  31.072  1.00  0.00     0.059 A 
ATOM     73  C   UNL A   1      43.675  34.363  33.335  1.00  0.00     0.059 A 
ATOM     74  F   UNL A   1      43.544  32.049  33.686  1.00  0.00    -0.206 F 
ATOM     75  C   UNL A   1      43.787  35.436  32.453  1.00  0.00     0.060 A 
BRANCH  75  76
ATOM     76  S   UNL A   1      43.887  37.127  33.078  1.00  0.00     0.124 S 
ATOM     77  O   UNL A   1      45.094  37.065  33.896  1.00  0.00    -0.237 OA
ATOM     78  O   UNL A   1      43.994  37.909  31.850  1.00  0.00    -0.237 OA
ATOM     79  O   UNL A   1      42.637  37.291  33.815  1.00  0.00    -0.744 OA
ENDBRANCH  75  76
ENDBRANCH  54  68
BRANCH  55  80
ATOM     80  C   UNL A   1      42.583  23.550  27.721  1.00  0.00     0.058 A 
ATOM     81  C   UNL A   1      42.532  23.353  26.334  1.00  0.00     0.135 A 
ATOM     82  C   UNL A   1      42.504  22.415  28.545  1.00  0.00     0.135 A 
ATOM     83  F   UNL A   1      42.595  24.406  25.505  1.00  0.00    -0.206 F 
ATOM     84  C   UNL A   1      42.396  22.082  25.783  1.00  0.00     0.059 A 
ATOM     85  C   UNL A   1      42.392  21.133  28.018  1.00  0.00     0.059 A 
ATOM     86  F   UNL A   1      42.560  22.548  29.880  1.00  0.00    -0.206 F 
ATOM     87  C   UNL A   1      42.328  20.978  26.634  1.00  0.00     0.060 A 
BRANCH  87  88
ATOM     88  S   UNL A   1      42.201  19.328  25.908  1.00  0.00     0.124 S 
ATOM     89  O   UNL A   1      43.106  19.437  24.771  1.00  0.00    -0.237 OA
ATOM     90  O   UNL A   1      42.650  18.475  27.004  1.00  0.00    -0.237 OA
ATOM     91  O   UNL A   1      40.782  19.217  25.579  1.00  0.00    -0.744 OA
ENDBRANCH  87  88
ENDBRANCH  55  80
BRANCH  67  92
ATOM     92  C   UNL A   1      47.949  27.139  30.390  1.00  0.00     0.058 A 
ATOM     93  C   UNL A   1      48.950  27.448  29.459  1.00  0.00     0.135 A 
ATOM     94  C   UNL A   1      48.333  26.541  31.600  1.00  0.00     0.135 A 
ATOM     95  F   UNL A   1      48.631  28.016  28.285  1.00  0.00    -0.206 F 
ATOM     96  C   UNL A   1      50.286  27.157  29.711  1.00  0.00     0.059 A 
ATOM     97  C   UNL A   1      49.665  26.266  31.885  1.00  0.00     0.059 A 
ATOM     98  F   UNL A   1      47.411  26.238  32.529  1.00  0.00    -0.206 F 
ATOM     99  C   UNL A   1      50.635  26.568  30.928  1.00  0.00     0.060 A 
BRANCH  99 100
ATOM    100  S   UNL A   1      52.376  26.231  31.261  1.00  0.00     0.124 S 
ATOM    101  O   UNL A   1      52.748  27.387  32.071  1.00  0.00    -0.237 OA
ATOM    102  O   UNL A   1      52.319  24.955  31.966  1.00  0.00    -0.237 OA
ATOM    103  O   UNL A   1      52.972  26.179  29.929  1.00  0.00    -0.744 OA
ENDBRANCH  99 100
ENDBRANCH  67  92
ENDBRANCH  41  42
ENDBRANCH  34  36
ENDBRANCH  33  34
ENDBRANCH  32  33
ENDBRANCH  31  32
ENDBRANCH  30  31
ENDBRANCH   1  30
TORSDOF 22
ENDMDL
