MODEL 1
REMARK VINA RESULT:     -11.9      0.000      0.000
REMARK SMILES Cn1c(=O)c(=O)n(C)c2cc(S(=O)(=O)N3CCC[C@H]3C(=O)OCCOCCOC(=O)c3ccc(-c4c5nc(c(-c6c(F)cc(S(=O)(=O)[O-])cc6F)c6ccc([nH]6)c(-c6c(F)cc(S(=O)(=O)[O-])cc6F)c6nc(c(-c7c(F)cc(S(=O)(=O)[O-])cc7F)c7ccc4[nH]7)C=C6)C=C5)cc3)ccc21
REMARK SMILES IDX 26 1 25 2 24 3 23 4 22 5 20 6 21 7 19 8 15 9 16 10 17 11
REMARK SMILES IDX 18 12 12 13 13 14 14 15 11 16 1 17 2 18 3 19 99 20 4 21 5 22
REMARK SMILES IDX 9 23 98 24 6 25 7 26 10 27 97 28 8 29 27 30 28 31 29 32
REMARK SMILES IDX 30 33 31 34 32 35 96 36 33 37 95 38 34 39 35 40 36 41 89 42
REMARK SMILES IDX 37 43 94 44 88 45 90 46 38 47 93 48 87 49 86 50 39 52 73 53
REMARK SMILES IDX 52 54 72 55 53 56 56 57 71 58 91 59 54 60 55 61 70 63 92 64
REMARK SMILES IDX 57 65 40 66 41 67 50 68 42 69 43 70 49 71 51 72 44 73 45 74
REMARK SMILES IDX 46 75 47 76 48 77 74 78 75 79 84 80 76 81 77 82 83 83 85 84
REMARK SMILES IDX 78 85 79 86 80 87 81 88 82 89 58 90 59 91 68 92 60 93 61 94
REMARK SMILES IDX 67 95 69 96 62 97 63 98 64 99 65 100 66 101
REMARK H PARENT 90 51 56 62
REMARK Flexibility Score: inf
ROOT
ATOM      1  C   UNL A   1      34.050  31.628  28.273  1.00  0.00     0.202 C 
ENDROOT
BRANCH   1   2
ATOM      2  O   UNL A   1      33.026  31.386  27.301  1.00  0.00    -0.374 OA
BRANCH   2   3
ATOM      3  C   UNL A   1      32.800  30.034  26.914  1.00  0.00     0.202 C 
BRANCH   3   4
ATOM      4  C   UNL A   1      32.902  29.702  25.420  1.00  0.00     0.261 C 
BRANCH   4   5
ATOM      5  O   UNL A   1      31.628  29.635  24.760  1.00  0.00    -0.462 OA
BRANCH   5   6
ATOM      6  C   UNL A   1      31.632  28.850  23.657  1.00  0.00     0.324 C 
ATOM      7  O   UNL A   1      31.164  29.170  22.565  1.00  0.00    -0.250 OA
BRANCH   6   8
ATOM      8  C   UNL A   1      32.282  27.503  23.837  1.00  0.00     0.183 C 
ATOM      9  N   UNL A   1      31.530  26.222  23.915  1.00  0.00    -0.184 NA
ATOM     10  C   UNL A   1      31.687  25.517  22.627  1.00  0.00     0.103 C 
ATOM     11  C   UNL A   1      33.085  25.886  22.177  1.00  0.00     0.019 C 
ATOM     12  C   UNL A   1      33.270  27.311  22.670  1.00  0.00     0.034 C 
BRANCH   9  13
ATOM     13  S   UNL A   1      31.572  25.309  25.352  1.00  0.00     0.243 S 
ATOM     14  O   UNL A   1      30.415  24.439  25.343  1.00  0.00    -0.207 OA
ATOM     15  O   UNL A   1      31.816  26.214  26.454  1.00  0.00    -0.207 OA
BRANCH  13  16
ATOM     16  C   UNL A   1      33.009  24.229  25.306  1.00  0.00     0.084 A 
ATOM     17  C   UNL A   1      37.716  22.263  25.451  1.00  0.00     0.154 C 
ATOM     18  N   UNL A   1      36.396  21.682  25.249  1.00  0.00    -0.305 N 
ATOM     19  C   UNL A   1      36.312  20.327  24.956  1.00  0.00     0.316 A 
ATOM     20  C   UNL A   1      35.241  22.501  25.304  1.00  0.00     0.068 A 
ATOM     21  O   UNL A   1      37.290  19.589  24.872  1.00  0.00    -0.263 OA
ATOM     22  C   UNL A   1      34.912  19.732  24.748  1.00  0.00     0.316 A 
ATOM     23  C   UNL A   1      33.975  22.003  24.947  1.00  0.00     0.069 A 
ATOM     24  C   UNL A   1      35.350  23.825  25.736  1.00  0.00     0.030 A 
ATOM     25  O   UNL A   1      34.812  18.511  24.641  1.00  0.00    -0.263 OA
ATOM     26  N   UNL A   1      33.827  20.610  24.690  1.00  0.00    -0.305 N 
ATOM     27  C   UNL A   1      32.872  22.891  24.902  1.00  0.00     0.050 A 
ATOM     28  C   UNL A   1      34.240  24.656  25.783  1.00  0.00     0.024 A 
ATOM     29  C   UNL A   1      32.508  20.037  24.468  1.00  0.00     0.154 C 
ENDBRANCH  13  16
ENDBRANCH   9  13
ENDBRANCH   6   8
ENDBRANCH   5   6
ENDBRANCH   4   5
ENDBRANCH   3   4
ENDBRANCH   2   3
ENDBRANCH   1   2
BRANCH   1  30
ATOM     30  C   UNL A   1      35.445  31.064  27.977  1.00  0.00     0.261 C 
BRANCH  30  31
ATOM     31  O   UNL A   1      35.623  29.778  28.603  1.00  0.00    -0.460 OA
BRANCH  31  32
ATOM     32  C   UNL A   1      36.344  29.773  29.749  1.00  0.00     0.338 C 
ATOM     33  O   UNL A   1      35.916  29.713  30.890  1.00  0.00    -0.246 OA
BRANCH  32  34
ATOM     34  C   UNL A   1      37.770  29.604  29.410  1.00  0.00     0.060 A 
ATOM     35  C   UNL A   1      38.746  29.468  30.399  1.00  0.00     0.016 A 
ATOM     36  C   UNL A   1      38.123  29.568  28.054  1.00  0.00     0.016 A 
ATOM     37  C   UNL A   1      40.077  29.260  30.024  1.00  0.00     0.010 A 
ATOM     38  C   UNL A   1      39.452  29.372  27.682  1.00  0.00     0.010 A 
ATOM     39  C   UNL A   1      40.435  29.197  28.665  1.00  0.00    -0.014 A 
BRANCH  39  40
ATOM     40  C   UNL A   1      41.812  28.819  28.269  1.00  0.00     0.031 A 
ATOM     41  C   UNL A   1      42.922  29.825  28.238  1.00  0.00     0.074 A 
ATOM     42  C   UNL A   1      42.043  27.542  27.909  1.00  0.00     0.049 A 
ATOM     43  N   UNL A   1      44.186  29.645  27.958  1.00  0.00    -0.248 NA
ATOM     44  C   UNL A   1      42.565  31.215  28.562  1.00  0.00     0.031 C 
ATOM     45  C   UNL A   1      41.032  26.484  27.879  1.00  0.00     0.029 A 
ATOM     46  N   UNL A   1      43.196  26.916  27.512  1.00  0.00    -0.354 N 
ATOM     47  C   UNL A   1      44.789  30.889  28.102  1.00  0.00     0.074 A 
ATOM     48  C   UNL A   1      43.736  31.827  28.438  1.00  0.00     0.031 C 
ATOM     49  C   UNL A   1      41.615  25.332  27.513  1.00  0.00     0.029 A 
ATOM     50  C   UNL A   1      43.032  25.575  27.261  1.00  0.00     0.049 A 
ATOM     51  H   UNL A   1      44.058  27.381  27.417  1.00  0.00     0.167 HD
ATOM     52  C   UNL A   1      46.102  31.209  27.986  1.00  0.00     0.037 A 
ATOM     53  C   UNL A   1      43.926  24.643  26.879  1.00  0.00     0.037 A 
ATOM     54  C   UNL A   1      47.135  30.274  27.614  1.00  0.00     0.049 A 
ATOM     55  C   UNL A   1      45.362  25.038  26.688  1.00  0.00     0.074 A 
ATOM     56  C   UNL A   1      48.493  30.502  27.470  1.00  0.00     0.029 A 
ATOM     57  N   UNL A   1      46.925  28.934  27.315  1.00  0.00    -0.354 N 
ATOM     58  N   UNL A   1      45.925  26.209  26.868  1.00  0.00    -0.248 NA
ATOM     59  C   UNL A   1      46.286  23.986  26.246  1.00  0.00     0.031 C 
ATOM     60  C   UNL A   1      49.097  29.312  27.046  1.00  0.00     0.029 A 
ATOM     61  C   UNL A   1      48.124  28.329  26.969  1.00  0.00     0.049 A 
ATOM     62  H   UNL A   1      46.053  28.479  27.345  1.00  0.00     0.167 HD
ATOM     63  C   UNL A   1      47.273  26.031  26.578  1.00  0.00     0.074 A 
ATOM     64  C   UNL A   1      47.442  24.635  26.226  1.00  0.00     0.031 C 
ATOM     65  C   UNL A   1      48.278  26.941  26.605  1.00  0.00     0.037 A 
BRANCH  52  66
ATOM     66  C   UNL A   1      46.494  32.631  28.275  1.00  0.00     0.058 A 
ATOM     67  C   UNL A   1      46.481  33.607  27.266  1.00  0.00     0.135 A 
ATOM     68  C   UNL A   1      46.848  33.037  29.573  1.00  0.00     0.135 A 
ATOM     69  F   UNL A   1      46.163  33.273  26.006  1.00  0.00    -0.206 F 
ATOM     70  C   UNL A   1      46.833  34.928  27.525  1.00  0.00     0.059 A 
ATOM     71  C   UNL A   1      47.182  34.358  29.860  1.00  0.00     0.059 A 
ATOM     72  F   UNL A   1      46.875  32.146  30.576  1.00  0.00    -0.206 F 
ATOM     73  C   UNL A   1      47.187  35.292  28.825  1.00  0.00     0.060 A 
BRANCH  73  74
ATOM     74  S   UNL A   1      47.661  37.007  29.134  1.00  0.00     0.124 S 
ATOM     75  O   UNL A   1      48.863  36.833  29.944  1.00  0.00    -0.237 OA
ATOM     76  O   UNL A   1      47.878  37.518  27.784  1.00  0.00    -0.237 OA
ATOM     77  O   UNL A   1      46.507  37.560  29.834  1.00  0.00    -0.744 OA
ENDBRANCH  73  74
ENDBRANCH  52  66
BRANCH  53  78
ATOM     78  C   UNL A   1      43.485  23.235  26.705  1.00  0.00     0.058 A 
ATOM     79  C   UNL A   1      43.392  22.671  25.425  1.00  0.00     0.135 A 
ATOM     80  C   UNL A   1      43.200  22.415  27.808  1.00  0.00     0.135 A 
ATOM     81  F   UNL A   1      43.650  23.419  24.342  1.00  0.00    -0.206 F 
ATOM     82  C   UNL A   1      43.029  21.342  25.242  1.00  0.00     0.059 A 
ATOM     83  C   UNL A   1      42.856  21.076  27.651  1.00  0.00     0.059 A 
ATOM     84  F   UNL A   1      43.291  22.908  29.053  1.00  0.00    -0.206 F 
ATOM     85  C   UNL A   1      42.770  20.550  26.363  1.00  0.00     0.060 A 
BRANCH  85  86
ATOM     86  S   UNL A   1      42.370  18.807  26.112  1.00  0.00     0.124 S 
ATOM     87  O   UNL A   1      40.958  18.879  25.753  1.00  0.00    -0.237 OA
ATOM     88  O   UNL A   1      43.284  18.437  25.036  1.00  0.00    -0.237 OA
ATOM     89  O   UNL A   1      42.661  18.204  27.409  1.00  0.00    -0.744 OA
ENDBRANCH  85  86
ENDBRANCH  53  78
BRANCH  65  90
ATOM     90  C   UNL A   1      49.656  26.454  26.250  1.00  0.00     0.058 A 
ATOM     91  C   UNL A   1      50.216  26.693  24.985  1.00  0.00     0.135 A 
ATOM     92  C   UNL A   1      50.439  25.771  27.195  1.00  0.00     0.135 A 
ATOM     93  F   UNL A   1      49.507  27.333  24.042  1.00  0.00    -0.206 F 
ATOM     94  C   UNL A   1      51.497  26.255  24.663  1.00  0.00     0.059 A 
ATOM     95  C   UNL A   1      51.732  25.346  26.903  1.00  0.00     0.059 A 
ATOM     96  F   UNL A   1      49.955  25.523  28.422  1.00  0.00    -0.206 F 
ATOM     97  C   UNL A   1      52.248  25.583  25.630  1.00  0.00     0.060 A 
BRANCH  97  98
ATOM     98  S   UNL A   1      53.918  25.044  25.204  1.00  0.00     0.124 S 
ATOM     99  O   UNL A   1      53.769  23.592  25.210  1.00  0.00    -0.237 OA
ATOM    100  O   UNL A   1      54.118  25.655  23.894  1.00  0.00    -0.237 OA
ATOM    101  O   UNL A   1      54.737  25.596  26.279  1.00  0.00    -0.744 OA
ENDBRANCH  97  98
ENDBRANCH  65  90
ENDBRANCH  39  40
ENDBRANCH  32  34
ENDBRANCH  31  32
ENDBRANCH  30  31
ENDBRANCH   1  30
TORSDOF 19
ENDMDL
MODEL 2
REMARK VINA RESULT:     -11.6      1.096      2.083
REMARK SMILES Cn1c(=O)c(=O)n(C)c2cc(S(=O)(=O)N3CCC[C@H]3C(=O)OCCOCCOC(=O)c3ccc(-c4c5nc(c(-c6c(F)cc(S(=O)(=O)[O-])cc6F)c6ccc([nH]6)c(-c6c(F)cc(S(=O)(=O)[O-])cc6F)c6nc(c(-c7c(F)cc(S(=O)(=O)[O-])cc7F)c7ccc4[nH]7)C=C6)C=C5)cc3)ccc21
REMARK SMILES IDX 26 1 25 2 24 3 23 4 22 5 20 6 21 7 19 8 15 9 16 10 17 11
REMARK SMILES IDX 18 12 12 13 13 14 14 15 11 16 1 17 2 18 3 19 99 20 4 21 5 22
REMARK SMILES IDX 9 23 98 24 6 25 7 26 10 27 97 28 8 29 27 30 28 31 29 32
REMARK SMILES IDX 30 33 31 34 32 35 96 36 33 37 95 38 34 39 35 40 36 41 89 42
REMARK SMILES IDX 37 43 94 44 88 45 90 46 38 47 93 48 87 49 86 50 39 52 73 53
REMARK SMILES IDX 52 54 72 55 53 56 56 57 71 58 91 59 54 60 55 61 70 63 92 64
REMARK SMILES IDX 57 65 40 66 41 67 50 68 42 69 43 70 49 71 51 72 44 73 45 74
REMARK SMILES IDX 46 75 47 76 48 77 74 78 75 79 84 80 76 81 77 82 83 83 85 84
REMARK SMILES IDX 78 85 79 86 80 87 81 88 82 89 58 90 59 91 68 92 60 93 61 94
REMARK SMILES IDX 67 95 69 96 62 97 63 98 64 99 65 100 66 101
REMARK H PARENT 90 51 56 62
REMARK Flexibility Score: inf
ROOT
ATOM      1  C   UNL A   1      34.351  31.822  27.628  1.00  0.00     0.202 C 
ENDROOT
BRANCH   1   2
ATOM      2  O   UNL A   1      33.140  32.587  27.584  1.00  0.00    -0.374 OA
BRANCH   2   3
ATOM      3  C   UNL A   1      32.048  32.038  26.854  1.00  0.00     0.202 C 
BRANCH   3   4
ATOM      4  C   UNL A   1      32.019  30.516  26.668  1.00  0.00     0.261 C 
BRANCH   4   5
ATOM      5  O   UNL A   1      31.561  30.107  25.369  1.00  0.00    -0.462 OA
BRANCH   5   6
ATOM      6  C   UNL A   1      32.420  29.277  24.731  1.00  0.00     0.324 C 
ATOM      7  O   UNL A   1      33.587  29.080  25.067  1.00  0.00    -0.250 OA
BRANCH   6   8
ATOM      8  C   UNL A   1      31.844  28.561  23.538  1.00  0.00     0.183 C 
ATOM      9  N   UNL A   1      31.689  27.084  23.450  1.00  0.00    -0.184 NA
ATOM     10  C   UNL A   1      30.263  26.758  23.648  1.00  0.00     0.103 C 
ATOM     11  C   UNL A   1      29.531  27.927  23.023  1.00  0.00     0.019 C 
ATOM     12  C   UNL A   1      30.426  29.121  23.308  1.00  0.00     0.034 C 
BRANCH   9  13
ATOM     13  S   UNL A   1      32.566  26.216  22.278  1.00  0.00     0.243 S 
ATOM     14  O   UNL A   1      33.871  26.833  22.172  1.00  0.00    -0.207 OA
ATOM     15  O   UNL A   1      31.723  26.052  21.113  1.00  0.00    -0.207 OA
BRANCH  13  16
ATOM     16  C   UNL A   1      32.850  24.548  22.888  1.00  0.00     0.084 A 
ATOM     17  C   UNL A   1      32.405  19.671  24.320  1.00  0.00     0.154 C 
ATOM     18  N   UNL A   1      33.524  20.602  24.279  1.00  0.00    -0.305 N 
ATOM     19  C   UNL A   1      34.748  20.182  24.784  1.00  0.00     0.316 A 
ATOM     20  C   UNL A   1      33.339  21.916  23.780  1.00  0.00     0.068 A 
ATOM     21  O   UNL A   1      34.942  19.063  25.251  1.00  0.00    -0.263 OA
ATOM     22  C   UNL A   1      35.916  21.177  24.731  1.00  0.00     0.316 A 
ATOM     23  C   UNL A   1      34.353  22.885  23.885  1.00  0.00     0.069 A 
ATOM     24  C   UNL A   1      32.138  22.257  23.155  1.00  0.00     0.030 A 
ATOM     25  O   UNL A   1      37.037  20.770  25.030  1.00  0.00    -0.263 OA
ATOM     26  N   UNL A   1      35.642  22.492  24.346  1.00  0.00    -0.305 N 
ATOM     27  C   UNL A   1      34.079  24.215  23.482  1.00  0.00     0.050 A 
ATOM     28  C   UNL A   1      31.922  23.540  22.673  1.00  0.00     0.024 A 
ATOM     29  C   UNL A   1      36.752  23.432  24.323  1.00  0.00     0.154 C 
ENDBRANCH  13  16
ENDBRANCH   9  13
ENDBRANCH   6   8
ENDBRANCH   5   6
ENDBRANCH   4   5
ENDBRANCH   3   4
ENDBRANCH   2   3
ENDBRANCH   1   2
BRANCH   1  30
ATOM     30  C   UNL A   1      34.995  31.609  29.003  1.00  0.00     0.261 C 
BRANCH  30  31
ATOM     31  O   UNL A   1      35.644  30.324  29.073  1.00  0.00    -0.460 OA
BRANCH  31  32
ATOM     32  C   UNL A   1      36.345  30.076  30.205  1.00  0.00     0.338 C 
ATOM     33  O   UNL A   1      35.895  29.838  31.314  1.00  0.00    -0.246 OA
BRANCH  32  34
ATOM     34  C   UNL A   1      37.766  29.891  29.850  1.00  0.00     0.060 A 
ATOM     35  C   UNL A   1      38.748  29.726  30.829  1.00  0.00     0.016 A 
ATOM     36  C   UNL A   1      38.106  29.867  28.491  1.00  0.00     0.016 A 
ATOM     37  C   UNL A   1      40.073  29.505  30.439  1.00  0.00     0.010 A 
ATOM     38  C   UNL A   1      39.429  29.658  28.105  1.00  0.00     0.010 A 
ATOM     39  C   UNL A   1      40.417  29.455  29.077  1.00  0.00    -0.014 A 
BRANCH  39  40
ATOM     40  C   UNL A   1      41.785  29.062  28.662  1.00  0.00     0.031 A 
ATOM     41  C   UNL A   1      42.918  30.043  28.673  1.00  0.00     0.074 A 
ATOM     42  C   UNL A   1      41.987  27.797  28.250  1.00  0.00     0.049 A 
ATOM     43  N   UNL A   1      44.178  29.846  28.383  1.00  0.00    -0.248 NA
ATOM     44  C   UNL A   1      42.593  31.426  29.054  1.00  0.00     0.031 C 
ATOM     45  C   UNL A   1      40.952  26.765  28.176  1.00  0.00     0.029 A 
ATOM     46  N   UNL A   1      43.125  27.161  27.825  1.00  0.00    -0.354 N 
ATOM     47  C   UNL A   1      44.809  31.068  28.577  1.00  0.00     0.074 A 
ATOM     48  C   UNL A   1      43.778  32.016  28.954  1.00  0.00     0.031 C 
ATOM     49  C   UNL A   1      41.508  25.615  27.763  1.00  0.00     0.029 A 
ATOM     50  C   UNL A   1      42.930  25.836  27.519  1.00  0.00     0.049 A 
ATOM     51  H   UNL A   1      43.997  27.610  27.748  1.00  0.00     0.167 HD
ATOM     52  C   UNL A   1      46.128  31.363  28.473  1.00  0.00     0.037 A 
ATOM     53  C   UNL A   1      43.802  24.900  27.097  1.00  0.00     0.037 A 
ATOM     54  C   UNL A   1      47.140  30.421  28.061  1.00  0.00     0.049 A 
ATOM     55  C   UNL A   1      45.246  25.270  26.920  1.00  0.00     0.074 A 
ATOM     56  C   UNL A   1      48.503  30.623  27.925  1.00  0.00     0.029 A 
ATOM     57  N   UNL A   1      46.899  29.100  27.707  1.00  0.00    -0.354 N 
ATOM     58  N   UNL A   1      45.837  26.420  27.148  1.00  0.00    -0.248 NA
ATOM     59  C   UNL A   1      46.146  24.216  26.433  1.00  0.00     0.031 C 
ATOM     60  C   UNL A   1      49.079  29.439  27.451  1.00  0.00     0.029 A 
ATOM     61  C   UNL A   1      48.083  28.483  27.334  1.00  0.00     0.049 A 
ATOM     62  H   UNL A   1      46.016  28.664  27.720  1.00  0.00     0.167 HD
ATOM     63  C   UNL A   1      47.180  26.223  26.849  1.00  0.00     0.074 A 
ATOM     64  C   UNL A   1      47.316  24.840  26.438  1.00  0.00     0.031 C 
ATOM     65  C   UNL A   1      48.205  27.108  26.912  1.00  0.00     0.037 A 
BRANCH  52  66
ATOM     66  C   UNL A   1      46.554  32.762  28.821  1.00  0.00     0.058 A 
ATOM     67  C   UNL A   1      46.485  33.798  27.875  1.00  0.00     0.135 A 
ATOM     68  C   UNL A   1      46.996  33.087  30.115  1.00  0.00     0.135 A 
ATOM     69  F   UNL A   1      46.082  33.543  26.621  1.00  0.00    -0.206 F 
ATOM     70  C   UNL A   1      46.867  35.098  28.190  1.00  0.00     0.059 A 
ATOM     71  C   UNL A   1      47.361  34.386  30.458  1.00  0.00     0.059 A 
ATOM     72  F   UNL A   1      47.078  32.136  31.059  1.00  0.00    -0.206 F 
ATOM     73  C   UNL A   1      47.308  35.381  29.483  1.00  0.00     0.060 A 
BRANCH  73  74
ATOM     74  S   UNL A   1      47.819  37.071  29.862  1.00  0.00     0.124 S 
ATOM     75  O   UNL A   1      48.147  37.579  28.533  1.00  0.00    -0.237 OA
ATOM     76  O   UNL A   1      46.617  37.630  30.473  1.00  0.00    -0.237 OA
ATOM     77  O   UNL A   1      48.953  36.891  30.762  1.00  0.00    -0.744 OA
ENDBRANCH  73  74
ENDBRANCH  52  66
BRANCH  53  78
ATOM     78  C   UNL A   1      43.329  23.512  26.865  1.00  0.00     0.058 A 
ATOM     79  C   UNL A   1      43.163  23.024  25.561  1.00  0.00     0.135 A 
ATOM     80  C   UNL A   1      43.084  22.634  27.932  1.00  0.00     0.135 A 
ATOM     81  F   UNL A   1      43.381  23.830  24.511  1.00  0.00    -0.206 F 
ATOM     82  C   UNL A   1      42.769  21.713  25.321  1.00  0.00     0.059 A 
ATOM     83  C   UNL A   1      42.710  21.311  27.716  1.00  0.00     0.059 A 
ATOM     84  F   UNL A   1      43.244  23.052  29.197  1.00  0.00    -0.206 F 
ATOM     85  C   UNL A   1      42.552  20.862  26.406  1.00  0.00     0.060 A 
BRANCH  85  86
ATOM     86  S   UNL A   1      42.109  19.142  26.076  1.00  0.00     0.124 S 
ATOM     87  O   UNL A   1      42.479  18.497  27.331  1.00  0.00    -0.237 OA
ATOM     88  O   UNL A   1      40.678  19.242  25.808  1.00  0.00    -0.237 OA
ATOM     89  O   UNL A   1      42.934  18.797  24.923  1.00  0.00    -0.744 OA
ENDBRANCH  85  86
ENDBRANCH  53  78
BRANCH  65  90
ATOM     90  C   UNL A   1      49.572  26.604  26.535  1.00  0.00     0.058 A 
ATOM     91  C   UNL A   1      50.391  25.941  27.460  1.00  0.00     0.135 A 
ATOM     92  C   UNL A   1      50.051  26.754  25.223  1.00  0.00     0.135 A 
ATOM     93  F   UNL A   1      49.985  25.778  28.729  1.00  0.00    -0.206 F 
ATOM     94  C   UNL A   1      51.649  25.461  27.105  1.00  0.00     0.059 A 
ATOM     95  C   UNL A   1      51.295  26.260  24.839  1.00  0.00     0.059 A 
ATOM     96  F   UNL A   1      49.305  27.373  24.296  1.00  0.00    -0.206 F 
ATOM     97  C   UNL A   1      52.092  25.626  25.791  1.00  0.00     0.060 A 
BRANCH  97  98
ATOM     98  S   UNL A   1      53.714  24.975  25.340  1.00  0.00     0.124 S 
ATOM     99  O   UNL A   1      53.976  25.677  24.088  1.00  0.00    -0.237 OA
ATOM    100  O   UNL A   1      54.538  25.377  26.476  1.00  0.00    -0.237 OA
ATOM    101  O   UNL A   1      53.482  23.538  25.218  1.00  0.00    -0.744 OA
ENDBRANCH  97  98
ENDBRANCH  65  90
ENDBRANCH  39  40
ENDBRANCH  32  34
ENDBRANCH  31  32
ENDBRANCH  30  31
ENDBRANCH   1  30
TORSDOF 19
ENDMDL
MODEL 3
REMARK VINA RESULT:     -11.4      1.226      8.209
REMARK SMILES Cn1c(=O)c(=O)n(C)c2cc(S(=O)(=O)N3CCC[C@H]3C(=O)OCCOCCOC(=O)c3ccc(-c4c5nc(c(-c6c(F)cc(S(=O)(=O)[O-])cc6F)c6ccc([nH]6)c(-c6c(F)cc(S(=O)(=O)[O-])cc6F)c6nc(c(-c7c(F)cc(S(=O)(=O)[O-])cc7F)c7ccc4[nH]7)C=C6)C=C5)cc3)ccc21
REMARK SMILES IDX 26 1 25 2 24 3 23 4 22 5 20 6 21 7 19 8 15 9 16 10 17 11
REMARK SMILES IDX 18 12 12 13 13 14 14 15 11 16 1 17 2 18 3 19 99 20 4 21 5 22
REMARK SMILES IDX 9 23 98 24 6 25 7 26 10 27 97 28 8 29 27 30 28 31 29 32
REMARK SMILES IDX 30 33 31 34 32 35 96 36 33 37 95 38 34 39 35 40 36 41 89 42
REMARK SMILES IDX 37 43 94 44 88 45 90 46 38 47 93 48 87 49 86 50 39 52 73 53
REMARK SMILES IDX 52 54 72 55 53 56 56 57 71 58 91 59 54 60 55 61 70 63 92 64
REMARK SMILES IDX 57 65 40 66 41 67 50 68 42 69 43 70 49 71 51 72 44 73 45 74
REMARK SMILES IDX 46 75 47 76 48 77 74 78 75 79 84 80 76 81 77 82 83 83 85 84
REMARK SMILES IDX 78 85 79 86 80 87 81 88 82 89 58 90 59 91 68 92 60 93 61 94
REMARK SMILES IDX 67 95 69 96 62 97 63 98 64 99 65 100 66 101
REMARK H PARENT 90 51 56 62
REMARK Flexibility Score: inf
ROOT
ATOM      1  C   UNL A   1      34.203  31.596  28.311  1.00  0.00     0.202 C 
ENDROOT
BRANCH   1   2
ATOM      2  O   UNL A   1      35.047  30.800  27.470  1.00  0.00    -0.374 OA
BRANCH   2   3
ATOM      3  C   UNL A   1      34.973  29.386  27.624  1.00  0.00     0.202 C 
BRANCH   3   4
ATOM      4  C   UNL A   1      34.010  28.625  26.704  1.00  0.00     0.261 C 
BRANCH   4   5
ATOM      5  O   UNL A   1      32.650  28.637  27.164  1.00  0.00    -0.462 OA
BRANCH   5   6
ATOM      6  C   UNL A   1      31.825  27.851  26.432  1.00  0.00     0.324 C 
ATOM      7  O   UNL A   1      31.096  26.974  26.895  1.00  0.00    -0.250 OA
BRANCH   6   8
ATOM      8  C   UNL A   1      31.834  28.125  24.951  1.00  0.00     0.183 C 
ATOM      9  N   UNL A   1      31.331  27.171  23.927  1.00  0.00    -0.184 NA
ATOM     10  C   UNL A   1      30.018  27.652  23.454  1.00  0.00     0.103 C 
ATOM     11  C   UNL A   1      30.141  29.161  23.511  1.00  0.00     0.019 C 
ATOM     12  C   UNL A   1      31.026  29.417  24.719  1.00  0.00     0.034 C 
BRANCH   9  13
ATOM     13  S   UNL A   1      32.413  26.513  22.788  1.00  0.00     0.243 S 
ATOM     14  O   UNL A   1      33.672  27.211  22.938  1.00  0.00    -0.207 OA
ATOM     15  O   UNL A   1      31.741  26.456  21.508  1.00  0.00    -0.207 OA
BRANCH  13  16
ATOM     16  C   UNL A   1      32.737  24.799  23.224  1.00  0.00     0.084 A 
ATOM     17  C   UNL A   1      32.446  19.769  24.033  1.00  0.00     0.154 C 
ATOM     18  N   UNL A   1      33.510  20.749  24.203  1.00  0.00    -0.305 N 
ATOM     19  C   UNL A   1      34.708  20.327  24.765  1.00  0.00     0.316 A 
ATOM     20  C   UNL A   1      33.295  22.103  23.845  1.00  0.00     0.068 A 
ATOM     21  O   UNL A   1      34.924  19.170  25.114  1.00  0.00    -0.263 OA
ATOM     22  C   UNL A   1      35.819  21.373  24.935  1.00  0.00     0.316 A 
ATOM     23  C   UNL A   1      34.240  23.098  24.154  1.00  0.00     0.069 A 
ATOM     24  C   UNL A   1      32.134  22.462  23.157  1.00  0.00     0.030 A 
ATOM     25  O   UNL A   1      36.932  20.985  25.286  1.00  0.00    -0.263 OA
ATOM     26  N   UNL A   1      35.506  22.711  24.682  1.00  0.00    -0.305 N 
ATOM     27  C   UNL A   1      33.928  24.453  23.885  1.00  0.00     0.050 A 
ATOM     28  C   UNL A   1      31.888  23.783  22.810  1.00  0.00     0.024 A 
ATOM     29  C   UNL A   1      36.559  23.697  24.869  1.00  0.00     0.154 C 
ENDBRANCH  13  16
ENDBRANCH   9  13
ENDBRANCH   6   8
ENDBRANCH   5   6
ENDBRANCH   4   5
ENDBRANCH   3   4
ENDBRANCH   2   3
ENDBRANCH   1   2
BRANCH   1  30
ATOM     30  C   UNL A   1      34.870  32.335  29.476  1.00  0.00     0.261 C 
BRANCH  30  31
ATOM     31  O   UNL A   1      36.293  32.103  29.485  1.00  0.00    -0.460 OA
BRANCH  31  32
ATOM     32  C   UNL A   1      36.752  31.278  30.456  1.00  0.00     0.338 C 
ATOM     33  O   UNL A   1      36.151  30.900  31.448  1.00  0.00    -0.246 OA
BRANCH  32  34
ATOM     34  C   UNL A   1      38.032  30.692  30.012  1.00  0.00     0.060 A 
ATOM     35  C   UNL A   1      38.263  30.370  28.673  1.00  0.00     0.016 A 
ATOM     36  C   UNL A   1      39.026  30.479  30.976  1.00  0.00     0.016 A 
ATOM     37  C   UNL A   1      39.510  29.863  28.296  1.00  0.00     0.010 A 
ATOM     38  C   UNL A   1      40.265  29.962  30.600  1.00  0.00     0.010 A 
ATOM     39  C   UNL A   1      40.522  29.670  29.254  1.00  0.00    -0.014 A 
BRANCH  39  40
ATOM     40  C   UNL A   1      41.890  29.287  28.833  1.00  0.00     0.031 A 
ATOM     41  C   UNL A   1      42.226  27.877  28.453  1.00  0.00     0.074 A 
ATOM     42  C   UNL A   1      42.843  30.238  28.822  1.00  0.00     0.049 A 
ATOM     43  N   UNL A   1      43.360  27.390  28.021  1.00  0.00    -0.248 NA
ATOM     44  C   UNL A   1      41.148  26.883  28.576  1.00  0.00     0.031 C 
ATOM     45  C   UNL A   1      42.634  31.638  29.196  1.00  0.00     0.029 A 
ATOM     46  N   UNL A   1      44.168  30.177  28.477  1.00  0.00    -0.354 N 
ATOM     47  C   UNL A   1      43.132  26.040  27.787  1.00  0.00     0.074 A 
ATOM     48  C   UNL A   1      41.762  25.774  28.182  1.00  0.00     0.031 C 
ATOM     49  C   UNL A   1      43.783  32.312  29.031  1.00  0.00     0.029 A 
ATOM     50  C   UNL A   1      44.813  31.388  28.564  1.00  0.00     0.049 A 
ATOM     51  H   UNL A   1      44.615  29.348  28.194  1.00  0.00     0.167 HD
ATOM     52  C   UNL A   1      43.980  25.118  27.270  1.00  0.00     0.037 A 
ATOM     53  C   UNL A   1      46.089  31.720  28.290  1.00  0.00     0.037 A 
ATOM     54  C   UNL A   1      45.352  25.386  26.916  1.00  0.00     0.049 A 
ATOM     55  C   UNL A   1      47.029  30.663  27.786  1.00  0.00     0.074 A 
ATOM     56  C   UNL A   1      46.291  24.517  26.385  1.00  0.00     0.029 A 
ATOM     57  N   UNL A   1      45.988  26.611  27.067  1.00  0.00    -0.354 N 
ATOM     58  N   UNL A   1      46.787  29.398  27.530  1.00  0.00    -0.248 NA
ATOM     59  C   UNL A   1      48.415  31.076  27.528  1.00  0.00     0.031 C 
ATOM     60  C   UNL A   1      47.503  25.206  26.253  1.00  0.00     0.029 A 
ATOM     61  C   UNL A   1      47.309  26.516  26.659  1.00  0.00     0.049 A 
ATOM     62  H   UNL A   1      45.562  27.429  27.413  1.00  0.00     0.167 HD
ATOM     63  C   UNL A   1      47.985  28.870  27.065  1.00  0.00     0.074 A 
ATOM     64  C   UNL A   1      48.946  29.955  27.061  1.00  0.00     0.031 C 
ATOM     65  C   UNL A   1      48.262  27.601  26.674  1.00  0.00     0.037 A 
BRANCH  52  66
ATOM     66  C   UNL A   1      43.441  23.732  27.047  1.00  0.00     0.058 A 
ATOM     67  C   UNL A   1      43.250  22.846  28.119  1.00  0.00     0.135 A 
ATOM     68  C   UNL A   1      43.074  23.293  25.763  1.00  0.00     0.135 A 
ATOM     69  F   UNL A   1      43.595  23.207  29.365  1.00  0.00    -0.206 F 
ATOM     70  C   UNL A   1      42.743  21.565  27.925  1.00  0.00     0.059 A 
ATOM     71  C   UNL A   1      42.543  22.024  25.549  1.00  0.00     0.059 A 
ATOM     72  F   UNL A   1      43.232  24.100  24.703  1.00  0.00    -0.206 F 
ATOM     73  C   UNL A   1      42.397  21.162  26.635  1.00  0.00     0.060 A 
BRANCH  73  74
ATOM     74  S   UNL A   1      41.762  19.488  26.403  1.00  0.00     0.124 S 
ATOM     75  O   UNL A   1      40.321  19.726  26.378  1.00  0.00    -0.237 OA
ATOM     76  O   UNL A   1      42.360  19.100  25.130  1.00  0.00    -0.237 OA
ATOM     77  O   UNL A   1      42.257  18.770  27.572  1.00  0.00    -0.744 OA
ENDBRANCH  73  74
ENDBRANCH  52  66
BRANCH  53  78
ATOM     78  C   UNL A   1      46.527  33.130  28.442  1.00  0.00     0.058 A 
ATOM     79  C   UNL A   1      46.360  34.046  27.393  1.00  0.00     0.135 A 
ATOM     80  C   UNL A   1      47.073  33.602  29.646  1.00  0.00     0.135 A 
ATOM     81  F   UNL A   1      45.848  33.637  26.223  1.00  0.00    -0.206 F 
ATOM     82  C   UNL A   1      46.718  35.381  27.531  1.00  0.00     0.059 A 
ATOM     83  C   UNL A   1      47.419  34.939  29.815  1.00  0.00     0.059 A 
ATOM     84  F   UNL A   1      47.238  32.766  30.683  1.00  0.00    -0.206 F 
ATOM     85  C   UNL A   1      47.240  35.820  28.749  1.00  0.00     0.060 A 
BRANCH  85  86
ATOM     86  S   UNL A   1      47.635  37.572  28.935  1.00  0.00     0.124 S 
ATOM     87  O   UNL A   1      46.353  38.197  28.628  1.00  0.00    -0.237 OA
ATOM     88  O   UNL A   1      48.061  37.642  30.330  1.00  0.00    -0.237 OA
ATOM     89  O   UNL A   1      48.692  37.786  27.953  1.00  0.00    -0.744 OA
ENDBRANCH  85  86
ENDBRANCH  53  78
BRANCH  65  90
ATOM     90  C   UNL A   1      49.661  27.317  26.201  1.00  0.00     0.058 A 
ATOM     91  C   UNL A   1      50.685  26.977  27.098  1.00  0.00     0.135 A 
ATOM     92  C   UNL A   1      49.974  27.349  24.832  1.00  0.00     0.135 A 
ATOM     93  F   UNL A   1      50.442  26.939  28.418  1.00  0.00    -0.206 F 
ATOM     94  C   UNL A   1      51.975  26.699  26.658  1.00  0.00     0.059 A 
ATOM     95  C   UNL A   1      51.251  27.051  24.367  1.00  0.00     0.059 A 
ATOM     96  F   UNL A   1      49.030  27.661  23.930  1.00  0.00    -0.206 F 
ATOM     97  C   UNL A   1      52.249  26.739  25.289  1.00  0.00     0.060 A 
BRANCH  97  98
ATOM     98  S   UNL A   1      53.922  26.350  24.732  1.00  0.00     0.124 S 
ATOM     99  O   UNL A   1      54.724  26.834  25.851  1.00  0.00    -0.237 OA
ATOM    100  O   UNL A   1      53.868  24.901  24.570  1.00  0.00    -0.237 OA
ATOM    101  O   UNL A   1      54.052  27.110  23.492  1.00  0.00    -0.744 OA
ENDBRANCH  97  98
ENDBRANCH  65  90
ENDBRANCH  39  40
ENDBRANCH  32  34
ENDBRANCH  31  32
ENDBRANCH  30  31
ENDBRANCH   1  30
TORSDOF 19
ENDMDL
