MODEL 1
REMARK VINA RESULT:     -10.2      0.000      0.000
REMARK SMILES C[NH2+][C@@]1(C(=O)OCCOCCOC(=O)c2ccc(-c3c4nc(c(-c5c(F)cc(S(=O)(=O)[O-])cc5F)c5ccc([nH]5)c(-c5c(F)cc(S(=O)(=O)[O-])cc5F)c5nc(c(-c6c(F)cc(S(=O)(=O)[O-])cc6F)c6ccc3[nH]6)C=C5)C=C4)cc2)CC[C@@H](OC2CCC2)C1
REMARK SMILES IDX 10 1 9 2 8 3 7 4 6 5 4 6 5 7 3 8 81 9 89 10 82 11 83 12 2 13
REMARK SMILES IDX 1 14 84 17 85 18 86 19 88 20 87 21 11 22 12 23 13 24 14 25
REMARK SMILES IDX 15 26 16 27 80 28 17 29 79 30 18 31 19 32 20 33 73 34 21 35
REMARK SMILES IDX 78 36 72 37 74 38 22 39 77 40 71 41 70 42 23 44 57 45 36 46
REMARK SMILES IDX 56 47 37 48 40 49 55 50 75 51 38 52 39 53 54 55 76 56 41 57
REMARK SMILES IDX 24 58 25 59 34 60 26 61 27 62 33 63 35 64 28 65 29 66 30 67
REMARK SMILES IDX 31 68 32 69 58 70 59 71 68 72 60 73 61 74 67 75 69 76 62 77
REMARK SMILES IDX 63 78 64 79 65 80 66 81 42 82 43 83 52 84 44 85 45 86 51 87
REMARK SMILES IDX 53 88 46 89 47 90 48 91 49 92 50 93
REMARK H PARENT 2 15 2 16 74 43 40 54
REMARK Flexibility Score: inf
ROOT
ATOM      1  C   UNL A   1      39.666  21.806  26.289  1.00  0.00     0.202 C 
ENDROOT
BRANCH   1   2
ATOM      2  O   UNL A   1      38.313  22.042  25.908  1.00  0.00    -0.374 OA
BRANCH   2   3
ATOM      3  C   UNL A   1      37.728  21.131  24.972  1.00  0.00     0.202 C 
BRANCH   3   4
ATOM      4  C   UNL A   1      36.214  20.939  25.081  1.00  0.00     0.261 C 
BRANCH   4   5
ATOM      5  O   UNL A   1      35.526  22.163  24.759  1.00  0.00    -0.459 OA
BRANCH   5   6
ATOM      6  C   UNL A   1      34.170  22.092  24.728  1.00  0.00     0.368 C 
ATOM      7  O   UNL A   1      33.528  21.201  24.177  1.00  0.00    -0.245 OA
BRANCH   6   8
ATOM      8  C   UNL A   1      33.490  23.288  25.459  1.00  0.00     0.196 C 
ATOM      9  C   UNL A   1      32.411  23.821  24.500  1.00  0.00     0.084 C 
ATOM     10  C   UNL A   1      34.389  24.508  25.760  1.00  0.00     0.113 C 
ATOM     11  C   UNL A   1      33.088  24.945  23.727  1.00  0.00     0.039 C 
ATOM     12  C   UNL A   1      34.043  25.577  24.725  1.00  0.00     0.125 C 
BRANCH   8  13
ATOM     13  N   UNL A   1      32.815  22.773  26.689  1.00  0.00    -0.334 N 
ATOM     14  C   UNL A   1      33.720  22.158  27.656  1.00  0.00     0.331 C 
ATOM     15  H   UNL A   1      32.342  23.554  27.145  1.00  0.00     0.347 HD
ATOM     16  H   UNL A   1      32.170  22.043  26.387  1.00  0.00     0.347 HD
ENDBRANCH   8  13
BRANCH  12  17
ATOM     17  O   UNL A   1      33.687  26.848  25.250  1.00  0.00    -0.375 OA
BRANCH  17  18
ATOM     18  C   UNL A   1      33.022  27.169  26.491  1.00  0.00     0.118 C 
ATOM     19  C   UNL A   1      33.285  28.464  27.271  1.00  0.00     0.032 C 
ATOM     20  C   UNL A   1      31.511  27.439  26.561  1.00  0.00     0.032 C 
ATOM     21  C   UNL A   1      31.779  28.765  27.279  1.00  0.00     0.005 C 
ENDBRANCH  17  18
ENDBRANCH  12  17
ENDBRANCH   6   8
ENDBRANCH   5   6
ENDBRANCH   4   5
ENDBRANCH   3   4
ENDBRANCH   2   3
ENDBRANCH   1   2
BRANCH   1  22
ATOM     22  C   UNL A   1      40.499  23.031  26.684  1.00  0.00     0.261 C 
BRANCH  22  23
ATOM     23  O   UNL A   1      39.776  24.262  26.522  1.00  0.00    -0.460 OA
BRANCH  23  24
ATOM     24  C   UNL A   1      40.560  25.351  26.342  1.00  0.00     0.338 C 
ATOM     25  O   UNL A   1      41.000  25.773  25.278  1.00  0.00    -0.246 OA
BRANCH  24  26
ATOM     26  C   UNL A   1      40.680  26.109  27.599  1.00  0.00     0.060 A 
ATOM     27  C   UNL A   1      39.640  25.973  28.527  1.00  0.00     0.016 A 
ATOM     28  C   UNL A   1      41.738  26.988  27.840  1.00  0.00     0.016 A 
ATOM     29  C   UNL A   1      39.622  26.760  29.674  1.00  0.00     0.010 A 
ATOM     30  C   UNL A   1      41.712  27.788  28.989  1.00  0.00     0.010 A 
ATOM     31  C   UNL A   1      40.633  27.706  29.887  1.00  0.00    -0.014 A 
BRANCH  31  32
ATOM     32  C   UNL A   1      40.453  28.717  30.956  1.00  0.00     0.031 A 
ATOM     33  C   UNL A   1      41.329  28.641  32.178  1.00  0.00     0.074 A 
ATOM     34  C   UNL A   1      39.567  29.719  30.814  1.00  0.00     0.049 A 
ATOM     35  N   UNL A   1      41.357  29.419  33.228  1.00  0.00    -0.248 NA
ATOM     36  C   UNL A   1      42.309  27.542  32.216  1.00  0.00     0.031 C 
ATOM     37  C   UNL A   1      38.696  29.918  29.658  1.00  0.00     0.029 A 
ATOM     38  N   UNL A   1      39.257  30.759  31.654  1.00  0.00    -0.354 N 
ATOM     39  C   UNL A   1      42.351  28.903  34.052  1.00  0.00     0.074 A 
ATOM     40  C   UNL A   1      42.884  27.731  33.394  1.00  0.00     0.031 C 
ATOM     41  C   UNL A   1      37.941  31.011  29.865  1.00  0.00     0.029 A 
ATOM     42  C   UNL A   1      38.257  31.572  31.177  1.00  0.00     0.049 A 
ATOM     43  H   UNL A   1      39.707  30.908  32.516  1.00  0.00     0.167 HD
ATOM     44  C   UNL A   1      42.787  29.373  35.246  1.00  0.00     0.037 A 
ATOM     45  C   UNL A   1      37.657  32.637  31.745  1.00  0.00     0.037 A 
ATOM     46  C   UNL A   1      42.253  30.541  35.896  1.00  0.00     0.049 A 
ATOM     47  C   UNL A   1      38.116  33.105  33.101  1.00  0.00     0.074 A 
ATOM     48  C   UNL A   1      42.632  31.105  37.101  1.00  0.00     0.029 A 
ATOM     49  N   UNL A   1      41.218  31.319  35.396  1.00  0.00    -0.354 N 
ATOM     50  N   UNL A   1      39.069  32.620  33.861  1.00  0.00    -0.248 NA
ATOM     51  C   UNL A   1      37.421  34.265  33.677  1.00  0.00     0.031 C 
ATOM     52  C   UNL A   1      41.797  32.200  37.351  1.00  0.00     0.029 A 
ATOM     53  C   UNL A   1      40.929  32.346  36.280  1.00  0.00     0.049 A 
ATOM     54  H   UNL A   1      40.757  31.163  34.540  1.00  0.00     0.167 HD
ATOM     55  C   UNL A   1      39.105  33.430  34.991  1.00  0.00     0.074 A 
ATOM     56  C   UNL A   1      38.083  34.442  34.811  1.00  0.00     0.031 C 
ATOM     57  C   UNL A   1      39.911  33.346  36.080  1.00  0.00     0.037 A 
BRANCH  44  58
ATOM     58  C   UNL A   1      43.880  28.605  35.936  1.00  0.00     0.058 A 
ATOM     59  C   UNL A   1      45.233  28.943  35.778  1.00  0.00     0.135 A 
ATOM     60  C   UNL A   1      43.568  27.531  36.784  1.00  0.00     0.135 A 
ATOM     61  F   UNL A   1      45.589  29.949  34.962  1.00  0.00    -0.206 F 
ATOM     62  C   UNL A   1      46.241  28.227  36.418  1.00  0.00     0.059 A 
ATOM     63  C   UNL A   1      44.557  26.817  37.454  1.00  0.00     0.059 A 
ATOM     64  F   UNL A   1      42.289  27.164  36.967  1.00  0.00    -0.206 F 
ATOM     65  C   UNL A   1      45.892  27.163  37.253  1.00  0.00     0.060 A 
BRANCH  65  66
ATOM     66  S   UNL A   1      47.209  26.244  38.077  1.00  0.00     0.124 S 
ATOM     67  O   UNL A   1      46.977  24.893  37.578  1.00  0.00    -0.237 OA
ATOM     68  O   UNL A   1      48.411  26.906  37.581  1.00  0.00    -0.237 OA
ATOM     69  O   UNL A   1      46.927  26.446  39.495  1.00  0.00    -0.744 OA
ENDBRANCH  65  66
ENDBRANCH  44  58
BRANCH  45  70
ATOM     70  C   UNL A   1      36.547  33.326  31.035  1.00  0.00     0.058 A 
ATOM     71  C   UNL A   1      35.217  33.191  31.459  1.00  0.00     0.135 A 
ATOM     72  C   UNL A   1      36.797  34.140  29.918  1.00  0.00     0.135 A 
ATOM     73  F   UNL A   1      34.924  32.416  32.514  1.00  0.00    -0.206 F 
ATOM     74  C   UNL A   1      34.172  33.831  30.798  1.00  0.00     0.059 A 
ATOM     75  C   UNL A   1      35.773  34.808  29.255  1.00  0.00     0.059 A 
ATOM     76  F   UNL A   1      38.054  34.308  29.478  1.00  0.00    -0.206 F 
ATOM     77  C   UNL A   1      34.462  34.640  29.697  1.00  0.00     0.060 A 
BRANCH  77  78
ATOM     78  S   UNL A   1      33.108  35.512  28.880  1.00  0.00     0.124 S 
ATOM     79  O   UNL A   1      32.502  34.443  28.095  1.00  0.00    -0.237 OA
ATOM     80  O   UNL A   1      32.326  35.995  30.013  1.00  0.00    -0.237 OA
ATOM     81  O   UNL A   1      33.793  36.549  28.114  1.00  0.00    -0.744 OA
ENDBRANCH  77  78
ENDBRANCH  45  70
BRANCH  57  82
ATOM     82  C   UNL A   1      39.745  34.392  37.148  1.00  0.00     0.058 A 
ATOM     83  C   UNL A   1      38.956  34.165  38.285  1.00  0.00     0.135 A 
ATOM     84  C   UNL A   1      40.430  35.614  37.057  1.00  0.00     0.135 A 
ATOM     85  F   UNL A   1      38.275  33.015  38.416  1.00  0.00    -0.206 F 
ATOM     86  C   UNL A   1      38.834  35.122  39.287  1.00  0.00     0.059 A 
ATOM     87  C   UNL A   1      40.344  36.575  38.059  1.00  0.00     0.059 A 
ATOM     88  F   UNL A   1      41.208  35.877  35.995  1.00  0.00    -0.206 F 
ATOM     89  C   UNL A   1      39.533  36.325  39.165  1.00  0.00     0.060 A 
BRANCH  89  90
ATOM     90  S   UNL A   1      39.395  37.546  40.488  1.00  0.00     0.124 S 
ATOM     91  O   UNL A   1      39.138  36.697  41.647  1.00  0.00    -0.237 OA
ATOM     92  O   UNL A   1      40.703  38.194  40.454  1.00  0.00    -0.237 OA
ATOM     93  O   UNL A   1      38.277  38.383  40.062  1.00  0.00    -0.744 OA
ENDBRANCH  89  90
ENDBRANCH  57  82
ENDBRANCH  31  32
ENDBRANCH  24  26
ENDBRANCH  23  24
ENDBRANCH  22  23
ENDBRANCH   1  22
TORSDOF 20
ENDMDL
MODEL 2
REMARK VINA RESULT:      -9.8      4.759     10.607
REMARK SMILES C[NH2+][C@@]1(C(=O)OCCOCCOC(=O)c2ccc(-c3c4nc(c(-c5c(F)cc(S(=O)(=O)[O-])cc5F)c5ccc([nH]5)c(-c5c(F)cc(S(=O)(=O)[O-])cc5F)c5nc(c(-c6c(F)cc(S(=O)(=O)[O-])cc6F)c6ccc3[nH]6)C=C5)C=C4)cc2)CC[C@@H](OC2CCC2)C1
REMARK SMILES IDX 10 1 9 2 8 3 7 4 6 5 4 6 5 7 3 8 81 9 89 10 82 11 83 12 2 13
REMARK SMILES IDX 1 14 84 17 85 18 86 19 88 20 87 21 11 22 12 23 13 24 14 25
REMARK SMILES IDX 15 26 16 27 80 28 17 29 79 30 18 31 19 32 20 33 73 34 21 35
REMARK SMILES IDX 78 36 72 37 74 38 22 39 77 40 71 41 70 42 23 44 57 45 36 46
REMARK SMILES IDX 56 47 37 48 40 49 55 50 75 51 38 52 39 53 54 55 76 56 41 57
REMARK SMILES IDX 24 58 25 59 34 60 26 61 27 62 33 63 35 64 28 65 29 66 30 67
REMARK SMILES IDX 31 68 32 69 58 70 59 71 68 72 60 73 61 74 67 75 69 76 62 77
REMARK SMILES IDX 63 78 64 79 65 80 66 81 42 82 43 83 52 84 44 85 45 86 51 87
REMARK SMILES IDX 53 88 46 89 47 90 48 91 49 92 50 93
REMARK H PARENT 2 15 2 16 74 43 40 54
REMARK Flexibility Score: inf
ROOT
ATOM      1  C   UNL A   1      31.897  29.488  26.379  1.00  0.00     0.202 C 
ENDROOT
BRANCH   1   2
ATOM      2  O   UNL A   1      31.746  29.343  24.969  1.00  0.00    -0.374 OA
BRANCH   2   3
ATOM      3  C   UNL A   1      32.941  29.244  24.190  1.00  0.00     0.202 C 
BRANCH   3   4
ATOM      4  C   UNL A   1      32.888  28.280  23.003  1.00  0.00     0.261 C 
BRANCH   4   5
ATOM      5  O   UNL A   1      32.868  26.914  23.462  1.00  0.00    -0.459 OA
BRANCH   5   6
ATOM      6  C   UNL A   1      33.295  25.981  22.572  1.00  0.00     0.368 C 
ATOM      7  O   UNL A   1      33.783  26.234  21.473  1.00  0.00    -0.245 OA
BRANCH   6   8
ATOM      8  C   UNL A   1      33.084  24.525  23.083  1.00  0.00     0.196 C 
ATOM      9  C   UNL A   1      33.120  24.599  24.620  1.00  0.00     0.084 C 
ATOM     10  C   UNL A   1      34.181  23.502  22.712  1.00  0.00     0.113 C 
ATOM     11  C   UNL A   1      34.564  24.304  24.998  1.00  0.00     0.039 C 
ATOM     12  C   UNL A   1      35.035  23.297  23.962  1.00  0.00     0.125 C 
BRANCH   8  13
ATOM     13  N   UNL A   1      31.725  24.066  22.664  1.00  0.00    -0.334 N 
ATOM     14  C   UNL A   1      30.722  24.122  23.725  1.00  0.00     0.331 C 
ATOM     15  H   UNL A   1      31.410  24.657  21.895  1.00  0.00     0.347 HD
ATOM     16  H   UNL A   1      31.814  23.086  22.398  1.00  0.00     0.347 HD
ENDBRANCH   8  13
BRANCH  12  17
ATOM     17  O   UNL A   1      35.189  21.951  24.387  1.00  0.00    -0.375 OA
BRANCH  17  18
ATOM     18  C   UNL A   1      34.182  21.009  24.819  1.00  0.00     0.118 C 
ATOM     19  C   UNL A   1      33.350  21.200  26.094  1.00  0.00     0.032 C 
ATOM     20  C   UNL A   1      32.893  20.770  24.019  1.00  0.00     0.032 C 
ATOM     21  C   UNL A   1      32.061  21.028  25.278  1.00  0.00     0.005 C 
ENDBRANCH  17  18
ENDBRANCH  12  17
ENDBRANCH   6   8
ENDBRANCH   5   6
ENDBRANCH   4   5
ENDBRANCH   3   4
ENDBRANCH   2   3
ENDBRANCH   1   2
BRANCH   1  22
ATOM     22  C   UNL A   1      32.895  30.546  26.865  1.00  0.00     0.261 C 
BRANCH  22  23
ATOM     23  O   UNL A   1      33.679  30.089  27.980  1.00  0.00    -0.460 OA
BRANCH  23  24
ATOM     24  C   UNL A   1      34.655  30.945  28.363  1.00  0.00     0.338 C 
ATOM     25  O   UNL A   1      34.509  32.093  28.767  1.00  0.00    -0.246 OA
BRANCH  24  26
ATOM     26  C   UNL A   1      35.953  30.251  28.418  1.00  0.00     0.060 A 
ATOM     27  C   UNL A   1      36.319  29.680  29.643  1.00  0.00     0.016 A 
ATOM     28  C   UNL A   1      36.826  30.218  27.328  1.00  0.00     0.016 A 
ATOM     29  C   UNL A   1      37.585  29.125  29.803  1.00  0.00     0.010 A 
ATOM     30  C   UNL A   1      38.104  29.671  27.495  1.00  0.00     0.010 A 
ATOM     31  C   UNL A   1      38.501  29.161  28.744  1.00  0.00    -0.014 A 
BRANCH  31  32
ATOM     32  C   UNL A   1      39.920  28.825  29.013  1.00  0.00     0.031 A 
ATOM     33  C   UNL A   1      40.786  29.847  29.701  1.00  0.00     0.074 A 
ATOM     34  C   UNL A   1      40.411  27.612  28.706  1.00  0.00     0.049 A 
ATOM     35  N   UNL A   1      42.044  29.770  30.045  1.00  0.00    -0.248 NA
ATOM     36  C   UNL A   1      40.143  31.125  30.050  1.00  0.00     0.031 C 
ATOM     37  C   UNL A   1      39.655  26.530  28.077  1.00  0.00     0.029 A 
ATOM     38  N   UNL A   1      41.667  27.088  28.883  1.00  0.00    -0.354 N 
ATOM     39  C   UNL A   1      42.345  30.986  30.647  1.00  0.00     0.074 A 
ATOM     40  C   UNL A   1      41.147  31.794  30.597  1.00  0.00     0.031 C 
ATOM     41  C   UNL A   1      40.467  25.470  27.913  1.00  0.00     0.029 A 
ATOM     42  C   UNL A   1      41.802  25.809  28.400  1.00  0.00     0.049 A 
ATOM     43  H   UNL A   1      42.400  27.582  29.315  1.00  0.00     0.167 HD
ATOM     44  C   UNL A   1      43.514  31.388  31.202  1.00  0.00     0.037 A 
ATOM     45  C   UNL A   1      42.887  25.011  28.345  1.00  0.00     0.037 A 
ATOM     46  C   UNL A   1      44.703  30.580  31.250  1.00  0.00     0.049 A 
ATOM     47  C   UNL A   1      44.194  25.503  28.912  1.00  0.00     0.074 A 
ATOM     48  C   UNL A   1      45.935  30.891  31.798  1.00  0.00     0.029 A 
ATOM     49  N   UNL A   1      44.811  29.302  30.721  1.00  0.00    -0.354 N 
ATOM     50  N   UNL A   1      44.459  26.648  29.496  1.00  0.00    -0.248 NA
ATOM     51  C   UNL A   1      45.346  24.596  28.818  1.00  0.00     0.031 C 
ATOM     52  C   UNL A   1      46.801  29.816  31.562  1.00  0.00     0.029 A 
ATOM     53  C   UNL A   1      46.095  28.818  30.909  1.00  0.00     0.049 A 
ATOM     54  H   UNL A   1      44.082  28.811  30.276  1.00  0.00     0.167 HD
ATOM     55  C   UNL A   1      45.801  26.588  29.859  1.00  0.00     0.074 A 
ATOM     56  C   UNL A   1      46.289  25.290  29.438  1.00  0.00     0.031 C 
ATOM     57  C   UNL A   1      46.560  27.521  30.487  1.00  0.00     0.037 A 
BRANCH  44  58
ATOM     58  C   UNL A   1      43.566  32.776  31.779  1.00  0.00     0.058 A 
ATOM     59  C   UNL A   1      43.761  33.906  30.970  1.00  0.00     0.135 A 
ATOM     60  C   UNL A   1      43.396  32.978  33.158  1.00  0.00     0.135 A 
ATOM     61  F   UNL A   1      43.950  33.768  29.648  1.00  0.00    -0.206 F 
ATOM     62  C   UNL A   1      43.811  35.188  31.512  1.00  0.00     0.059 A 
ATOM     63  C   UNL A   1      43.417  34.253  33.718  1.00  0.00     0.059 A 
ATOM     64  F   UNL A   1      43.210  31.930  33.977  1.00  0.00    -0.206 F 
ATOM     65  C   UNL A   1      43.639  35.350  32.888  1.00  0.00     0.060 A 
BRANCH  65  66
ATOM     66  S   UNL A   1      43.705  37.018  33.576  1.00  0.00     0.124 S 
ATOM     67  O   UNL A   1      43.925  37.818  32.377  1.00  0.00    -0.237 OA
ATOM     68  O   UNL A   1      42.391  37.153  34.196  1.00  0.00    -0.237 OA
ATOM     69  O   UNL A   1      44.829  36.958  34.505  1.00  0.00    -0.744 OA
ENDBRANCH  65  66
ENDBRANCH  44  58
BRANCH  45  70
ATOM     70  C   UNL A   1      42.787  23.667  27.716  1.00  0.00     0.058 A 
ATOM     71  C   UNL A   1      42.968  23.493  26.337  1.00  0.00     0.135 A 
ATOM     72  C   UNL A   1      42.511  22.527  28.488  1.00  0.00     0.135 A 
ATOM     73  F   UNL A   1      43.222  24.553  25.554  1.00  0.00    -0.206 F 
ATOM     74  C   UNL A   1      42.872  22.239  25.741  1.00  0.00     0.059 A 
ATOM     75  C   UNL A   1      42.433  21.260  27.920  1.00  0.00     0.059 A 
ATOM     76  F   UNL A   1      42.338  22.639  29.815  1.00  0.00    -0.206 F 
ATOM     77  C   UNL A   1      42.607  21.126  26.544  1.00  0.00     0.060 A 
BRANCH  77  78
ATOM     78  S   UNL A   1      42.540  19.495  25.773  1.00  0.00     0.124 S 
ATOM     79  O   UNL A   1      43.007  18.639  26.856  1.00  0.00    -0.237 OA
ATOM     80  O   UNL A   1      41.126  19.376  25.428  1.00  0.00    -0.237 OA
ATOM     81  O   UNL A   1      43.444  19.625  24.635  1.00  0.00    -0.744 OA
ENDBRANCH  77  78
ENDBRANCH  45  70
BRANCH  57  82
ATOM     82  C   UNL A   1      47.991  27.164  30.784  1.00  0.00     0.058 A 
ATOM     83  C   UNL A   1      48.343  26.409  31.913  1.00  0.00     0.135 A 
ATOM     84  C   UNL A   1      49.014  27.534  29.897  1.00  0.00     0.135 A 
ATOM     85  F   UNL A   1      47.402  26.035  32.796  1.00  0.00    -0.206 F 
ATOM     86  C   UNL A   1      49.663  26.050  32.164  1.00  0.00     0.059 A 
ATOM     87  C   UNL A   1      50.338  27.165  30.114  1.00  0.00     0.059 A 
ATOM     88  F   UNL A   1      48.729  28.246  28.795  1.00  0.00    -0.206 F 
ATOM     89  C   UNL A   1      50.654  26.433  31.257  1.00  0.00     0.060 A 
BRANCH  89  90
ATOM     90  S   UNL A   1      52.360  25.934  31.575  1.00  0.00     0.124 S 
ATOM     91  O   UNL A   1      52.187  24.549  32.003  1.00  0.00    -0.237 OA
ATOM     92  O   UNL A   1      52.990  26.120  30.271  1.00  0.00    -0.237 OA
ATOM     93  O   UNL A   1      52.797  26.862  32.613  1.00  0.00    -0.744 OA
ENDBRANCH  89  90
ENDBRANCH  57  82
ENDBRANCH  31  32
ENDBRANCH  24  26
ENDBRANCH  23  24
ENDBRANCH  22  23
ENDBRANCH   1  22
TORSDOF 20
ENDMDL
MODEL 3
REMARK VINA RESULT:      -9.8      3.243      5.414
REMARK SMILES C[NH2+][C@@]1(C(=O)OCCOCCOC(=O)c2ccc(-c3c4nc(c(-c5c(F)cc(S(=O)(=O)[O-])cc5F)c5ccc([nH]5)c(-c5c(F)cc(S(=O)(=O)[O-])cc5F)c5nc(c(-c6c(F)cc(S(=O)(=O)[O-])cc6F)c6ccc3[nH]6)C=C5)C=C4)cc2)CC[C@@H](OC2CCC2)C1
REMARK SMILES IDX 10 1 9 2 8 3 7 4 6 5 4 6 5 7 3 8 81 9 89 10 82 11 83 12 2 13
REMARK SMILES IDX 1 14 84 17 85 18 86 19 88 20 87 21 11 22 12 23 13 24 14 25
REMARK SMILES IDX 15 26 16 27 80 28 17 29 79 30 18 31 19 32 20 33 73 34 21 35
REMARK SMILES IDX 78 36 72 37 74 38 22 39 77 40 71 41 70 42 23 44 57 45 36 46
REMARK SMILES IDX 56 47 37 48 40 49 55 50 75 51 38 52 39 53 54 55 76 56 41 57
REMARK SMILES IDX 24 58 25 59 34 60 26 61 27 62 33 63 35 64 28 65 29 66 30 67
REMARK SMILES IDX 31 68 32 69 58 70 59 71 68 72 60 73 61 74 67 75 69 76 62 77
REMARK SMILES IDX 63 78 64 79 65 80 66 81 42 82 43 83 52 84 44 85 45 86 51 87
REMARK SMILES IDX 53 88 46 89 47 90 48 91 49 92 50 93
REMARK H PARENT 2 15 2 16 74 43 40 54
REMARK Flexibility Score: inf
ROOT
ATOM      1  C   UNL A   1      41.521  21.187  27.696  1.00  0.00     0.202 C 
ENDROOT
BRANCH   1   2
ATOM      2  O   UNL A   1      40.631  20.885  26.625  1.00  0.00    -0.374 OA
BRANCH   2   3
ATOM      3  C   UNL A   1      40.666  19.554  26.101  1.00  0.00     0.202 C 
BRANCH   3   4
ATOM      4  C   UNL A   1      42.042  18.886  26.060  1.00  0.00     0.261 C 
BRANCH   4   5
ATOM      5  O   UNL A   1      42.847  19.451  25.007  1.00  0.00    -0.459 OA
BRANCH   5   6
ATOM      6  C   UNL A   1      44.168  19.137  25.035  1.00  0.00     0.368 C 
ATOM      7  O   UNL A   1      44.635  18.122  25.545  1.00  0.00    -0.245 OA
BRANCH   6   8
ATOM      8  C   UNL A   1      45.056  20.222  24.358  1.00  0.00     0.196 C 
ATOM      9  C   UNL A   1      46.074  20.670  25.422  1.00  0.00     0.084 C 
ATOM     10  C   UNL A   1      44.341  21.521  23.925  1.00  0.00     0.113 C 
ATOM     11  C   UNL A   1      45.447  21.889  26.083  1.00  0.00     0.039 C 
ATOM     12  C   UNL A   1      44.688  22.585  24.966  1.00  0.00     0.125 C 
BRANCH   8  13
ATOM     13  N   UNL A   1      45.803  19.590  23.228  1.00  0.00    -0.334 N 
ATOM     14  C   UNL A   1      44.985  18.728  22.378  1.00  0.00     0.331 C 
ATOM     15  H   UNL A   1      46.194  20.333  22.647  1.00  0.00     0.347 HD
ATOM     16  H   UNL A   1      46.519  18.997  23.644  1.00  0.00     0.347 HD
ENDBRANCH   8  13
BRANCH  12  17
ATOM     17  O   UNL A   1      45.243  23.788  24.454  1.00  0.00    -0.375 OA
BRANCH  17  18
ATOM     18  C   UNL A   1      46.020  24.797  25.136  1.00  0.00     0.118 C 
ATOM     19  C   UNL A   1      47.458  25.155  24.739  1.00  0.00     0.032 C 
ATOM     20  C   UNL A   1      45.641  26.285  25.092  1.00  0.00     0.032 C 
ATOM     21  C   UNL A   1      47.059  26.634  24.631  1.00  0.00     0.005 C 
ENDBRANCH  17  18
ENDBRANCH  12  17
ENDBRANCH   6   8
ENDBRANCH   5   6
ENDBRANCH   4   5
ENDBRANCH   3   4
ENDBRANCH   2   3
ENDBRANCH   1   2
BRANCH   1  22
ATOM     22  C   UNL A   1      41.805  22.670  27.965  1.00  0.00     0.261 C 
BRANCH  22  23
ATOM     23  O   UNL A   1      41.020  23.539  27.132  1.00  0.00    -0.460 OA
BRANCH  23  24
ATOM     24  C   UNL A   1      41.641  24.691  26.787  1.00  0.00     0.338 C 
ATOM     25  O   UNL A   1      42.374  24.871  25.821  1.00  0.00    -0.246 OA
BRANCH  24  26
ATOM     26  C   UNL A   1      41.171  25.800  27.635  1.00  0.00     0.060 A 
ATOM     27  C   UNL A   1      42.010  26.916  27.748  1.00  0.00     0.016 A 
ATOM     28  C   UNL A   1      39.979  25.728  28.361  1.00  0.00     0.016 A 
ATOM     29  C   UNL A   1      41.690  27.940  28.634  1.00  0.00     0.010 A 
ATOM     30  C   UNL A   1      39.667  26.755  29.261  1.00  0.00     0.010 A 
ATOM     31  C   UNL A   1      40.542  27.842  29.430  1.00  0.00    -0.014 A 
BRANCH  31  32
ATOM     32  C   UNL A   1      40.368  28.792  30.554  1.00  0.00     0.031 A 
ATOM     33  C   UNL A   1      41.255  28.652  31.763  1.00  0.00     0.074 A 
ATOM     34  C   UNL A   1      39.478  29.797  30.476  1.00  0.00     0.049 A 
ATOM     35  N   UNL A   1      41.289  29.371  32.854  1.00  0.00    -0.248 NA
ATOM     36  C   UNL A   1      42.239  27.557  31.732  1.00  0.00     0.031 C 
ATOM     37  C   UNL A   1      38.596  30.056  29.339  1.00  0.00     0.029 A 
ATOM     38  N   UNL A   1      39.171  30.788  31.374  1.00  0.00    -0.354 N 
ATOM     39  C   UNL A   1      42.291  28.815  33.641  1.00  0.00     0.074 A 
ATOM     40  C   UNL A   1      42.823  27.683  32.915  1.00  0.00     0.031 C 
ATOM     41  C   UNL A   1      37.839  31.133  29.612  1.00  0.00     0.029 A 
ATOM     42  C   UNL A   1      38.165  31.622  30.950  1.00  0.00     0.049 A 
ATOM     43  H   UNL A   1      39.628  30.891  32.239  1.00  0.00     0.167 HD
ATOM     44  C   UNL A   1      42.735  29.220  34.855  1.00  0.00     0.037 A 
ATOM     45  C   UNL A   1      37.566  32.652  31.581  1.00  0.00     0.037 A 
ATOM     46  C   UNL A   1      42.203  30.348  35.572  1.00  0.00     0.049 A 
ATOM     47  C   UNL A   1      38.034  33.046  32.957  1.00  0.00     0.074 A 
ATOM     48  C   UNL A   1      42.590  30.847  36.803  1.00  0.00     0.029 A 
ATOM     49  N   UNL A   1      41.162  31.148  35.125  1.00  0.00    -0.354 N 
ATOM     50  N   UNL A   1      38.996  32.524  33.681  1.00  0.00    -0.248 NA
ATOM     51  C   UNL A   1      37.341  34.170  33.601  1.00  0.00     0.031 C 
ATOM     52  C   UNL A   1      41.754  31.923  37.120  1.00  0.00     0.029 A 
ATOM     53  C   UNL A   1      40.877  32.124  36.066  1.00  0.00     0.049 A 
ATOM     54  H   UNL A   1      40.694  31.039  34.265  1.00  0.00     0.167 HD
ATOM     55  C   UNL A   1      39.038  33.271  34.854  1.00  0.00     0.074 A 
ATOM     56  C   UNL A   1      38.012  34.287  34.739  1.00  0.00     0.031 C 
ATOM     57  C   UNL A   1      39.854  33.130  35.929  1.00  0.00     0.037 A 
BRANCH  44  58
ATOM     58  C   UNL A   1      43.837  28.419  35.492  1.00  0.00     0.058 A 
ATOM     59  C   UNL A   1      43.566  27.353  36.363  1.00  0.00     0.135 A 
ATOM     60  C   UNL A   1      45.181  28.709  35.209  1.00  0.00     0.135 A 
ATOM     61  F   UNL A   1      42.299  27.045  36.684  1.00  0.00    -0.206 F 
ATOM     62  C   UNL A   1      44.591  26.617  36.952  1.00  0.00     0.059 A 
ATOM     63  C   UNL A   1      46.221  27.971  35.767  1.00  0.00     0.059 A 
ATOM     64  F   UNL A   1      45.495  29.722  34.385  1.00  0.00    -0.206 F 
ATOM     65  C   UNL A   1      45.916  26.936  36.648  1.00  0.00     0.060 A 
BRANCH  65  66
ATOM     66  S   UNL A   1      47.234  25.972  37.418  1.00  0.00     0.124 S 
ATOM     67  O   UNL A   1      48.071  25.653  36.267  1.00  0.00    -0.237 OA
ATOM     68  O   UNL A   1      47.802  26.922  38.370  1.00  0.00    -0.237 OA
ATOM     69  O   UNL A   1      46.527  24.843  38.012  1.00  0.00    -0.744 OA
ENDBRANCH  65  66
ENDBRANCH  44  58
BRANCH  45  70
ATOM     70  C   UNL A   1      36.447  33.375  30.919  1.00  0.00     0.058 A 
ATOM     71  C   UNL A   1      35.122  33.221  31.354  1.00  0.00     0.135 A 
ATOM     72  C   UNL A   1      36.684  34.241  29.839  1.00  0.00     0.135 A 
ATOM     73  F   UNL A   1      34.843  32.397  32.375  1.00  0.00    -0.206 F 
ATOM     74  C   UNL A   1      34.071  33.892  30.738  1.00  0.00     0.059 A 
ATOM     75  C   UNL A   1      35.652  34.941  29.222  1.00  0.00     0.059 A 
ATOM     76  F   UNL A   1      37.935  34.429  29.391  1.00  0.00    -0.206 F 
ATOM     77  C   UNL A   1      34.347  34.753  29.673  1.00  0.00     0.060 A 
BRANCH  77  78
ATOM     78  S   UNL A   1      32.984  35.664  28.916  1.00  0.00     0.124 S 
ATOM     79  O   UNL A   1      32.224  36.084  30.087  1.00  0.00    -0.237 OA
ATOM     80  O   UNL A   1      33.685  36.722  28.196  1.00  0.00    -0.237 OA
ATOM     81  O   UNL A   1      32.341  34.662  28.070  1.00  0.00    -0.744 OA
ENDBRANCH  77  78
ENDBRANCH  45  70
BRANCH  57  82
ATOM     82  C   UNL A   1      39.693  34.115  37.055  1.00  0.00     0.058 A 
ATOM     83  C   UNL A   1      39.036  33.772  38.246  1.00  0.00     0.135 A 
ATOM     84  C   UNL A   1      40.254  35.399  36.960  1.00  0.00     0.135 A 
ATOM     85  F   UNL A   1      38.477  32.559  38.384  1.00  0.00    -0.206 F 
ATOM     86  C   UNL A   1      38.921  34.676  39.298  1.00  0.00     0.059 A 
ATOM     87  C   UNL A   1      40.174  36.309  38.009  1.00  0.00     0.059 A 
ATOM     88  F   UNL A   1      40.904  35.773  35.847  1.00  0.00    -0.206 F 
ATOM     89  C   UNL A   1      39.495  35.942  39.170  1.00  0.00     0.060 A 
BRANCH  89  90
ATOM     90  S   UNL A   1      39.370  37.095  40.554  1.00  0.00     0.124 S 
ATOM     91  O   UNL A   1      40.773  37.285  40.907  1.00  0.00    -0.237 OA
ATOM     92  O   UNL A   1      38.708  38.245  39.945  1.00  0.00    -0.237 OA
ATOM     93  O   UNL A   1      38.569  36.365  41.532  1.00  0.00    -0.744 OA
ENDBRANCH  89  90
ENDBRANCH  57  82
ENDBRANCH  31  32
ENDBRANCH  24  26
ENDBRANCH  23  24
ENDBRANCH  22  23
ENDBRANCH   1  22
TORSDOF 20
ENDMDL
