MODEL 1
REMARK VINA RESULT:      -9.5      0.000      0.000
REMARK SMILES O=C(OCCOCCOC(=O)c1cc(Br)cn(Cc2cccc(F)c2)c1=O)c1ccc(-c2c3nc(c(-c4c(F)cc(S(=O)(=O)[O-])cc4F)c4ccc([nH]4)c(-c4c(F)cc(S(=O)(=O)[O-])cc4F)c4nc(c(-c5c(F)cc(S(=O)(=O)[O-])cc5F)c5ccc2[nH]5)C=C4)C=C3)cc1
REMARK SMILES IDX 5 1 4 2 3 3 2 4 1 5 28 6 29 7 93 8 30 9 92 10 31 11 32 12
REMARK SMILES IDX 33 13 86 14 34 15 91 16 85 17 87 18 35 19 90 20 84 21 83 22
REMARK SMILES IDX 36 24 70 25 49 26 69 27 50 28 53 29 68 30 88 31 51 32 52 33
REMARK SMILES IDX 67 35 89 36 54 37 37 38 38 39 47 40 39 41 40 42 46 43 48 44
REMARK SMILES IDX 41 45 42 46 43 47 44 48 45 49 71 50 72 51 81 52 73 53 74 54
REMARK SMILES IDX 80 55 82 56 75 57 76 58 77 59 78 60 79 61 55 62 56 63 65 64
REMARK SMILES IDX 57 65 58 66 64 67 66 68 59 69 60 70 61 71 62 72 63 73 6 74
REMARK SMILES IDX 7 75 8 76 9 77 10 78 11 79 12 80 13 81 26 82 14 83 17 84
REMARK SMILES IDX 27 85 15 86 16 87 18 88 19 89 20 90 25 91 21 92 23 93 22 94
REMARK SMILES IDX 24 95
REMARK H PARENT 87 23 53 34
REMARK Flexibility Score: inf
ROOT
ATOM      1  C   UNL A   1      40.879  20.076  26.516  1.00  0.00     0.202 C 
ENDROOT
BRANCH   1   2
ATOM      2  C   UNL A   1      40.445  21.461  26.990  1.00  0.00     0.261 C 
BRANCH   2   3
ATOM      3  O   UNL A   1      39.442  22.000  26.125  1.00  0.00    -0.460 OA
BRANCH   3   4
ATOM      4  C   UNL A   1      38.841  23.209  26.175  1.00  0.00     0.338 C 
ATOM      5  O   UNL A   1      37.774  23.330  25.571  1.00  0.00    -0.246 OA
BRANCH   4   6
ATOM      6  C   UNL A   1      39.391  24.424  26.868  1.00  0.00     0.060 A 
ATOM      7  C   UNL A   1      38.944  24.639  28.185  1.00  0.00     0.016 A 
ATOM      8  C   UNL A   1      40.224  25.396  26.308  1.00  0.00     0.016 A 
ATOM      9  C   UNL A   1      39.298  25.790  28.898  1.00  0.00     0.010 A 
ATOM     10  C   UNL A   1      40.579  26.547  27.004  1.00  0.00     0.010 A 
ATOM     11  C   UNL A   1      40.116  26.750  28.300  1.00  0.00    -0.014 A 
BRANCH  11  12
ATOM     12  C   UNL A   1      40.632  27.913  29.036  1.00  0.00     0.031 A 
ATOM     13  C   UNL A   1      41.973  27.867  29.700  1.00  0.00     0.074 A 
ATOM     14  C   UNL A   1      39.786  28.945  29.204  1.00  0.00     0.049 A 
ATOM     15  N   UNL A   1      42.562  28.785  30.417  1.00  0.00    -0.248 NA
ATOM     16  C   UNL A   1      42.750  26.624  29.558  1.00  0.00     0.031 C 
ATOM     17  C   UNL A   1      38.422  29.005  28.663  1.00  0.00     0.029 A 
ATOM     18  N   UNL A   1      39.922  30.114  29.894  1.00  0.00    -0.354 N 
ATOM     19  C   UNL A   1      43.791  28.251  30.784  1.00  0.00     0.074 A 
ATOM     20  C   UNL A   1      43.842  26.903  30.262  1.00  0.00     0.031 C 
ATOM     21  C   UNL A   1      37.847  30.154  29.049  1.00  0.00     0.029 A 
ATOM     22  C   UNL A   1      38.798  30.902  29.861  1.00  0.00     0.049 A 
ATOM     23  H   UNL A   1      40.746  30.369  30.370  1.00  0.00     0.167 HD
ATOM     24  C   UNL A   1      44.787  28.857  31.473  1.00  0.00     0.037 A 
ATOM     25  C   UNL A   1      38.572  32.104  30.417  1.00  0.00     0.037 A 
ATOM     26  C   UNL A   1      44.679  30.196  32.002  1.00  0.00     0.049 A 
ATOM     27  C   UNL A   1      39.698  32.755  31.167  1.00  0.00     0.074 A 
ATOM     28  C   UNL A   1      45.629  30.933  32.688  1.00  0.00     0.029 A 
ATOM     29  N   UNL A   1      43.547  30.994  31.904  1.00  0.00    -0.354 N 
ATOM     30  N   UNL A   1      40.892  32.277  31.432  1.00  0.00    -0.248 NA
ATOM     31  C   UNL A   1      39.464  34.115  31.663  1.00  0.00     0.031 C 
ATOM     32  C   UNL A   1      45.060  32.164  33.031  1.00  0.00     0.029 A 
ATOM     33  C   UNL A   1      43.773  32.215  32.516  1.00  0.00     0.049 A 
ATOM     34  H   UNL A   1      42.707  30.731  31.463  1.00  0.00     0.167 HD
ATOM     35  C   UNL A   1      41.568  33.293  32.091  1.00  0.00     0.074 A 
ATOM     36  C   UNL A   1      40.650  34.413  32.178  1.00  0.00     0.031 C 
ATOM     37  C   UNL A   1      42.835  33.307  32.575  1.00  0.00     0.037 A 
BRANCH  24  38
ATOM     38  C   UNL A   1      46.090  28.126  31.654  1.00  0.00     0.058 A 
ATOM     39  C   UNL A   1      46.219  27.112  32.618  1.00  0.00     0.135 A 
ATOM     40  C   UNL A   1      47.172  28.335  30.784  1.00  0.00     0.135 A 
ATOM     41  F   UNL A   1      45.223  26.876  33.488  1.00  0.00    -0.206 F 
ATOM     42  C   UNL A   1      47.363  26.324  32.703  1.00  0.00     0.059 A 
ATOM     43  C   UNL A   1      48.320  27.545  30.837  1.00  0.00     0.059 A 
ATOM     44  F   UNL A   1      47.110  29.295  29.847  1.00  0.00    -0.206 F 
ATOM     45  C   UNL A   1      48.402  26.538  31.797  1.00  0.00     0.060 A 
BRANCH  45  46
ATOM     46  S   UNL A   1      49.839  25.444  31.870  1.00  0.00     0.124 S 
ATOM     47  O   UNL A   1      49.428  24.485  32.891  1.00  0.00    -0.237 OA
ATOM     48  O   UNL A   1      49.902  24.927  30.506  1.00  0.00    -0.237 OA
ATOM     49  O   UNL A   1      50.929  26.337  32.250  1.00  0.00    -0.744 OA
ENDBRANCH  45  46
ENDBRANCH  24  38
BRANCH  25  50
ATOM     50  C   UNL A   1      37.272  32.787  30.201  1.00  0.00     0.058 A 
ATOM     51  C   UNL A   1      37.125  33.723  29.167  1.00  0.00     0.135 A 
ATOM     52  C   UNL A   1      36.145  32.490  30.981  1.00  0.00     0.135 A 
ATOM     53  F   UNL A   1      38.172  34.029  28.386  1.00  0.00    -0.206 F 
ATOM     54  C   UNL A   1      35.915  34.365  28.932  1.00  0.00     0.059 A 
ATOM     55  C   UNL A   1      34.916  33.101  30.750  1.00  0.00     0.059 A 
ATOM     56  F   UNL A   1      36.225  31.573  31.959  1.00  0.00    -0.206 F 
ATOM     57  C   UNL A   1      34.816  34.048  29.732  1.00  0.00     0.060 A 
BRANCH  57  58
ATOM     58  S   UNL A   1      33.244  34.872  29.399  1.00  0.00     0.124 S 
ATOM     59  O   UNL A   1      32.573  33.891  28.553  1.00  0.00    -0.237 OA
ATOM     60  O   UNL A   1      32.696  35.040  30.741  1.00  0.00    -0.237 OA
ATOM     61  O   UNL A   1      33.647  36.109  28.735  1.00  0.00    -0.744 OA
ENDBRANCH  57  58
ENDBRANCH  25  50
BRANCH  37  62
ATOM     62  C   UNL A   1      43.304  34.588  33.202  1.00  0.00     0.058 A 
ATOM     63  C   UNL A   1      43.208  34.809  34.583  1.00  0.00     0.135 A 
ATOM     64  C   UNL A   1      43.884  35.590  32.408  1.00  0.00     0.135 A 
ATOM     65  F   UNL A   1      42.654  33.882  35.380  1.00  0.00    -0.206 F 
ATOM     66  C   UNL A   1      43.644  35.998  35.155  1.00  0.00     0.059 A 
ATOM     67  C   UNL A   1      44.353  36.774  32.963  1.00  0.00     0.059 A 
ATOM     68  F   UNL A   1      44.006  35.418  31.082  1.00  0.00    -0.206 F 
ATOM     69  C   UNL A   1      44.215  36.975  34.335  1.00  0.00     0.060 A 
BRANCH  69  70
ATOM     70  S   UNL A   1      44.787  38.507  35.096  1.00  0.00     0.124 S 
ATOM     71  O   UNL A   1      46.225  38.271  35.183  1.00  0.00    -0.237 OA
ATOM     72  O   UNL A   1      44.367  39.512  34.124  1.00  0.00    -0.237 OA
ATOM     73  O   UNL A   1      44.078  38.540  36.370  1.00  0.00    -0.744 OA
ENDBRANCH  69  70
ENDBRANCH  37  62
ENDBRANCH  11  12
ENDBRANCH   4   6
ENDBRANCH   3   4
ENDBRANCH   2   3
ENDBRANCH   1   2
BRANCH   1  74
ATOM     74  O   UNL A   1      41.921  19.470  27.279  1.00  0.00    -0.374 OA
BRANCH  74  75
ATOM     75  C   UNL A   1      42.864  18.679  26.546  1.00  0.00     0.202 C 
BRANCH  75  76
ATOM     76  C   UNL A   1      43.234  19.406  25.249  1.00  0.00     0.261 C 
BRANCH  76  77
ATOM     77  O   UNL A   1      44.411  20.187  25.499  1.00  0.00    -0.459 OA
BRANCH  77  78
ATOM     78  C   UNL A   1      44.581  21.270  24.697  1.00  0.00     0.343 C 
ATOM     79  O   UNL A   1      44.459  21.318  23.482  1.00  0.00    -0.246 OA
BRANCH  78  80
ATOM     80  C   UNL A   1      44.630  22.452  25.571  1.00  0.00     0.126 A 
ATOM     81  C   UNL A   1      43.990  22.356  26.751  1.00  0.00     0.038 A 
ATOM     82  C   UNL A   1      45.472  23.638  25.267  1.00  0.00     0.265 A 
ATOM     83  C   UNL A   1      44.242  23.306  27.806  1.00  0.00     0.035 A 
ATOM     84  N   UNL A   1      45.609  24.557  26.313  1.00  0.00    -0.309 N 
ATOM     85  O   UNL A   1      45.959  23.805  24.153  1.00  0.00    -0.268 OA
ATOM     86  Br  UNL A   1      43.481  23.000  29.478  1.00  0.00    -0.049 Br
ATOM     87  C   UNL A   1      45.047  24.347  27.565  1.00  0.00     0.105 A 
BRANCH  84  88
ATOM     88  C   UNL A   1      46.180  25.867  26.004  1.00  0.00     0.161 C 
BRANCH  88  89
ATOM     89  C   UNL A   1      45.148  26.934  26.310  1.00  0.00    -0.025 A 
ATOM     90  C   UNL A   1      43.944  26.985  25.588  1.00  0.00     0.006 A 
ATOM     91  C   UNL A   1      45.456  27.982  27.191  1.00  0.00     0.044 A 
ATOM     92  C   UNL A   1      43.081  28.075  25.720  1.00  0.00     0.003 A 
ATOM     93  C   UNL A   1      44.581  29.053  27.325  1.00  0.00     0.123 A 
ATOM     94  C   UNL A   1      43.402  29.113  26.590  1.00  0.00     0.039 A 
ATOM     95  F   UNL A   1      44.890  30.059  28.154  1.00  0.00    -0.207 F 
ENDBRANCH  88  89
ENDBRANCH  84  88
ENDBRANCH  78  80
ENDBRANCH  77  78
ENDBRANCH  76  77
ENDBRANCH  75  76
ENDBRANCH  74  75
ENDBRANCH   1  74
TORSDOF 19
ENDMDL
MODEL 2
REMARK VINA RESULT:      -9.3      4.080     10.409
REMARK SMILES O=C(OCCOCCOC(=O)c1cc(Br)cn(Cc2cccc(F)c2)c1=O)c1ccc(-c2c3nc(c(-c4c(F)cc(S(=O)(=O)[O-])cc4F)c4ccc([nH]4)c(-c4c(F)cc(S(=O)(=O)[O-])cc4F)c4nc(c(-c5c(F)cc(S(=O)(=O)[O-])cc5F)c5ccc2[nH]5)C=C4)C=C3)cc1
REMARK SMILES IDX 5 1 4 2 3 3 2 4 1 5 28 6 29 7 93 8 30 9 92 10 31 11 32 12
REMARK SMILES IDX 33 13 86 14 34 15 91 16 85 17 87 18 35 19 90 20 84 21 83 22
REMARK SMILES IDX 36 24 70 25 49 26 69 27 50 28 53 29 68 30 88 31 51 32 52 33
REMARK SMILES IDX 67 35 89 36 54 37 37 38 38 39 47 40 39 41 40 42 46 43 48 44
REMARK SMILES IDX 41 45 42 46 43 47 44 48 45 49 71 50 72 51 81 52 73 53 74 54
REMARK SMILES IDX 80 55 82 56 75 57 76 58 77 59 78 60 79 61 55 62 56 63 65 64
REMARK SMILES IDX 57 65 58 66 64 67 66 68 59 69 60 70 61 71 62 72 63 73 6 74
REMARK SMILES IDX 7 75 8 76 9 77 10 78 11 79 12 80 13 81 26 82 14 83 17 84
REMARK SMILES IDX 27 85 15 86 16 87 18 88 19 89 20 90 25 91 21 92 23 93 22 94
REMARK SMILES IDX 24 95
REMARK H PARENT 87 23 53 34
REMARK Flexibility Score: inf
ROOT
ATOM      1  C   UNL A   1      31.867  29.216  25.250  1.00  0.00     0.202 C 
ENDROOT
BRANCH   1   2
ATOM      2  C   UNL A   1      32.706  28.906  26.488  1.00  0.00     0.261 C 
BRANCH   2   3
ATOM      3  O   UNL A   1      33.947  29.616  26.448  1.00  0.00    -0.460 OA
BRANCH   3   4
ATOM      4  C   UNL A   1      34.513  30.386  27.404  1.00  0.00     0.338 C 
ATOM      5  O   UNL A   1      33.959  31.453  27.668  1.00  0.00    -0.246 OA
BRANCH   4   6
ATOM      6  C   UNL A   1      35.787  30.065  28.135  1.00  0.00     0.060 A 
ATOM      7  C   UNL A   1      36.978  30.236  27.404  1.00  0.00     0.016 A 
ATOM      8  C   UNL A   1      35.898  29.535  29.423  1.00  0.00     0.016 A 
ATOM      9  C   UNL A   1      38.220  29.870  27.935  1.00  0.00     0.010 A 
ATOM     10  C   UNL A   1      37.126  29.161  29.960  1.00  0.00     0.010 A 
ATOM     11  C   UNL A   1      38.291  29.325  29.218  1.00  0.00    -0.014 A 
BRANCH  11  12
ATOM     12  C   UNL A   1      39.571  29.043  29.885  1.00  0.00     0.031 A 
ATOM     13  C   UNL A   1      40.087  29.942  30.964  1.00  0.00     0.074 A 
ATOM     14  C   UNL A   1      40.307  28.039  29.376  1.00  0.00     0.049 A 
ATOM     15  N   UNL A   1      41.209  29.862  31.627  1.00  0.00    -0.248 NA
ATOM     16  C   UNL A   1      39.248  31.094  31.338  1.00  0.00     0.031 C 
ATOM     17  C   UNL A   1      39.898  27.186  28.253  1.00  0.00     0.029 A 
ATOM     18  N   UNL A   1      41.552  27.584  29.703  1.00  0.00    -0.354 N 
ATOM     19  C   UNL A   1      41.199  30.925  32.521  1.00  0.00     0.074 A 
ATOM     20  C   UNL A   1      39.987  31.676  32.276  1.00  0.00     0.031 C 
ATOM     21  C   UNL A   1      40.880  26.315  27.982  1.00  0.00     0.029 A 
ATOM     22  C   UNL A   1      41.980  26.550  28.908  1.00  0.00     0.049 A 
ATOM     23  H   UNL A   1      42.089  27.961  30.436  1.00  0.00     0.167 HD
ATOM     24  C   UNL A   1      42.117  31.217  33.473  1.00  0.00     0.037 A 
ATOM     25  C   UNL A   1      43.134  25.861  28.939  1.00  0.00     0.037 A 
ATOM     26  C   UNL A   1      43.329  30.457  33.661  1.00  0.00     0.049 A 
ATOM     27  C   UNL A   1      44.127  26.202  30.011  1.00  0.00     0.074 A 
ATOM     28  C   UNL A   1      44.320  30.631  34.611  1.00  0.00     0.029 A 
ATOM     29  N   UNL A   1      43.712  29.377  32.876  1.00  0.00    -0.354 N 
ATOM     30  N   UNL A   1      44.068  27.155  30.912  1.00  0.00    -0.248 NA
ATOM     31  C   UNL A   1      45.325  25.360  30.096  1.00  0.00     0.031 C 
ATOM     32  C   UNL A   1      45.316  29.676  34.380  1.00  0.00     0.029 A 
ATOM     33  C   UNL A   1      44.923  28.875  33.320  1.00  0.00     0.049 A 
ATOM     34  H   UNL A   1      43.197  29.019  32.117  1.00  0.00     0.167 HD
ATOM     35  C   UNL A   1      45.200  27.002  31.700  1.00  0.00     0.074 A 
ATOM     36  C   UNL A   1      45.922  25.861  31.169  1.00  0.00     0.031 C 
ATOM     37  C   UNL A   1      45.606  27.731  32.768  1.00  0.00     0.037 A 
BRANCH  24  38
ATOM     38  C   UNL A   1      41.841  32.357  34.417  1.00  0.00     0.058 A 
ATOM     39  C   UNL A   1      42.270  33.661  34.117  1.00  0.00     0.135 A 
ATOM     40  C   UNL A   1      41.037  32.184  35.556  1.00  0.00     0.135 A 
ATOM     41  F   UNL A   1      43.053  33.886  33.050  1.00  0.00    -0.206 F 
ATOM     42  C   UNL A   1      41.899  34.751  34.899  1.00  0.00     0.059 A 
ATOM     43  C   UNL A   1      40.637  33.263  36.343  1.00  0.00     0.059 A 
ATOM     44  F   UNL A   1      40.604  30.960  35.897  1.00  0.00    -0.206 F 
ATOM     45  C   UNL A   1      41.069  34.544  36.001  1.00  0.00     0.060 A 
BRANCH  45  46
ATOM     46  S   UNL A   1      40.530  35.985  36.949  1.00  0.00     0.124 S 
ATOM     47  O   UNL A   1      39.733  36.706  35.960  1.00  0.00    -0.237 OA
ATOM     48  O   UNL A   1      39.779  35.373  38.040  1.00  0.00    -0.237 OA
ATOM     49  O   UNL A   1      41.781  36.628  37.335  1.00  0.00    -0.744 OA
ENDBRANCH  45  46
ENDBRANCH  24  38
BRANCH  25  50
ATOM     50  C   UNL A   1      43.352  24.741  27.991  1.00  0.00     0.058 A 
ATOM     51  C   UNL A   1      44.052  24.949  26.794  1.00  0.00     0.135 A 
ATOM     52  C   UNL A   1      42.914  23.439  28.276  1.00  0.00     0.135 A 
ATOM     53  F   UNL A   1      44.503  26.174  26.485  1.00  0.00    -0.206 F 
ATOM     54  C   UNL A   1      44.285  23.914  25.896  1.00  0.00     0.059 A 
ATOM     55  C   UNL A   1      43.155  22.381  27.405  1.00  0.00     0.059 A 
ATOM     56  F   UNL A   1      42.271  23.181  29.427  1.00  0.00    -0.206 F 
ATOM     57  C   UNL A   1      43.829  22.632  26.211  1.00  0.00     0.060 A 
BRANCH  57  58
ATOM     58  S   UNL A   1      44.160  21.292  25.046  1.00  0.00     0.124 S 
ATOM     59  O   UNL A   1      44.118  21.997  23.769  1.00  0.00    -0.237 OA
ATOM     60  O   UNL A   1      45.474  20.829  25.478  1.00  0.00    -0.237 OA
ATOM     61  O   UNL A   1      43.063  20.358  25.288  1.00  0.00    -0.744 OA
ENDBRANCH  57  58
ENDBRANCH  25  50
BRANCH  37  62
ATOM     62  C   UNL A   1      46.866  27.284  33.451  1.00  0.00     0.058 A 
ATOM     63  C   UNL A   1      46.842  26.366  34.511  1.00  0.00     0.135 A 
ATOM     64  C   UNL A   1      48.113  27.759  33.014  1.00  0.00     0.135 A 
ATOM     65  F   UNL A   1      45.673  25.890  34.968  1.00  0.00    -0.206 F 
ATOM     66  C   UNL A   1      48.012  25.958  35.138  1.00  0.00     0.059 A 
ATOM     67  C   UNL A   1      49.297  27.341  33.608  1.00  0.00     0.059 A 
ATOM     68  F   UNL A   1      48.185  28.631  31.995  1.00  0.00    -0.206 F 
ATOM     69  C   UNL A   1      49.235  26.452  34.679  1.00  0.00     0.060 A 
BRANCH  69  70
ATOM     70  S   UNL A   1      50.747  25.902  35.496  1.00  0.00     0.124 S 
ATOM     71  O   UNL A   1      51.768  26.355  34.557  1.00  0.00    -0.237 OA
ATOM     72  O   UNL A   1      50.691  26.617  36.767  1.00  0.00    -0.237 OA
ATOM     73  O   UNL A   1      50.576  24.456  35.588  1.00  0.00    -0.744 OA
ENDBRANCH  69  70
ENDBRANCH  37  62
ENDBRANCH  11  12
ENDBRANCH   4   6
ENDBRANCH   3   4
ENDBRANCH   2   3
ENDBRANCH   1   2
BRANCH   1  74
ATOM     74  O   UNL A   1      31.016  28.159  24.812  1.00  0.00    -0.374 OA
BRANCH  74  75
ATOM     75  C   UNL A   1      31.577  26.841  24.844  1.00  0.00     0.202 C 
BRANCH  75  76
ATOM     76  C   UNL A   1      30.466  25.824  25.125  1.00  0.00     0.261 C 
BRANCH  76  77
ATOM     77  O   UNL A   1      31.041  24.511  25.061  1.00  0.00    -0.459 OA
BRANCH  77  78
ATOM     78  C   UNL A   1      31.728  24.113  26.163  1.00  0.00     0.343 C 
ATOM     79  O   UNL A   1      31.391  24.242  27.331  1.00  0.00    -0.246 OA
BRANCH  78  80
ATOM     80  C   UNL A   1      32.800  23.217  25.705  1.00  0.00     0.126 A 
ATOM     81  C   UNL A   1      32.600  21.898  25.880  1.00  0.00     0.038 A 
ATOM     82  C   UNL A   1      33.975  23.703  24.935  1.00  0.00     0.265 A 
ATOM     83  C   UNL A   1      33.413  20.930  25.187  1.00  0.00     0.035 A 
ATOM     84  N   UNL A   1      34.763  22.704  24.354  1.00  0.00    -0.309 N 
ATOM     85  O   UNL A   1      34.245  24.899  24.872  1.00  0.00    -0.268 OA
ATOM     86  Br  UNL A   1      32.955  19.130  25.314  1.00  0.00    -0.049 Br
ATOM     87  C   UNL A   1      34.438  21.357  24.441  1.00  0.00     0.105 A 
BRANCH  84  88
ATOM     88  C   UNL A   1      36.073  23.085  23.828  1.00  0.00     0.161 C 
BRANCH  88  89
ATOM     89  C   UNL A   1      37.111  22.890  24.916  1.00  0.00    -0.025 A 
ATOM     90  C   UNL A   1      37.482  23.962  25.744  1.00  0.00     0.006 A 
ATOM     91  C   UNL A   1      37.836  21.691  24.992  1.00  0.00     0.044 A 
ATOM     92  C   UNL A   1      38.573  23.849  26.608  1.00  0.00     0.003 A 
ATOM     93  C   UNL A   1      38.910  21.587  25.868  1.00  0.00     0.123 A 
ATOM     94  C   UNL A   1      39.290  22.657  26.668  1.00  0.00     0.039 A 
ATOM     95  F   UNL A   1      39.609  20.445  25.923  1.00  0.00    -0.207 F 
ENDBRANCH  88  89
ENDBRANCH  84  88
ENDBRANCH  78  80
ENDBRANCH  77  78
ENDBRANCH  76  77
ENDBRANCH  75  76
ENDBRANCH  74  75
ENDBRANCH   1  74
TORSDOF 19
ENDMDL
MODEL 3
REMARK VINA RESULT:      -9.2      4.726     10.988
REMARK SMILES O=C(OCCOCCOC(=O)c1cc(Br)cn(Cc2cccc(F)c2)c1=O)c1ccc(-c2c3nc(c(-c4c(F)cc(S(=O)(=O)[O-])cc4F)c4ccc([nH]4)c(-c4c(F)cc(S(=O)(=O)[O-])cc4F)c4nc(c(-c5c(F)cc(S(=O)(=O)[O-])cc5F)c5ccc2[nH]5)C=C4)C=C3)cc1
REMARK SMILES IDX 5 1 4 2 3 3 2 4 1 5 28 6 29 7 93 8 30 9 92 10 31 11 32 12
REMARK SMILES IDX 33 13 86 14 34 15 91 16 85 17 87 18 35 19 90 20 84 21 83 22
REMARK SMILES IDX 36 24 70 25 49 26 69 27 50 28 53 29 68 30 88 31 51 32 52 33
REMARK SMILES IDX 67 35 89 36 54 37 37 38 38 39 47 40 39 41 40 42 46 43 48 44
REMARK SMILES IDX 41 45 42 46 43 47 44 48 45 49 71 50 72 51 81 52 73 53 74 54
REMARK SMILES IDX 80 55 82 56 75 57 76 58 77 59 78 60 79 61 55 62 56 63 65 64
REMARK SMILES IDX 57 65 58 66 64 67 66 68 59 69 60 70 61 71 62 72 63 73 6 74
REMARK SMILES IDX 7 75 8 76 9 77 10 78 11 79 12 80 13 81 26 82 14 83 17 84
REMARK SMILES IDX 27 85 15 86 16 87 18 88 19 89 20 90 25 91 21 92 23 93 22 94
REMARK SMILES IDX 24 95
REMARK H PARENT 87 23 53 34
REMARK Flexibility Score: inf
ROOT
ATOM      1  C   UNL A   1      31.742  29.367  25.462  1.00  0.00     0.202 C 
ENDROOT
BRANCH   1   2
ATOM      2  C   UNL A   1      32.429  29.322  26.825  1.00  0.00     0.261 C 
BRANCH   2   3
ATOM      3  O   UNL A   1      33.816  29.650  26.702  1.00  0.00    -0.460 OA
BRANCH   3   4
ATOM      4  C   UNL A   1      34.551  30.512  27.439  1.00  0.00     0.338 C 
ATOM      5  O   UNL A   1      34.181  31.687  27.463  1.00  0.00    -0.246 OA
BRANCH   4   6
ATOM      6  C   UNL A   1      35.804  30.162  28.191  1.00  0.00     0.060 A 
ATOM      7  C   UNL A   1      37.017  30.415  27.522  1.00  0.00     0.016 A 
ATOM      8  C   UNL A   1      35.880  29.535  29.438  1.00  0.00     0.016 A 
ATOM      9  C   UNL A   1      38.247  30.034  28.070  1.00  0.00     0.010 A 
ATOM     10  C   UNL A   1      37.096  29.147  29.991  1.00  0.00     0.010 A 
ATOM     11  C   UNL A   1      38.283  29.391  29.309  1.00  0.00    -0.014 A 
BRANCH  11  12
ATOM     12  C   UNL A   1      39.544  29.085  30.000  1.00  0.00     0.031 A 
ATOM     13  C   UNL A   1      40.040  29.957  31.111  1.00  0.00     0.074 A 
ATOM     14  C   UNL A   1      40.285  28.087  29.488  1.00  0.00     0.049 A 
ATOM     15  N   UNL A   1      41.145  29.853  31.800  1.00  0.00    -0.248 NA
ATOM     16  C   UNL A   1      39.201  31.106  31.490  1.00  0.00     0.031 C 
ATOM     17  C   UNL A   1      39.898  27.262  28.336  1.00  0.00     0.029 A 
ATOM     18  N   UNL A   1      41.518  27.615  29.835  1.00  0.00    -0.354 N 
ATOM     19  C   UNL A   1      41.121  30.897  32.717  1.00  0.00     0.074 A 
ATOM     20  C   UNL A   1      39.921  31.662  32.458  1.00  0.00     0.031 C 
ATOM     21  C   UNL A   1      40.880  26.389  28.071  1.00  0.00     0.029 A 
ATOM     22  C   UNL A   1      41.959  26.595  29.028  1.00  0.00     0.049 A 
ATOM     23  H   UNL A   1      42.040  27.971  30.590  1.00  0.00     0.167 HD
ATOM     24  C   UNL A   1      42.017  31.161  33.697  1.00  0.00     0.037 A 
ATOM     25  C   UNL A   1      43.107  25.897  29.072  1.00  0.00     0.037 A 
ATOM     26  C   UNL A   1      43.218  30.387  33.898  1.00  0.00     0.049 A 
ATOM     27  C   UNL A   1      44.076  26.206  30.176  1.00  0.00     0.074 A 
ATOM     28  C   UNL A   1      44.187  30.532  34.875  1.00  0.00     0.029 A 
ATOM     29  N   UNL A   1      43.613  29.321  33.099  1.00  0.00    -0.354 N 
ATOM     30  N   UNL A   1      44.001  27.140  31.096  1.00  0.00    -0.248 NA
ATOM     31  C   UNL A   1      45.265  25.353  30.272  1.00  0.00     0.031 C 
ATOM     32  C   UNL A   1      45.182  29.575  34.648  1.00  0.00     0.029 A 
ATOM     33  C   UNL A   1      44.809  28.800  33.561  1.00  0.00     0.049 A 
ATOM     34  H   UNL A   1      43.114  28.984  32.320  1.00  0.00     0.167 HD
ATOM     35  C   UNL A   1      45.112  26.961  31.908  1.00  0.00     0.074 A 
ATOM     36  C   UNL A   1      45.839  25.826  31.370  1.00  0.00     0.031 C 
ATOM     37  C   UNL A   1      45.497  27.664  33.002  1.00  0.00     0.037 A 
BRANCH  24  38
ATOM     38  C   UNL A   1      41.726  32.281  34.659  1.00  0.00     0.058 A 
ATOM     39  C   UNL A   1      42.111  33.601  34.365  1.00  0.00     0.135 A 
ATOM     40  C   UNL A   1      40.950  32.073  35.811  1.00  0.00     0.135 A 
ATOM     41  F   UNL A   1      42.867  33.860  33.286  1.00  0.00    -0.206 F 
ATOM     42  C   UNL A   1      41.724  34.671  35.166  1.00  0.00     0.059 A 
ATOM     43  C   UNL A   1      40.534  33.131  36.617  1.00  0.00     0.059 A 
ATOM     44  F   UNL A   1      40.559  30.833  36.146  1.00  0.00    -0.206 F 
ATOM     45  C   UNL A   1      40.921  34.428  36.282  1.00  0.00     0.060 A 
BRANCH  45  46
ATOM     46  S   UNL A   1      40.359  35.843  37.255  1.00  0.00     0.124 S 
ATOM     47  O   UNL A   1      41.616  36.336  37.811  1.00  0.00    -0.237 OA
ATOM     48  O   UNL A   1      39.742  36.690  36.240  1.00  0.00    -0.237 OA
ATOM     49  O   UNL A   1      39.438  35.250  38.219  1.00  0.00    -0.744 OA
ENDBRANCH  45  46
ENDBRANCH  24  38
BRANCH  25  50
ATOM     50  C   UNL A   1      43.340  24.796  28.106  1.00  0.00     0.058 A 
ATOM     51  C   UNL A   1      44.007  25.040  26.897  1.00  0.00     0.135 A 
ATOM     52  C   UNL A   1      42.949  23.477  28.383  1.00  0.00     0.135 A 
ATOM     53  F   UNL A   1      44.412  26.284  26.595  1.00  0.00    -0.206 F 
ATOM     54  C   UNL A   1      44.253  24.025  25.981  1.00  0.00     0.059 A 
ATOM     55  C   UNL A   1      43.205  22.438  27.494  1.00  0.00     0.059 A 
ATOM     56  F   UNL A   1      42.341  23.185  29.544  1.00  0.00    -0.206 F 
ATOM     57  C   UNL A   1      43.845  22.726  26.288  1.00  0.00     0.060 A 
BRANCH  57  58
ATOM     58  S   UNL A   1      44.193  21.411  25.100  1.00  0.00     0.124 S 
ATOM     59  O   UNL A   1      44.061  22.120  23.832  1.00  0.00    -0.237 OA
ATOM     60  O   UNL A   1      45.547  21.013  25.472  1.00  0.00    -0.237 OA
ATOM     61  O   UNL A   1      43.157  20.421  25.381  1.00  0.00    -0.744 OA
ENDBRANCH  57  58
ENDBRANCH  25  50
BRANCH  37  62
ATOM     62  C   UNL A   1      46.736  27.191  33.705  1.00  0.00     0.058 A 
ATOM     63  C   UNL A   1      46.682  26.230  34.724  1.00  0.00     0.135 A 
ATOM     64  C   UNL A   1      47.994  27.688  33.328  1.00  0.00     0.135 A 
ATOM     65  F   UNL A   1      45.501  25.731  35.122  1.00  0.00    -0.206 F 
ATOM     66  C   UNL A   1      47.834  25.799  35.371  1.00  0.00     0.059 A 
ATOM     67  C   UNL A   1      49.161  27.250  33.942  1.00  0.00     0.059 A 
ATOM     68  F   UNL A   1      48.095  28.603  32.350  1.00  0.00    -0.206 F 
ATOM     69  C   UNL A   1      49.069  26.316  34.972  1.00  0.00     0.060 A 
BRANCH  69  70
ATOM     70  S   UNL A   1      50.555  25.736  35.813  1.00  0.00     0.124 S 
ATOM     71  O   UNL A   1      51.151  24.876  34.796  1.00  0.00    -0.237 OA
ATOM     72  O   UNL A   1      51.265  26.982  36.085  1.00  0.00    -0.237 OA
ATOM     73  O   UNL A   1      50.034  25.048  36.990  1.00  0.00    -0.744 OA
ENDBRANCH  69  70
ENDBRANCH  37  62
ENDBRANCH  11  12
ENDBRANCH   4   6
ENDBRANCH   3   4
ENDBRANCH   2   3
ENDBRANCH   1   2
BRANCH   1  74
ATOM     74  O   UNL A   1      31.437  28.096  24.892  1.00  0.00    -0.374 OA
BRANCH  74  75
ATOM     75  C   UNL A   1      31.210  28.075  23.478  1.00  0.00     0.202 C 
BRANCH  75  76
ATOM     76  C   UNL A   1      31.256  26.627  22.978  1.00  0.00     0.261 C 
BRANCH  76  77
ATOM     77  O   UNL A   1      32.519  26.066  23.362  1.00  0.00    -0.459 OA
BRANCH  77  78
ATOM     78  C   UNL A   1      33.097  25.237  22.455  1.00  0.00     0.343 C 
ATOM     79  O   UNL A   1      33.457  25.516  21.321  1.00  0.00    -0.246 OA
BRANCH  78  80
ATOM     80  C   UNL A   1      33.503  24.022  23.176  1.00  0.00     0.126 A 
ATOM     81  C   UNL A   1      34.802  23.927  23.514  1.00  0.00     0.038 A 
ATOM     82  C   UNL A   1      32.525  23.017  23.667  1.00  0.00     0.265 A 
ATOM     83  C   UNL A   1      35.243  22.962  24.489  1.00  0.00     0.035 A 
ATOM     84  N   UNL A   1      33.041  22.063  24.551  1.00  0.00    -0.309 N 
ATOM     85  O   UNL A   1      31.363  23.011  23.269  1.00  0.00    -0.268 OA
ATOM     86  Br  UNL A   1      37.015  23.019  25.061  1.00  0.00    -0.049 Br
ATOM     87  C   UNL A   1      34.359  22.089  24.986  1.00  0.00     0.105 A 
BRANCH  84  88
ATOM     88  C   UNL A   1      32.219  20.891  24.850  1.00  0.00     0.161 C 
BRANCH  88  89
ATOM     89  C   UNL A   1      32.812  19.687  24.146  1.00  0.00    -0.025 A 
ATOM     90  C   UNL A   1      32.209  19.176  22.984  1.00  0.00     0.006 A 
ATOM     91  C   UNL A   1      33.858  18.967  24.741  1.00  0.00     0.044 A 
ATOM     92  C   UNL A   1      32.624  17.956  22.445  1.00  0.00     0.003 A 
ATOM     93  C   UNL A   1      34.272  17.761  24.185  1.00  0.00     0.123 A 
ATOM     94  C   UNL A   1      33.658  17.246  23.050  1.00  0.00     0.039 A 
ATOM     95  F   UNL A   1      35.260  17.070  24.769  1.00  0.00    -0.207 F 
ENDBRANCH  88  89
ENDBRANCH  84  88
ENDBRANCH  78  80
ENDBRANCH  77  78
ENDBRANCH  76  77
ENDBRANCH  75  76
ENDBRANCH  74  75
ENDBRANCH   1  74
TORSDOF 19
ENDMDL
