MODEL 1
REMARK VINA RESULT:     -10.9      0.000      0.000
REMARK SMILES Cc1cccc(-c2cccc(C(=O)OCCOCCOC(=O)c3ccc(-c4c5nc(c(-c6c(F)cc(S(=O)(=O)[O-])cc6F)c6ccc([nH]6)c(-c6c(F)cc(S(=O)(=O)[O-])cc6F)c6nc(c(-c7c(F)cc(S(=O)(=O)[O-])cc7F)c7ccc4[nH]7)C=C6)C=C5)cc3)c2)c1
REMARK SMILES IDX 18 1 17 2 16 3 15 4 14 5 12 6 13 7 11 8 7 9 8 10 89 11 9 12
REMARK SMILES IDX 10 13 6 14 1 15 2 16 3 17 90 18 4 19 5 20 19 21 20 22 21 23
REMARK SMILES IDX 22 24 23 25 24 26 88 27 25 28 87 29 26 30 27 31 28 32 81 33
REMARK SMILES IDX 29 34 86 35 80 36 82 37 30 38 85 39 79 40 78 41 31 43 65 44
REMARK SMILES IDX 44 45 64 46 45 47 48 48 63 49 83 50 46 51 47 52 62 54 84 55
REMARK SMILES IDX 49 56 32 57 33 58 42 59 34 60 35 61 41 62 43 63 36 64 37 65
REMARK SMILES IDX 38 66 39 67 40 68 66 69 67 70 76 71 68 72 69 73 75 74 77 75
REMARK SMILES IDX 70 76 71 77 72 78 73 79 74 80 50 81 51 82 60 83 52 84 53 85
REMARK SMILES IDX 59 86 61 87 54 88 55 89 56 90 57 91 58 92
REMARK H PARENT 82 42 48 53
REMARK Flexibility Score: inf
ROOT
ATOM      1  C   UNL A   1      33.439  34.511  28.430  1.00  0.00     0.202 C 
ENDROOT
BRANCH   1   2
ATOM      2  O   UNL A   1      33.315  35.878  28.127  1.00  0.00    -0.374 OA
BRANCH   2   3
ATOM      3  C   UNL A   1      33.682  36.800  29.142  1.00  0.00     0.202 C 
BRANCH   3   4
ATOM      4  C   UNL A   1      33.003  36.316  30.392  1.00  0.00     0.261 C 
BRANCH   4   5
ATOM      5  O   UNL A   1      33.949  35.859  31.378  1.00  0.00    -0.460 OA
BRANCH   5   6
ATOM      6  C   UNL A   1      33.655  34.828  32.211  1.00  0.00     0.338 C 
ATOM      7  O   UNL A   1      32.625  34.563  32.779  1.00  0.00    -0.246 OA
BRANCH   6   8
ATOM      8  C   UNL A   1      34.815  33.919  32.170  1.00  0.00     0.060 A 
ATOM      9  C   UNL A   1      37.141  33.629  31.597  1.00  0.00    -0.018 A 
ATOM     10  C   UNL A   1      37.148  32.440  32.349  1.00  0.00     0.009 A 
ATOM     11  C   UNL A   1      35.962  34.371  31.517  1.00  0.00     0.024 A 
ATOM     12  C   UNL A   1      35.992  31.973  32.971  1.00  0.00     0.002 A 
ATOM     13  C   UNL A   1      34.820  32.705  32.867  1.00  0.00     0.016 A 
BRANCH   9  14
ATOM     14  C   UNL A   1      38.326  34.042  30.855  1.00  0.00    -0.018 A 
ATOM     15  C   UNL A   1      42.008  34.581  31.637  1.00  0.00     0.044 C 
ATOM     16  C   UNL A   1      40.719  34.506  30.879  1.00  0.00    -0.051 A 
ATOM     17  C   UNL A   1      40.658  34.826  29.518  1.00  0.00     0.003 A 
ATOM     18  C   UNL A   1      39.550  34.120  31.534  1.00  0.00     0.012 A 
ATOM     19  C   UNL A   1      39.449  34.737  28.824  1.00  0.00     0.001 A 
ATOM     20  C   UNL A   1      38.287  34.341  29.489  1.00  0.00     0.009 A 
ENDBRANCH   9  14
ENDBRANCH   6   8
ENDBRANCH   5   6
ENDBRANCH   4   5
ENDBRANCH   3   4
ENDBRANCH   2   3
ENDBRANCH   1   2
BRANCH   1  21
ATOM     21  C   UNL A   1      34.795  33.941  28.006  1.00  0.00     0.261 C 
BRANCH  21  22
ATOM     22  O   UNL A   1      35.124  32.736  28.737  1.00  0.00    -0.460 OA
BRANCH  22  23
ATOM     23  C   UNL A   1      34.896  31.550  28.092  1.00  0.00     0.338 C 
ATOM     24  O   UNL A   1      34.005  31.387  27.277  1.00  0.00    -0.246 OA
BRANCH  23  25
ATOM     25  C   UNL A   1      35.890  30.521  28.517  1.00  0.00     0.060 A 
ATOM     26  C   UNL A   1      35.877  29.956  29.807  1.00  0.00     0.016 A 
ATOM     27  C   UNL A   1      36.982  30.307  27.687  1.00  0.00     0.016 A 
ATOM     28  C   UNL A   1      37.024  29.312  30.315  1.00  0.00     0.010 A 
ATOM     29  C   UNL A   1      38.141  29.822  28.243  1.00  0.00     0.010 A 
ATOM     30  C   UNL A   1      38.188  29.315  29.553  1.00  0.00    -0.014 A 
BRANCH  30  31
ATOM     31  C   UNL A   1      39.532  28.870  29.951  1.00  0.00     0.031 A 
ATOM     32  C   UNL A   1      40.055  27.633  29.307  1.00  0.00     0.074 A 
ATOM     33  C   UNL A   1      40.405  29.690  30.592  1.00  0.00     0.049 A 
ATOM     34  N   UNL A   1      41.129  27.028  29.676  1.00  0.00    -0.248 NA
ATOM     35  C   UNL A   1      39.381  26.923  28.217  1.00  0.00     0.031 C 
ATOM     36  C   UNL A   1      41.860  29.722  30.416  1.00  0.00     0.029 A 
ATOM     37  N   UNL A   1      40.183  30.739  31.487  1.00  0.00    -0.354 N 
ATOM     38  C   UNL A   1      41.474  26.137  28.682  1.00  0.00     0.074 A 
ATOM     39  C   UNL A   1      40.283  25.996  27.892  1.00  0.00     0.031 C 
ATOM     40  C   UNL A   1      42.414  30.559  31.309  1.00  0.00     0.029 A 
ATOM     41  C   UNL A   1      41.361  31.007  32.200  1.00  0.00     0.049 A 
ATOM     42  H   UNL A   1      39.331  31.218  31.600  1.00  0.00     0.167 HD
ATOM     43  C   UNL A   1      42.781  25.762  28.574  1.00  0.00     0.037 A 
ATOM     44  C   UNL A   1      41.377  31.027  33.561  1.00  0.00     0.037 A 
ATOM     45  C   UNL A   1      43.571  26.415  29.626  1.00  0.00     0.049 A 
ATOM     46  C   UNL A   1      42.229  29.888  34.037  1.00  0.00     0.074 A 
ATOM     47  C   UNL A   1      44.450  27.485  29.607  1.00  0.00     0.029 A 
ATOM     48  N   UNL A   1      43.276  26.170  30.963  1.00  0.00    -0.354 N 
ATOM     49  N   UNL A   1      42.492  28.868  33.269  1.00  0.00    -0.248 NA
ATOM     50  C   UNL A   1      42.917  29.806  35.320  1.00  0.00     0.031 C 
ATOM     51  C   UNL A   1      44.674  27.887  30.951  1.00  0.00     0.029 A 
ATOM     52  C   UNL A   1      43.941  27.056  31.785  1.00  0.00     0.049 A 
ATOM     53  H   UNL A   1      42.674  25.458  31.279  1.00  0.00     0.167 HD
ATOM     54  C   UNL A   1      43.381  28.043  33.877  1.00  0.00     0.074 A 
ATOM     55  C   UNL A   1      43.594  28.649  35.179  1.00  0.00     0.031 C 
ATOM     56  C   UNL A   1      43.858  26.941  33.236  1.00  0.00     0.037 A 
BRANCH  43  57
ATOM     57  C   UNL A   1      43.441  25.018  27.420  1.00  0.00     0.058 A 
ATOM     58  C   UNL A   1      43.580  23.609  27.486  1.00  0.00     0.135 A 
ATOM     59  C   UNL A   1      43.979  25.585  26.245  1.00  0.00     0.135 A 
ATOM     60  F   UNL A   1      43.073  22.899  28.503  1.00  0.00    -0.206 F 
ATOM     61  C   UNL A   1      44.237  22.851  26.514  1.00  0.00     0.059 A 
ATOM     62  C   UNL A   1      44.646  24.848  25.261  1.00  0.00     0.059 A 
ATOM     63  F   UNL A   1      43.869  26.882  25.957  1.00  0.00    -0.206 F 
ATOM     64  C   UNL A   1      44.775  23.480  25.405  1.00  0.00     0.060 A 
BRANCH  64  65
ATOM     65  S   UNL A   1      45.596  22.487  24.150  1.00  0.00     0.124 S 
ATOM     66  O   UNL A   1      46.002  21.308  24.909  1.00  0.00    -0.237 OA
ATOM     67  O   UNL A   1      44.528  22.280  23.176  1.00  0.00    -0.237 OA
ATOM     68  O   UNL A   1      46.692  23.341  23.699  1.00  0.00    -0.744 OA
ENDBRANCH  64  65
ENDBRANCH  43  57
BRANCH  44  69
ATOM     69  C   UNL A   1      40.099  31.556  34.133  1.00  0.00     0.058 A 
ATOM     70  C   UNL A   1      39.123  30.601  34.497  1.00  0.00     0.135 A 
ATOM     71  C   UNL A   1      40.076  32.781  34.821  1.00  0.00     0.135 A 
ATOM     72  F   UNL A   1      39.087  29.412  33.871  1.00  0.00    -0.206 F 
ATOM     73  C   UNL A   1      38.285  30.779  35.601  1.00  0.00     0.059 A 
ATOM     74  C   UNL A   1      39.267  32.964  35.950  1.00  0.00     0.059 A 
ATOM     75  F   UNL A   1      40.967  33.736  34.520  1.00  0.00    -0.206 F 
ATOM     76  C   UNL A   1      38.412  31.938  36.364  1.00  0.00     0.060 A 
BRANCH  76  77
ATOM     77  S   UNL A   1      37.662  31.988  38.022  1.00  0.00     0.124 S 
ATOM     78  O   UNL A   1      38.792  32.376  38.856  1.00  0.00    -0.237 OA
ATOM     79  O   UNL A   1      36.612  32.998  37.882  1.00  0.00    -0.237 OA
ATOM     80  O   UNL A   1      37.170  30.626  38.197  1.00  0.00    -0.744 OA
ENDBRANCH  76  77
ENDBRANCH  44  69
BRANCH  56  81
ATOM     81  C   UNL A   1      44.387  25.714  33.922  1.00  0.00     0.058 A 
ATOM     82  C   UNL A   1      43.568  24.804  34.610  1.00  0.00     0.135 A 
ATOM     83  C   UNL A   1      45.741  25.322  33.767  1.00  0.00     0.135 A 
ATOM     84  F   UNL A   1      42.242  24.971  34.699  1.00  0.00    -0.206 F 
ATOM     85  C   UNL A   1      44.074  23.653  35.204  1.00  0.00     0.059 A 
ATOM     86  C   UNL A   1      46.248  24.140  34.288  1.00  0.00     0.059 A 
ATOM     87  F   UNL A   1      46.624  26.064  33.087  1.00  0.00    -0.206 F 
ATOM     88  C   UNL A   1      45.418  23.337  35.049  1.00  0.00     0.060 A 
BRANCH  88  89
ATOM     89  S   UNL A   1      46.064  21.868  35.849  1.00  0.00     0.124 S 
ATOM     90  O   UNL A   1      47.482  21.966  35.518  1.00  0.00    -0.237 OA
ATOM     91  O   UNL A   1      45.725  22.097  37.251  1.00  0.00    -0.237 OA
ATOM     92  O   UNL A   1      45.336  20.781  35.204  1.00  0.00    -0.744 OA
ENDBRANCH  88  89
ENDBRANCH  56  81
ENDBRANCH  30  31
ENDBRANCH  23  25
ENDBRANCH  22  23
ENDBRANCH  21  22
ENDBRANCH   1  21
TORSDOF 18
ENDMDL
MODEL 2
REMARK VINA RESULT:     -10.3      3.194      6.115
REMARK SMILES Cc1cccc(-c2cccc(C(=O)OCCOCCOC(=O)c3ccc(-c4c5nc(c(-c6c(F)cc(S(=O)(=O)[O-])cc6F)c6ccc([nH]6)c(-c6c(F)cc(S(=O)(=O)[O-])cc6F)c6nc(c(-c7c(F)cc(S(=O)(=O)[O-])cc7F)c7ccc4[nH]7)C=C6)C=C5)cc3)c2)c1
REMARK SMILES IDX 18 1 17 2 16 3 15 4 14 5 12 6 13 7 11 8 7 9 8 10 89 11 9 12
REMARK SMILES IDX 10 13 6 14 1 15 2 16 3 17 90 18 4 19 5 20 19 21 20 22 21 23
REMARK SMILES IDX 22 24 23 25 24 26 88 27 25 28 87 29 26 30 27 31 28 32 81 33
REMARK SMILES IDX 29 34 86 35 80 36 82 37 30 38 85 39 79 40 78 41 31 43 65 44
REMARK SMILES IDX 44 45 64 46 45 47 48 48 63 49 83 50 46 51 47 52 62 54 84 55
REMARK SMILES IDX 49 56 32 57 33 58 42 59 34 60 35 61 41 62 43 63 36 64 37 65
REMARK SMILES IDX 38 66 39 67 40 68 66 69 67 70 76 71 68 72 69 73 75 74 77 75
REMARK SMILES IDX 70 76 71 77 72 78 73 79 74 80 50 81 51 82 60 83 52 84 53 85
REMARK SMILES IDX 59 86 61 87 54 88 55 89 56 90 57 91 58 92
REMARK H PARENT 82 42 48 53
REMARK Flexibility Score: inf
ROOT
ATOM      1  C   UNL A   1      32.578  28.964  26.363  1.00  0.00     0.202 C 
ENDROOT
BRANCH   1   2
ATOM      2  O   UNL A   1      32.210  28.971  25.006  1.00  0.00    -0.374 OA
BRANCH   2   3
ATOM      3  C   UNL A   1      33.261  28.959  24.052  1.00  0.00     0.202 C 
BRANCH   3   4
ATOM      4  C   UNL A   1      32.645  28.458  22.777  1.00  0.00     0.261 C 
BRANCH   4   5
ATOM      5  O   UNL A   1      32.215  27.088  22.887  1.00  0.00    -0.460 OA
BRANCH   5   6
ATOM      6  C   UNL A   1      33.044  26.062  22.566  1.00  0.00     0.338 C 
ATOM      7  O   UNL A   1      33.658  25.852  21.549  1.00  0.00    -0.246 OA
BRANCH   6   8
ATOM      8  C   UNL A   1      33.234  25.280  23.802  1.00  0.00     0.060 A 
ATOM      9  C   UNL A   1      34.763  24.047  25.202  1.00  0.00    -0.018 A 
ATOM     10  C   UNL A   1      33.811  24.096  26.237  1.00  0.00     0.009 A 
ATOM     11  C   UNL A   1      34.466  24.652  23.981  1.00  0.00     0.024 A 
ATOM     12  C   UNL A   1      32.567  24.693  26.044  1.00  0.00     0.002 A 
ATOM     13  C   UNL A   1      32.272  25.271  24.819  1.00  0.00     0.016 A 
BRANCH   9  14
ATOM     14  C   UNL A   1      36.012  23.316  25.381  1.00  0.00    -0.018 A 
ATOM     15  C   UNL A   1      37.275  19.808  24.629  1.00  0.00     0.044 C 
ATOM     16  C   UNL A   1      37.243  21.232  25.095  1.00  0.00    -0.051 A 
ATOM     17  C   UNL A   1      38.365  21.828  25.679  1.00  0.00     0.003 A 
ATOM     18  C   UNL A   1      36.076  21.982  24.954  1.00  0.00     0.012 A 
ATOM     19  C   UNL A   1      38.322  23.161  26.094  1.00  0.00     0.001 A 
ATOM     20  C   UNL A   1      37.151  23.905  25.941  1.00  0.00     0.009 A 
ENDBRANCH   9  14
ENDBRANCH   6   8
ENDBRANCH   5   6
ENDBRANCH   4   5
ENDBRANCH   3   4
ENDBRANCH   2   3
ENDBRANCH   1   2
BRANCH   1  21
ATOM     21  C   UNL A   1      32.690  30.376  26.944  1.00  0.00     0.261 C 
BRANCH  21  22
ATOM     22  O   UNL A   1      34.034  30.898  26.833  1.00  0.00    -0.460 OA
BRANCH  22  23
ATOM     23  C   UNL A   1      34.636  31.286  28.000  1.00  0.00     0.338 C 
ATOM     24  O   UNL A   1      34.321  32.287  28.620  1.00  0.00    -0.246 OA
BRANCH  23  25
ATOM     25  C   UNL A   1      35.697  30.313  28.394  1.00  0.00     0.060 A 
ATOM     26  C   UNL A   1      35.816  29.829  29.711  1.00  0.00     0.016 A 
ATOM     27  C   UNL A   1      36.717  30.078  27.484  1.00  0.00     0.016 A 
ATOM     28  C   UNL A   1      37.024  29.249  30.151  1.00  0.00     0.010 A 
ATOM     29  C   UNL A   1      37.936  29.659  27.960  1.00  0.00     0.010 A 
ATOM     30  C   UNL A   1      38.116  29.236  29.288  1.00  0.00    -0.014 A 
BRANCH  30  31
ATOM     31  C   UNL A   1      39.503  28.853  29.590  1.00  0.00     0.031 A 
ATOM     32  C   UNL A   1      39.960  27.521  29.104  1.00  0.00     0.074 A 
ATOM     33  C   UNL A   1      40.437  29.762  29.974  1.00  0.00     0.049 A 
ATOM     34  N   UNL A   1      41.078  26.978  29.437  1.00  0.00    -0.248 NA
ATOM     35  C   UNL A   1      39.167  26.644  28.239  1.00  0.00     0.031 C 
ATOM     36  C   UNL A   1      41.859  29.752  29.619  1.00  0.00     0.029 A 
ATOM     37  N   UNL A   1      40.312  30.949  30.700  1.00  0.00    -0.354 N 
ATOM     38  C   UNL A   1      41.311  25.930  28.573  1.00  0.00     0.074 A 
ATOM     39  C   UNL A   1      40.034  25.668  27.967  1.00  0.00     0.031 C 
ATOM     40  C   UNL A   1      42.508  30.723  30.285  1.00  0.00     0.029 A 
ATOM     41  C   UNL A   1      41.564  31.323  31.209  1.00  0.00     0.049 A 
ATOM     42  H   UNL A   1      39.474  31.447  30.833  1.00  0.00     0.167 HD
ATOM     43  C   UNL A   1      42.600  25.531  28.371  1.00  0.00     0.037 A 
ATOM     44  C   UNL A   1      41.744  31.571  32.536  1.00  0.00     0.037 A 
ATOM     45  C   UNL A   1      43.502  26.345  29.194  1.00  0.00     0.049 A 
ATOM     46  C   UNL A   1      42.662  30.521  33.089  1.00  0.00     0.074 A 
ATOM     47  C   UNL A   1      44.360  27.389  28.890  1.00  0.00     0.029 A 
ATOM     48  N   UNL A   1      43.375  26.331  30.580  1.00  0.00    -0.354 N 
ATOM     49  N   UNL A   1      42.843  29.385  32.477  1.00  0.00    -0.248 NA
ATOM     50  C   UNL A   1      43.501  30.652  34.275  1.00  0.00     0.031 C 
ATOM     51  C   UNL A   1      44.739  28.009  30.110  1.00  0.00     0.029 A 
ATOM     52  C   UNL A   1      44.123  27.337  31.154  1.00  0.00     0.049 A 
ATOM     53  H   UNL A   1      42.824  25.688  31.082  1.00  0.00     0.167 HD
ATOM     54  C   UNL A   1      43.808  28.667  33.103  1.00  0.00     0.074 A 
ATOM     55  C   UNL A   1      44.170  29.481  34.248  1.00  0.00     0.031 C 
ATOM     56  C   UNL A   1      44.218  27.469  32.603  1.00  0.00     0.037 A 
BRANCH  43  57
ATOM     57  C   UNL A   1      43.124  24.598  27.287  1.00  0.00     0.058 A 
ATOM     58  C   UNL A   1      43.266  23.216  27.564  1.00  0.00     0.135 A 
ATOM     59  C   UNL A   1      43.527  24.958  25.984  1.00  0.00     0.135 A 
ATOM     60  F   UNL A   1      42.876  22.688  28.733  1.00  0.00    -0.206 F 
ATOM     61  C   UNL A   1      43.808  22.298  26.662  1.00  0.00     0.059 A 
ATOM     62  C   UNL A   1      44.079  24.059  25.064  1.00  0.00     0.059 A 
ATOM     63  F   UNL A   1      43.388  26.193  25.503  1.00  0.00    -0.206 F 
ATOM     64  C   UNL A   1      44.220  22.729  25.412  1.00  0.00     0.060 A 
BRANCH  64  65
ATOM     65  S   UNL A   1      44.892  21.530  24.252  1.00  0.00     0.124 S 
ATOM     66  O   UNL A   1      44.180  20.312  24.624  1.00  0.00    -0.237 OA
ATOM     67  O   UNL A   1      44.528  22.113  22.965  1.00  0.00    -0.237 OA
ATOM     68  O   UNL A   1      46.322  21.528  24.551  1.00  0.00    -0.744 OA
ENDBRANCH  64  65
ENDBRANCH  43  57
BRANCH  44  69
ATOM     69  C   UNL A   1      40.539  32.200  33.161  1.00  0.00     0.058 A 
ATOM     70  C   UNL A   1      40.228  33.517  32.755  1.00  0.00     0.135 A 
ATOM     71  C   UNL A   1      39.471  31.406  33.612  1.00  0.00     0.135 A 
ATOM     72  F   UNL A   1      41.205  34.330  32.320  1.00  0.00    -0.206 F 
ATOM     73  C   UNL A   1      38.909  33.966  32.635  1.00  0.00     0.059 A 
ATOM     74  C   UNL A   1      38.142  31.826  33.468  1.00  0.00     0.059 A 
ATOM     75  F   UNL A   1      39.696  30.149  34.021  1.00  0.00    -0.206 F 
ATOM     76  C   UNL A   1      37.869  33.087  32.929  1.00  0.00     0.060 A 
BRANCH  76  77
ATOM     77  S   UNL A   1      36.185  33.494  32.366  1.00  0.00     0.124 S 
ATOM     78  O   UNL A   1      35.770  34.489  33.345  1.00  0.00    -0.237 OA
ATOM     79  O   UNL A   1      36.402  34.002  31.011  1.00  0.00    -0.237 OA
ATOM     80  O   UNL A   1      35.504  32.206  32.426  1.00  0.00    -0.744 OA
ENDBRANCH  76  77
ENDBRANCH  44  69
BRANCH  56  81
ATOM     81  C   UNL A   1      44.841  26.370  33.416  1.00  0.00     0.058 A 
ATOM     82  C   UNL A   1      46.222  26.113  33.430  1.00  0.00     0.135 A 
ATOM     83  C   UNL A   1      44.072  25.629  34.348  1.00  0.00     0.135 A 
ATOM     84  F   UNL A   1      47.086  26.843  32.713  1.00  0.00    -0.206 F 
ATOM     85  C   UNL A   1      46.782  25.115  34.220  1.00  0.00     0.059 A 
ATOM     86  C   UNL A   1      44.623  24.682  35.199  1.00  0.00     0.059 A 
ATOM     87  F   UNL A   1      42.751  25.809  34.484  1.00  0.00    -0.206 F 
ATOM     88  C   UNL A   1      45.973  24.396  35.091  1.00  0.00     0.060 A 
BRANCH  88  89
ATOM     89  S   UNL A   1      46.702  23.090  36.078  1.00  0.00     0.124 S 
ATOM     90  O   UNL A   1      47.739  22.598  35.175  1.00  0.00    -0.237 OA
ATOM     91  O   UNL A   1      47.179  23.811  37.255  1.00  0.00    -0.237 OA
ATOM     92  O   UNL A   1      45.588  22.180  36.318  1.00  0.00    -0.744 OA
ENDBRANCH  88  89
ENDBRANCH  56  81
ENDBRANCH  30  31
ENDBRANCH  23  25
ENDBRANCH  22  23
ENDBRANCH  21  22
ENDBRANCH   1  21
TORSDOF 18
ENDMDL
MODEL 3
REMARK VINA RESULT:     -10.2      4.339      7.227
REMARK SMILES Cc1cccc(-c2cccc(C(=O)OCCOCCOC(=O)c3ccc(-c4c5nc(c(-c6c(F)cc(S(=O)(=O)[O-])cc6F)c6ccc([nH]6)c(-c6c(F)cc(S(=O)(=O)[O-])cc6F)c6nc(c(-c7c(F)cc(S(=O)(=O)[O-])cc7F)c7ccc4[nH]7)C=C6)C=C5)cc3)c2)c1
REMARK SMILES IDX 18 1 17 2 16 3 15 4 14 5 12 6 13 7 11 8 7 9 8 10 89 11 9 12
REMARK SMILES IDX 10 13 6 14 1 15 2 16 3 17 90 18 4 19 5 20 19 21 20 22 21 23
REMARK SMILES IDX 22 24 23 25 24 26 88 27 25 28 87 29 26 30 27 31 28 32 81 33
REMARK SMILES IDX 29 34 86 35 80 36 82 37 30 38 85 39 79 40 78 41 31 43 65 44
REMARK SMILES IDX 44 45 64 46 45 47 48 48 63 49 83 50 46 51 47 52 62 54 84 55
REMARK SMILES IDX 49 56 32 57 33 58 42 59 34 60 35 61 41 62 43 63 36 64 37 65
REMARK SMILES IDX 38 66 39 67 40 68 66 69 67 70 76 71 68 72 69 73 75 74 77 75
REMARK SMILES IDX 70 76 71 77 72 78 73 79 74 80 50 81 51 82 60 83 52 84 53 85
REMARK SMILES IDX 59 86 61 87 54 88 55 89 56 90 57 91 58 92
REMARK H PARENT 82 42 48 53
REMARK Flexibility Score: inf
ROOT
ATOM      1  C   UNL A   1      31.851  29.112  26.347  1.00  0.00     0.202 C 
ENDROOT
BRANCH   1   2
ATOM      2  O   UNL A   1      31.967  27.710  26.363  1.00  0.00    -0.374 OA
BRANCH   2   3
ATOM      3  C   UNL A   1      31.082  26.981  25.526  1.00  0.00     0.202 C 
BRANCH   3   4
ATOM      4  C   UNL A   1      31.930  25.944  24.846  1.00  0.00     0.261 C 
BRANCH   4   5
ATOM      5  O   UNL A   1      31.434  24.610  25.070  1.00  0.00    -0.460 OA
BRANCH   5   6
ATOM      6  C   UNL A   1      31.574  24.000  26.275  1.00  0.00     0.338 C 
ATOM      7  O   UNL A   1      30.861  24.036  27.248  1.00  0.00    -0.246 OA
BRANCH   6   8
ATOM      8  C   UNL A   1      32.716  23.077  26.143  1.00  0.00     0.060 A 
ATOM      9  C   UNL A   1      33.603  21.088  25.105  1.00  0.00    -0.018 A 
ATOM     10  C   UNL A   1      34.886  21.467  25.540  1.00  0.00     0.009 A 
ATOM     11  C   UNL A   1      32.517  21.909  25.408  1.00  0.00     0.024 A 
ATOM     12  C   UNL A   1      35.078  22.616  26.304  1.00  0.00     0.002 A 
ATOM     13  C   UNL A   1      33.989  23.413  26.621  1.00  0.00     0.016 A 
BRANCH   9  14
ATOM     14  C   UNL A   1      33.402  19.823  24.408  1.00  0.00    -0.018 A 
ATOM     15  C   UNL A   1      34.847  16.312  24.615  1.00  0.00     0.044 C 
ATOM     16  C   UNL A   1      34.015  17.476  24.173  1.00  0.00    -0.051 A 
ATOM     17  C   UNL A   1      33.089  17.351  23.132  1.00  0.00     0.003 A 
ATOM     18  C   UNL A   1      34.164  18.713  24.799  1.00  0.00     0.012 A 
ATOM     19  C   UNL A   1      32.310  18.443  22.742  1.00  0.00     0.001 A 
ATOM     20  C   UNL A   1      32.462  19.675  23.382  1.00  0.00     0.009 A 
ENDBRANCH   9  14
ENDBRANCH   6   8
ENDBRANCH   5   6
ENDBRANCH   4   5
ENDBRANCH   3   4
ENDBRANCH   2   3
ENDBRANCH   1   2
BRANCH   1  21
ATOM     21  C   UNL A   1      33.211  29.809  26.417  1.00  0.00     0.261 C 
BRANCH  21  22
ATOM     22  O   UNL A   1      33.330  30.640  27.595  1.00  0.00    -0.460 OA
BRANCH  22  23
ATOM     23  C   UNL A   1      34.520  31.296  27.762  1.00  0.00     0.338 C 
ATOM     24  O   UNL A   1      34.659  32.495  27.597  1.00  0.00    -0.246 OA
BRANCH  23  25
ATOM     25  C   UNL A   1      35.590  30.343  28.182  1.00  0.00     0.060 A 
ATOM     26  C   UNL A   1      35.703  29.883  29.508  1.00  0.00     0.016 A 
ATOM     27  C   UNL A   1      36.623  30.107  27.286  1.00  0.00     0.016 A 
ATOM     28  C   UNL A   1      36.914  29.326  29.970  1.00  0.00     0.010 A 
ATOM     29  C   UNL A   1      37.843  29.713  27.781  1.00  0.00     0.010 A 
ATOM     30  C   UNL A   1      38.015  29.314  29.118  1.00  0.00    -0.014 A 
BRANCH  30  31
ATOM     31  C   UNL A   1      39.404  28.956  29.439  1.00  0.00     0.031 A 
ATOM     32  C   UNL A   1      39.878  27.615  28.995  1.00  0.00     0.074 A 
ATOM     33  C   UNL A   1      40.325  29.885  29.803  1.00  0.00     0.049 A 
ATOM     34  N   UNL A   1      41.000  27.094  29.350  1.00  0.00    -0.248 NA
ATOM     35  C   UNL A   1      39.101  26.705  28.150  1.00  0.00     0.031 C 
ATOM     36  C   UNL A   1      41.750  29.881  29.458  1.00  0.00     0.029 A 
ATOM     37  N   UNL A   1      40.183  31.090  30.494  1.00  0.00    -0.354 N 
ATOM     38  C   UNL A   1      41.250  26.024  28.517  1.00  0.00     0.074 A 
ATOM     39  C   UNL A   1      39.981  25.731  27.911  1.00  0.00     0.031 C 
ATOM     40  C   UNL A   1      42.383  30.877  30.100  1.00  0.00     0.029 A 
ATOM     41  C   UNL A   1      41.428  31.493  31.000  1.00  0.00     0.049 A 
ATOM     42  H   UNL A   1      39.338  31.583  30.607  1.00  0.00     0.167 HD
ATOM     43  C   UNL A   1      42.544  25.634  28.336  1.00  0.00     0.037 A 
ATOM     44  C   UNL A   1      41.596  31.781  32.321  1.00  0.00     0.037 A 
ATOM     45  C   UNL A   1      43.433  26.481  29.141  1.00  0.00     0.049 A 
ATOM     46  C   UNL A   1      42.521  30.757  32.910  1.00  0.00     0.074 A 
ATOM     47  C   UNL A   1      44.281  27.526  28.813  1.00  0.00     0.029 A 
ATOM     48  N   UNL A   1      43.296  26.505  30.525  1.00  0.00    -0.354 N 
ATOM     49  N   UNL A   1      42.718  29.606  32.332  1.00  0.00    -0.248 NA
ATOM     50  C   UNL A   1      43.351  30.931  34.096  1.00  0.00     0.031 C 
ATOM     51  C   UNL A   1      44.646  28.185  30.017  1.00  0.00     0.029 A 
ATOM     52  C   UNL A   1      44.030  27.535  31.076  1.00  0.00     0.049 A 
ATOM     53  H   UNL A   1      42.749  25.871  31.042  1.00  0.00     0.167 HD
ATOM     54  C   UNL A   1      43.687  28.917  32.984  1.00  0.00     0.074 A 
ATOM     55  C   UNL A   1      44.032  29.767  34.108  1.00  0.00     0.031 C 
ATOM     56  C   UNL A   1      44.113  27.709  32.521  1.00  0.00     0.037 A 
BRANCH  43  57
ATOM     57  C   UNL A   1      43.086  24.676  27.282  1.00  0.00     0.058 A 
ATOM     58  C   UNL A   1      43.026  23.279  27.512  1.00  0.00     0.135 A 
ATOM     59  C   UNL A   1      43.691  25.023  26.055  1.00  0.00     0.135 A 
ATOM     60  F   UNL A   1      42.431  22.770  28.599  1.00  0.00    -0.206 F 
ATOM     61  C   UNL A   1      43.564  22.329  26.641  1.00  0.00     0.059 A 
ATOM     62  C   UNL A   1      44.242  24.090  25.170  1.00  0.00     0.059 A 
ATOM     63  F   UNL A   1      43.762  26.280  25.618  1.00  0.00    -0.206 F 
ATOM     64  C   UNL A   1      44.179  22.743  25.472  1.00  0.00     0.060 A 
BRANCH  64  65
ATOM     65  S   UNL A   1      44.844  21.506  24.349  1.00  0.00     0.124 S 
ATOM     66  O   UNL A   1      44.082  20.317  24.717  1.00  0.00    -0.237 OA
ATOM     67  O   UNL A   1      44.536  22.081  23.043  1.00  0.00    -0.237 OA
ATOM     68  O   UNL A   1      46.265  21.462  24.689  1.00  0.00    -0.744 OA
ENDBRANCH  64  65
ENDBRANCH  43  57
BRANCH  44  69
ATOM     69  C   UNL A   1      40.380  32.414  32.919  1.00  0.00     0.058 A 
ATOM     70  C   UNL A   1      40.071  33.725  32.493  1.00  0.00     0.135 A 
ATOM     71  C   UNL A   1      39.307  31.623  33.365  1.00  0.00     0.135 A 
ATOM     72  F   UNL A   1      41.053  34.535  32.063  1.00  0.00    -0.206 F 
ATOM     73  C   UNL A   1      38.754  34.169  32.347  1.00  0.00     0.059 A 
ATOM     74  C   UNL A   1      37.980  32.037  33.195  1.00  0.00     0.059 A 
ATOM     75  F   UNL A   1      39.529  30.371  33.792  1.00  0.00    -0.206 F 
ATOM     76  C   UNL A   1      37.711  33.291  32.637  1.00  0.00     0.060 A 
BRANCH  76  77
ATOM     77  S   UNL A   1      36.035  33.686  32.044  1.00  0.00     0.124 S 
ATOM     78  O   UNL A   1      36.242  33.804  30.607  1.00  0.00    -0.237 OA
ATOM     79  O   UNL A   1      35.250  32.527  32.469  1.00  0.00    -0.237 OA
ATOM     80  O   UNL A   1      35.723  34.921  32.754  1.00  0.00    -0.744 OA
ENDBRANCH  76  77
ENDBRANCH  44  69
BRANCH  56  81
ATOM     81  C   UNL A   1      44.742  26.641  33.369  1.00  0.00     0.058 A 
ATOM     82  C   UNL A   1      43.998  25.732  34.139  1.00  0.00     0.135 A 
ATOM     83  C   UNL A   1      46.136  26.391  33.306  1.00  0.00     0.135 A 
ATOM     84  F   UNL A   1      42.659  25.756  34.165  1.00  0.00    -0.206 F 
ATOM     85  C   UNL A   1      44.600  24.726  34.886  1.00  0.00     0.059 A 
ATOM     86  C   UNL A   1      46.747  25.345  33.983  1.00  0.00     0.059 A 
ATOM     87  F   UNL A   1      46.962  27.142  32.566  1.00  0.00    -0.206 F 
ATOM     88  C   UNL A   1      45.976  24.549  34.812  1.00  0.00     0.060 A 
BRANCH  88  89
ATOM     89  S   UNL A   1      46.743  23.269  35.807  1.00  0.00     0.124 S 
ATOM     90  O   UNL A   1      47.117  22.300  34.781  1.00  0.00    -0.237 OA
ATOM     91  O   UNL A   1      47.851  23.981  36.438  1.00  0.00    -0.237 OA
ATOM     92  O   UNL A   1      45.676  22.855  36.711  1.00  0.00    -0.744 OA
ENDBRANCH  88  89
ENDBRANCH  56  81
ENDBRANCH  30  31
ENDBRANCH  23  25
ENDBRANCH  22  23
ENDBRANCH  21  22
ENDBRANCH   1  21
TORSDOF 18
ENDMDL
