MODEL 1
REMARK VINA RESULT:     -11.0      0.000      0.000
REMARK SMILES Cc1cc(C)n(CCC(=O)N[C@@H](C(=O)OCCOCCOC(=O)c2ccc(-c3c4nc(c(-c5c(F)cc(S(=O)(=O)[O-])cc5F)c5ccc([nH]5)c(-c5c(F)cc(S(=O)(=O)[O-])cc5F)c5nc(c(-c6c(F)cc(S(=O)(=O)[O-])cc6F)c6ccc3[nH]6)C=C5)C=C4)cc2)[C@@H](C)O)n1
REMARK SMILES IDX 17 1 16 2 15 3 13 4 14 5 12 6 11 7 9 8 10 9 8 11 7 12 6 13
REMARK SMILES IDX 1 14 2 15 3 16 93 17 4 18 5 19 90 20 91 21 92 22 18 24 19 25
REMARK SMILES IDX 20 26 21 27 22 28 23 29 24 30 25 31 89 32 26 33 88 34 27 35
REMARK SMILES IDX 28 36 29 37 82 38 30 39 87 40 81 41 83 42 31 43 86 44 80 45
REMARK SMILES IDX 79 46 32 48 66 49 45 50 65 51 46 52 49 53 64 54 84 55 47 56
REMARK SMILES IDX 48 57 63 59 85 60 50 61 33 62 34 63 43 64 35 65 36 66 42 67
REMARK SMILES IDX 44 68 37 69 38 70 39 71 40 72 41 73 67 74 68 75 77 76 69 77
REMARK SMILES IDX 70 78 76 79 78 80 71 81 72 82 73 83 74 84 75 85 51 86 52 87
REMARK SMILES IDX 61 88 53 89 54 90 60 91 62 92 55 93 56 94 57 95 58 96 59 97
REMARK H PARENT 11 10 92 23 83 47 49 58
REMARK Flexibility Score: inf
ROOT
ATOM      1  C   UNL A   1      37.624  22.002  25.043  1.00  0.00     0.202 C 
ENDROOT
BRANCH   1   2
ATOM      2  C   UNL A   1      36.182  22.425  25.320  1.00  0.00     0.261 C 
BRANCH   2   3
ATOM      3  O   UNL A   1      35.166  21.405  25.235  1.00  0.00    -0.462 OA
BRANCH   3   4
ATOM      4  C   UNL A   1      34.196  21.484  26.192  1.00  0.00     0.331 C 
ATOM      5  O   UNL A   1      34.425  21.562  27.399  1.00  0.00    -0.250 OA
BRANCH   4   6
ATOM      6  C   UNL A   1      32.750  21.410  25.659  1.00  0.00     0.221 C 
BRANCH   6   7
ATOM      7  N   UNL A   1      31.730  21.913  26.582  1.00  0.00    -0.341 N 
ATOM      8  C   UNL A   1      30.995  23.059  26.492  1.00  0.00     0.222 C 
ATOM      9  O   UNL A   1      30.248  23.354  27.425  1.00  0.00    -0.275 OA
ATOM     10  H   UNL A   1      31.552  21.352  27.371  1.00  0.00     0.164 HD
BRANCH   8  11
ATOM     11  C   UNL A   1      31.132  23.977  25.296  1.00  0.00     0.123 C 
BRANCH  11  12
ATOM     12  C   UNL A   1      31.548  25.373  25.740  1.00  0.00     0.154 C 
BRANCH  12  13
ATOM     13  N   UNL A   1      31.561  26.336  24.652  1.00  0.00    -0.269 N 
ATOM     14  C   UNL A   1      29.708  28.658  22.722  1.00  0.00     0.069 C 
ATOM     15  C   UNL A   1      30.747  27.815  23.364  1.00  0.00     0.060 A 
ATOM     16  C   UNL A   1      32.050  27.549  22.900  1.00  0.00     0.048 A 
ATOM     17  N   UNL A   1      30.468  27.108  24.464  1.00  0.00    -0.178 NA
ATOM     18  C   UNL A   1      32.506  26.501  23.671  1.00  0.00     0.036 A 
ATOM     19  C   UNL A   1      33.690  25.624  23.483  1.00  0.00     0.066 C 
ENDBRANCH  12  13
ENDBRANCH  11  12
ENDBRANCH   8  11
ENDBRANCH   6   7
BRANCH   6  20
ATOM     20  C   UNL A   1      32.465  19.975  25.150  1.00  0.00     0.145 C 
ATOM     21  C   UNL A   1      32.472  19.866  23.628  1.00  0.00     0.041 C 
BRANCH  20  22
ATOM     22  O   UNL A   1      33.472  19.040  25.576  1.00  0.00    -0.391 OA
ATOM     23  H   UNL A   1      34.281  19.521  25.810  1.00  0.00     0.211 HD
ENDBRANCH  20  22
ENDBRANCH   6  20
ENDBRANCH   4   6
ENDBRANCH   3   4
ENDBRANCH   2   3
ENDBRANCH   1   2
BRANCH   1  24
ATOM     24  O   UNL A   1      38.519  21.778  26.123  1.00  0.00    -0.374 OA
BRANCH  24  25
ATOM     25  C   UNL A   1      39.644  20.928  25.953  1.00  0.00     0.202 C 
BRANCH  25  26
ATOM     26  C   UNL A   1      40.877  21.129  26.832  1.00  0.00     0.261 C 
BRANCH  26  27
ATOM     27  O   UNL A   1      40.950  22.423  27.407  1.00  0.00    -0.460 OA
BRANCH  27  28
ATOM     28  C   UNL A   1      41.360  23.366  26.533  1.00  0.00     0.338 C 
ATOM     29  O   UNL A   1      42.330  23.294  25.777  1.00  0.00    -0.246 OA
BRANCH  28  30
ATOM     30  C   UNL A   1      40.524  24.563  26.651  1.00  0.00     0.060 A 
ATOM     31  C   UNL A   1      41.011  25.689  25.981  1.00  0.00     0.016 A 
ATOM     32  C   UNL A   1      39.646  24.657  27.740  1.00  0.00     0.016 A 
ATOM     33  C   UNL A   1      40.942  26.893  26.634  1.00  0.00     0.010 A 
ATOM     34  C   UNL A   1      39.572  25.862  28.389  1.00  0.00     0.010 A 
ATOM     35  C   UNL A   1      40.350  26.910  27.897  1.00  0.00    -0.014 A 
BRANCH  35  36
ATOM     36  C   UNL A   1      40.715  27.996  28.781  1.00  0.00     0.031 A 
ATOM     37  C   UNL A   1      41.888  28.771  28.339  1.00  0.00     0.074 A 
ATOM     38  C   UNL A   1      39.923  28.306  29.828  1.00  0.00     0.049 A 
ATOM     39  N   UNL A   1      43.007  28.969  28.953  1.00  0.00    -0.248 NA
ATOM     40  C   UNL A   1      41.850  29.284  26.960  1.00  0.00     0.031 C 
ATOM     41  C   UNL A   1      38.588  27.771  30.134  1.00  0.00     0.029 A 
ATOM     42  N   UNL A   1      40.078  29.277  30.763  1.00  0.00    -0.354 N 
ATOM     43  C   UNL A   1      43.724  29.824  28.124  1.00  0.00     0.074 A 
ATOM     44  C   UNL A   1      43.060  29.824  26.846  1.00  0.00     0.031 C 
ATOM     45  C   UNL A   1      37.970  28.599  31.004  1.00  0.00     0.029 A 
ATOM     46  C   UNL A   1      38.898  29.647  31.392  1.00  0.00     0.049 A 
ATOM     47  H   UNL A   1      40.949  29.683  30.976  1.00  0.00     0.167 HD
ATOM     48  C   UNL A   1      44.647  30.693  28.610  1.00  0.00     0.037 A 
ATOM     49  C   UNL A   1      38.682  30.807  32.059  1.00  0.00     0.037 A 
ATOM     50  C   UNL A   1      45.115  30.322  29.918  1.00  0.00     0.049 A 
ATOM     51  C   UNL A   1      40.018  31.383  32.385  1.00  0.00     0.074 A 
ATOM     52  C   UNL A   1      45.734  29.202  30.437  1.00  0.00     0.029 A 
ATOM     53  N   UNL A   1      44.648  31.027  31.001  1.00  0.00    -0.354 N 
ATOM     54  N   UNL A   1      40.876  30.837  33.204  1.00  0.00    -0.248 NA
ATOM     55  C   UNL A   1      40.583  32.348  31.452  1.00  0.00     0.031 C 
ATOM     56  C   UNL A   1      45.201  29.055  31.750  1.00  0.00     0.029 A 
ATOM     57  C   UNL A   1      44.310  30.108  31.965  1.00  0.00     0.049 A 
ATOM     58  H   UNL A   1      44.570  32.005  31.073  1.00  0.00     0.167 HD
ATOM     59  C   UNL A   1      42.123  31.080  32.641  1.00  0.00     0.074 A 
ATOM     60  C   UNL A   1      41.883  32.091  31.616  1.00  0.00     0.031 C 
ATOM     61  C   UNL A   1      43.181  30.244  32.860  1.00  0.00     0.037 A 
BRANCH  48  62
ATOM     62  C   UNL A   1      44.831  32.063  28.022  1.00  0.00     0.058 A 
ATOM     63  C   UNL A   1      46.040  32.403  27.394  1.00  0.00     0.135 A 
ATOM     64  C   UNL A   1      43.944  33.136  28.282  1.00  0.00     0.135 A 
ATOM     65  F   UNL A   1      46.962  31.462  27.138  1.00  0.00    -0.206 F 
ATOM     66  C   UNL A   1      46.362  33.724  27.081  1.00  0.00     0.059 A 
ATOM     67  C   UNL A   1      44.215  34.445  27.919  1.00  0.00     0.059 A 
ATOM     68  F   UNL A   1      42.818  32.972  28.990  1.00  0.00    -0.206 F 
ATOM     69  C   UNL A   1      45.446  34.737  27.360  1.00  0.00     0.060 A 
BRANCH  69  70
ATOM     70  S   UNL A   1      45.904  36.454  27.076  1.00  0.00     0.124 S 
ATOM     71  O   UNL A   1      46.673  36.747  28.280  1.00  0.00    -0.237 OA
ATOM     72  O   UNL A   1      46.665  36.367  25.834  1.00  0.00    -0.237 OA
ATOM     73  O   UNL A   1      44.615  37.130  26.967  1.00  0.00    -0.744 OA
ENDBRANCH  69  70
ENDBRANCH  48  62
BRANCH  49  74
ATOM     74  C   UNL A   1      37.430  31.613  32.039  1.00  0.00     0.058 A 
ATOM     75  C   UNL A   1      36.788  32.001  33.227  1.00  0.00     0.135 A 
ATOM     76  C   UNL A   1      36.963  32.230  30.856  1.00  0.00     0.135 A 
ATOM     77  F   UNL A   1      37.190  31.498  34.404  1.00  0.00    -0.206 F 
ATOM     78  C   UNL A   1      35.763  32.957  33.244  1.00  0.00     0.059 A 
ATOM     79  C   UNL A   1      35.933  33.166  30.846  1.00  0.00     0.059 A 
ATOM     80  F   UNL A   1      37.556  32.007  29.674  1.00  0.00    -0.206 F 
ATOM     81  C   UNL A   1      35.350  33.543  32.047  1.00  0.00     0.060 A 
BRANCH  81  82
ATOM     82  S   UNL A   1      34.128  34.874  32.074  1.00  0.00     0.124 S 
ATOM     83  O   UNL A   1      33.044  34.273  32.843  1.00  0.00    -0.237 OA
ATOM     84  O   UNL A   1      34.859  35.949  32.734  1.00  0.00    -0.237 OA
ATOM     85  O   UNL A   1      33.838  35.098  30.659  1.00  0.00    -0.744 OA
ENDBRANCH  81  82
ENDBRANCH  49  74
BRANCH  61  86
ATOM     86  C   UNL A   1      43.047  29.197  33.938  1.00  0.00     0.058 A 
ATOM     87  C   UNL A   1      43.293  29.448  35.300  1.00  0.00     0.135 A 
ATOM     88  C   UNL A   1      42.481  27.956  33.611  1.00  0.00     0.135 A 
ATOM     89  F   UNL A   1      43.725  30.648  35.708  1.00  0.00    -0.206 F 
ATOM     90  C   UNL A   1      43.028  28.498  36.287  1.00  0.00     0.059 A 
ATOM     91  C   UNL A   1      42.179  27.003  34.583  1.00  0.00     0.059 A 
ATOM     92  F   UNL A   1      42.156  27.680  32.337  1.00  0.00    -0.206 F 
ATOM     93  C   UNL A   1      42.465  27.277  35.919  1.00  0.00     0.060 A 
BRANCH  93  94
ATOM     94  S   UNL A   1      42.024  26.094  37.210  1.00  0.00     0.124 S 
ATOM     95  O   UNL A   1      42.988  26.409  38.259  1.00  0.00    -0.237 OA
ATOM     96  O   UNL A   1      40.636  26.442  37.502  1.00  0.00    -0.237 OA
ATOM     97  O   UNL A   1      42.207  24.798  36.562  1.00  0.00    -0.744 OA
ENDBRANCH  93  94
ENDBRANCH  61  86
ENDBRANCH  35  36
ENDBRANCH  28  30
ENDBRANCH  27  28
ENDBRANCH  26  27
ENDBRANCH  25  26
ENDBRANCH  24  25
ENDBRANCH   1  24
TORSDOF 23
ENDMDL
MODEL 2
REMARK VINA RESULT:     -11.0      2.179      4.021
REMARK SMILES Cc1cc(C)n(CCC(=O)N[C@@H](C(=O)OCCOCCOC(=O)c2ccc(-c3c4nc(c(-c5c(F)cc(S(=O)(=O)[O-])cc5F)c5ccc([nH]5)c(-c5c(F)cc(S(=O)(=O)[O-])cc5F)c5nc(c(-c6c(F)cc(S(=O)(=O)[O-])cc6F)c6ccc3[nH]6)C=C5)C=C4)cc2)[C@@H](C)O)n1
REMARK SMILES IDX 17 1 16 2 15 3 13 4 14 5 12 6 11 7 9 8 10 9 8 11 7 12 6 13
REMARK SMILES IDX 1 14 2 15 3 16 93 17 4 18 5 19 90 20 91 21 92 22 18 24 19 25
REMARK SMILES IDX 20 26 21 27 22 28 23 29 24 30 25 31 89 32 26 33 88 34 27 35
REMARK SMILES IDX 28 36 29 37 82 38 30 39 87 40 81 41 83 42 31 43 86 44 80 45
REMARK SMILES IDX 79 46 32 48 66 49 45 50 65 51 46 52 49 53 64 54 84 55 47 56
REMARK SMILES IDX 48 57 63 59 85 60 50 61 33 62 34 63 43 64 35 65 36 66 42 67
REMARK SMILES IDX 44 68 37 69 38 70 39 71 40 72 41 73 67 74 68 75 77 76 69 77
REMARK SMILES IDX 70 78 76 79 78 80 71 81 72 82 73 83 74 84 75 85 51 86 52 87
REMARK SMILES IDX 61 88 53 89 54 90 60 91 62 92 55 93 56 94 57 95 58 96 59 97
REMARK H PARENT 11 10 92 23 83 47 49 58
REMARK Flexibility Score: inf
ROOT
ATOM      1  C   UNL A   1      36.156  23.224  25.739  1.00  0.00     0.202 C 
ENDROOT
BRANCH   1   2
ATOM      2  C   UNL A   1      34.831  23.979  25.843  1.00  0.00     0.261 C 
BRANCH   2   3
ATOM      3  O   UNL A   1      34.586  25.020  24.876  1.00  0.00    -0.462 OA
BRANCH   3   4
ATOM      4  C   UNL A   1      33.916  24.616  23.758  1.00  0.00     0.331 C 
ATOM      5  O   UNL A   1      34.327  24.786  22.611  1.00  0.00    -0.250 OA
BRANCH   4   6
ATOM      6  C   UNL A   1      32.543  23.963  24.023  1.00  0.00     0.221 C 
BRANCH   6   7
ATOM      7  N   UNL A   1      32.084  23.053  22.972  1.00  0.00    -0.341 N 
ATOM      8  C   UNL A   1      32.351  21.724  22.823  1.00  0.00     0.222 C 
ATOM      9  O   UNL A   1      31.944  21.150  21.813  1.00  0.00    -0.275 OA
ATOM     10  H   UNL A   1      31.507  23.452  22.281  1.00  0.00     0.164 HD
BRANCH   8  11
ATOM     11  C   UNL A   1      33.176  20.978  23.851  1.00  0.00     0.123 C 
BRANCH  11  12
ATOM     12  C   UNL A   1      32.368  19.842  24.461  1.00  0.00     0.154 C 
BRANCH  12  13
ATOM     13  N   UNL A   1      32.974  18.537  24.253  1.00  0.00    -0.269 N 
ATOM     14  C   UNL A   1      35.394  16.184  25.327  1.00  0.00     0.069 C 
ATOM     15  C   UNL A   1      34.279  16.917  24.678  1.00  0.00     0.060 A 
ATOM     16  C   UNL A   1      33.632  16.605  23.467  1.00  0.00     0.048 A 
ATOM     17  N   UNL A   1      33.839  18.075  25.182  1.00  0.00    -0.178 NA
ATOM     18  C   UNL A   1      32.889  17.724  23.151  1.00  0.00     0.036 A 
ATOM     19  C   UNL A   1      32.211  18.090  21.881  1.00  0.00     0.066 C 
ENDBRANCH  12  13
ENDBRANCH  11  12
ENDBRANCH   8  11
ENDBRANCH   6   7
BRANCH   6  20
ATOM     20  C   UNL A   1      31.513  25.065  24.376  1.00  0.00     0.145 C 
ATOM     21  C   UNL A   1      30.822  24.832  25.717  1.00  0.00     0.041 C 
BRANCH  20  22
ATOM     22  O   UNL A   1      32.129  26.357  24.516  1.00  0.00    -0.391 OA
ATOM     23  H   UNL A   1      32.763  26.492  23.795  1.00  0.00     0.211 HD
ENDBRANCH  20  22
ENDBRANCH   6  20
ENDBRANCH   4   6
ENDBRANCH   3   4
ENDBRANCH   2   3
ENDBRANCH   1   2
BRANCH   1  24
ATOM     24  O   UNL A   1      36.161  21.808  25.629  1.00  0.00    -0.374 OA
BRANCH  24  25
ATOM     25  C   UNL A   1      37.386  21.092  25.692  1.00  0.00     0.202 C 
BRANCH  25  26
ATOM     26  C   UNL A   1      38.707  21.856  25.607  1.00  0.00     0.261 C 
BRANCH  26  27
ATOM     27  O   UNL A   1      39.212  22.244  26.874  1.00  0.00    -0.460 OA
BRANCH  27  28
ATOM     28  C   UNL A   1      40.407  21.685  27.159  1.00  0.00     0.338 C 
ATOM     29  O   UNL A   1      40.601  20.555  27.607  1.00  0.00    -0.246 OA
BRANCH  28  30
ATOM     30  C   UNL A   1      41.485  22.652  26.931  1.00  0.00     0.060 A 
ATOM     31  C   UNL A   1      42.441  22.716  27.949  1.00  0.00     0.016 A 
ATOM     32  C   UNL A   1      41.248  23.717  26.052  1.00  0.00     0.016 A 
ATOM     33  C   UNL A   1      42.869  23.960  28.335  1.00  0.00     0.010 A 
ATOM     34  C   UNL A   1      41.681  24.960  26.436  1.00  0.00     0.010 A 
ATOM     35  C   UNL A   1      42.354  25.063  27.654  1.00  0.00    -0.014 A 
BRANCH  35  36
ATOM     36  C   UNL A   1      42.378  26.334  28.343  1.00  0.00     0.031 A 
ATOM     37  C   UNL A   1      43.548  27.174  28.029  1.00  0.00     0.074 A 
ATOM     38  C   UNL A   1      41.320  26.717  29.088  1.00  0.00     0.049 A 
ATOM     39  N   UNL A   1      44.450  27.641  28.827  1.00  0.00    -0.248 NA
ATOM     40  C   UNL A   1      43.816  27.411  26.601  1.00  0.00     0.031 C 
ATOM     41  C   UNL A   1      40.007  26.062  29.185  1.00  0.00     0.029 A 
ATOM     42  N   UNL A   1      41.140  27.857  29.802  1.00  0.00    -0.354 N 
ATOM     43  C   UNL A   1      45.272  28.420  28.022  1.00  0.00     0.074 A 
ATOM     44  C   UNL A   1      44.959  28.089  26.656  1.00  0.00     0.031 C 
ATOM     45  C   UNL A   1      39.113  26.940  29.689  1.00  0.00     0.029 A 
ATOM     46  C   UNL A   1      39.809  28.164  30.047  1.00  0.00     0.049 A 
ATOM     47  H   UNL A   1      41.887  28.415  30.118  1.00  0.00     0.167 HD
ATOM     48  C   UNL A   1      45.955  29.488  28.510  1.00  0.00     0.037 A 
ATOM     49  C   UNL A   1      39.324  29.384  30.381  1.00  0.00     0.037 A 
ATOM     50  C   UNL A   1      46.107  29.437  29.938  1.00  0.00     0.049 A 
ATOM     51  C   UNL A   1      40.472  30.196  30.874  1.00  0.00     0.074 A 
ATOM     52  C   UNL A   1      46.674  28.532  30.815  1.00  0.00     0.029 A 
ATOM     53  N   UNL A   1      45.315  30.256  30.707  1.00  0.00    -0.354 N 
ATOM     54  N   UNL A   1      41.139  29.940  31.967  1.00  0.00    -0.248 NA
ATOM     55  C   UNL A   1      41.164  31.042  29.912  1.00  0.00     0.031 C 
ATOM     56  C   UNL A   1      45.839  28.557  31.970  1.00  0.00     0.029 A 
ATOM     57  C   UNL A   1      44.829  29.493  31.741  1.00  0.00     0.049 A 
ATOM     58  H   UNL A   1      45.131  31.209  30.546  1.00  0.00     0.167 HD
ATOM     59  C   UNL A   1      42.461  30.251  31.669  1.00  0.00     0.074 A 
ATOM     60  C   UNL A   1      42.398  31.009  30.423  1.00  0.00     0.031 C 
ATOM     61  C   UNL A   1      43.501  29.629  32.301  1.00  0.00     0.037 A 
BRANCH  48  62
ATOM     62  C   UNL A   1      46.155  30.737  27.699  1.00  0.00     0.058 A 
ATOM     63  C   UNL A   1      47.439  31.290  27.562  1.00  0.00     0.135 A 
ATOM     64  C   UNL A   1      45.080  31.549  27.262  1.00  0.00     0.135 A 
ATOM     65  F   UNL A   1      48.519  30.612  27.980  1.00  0.00    -0.206 F 
ATOM     66  C   UNL A   1      47.637  32.577  27.062  1.00  0.00     0.059 A 
ATOM     67  C   UNL A   1      45.261  32.803  26.700  1.00  0.00     0.059 A 
ATOM     68  F   UNL A   1      43.801  31.200  27.456  1.00  0.00    -0.206 F 
ATOM     69  C   UNL A   1      46.539  33.328  26.646  1.00  0.00     0.060 A 
BRANCH  69  70
ATOM     70  S   UNL A   1      46.774  35.032  26.118  1.00  0.00     0.124 S 
ATOM     71  O   UNL A   1      47.513  35.581  27.248  1.00  0.00    -0.237 OA
ATOM     72  O   UNL A   1      47.525  34.868  24.878  1.00  0.00    -0.237 OA
ATOM     73  O   UNL A   1      45.409  35.522  25.955  1.00  0.00    -0.744 OA
ENDBRANCH  69  70
ENDBRANCH  48  62
BRANCH  49  74
ATOM     74  C   UNL A   1      38.048  29.985  29.899  1.00  0.00     0.058 A 
ATOM     75  C   UNL A   1      37.120  30.547  30.791  1.00  0.00     0.135 A 
ATOM     76  C   UNL A   1      37.820  30.241  28.528  1.00  0.00     0.135 A 
ATOM     77  F   UNL A   1      37.277  30.390  32.114  1.00  0.00    -0.206 F 
ATOM     78  C   UNL A   1      36.044  31.331  30.353  1.00  0.00     0.059 A 
ATOM     79  C   UNL A   1      36.747  30.999  28.068  1.00  0.00     0.059 A 
ATOM     80  F   UNL A   1      38.687  29.832  27.589  1.00  0.00    -0.206 F 
ATOM     81  C   UNL A   1      35.873  31.561  28.986  1.00  0.00     0.060 A 
BRANCH  81  82
ATOM     82  S   UNL A   1      34.574  32.682  28.421  1.00  0.00     0.124 S 
ATOM     83  O   UNL A   1      35.318  33.602  27.569  1.00  0.00    -0.237 OA
ATOM     84  O   UNL A   1      33.660  31.775  27.737  1.00  0.00    -0.237 OA
ATOM     85  O   UNL A   1      34.060  33.260  29.662  1.00  0.00    -0.744 OA
ENDBRANCH  81  82
ENDBRANCH  49  74
BRANCH  61  86
ATOM     86  C   UNL A   1      43.195  28.792  33.518  1.00  0.00     0.058 A 
ATOM     87  C   UNL A   1      42.903  29.336  34.781  1.00  0.00     0.135 A 
ATOM     88  C   UNL A   1      43.013  27.410  33.361  1.00  0.00     0.135 A 
ATOM     89  F   UNL A   1      42.940  30.659  34.983  1.00  0.00    -0.206 F 
ATOM     90  C   UNL A   1      42.490  28.541  35.851  1.00  0.00     0.059 A 
ATOM     91  C   UNL A   1      42.572  26.600  34.407  1.00  0.00     0.059 A 
ATOM     92  F   UNL A   1      43.206  26.838  32.161  1.00  0.00    -0.206 F 
ATOM     93  C   UNL A   1      42.321  27.173  35.653  1.00  0.00     0.060 A 
BRANCH  93  94
ATOM     94  S   UNL A   1      41.682  26.165  37.010  1.00  0.00     0.124 S 
ATOM     95  O   UNL A   1      41.363  24.910  36.335  1.00  0.00    -0.237 OA
ATOM     96  O   UNL A   1      42.813  26.116  37.932  1.00  0.00    -0.237 OA
ATOM     97  O   UNL A   1      40.533  26.927  37.489  1.00  0.00    -0.744 OA
ENDBRANCH  93  94
ENDBRANCH  61  86
ENDBRANCH  35  36
ENDBRANCH  28  30
ENDBRANCH  27  28
ENDBRANCH  26  27
ENDBRANCH  25  26
ENDBRANCH  24  25
ENDBRANCH   1  24
TORSDOF 23
ENDMDL
MODEL 3
REMARK VINA RESULT:     -10.9      2.143      2.955
REMARK SMILES Cc1cc(C)n(CCC(=O)N[C@@H](C(=O)OCCOCCOC(=O)c2ccc(-c3c4nc(c(-c5c(F)cc(S(=O)(=O)[O-])cc5F)c5ccc([nH]5)c(-c5c(F)cc(S(=O)(=O)[O-])cc5F)c5nc(c(-c6c(F)cc(S(=O)(=O)[O-])cc6F)c6ccc3[nH]6)C=C5)C=C4)cc2)[C@@H](C)O)n1
REMARK SMILES IDX 17 1 16 2 15 3 13 4 14 5 12 6 11 7 9 8 10 9 8 11 7 12 6 13
REMARK SMILES IDX 1 14 2 15 3 16 93 17 4 18 5 19 90 20 91 21 92 22 18 24 19 25
REMARK SMILES IDX 20 26 21 27 22 28 23 29 24 30 25 31 89 32 26 33 88 34 27 35
REMARK SMILES IDX 28 36 29 37 82 38 30 39 87 40 81 41 83 42 31 43 86 44 80 45
REMARK SMILES IDX 79 46 32 48 66 49 45 50 65 51 46 52 49 53 64 54 84 55 47 56
REMARK SMILES IDX 48 57 63 59 85 60 50 61 33 62 34 63 43 64 35 65 36 66 42 67
REMARK SMILES IDX 44 68 37 69 38 70 39 71 40 72 41 73 67 74 68 75 77 76 69 77
REMARK SMILES IDX 70 78 76 79 78 80 71 81 72 82 73 83 74 84 75 85 51 86 52 87
REMARK SMILES IDX 61 88 53 89 54 90 60 91 62 92 55 93 56 94 57 95 58 96 59 97
REMARK H PARENT 11 10 92 23 83 47 49 58
REMARK Flexibility Score: inf
ROOT
ATOM      1  C   UNL A   1      36.556  23.385  24.452  1.00  0.00     0.202 C 
ENDROOT
BRANCH   1   2
ATOM      2  C   UNL A   1      35.083  23.607  24.791  1.00  0.00     0.261 C 
BRANCH   2   3
ATOM      3  O   UNL A   1      34.720  23.617  26.187  1.00  0.00    -0.462 OA
BRANCH   3   4
ATOM      4  C   UNL A   1      34.165  22.455  26.641  1.00  0.00     0.331 C 
ATOM      5  O   UNL A   1      34.630  21.785  27.562  1.00  0.00    -0.250 OA
BRANCH   4   6
ATOM      6  C   UNL A   1      32.912  21.988  25.870  1.00  0.00     0.221 C 
BRANCH   6   7
ATOM      7  N   UNL A   1      31.646  22.186  26.578  1.00  0.00    -0.341 N 
ATOM      8  C   UNL A   1      30.926  23.335  26.723  1.00  0.00     0.222 C 
ATOM      9  O   UNL A   1      29.925  23.317  27.440  1.00  0.00    -0.275 OA
ATOM     10  H   UNL A   1      31.265  21.386  27.007  1.00  0.00     0.164 HD
BRANCH   8  11
ATOM     11  C   UNL A   1      31.373  24.621  26.060  1.00  0.00     0.123 C 
BRANCH  11  12
ATOM     12  C   UNL A   1      30.173  25.501  25.740  1.00  0.00     0.154 C 
BRANCH  12  13
ATOM     13  N   UNL A   1      30.546  26.807  25.224  1.00  0.00    -0.269 N 
ATOM     14  C   UNL A   1      30.652  28.971  22.421  1.00  0.00     0.069 C 
ATOM     15  C   UNL A   1      30.705  28.340  23.763  1.00  0.00     0.060 A 
ATOM     16  C   UNL A   1      31.388  28.801  24.906  1.00  0.00     0.048 A 
ATOM     17  N   UNL A   1      30.150  27.143  23.977  1.00  0.00    -0.178 NA
ATOM     18  C   UNL A   1      31.378  27.741  25.789  1.00  0.00     0.036 A 
ATOM     19  C   UNL A   1      32.153  27.535  27.039  1.00  0.00     0.066 C 
ENDBRANCH  12  13
ENDBRANCH  11  12
ENDBRANCH   8  11
ENDBRANCH   6   7
BRANCH   6  20
ATOM     20  C   UNL A   1      33.124  20.532  25.385  1.00  0.00     0.145 C 
ATOM     21  C   UNL A   1      32.535  20.269  24.001  1.00  0.00     0.041 C 
BRANCH  20  22
ATOM     22  O   UNL A   1      34.518  20.206  25.243  1.00  0.00    -0.391 OA
ATOM     23  H   UNL A   1      34.726  20.077  24.304  1.00  0.00     0.211 HD
ENDBRANCH  20  22
ENDBRANCH   6  20
ENDBRANCH   4   6
ENDBRANCH   3   4
ENDBRANCH   2   3
ENDBRANCH   1   2
BRANCH   1  24
ATOM     24  O   UNL A   1      37.496  23.151  25.490  1.00  0.00    -0.374 OA
BRANCH  24  25
ATOM     25  C   UNL A   1      38.101  21.873  25.630  1.00  0.00     0.202 C 
BRANCH  25  26
ATOM     26  C   UNL A   1      39.398  21.739  26.427  1.00  0.00     0.261 C 
BRANCH  26  27
ATOM     27  O   UNL A   1      40.525  21.450  25.618  1.00  0.00    -0.460 OA
BRANCH  27  28
ATOM     28  C   UNL A   1      41.632  21.167  26.337  1.00  0.00     0.338 C 
ATOM     29  O   UNL A   1      41.795  20.202  27.085  1.00  0.00    -0.246 OA
BRANCH  28  30
ATOM     30  C   UNL A   1      42.628  22.229  26.170  1.00  0.00     0.060 A 
ATOM     31  C   UNL A   1      43.577  22.309  27.193  1.00  0.00     0.016 A 
ATOM     32  C   UNL A   1      42.305  23.322  25.355  1.00  0.00     0.016 A 
ATOM     33  C   UNL A   1      43.905  23.558  27.654  1.00  0.00     0.010 A 
ATOM     34  C   UNL A   1      42.638  24.570  25.813  1.00  0.00     0.010 A 
ATOM     35  C   UNL A   1      43.302  24.654  27.038  1.00  0.00    -0.014 A 
BRANCH  35  36
ATOM     36  C   UNL A   1      43.225  25.880  27.801  1.00  0.00     0.031 A 
ATOM     37  C   UNL A   1      44.340  26.815  27.564  1.00  0.00     0.074 A 
ATOM     38  C   UNL A   1      42.129  26.145  28.542  1.00  0.00     0.049 A 
ATOM     39  N   UNL A   1      45.191  27.293  28.410  1.00  0.00    -0.248 NA
ATOM     40  C   UNL A   1      44.618  27.156  26.160  1.00  0.00     0.031 C 
ATOM     41  C   UNL A   1      40.862  25.398  28.569  1.00  0.00     0.029 A 
ATOM     42  N   UNL A   1      41.856  27.225  29.318  1.00  0.00    -0.354 N 
ATOM     43  C   UNL A   1      45.973  28.174  27.672  1.00  0.00     0.074 A 
ATOM     44  C   UNL A   1      45.711  27.905  26.282  1.00  0.00     0.031 C 
ATOM     45  C   UNL A   1      39.900  26.181  29.103  1.00  0.00     0.029 A 
ATOM     46  C   UNL A   1      40.503  27.425  29.549  1.00  0.00     0.049 A 
ATOM     47  H   UNL A   1      42.556  27.812  29.683  1.00  0.00     0.167 HD
ATOM     48  C   UNL A   1      46.571  29.253  28.238  1.00  0.00     0.037 A 
ATOM     49  C   UNL A   1      39.927  28.588  29.942  1.00  0.00     0.037 A 
ATOM     50  C   UNL A   1      46.698  29.126  29.664  1.00  0.00     0.049 A 
ATOM     51  C   UNL A   1      41.007  29.444  30.509  1.00  0.00     0.074 A 
ATOM     52  C   UNL A   1      47.309  28.211  30.499  1.00  0.00     0.029 A 
ATOM     53  N   UNL A   1      45.836  29.842  30.460  1.00  0.00    -0.354 N 
ATOM     54  N   UNL A   1      41.669  29.168  31.601  1.00  0.00    -0.248 NA
ATOM     55  C   UNL A   1      41.658  30.392  29.616  1.00  0.00     0.031 C 
ATOM     56  C   UNL A   1      46.453  28.109  31.633  1.00  0.00     0.029 A 
ATOM     57  C   UNL A   1      45.385  28.987  31.436  1.00  0.00     0.049 A 
ATOM     58  H   UNL A   1      45.590  30.788  30.352  1.00  0.00     0.167 HD
ATOM     59  C   UNL A   1      42.972  29.585  31.353  1.00  0.00     0.074 A 
ATOM     60  C   UNL A   1      42.881  30.411  30.153  1.00  0.00     0.031 C 
ATOM     61  C   UNL A   1      44.040  28.999  31.971  1.00  0.00     0.037 A 
BRANCH  48  62
ATOM     62  C   UNL A   1      46.700  30.560  27.507  1.00  0.00     0.058 A 
ATOM     63  C   UNL A   1      47.947  31.201  27.426  1.00  0.00     0.135 A 
ATOM     64  C   UNL A   1      45.581  31.327  27.101  1.00  0.00     0.135 A 
ATOM     65  F   UNL A   1      49.063  30.571  27.821  1.00  0.00    -0.206 F 
ATOM     66  C   UNL A   1      48.068  32.526  27.007  1.00  0.00     0.059 A 
ATOM     67  C   UNL A   1      45.686  32.621  26.618  1.00  0.00     0.059 A 
ATOM     68  F   UNL A   1      44.324  30.885  27.251  1.00  0.00    -0.206 F 
ATOM     69  C   UNL A   1      46.929  33.229  26.618  1.00  0.00     0.060 A 
BRANCH  69  70
ATOM     70  S   UNL A   1      47.059  34.974  26.197  1.00  0.00     0.124 S 
ATOM     71  O   UNL A   1      48.069  35.421  27.148  1.00  0.00    -0.237 OA
ATOM     72  O   UNL A   1      47.472  34.922  24.799  1.00  0.00    -0.237 OA
ATOM     73  O   UNL A   1      45.707  35.475  26.426  1.00  0.00    -0.744 OA
ENDBRANCH  69  70
ENDBRANCH  48  62
BRANCH  49  74
ATOM     74  C   UNL A   1      38.623  29.128  29.467  1.00  0.00     0.058 A 
ATOM     75  C   UNL A   1      37.601  29.473  30.366  1.00  0.00     0.135 A 
ATOM     76  C   UNL A   1      38.438  29.549  28.130  1.00  0.00     0.135 A 
ATOM     77  F   UNL A   1      37.709  29.150  31.663  1.00  0.00    -0.206 F 
ATOM     78  C   UNL A   1      36.474  30.207  29.970  1.00  0.00     0.059 A 
ATOM     79  C   UNL A   1      37.318  30.262  27.710  1.00  0.00     0.059 A 
ATOM     80  F   UNL A   1      39.385  29.357  27.201  1.00  0.00    -0.206 F 
ATOM     81  C   UNL A   1      36.348  30.607  28.639  1.00  0.00     0.060 A 
BRANCH  81  82
ATOM     82  S   UNL A   1      34.972  31.671  28.149  1.00  0.00     0.124 S 
ATOM     83  O   UNL A   1      34.409  32.051  29.439  1.00  0.00    -0.237 OA
ATOM     84  O   UNL A   1      35.650  32.730  27.411  1.00  0.00    -0.237 OA
ATOM     85  O   UNL A   1      34.133  30.789  27.339  1.00  0.00    -0.744 OA
ENDBRANCH  81  82
ENDBRANCH  49  74
BRANCH  61  86
ATOM     86  C   UNL A   1      43.768  28.071  33.129  1.00  0.00     0.058 A 
ATOM     87  C   UNL A   1      43.626  26.678  32.991  1.00  0.00     0.135 A 
ATOM     88  C   UNL A   1      43.834  28.578  34.435  1.00  0.00     0.135 A 
ATOM     89  F   UNL A   1      43.669  26.101  31.784  1.00  0.00    -0.206 F 
ATOM     90  C   UNL A   1      43.512  25.834  34.096  1.00  0.00     0.059 A 
ATOM     91  C   UNL A   1      43.754  27.751  35.554  1.00  0.00     0.059 A 
ATOM     92  F   UNL A   1      44.040  29.890  34.636  1.00  0.00    -0.206 F 
ATOM     93  C   UNL A   1      43.583  26.379  35.376  1.00  0.00     0.060 A 
BRANCH  93  94
ATOM     94  S   UNL A   1      43.545  25.271  36.802  1.00  0.00     0.124 S 
ATOM     95  O   UNL A   1      42.115  25.037  36.972  1.00  0.00    -0.237 OA
ATOM     96  O   UNL A   1      44.322  24.125  36.338  1.00  0.00    -0.237 OA
ATOM     97  O   UNL A   1      44.180  26.053  37.859  1.00  0.00    -0.744 OA
ENDBRANCH  93  94
ENDBRANCH  61  86
ENDBRANCH  35  36
ENDBRANCH  28  30
ENDBRANCH  27  28
ENDBRANCH  26  27
ENDBRANCH  25  26
ENDBRANCH  24  25
ENDBRANCH   1  24
TORSDOF 23
ENDMDL
