MODEL 1
REMARK VINA RESULT:     -11.2      0.000      0.000
REMARK SMILES O=C(NCC(=O)OCCOCCOC(=O)c1ccc(-c2c3nc(c(-c4c(F)cc(S(=O)(=O)[O-])cc4F)c4ccc([nH]4)c(-c4c(F)cc(S(=O)(=O)[O-])cc4F)c4nc(c(-c5c(F)cc(S(=O)(=O)[O-])cc5F)c5ccc2[nH]5)C=C4)C=C3)cc1)Nc1cccc2c1CCCC2
REMARK SMILES IDX 11 1 10 2 9 3 8 4 7 5 5 6 6 7 4 8 3 9 1 10 2 11 82 12 83 15
REMARK SMILES IDX 84 16 88 17 85 18 87 19 89 20 86 21 92 22 90 23 91 24 12 25
REMARK SMILES IDX 13 26 14 27 15 28 16 29 17 30 81 31 18 32 80 33 19 34 20 35
REMARK SMILES IDX 21 36 74 37 22 38 79 39 73 40 75 41 23 42 78 43 72 44 71 45
REMARK SMILES IDX 24 47 58 48 37 49 57 50 38 51 41 52 56 53 76 54 39 55 40 56
REMARK SMILES IDX 55 58 77 59 42 60 25 61 26 62 35 63 27 64 28 65 34 66 36 67
REMARK SMILES IDX 29 68 30 69 31 70 32 71 33 72 59 73 60 74 69 75 61 76 62 77
REMARK SMILES IDX 68 78 70 79 63 80 64 81 65 82 66 83 67 84 43 85 44 86 53 87
REMARK SMILES IDX 45 88 46 89 52 90 54 91 47 92 48 93 49 94 50 95 51 96
REMARK H PARENT 3 13 82 14 75 46 41 57
REMARK Flexibility Score: inf
ROOT
ATOM      1  C   UNL A   1      35.140  33.444  30.934  1.00  0.00     0.202 C 
ENDROOT
BRANCH   1   2
ATOM      2  O   UNL A   1      33.894  33.984  30.500  1.00  0.00    -0.374 OA
BRANCH   2   3
ATOM      3  C   UNL A   1      33.865  34.721  29.280  1.00  0.00     0.202 C 
BRANCH   3   4
ATOM      4  C   UNL A   1      33.923  33.911  27.981  1.00  0.00     0.261 C 
BRANCH   4   5
ATOM      5  O   UNL A   1      33.293  32.627  28.111  1.00  0.00    -0.462 OA
BRANCH   5   6
ATOM      6  C   UNL A   1      33.984  31.569  27.601  1.00  0.00     0.325 C 
ATOM      7  O   UNL A   1      35.183  31.364  27.752  1.00  0.00    -0.250 OA
BRANCH   6   8
ATOM      8  C   UNL A   1      33.064  30.537  26.959  1.00  0.00     0.240 C 
BRANCH   8   9
ATOM      9  N   UNL A   1      33.629  29.849  25.810  1.00  0.00    -0.327 N 
ATOM     10  O   UNL A   1      33.873  28.481  24.100  1.00  0.00    -0.248 OA
ATOM     11  C   UNL A   1      33.124  28.889  24.985  1.00  0.00     0.319 C 
ATOM     12  N   UNL A   1      31.797  28.554  25.160  1.00  0.00    -0.308 N 
ATOM     13  H   UNL A   1      34.546  30.128  25.586  1.00  0.00     0.166 HD
ATOM     14  H   UNL A   1      31.363  28.738  26.025  1.00  0.00     0.171 HD
BRANCH  12  15
ATOM     15  C   UNL A   1      31.043  27.948  24.118  1.00  0.00     0.046 A 
ATOM     16  C   UNL A   1      30.952  26.562  24.203  1.00  0.00     0.026 A 
ATOM     17  C   UNL A   1      30.043  28.635  23.430  1.00  0.00    -0.021 A 
ATOM     18  C   UNL A   1      29.721  25.957  23.952  1.00  0.00     0.002 A 
ATOM     19  C   UNL A   1      28.752  28.105  23.408  1.00  0.00    -0.043 A 
ATOM     20  C   UNL A   1      30.416  29.465  22.205  1.00  0.00     0.038 C 
ATOM     21  C   UNL A   1      28.598  26.745  23.670  1.00  0.00     0.004 A 
ATOM     22  C   UNL A   1      27.603  29.018  23.065  1.00  0.00     0.036 C 
ATOM     23  C   UNL A   1      29.240  30.222  21.571  1.00  0.00     0.005 C 
ATOM     24  C   UNL A   1      28.073  30.382  22.537  1.00  0.00     0.005 C 
ENDBRANCH  12  15
ENDBRANCH   8   9
ENDBRANCH   6   8
ENDBRANCH   5   6
ENDBRANCH   4   5
ENDBRANCH   3   4
ENDBRANCH   2   3
ENDBRANCH   1   2
BRANCH   1  25
ATOM     25  C   UNL A   1      35.187  31.952  31.290  1.00  0.00     0.261 C 
BRANCH  25  26
ATOM     26  O   UNL A   1      36.503  31.502  31.659  1.00  0.00    -0.460 OA
BRANCH  26  27
ATOM     27  C   UNL A   1      36.860  30.317  31.097  1.00  0.00     0.338 C 
ATOM     28  O   UNL A   1      36.134  29.362  30.884  1.00  0.00    -0.246 OA
BRANCH  27  29
ATOM     29  C   UNL A   1      38.246  30.365  30.592  1.00  0.00     0.060 A 
ATOM     30  C   UNL A   1      38.424  30.285  29.205  1.00  0.00     0.016 A 
ATOM     31  C   UNL A   1      39.345  30.341  31.451  1.00  0.00     0.016 A 
ATOM     32  C   UNL A   1      39.697  30.101  28.673  1.00  0.00     0.010 A 
ATOM     33  C   UNL A   1      40.625  30.151  30.915  1.00  0.00     0.010 A 
ATOM     34  C   UNL A   1      40.800  29.976  29.529  1.00  0.00    -0.014 A 
BRANCH  34  35
ATOM     35  C   UNL A   1      42.085  29.476  28.977  1.00  0.00     0.031 A 
ATOM     36  C   UNL A   1      43.249  30.429  28.873  1.00  0.00     0.074 A 
ATOM     37  C   UNL A   1      42.238  28.184  28.638  1.00  0.00     0.049 A 
ATOM     38  N   UNL A   1      44.464  30.212  28.438  1.00  0.00    -0.248 NA
ATOM     39  C   UNL A   1      43.011  31.811  29.320  1.00  0.00     0.031 C 
ATOM     40  C   UNL A   1      41.201  27.158  28.731  1.00  0.00     0.029 A 
ATOM     41  N   UNL A   1      43.331  27.515  28.147  1.00  0.00    -0.354 N 
ATOM     42  C   UNL A   1      45.131  31.428  28.552  1.00  0.00     0.074 A 
ATOM     43  C   UNL A   1      44.177  32.386  29.067  1.00  0.00     0.031 C 
ATOM     44  C   UNL A   1      41.707  25.988  28.305  1.00  0.00     0.029 A 
ATOM     45  C   UNL A   1      43.093  26.186  27.886  1.00  0.00     0.049 A 
ATOM     46  H   UNL A   1      44.203  27.945  27.996  1.00  0.00     0.167 HD
ATOM     47  C   UNL A   1      46.422  31.717  28.265  1.00  0.00     0.037 A 
ATOM     48  C   UNL A   1      43.898  25.244  27.356  1.00  0.00     0.037 A 
ATOM     49  C   UNL A   1      47.371  30.759  27.759  1.00  0.00     0.049 A 
ATOM     50  C   UNL A   1      45.318  25.600  26.999  1.00  0.00     0.074 A 
ATOM     51  C   UNL A   1      48.705  30.951  27.445  1.00  0.00     0.029 A 
ATOM     52  N   UNL A   1      47.085  29.428  27.489  1.00  0.00    -0.354 N 
ATOM     53  N   UNL A   1      45.939  26.749  27.127  1.00  0.00    -0.248 NA
ATOM     54  C   UNL A   1      46.152  24.529  26.436  1.00  0.00     0.031 C 
ATOM     55  C   UNL A   1      49.214  29.749  26.945  1.00  0.00     0.029 A 
ATOM     56  C   UNL A   1      48.213  28.793  26.998  1.00  0.00     0.049 A 
ATOM     57  H   UNL A   1      46.209  29.000  27.626  1.00  0.00     0.167 HD
ATOM     58  C   UNL A   1      47.243  26.529  26.694  1.00  0.00     0.074 A 
ATOM     59  C   UNL A   1      47.323  25.136  26.306  1.00  0.00     0.031 C 
ATOM     60  C   UNL A   1      48.282  27.400  26.630  1.00  0.00     0.037 A 
BRANCH  47  61
ATOM     61  C   UNL A   1      46.880  33.136  28.471  1.00  0.00     0.058 A 
ATOM     62  C   UNL A   1      46.773  34.104  27.460  1.00  0.00     0.135 A 
ATOM     63  C   UNL A   1      47.409  33.538  29.708  1.00  0.00     0.135 A 
ATOM     64  F   UNL A   1      46.292  33.769  26.252  1.00  0.00    -0.206 F 
ATOM     65  C   UNL A   1      47.200  35.413  27.658  1.00  0.00     0.059 A 
ATOM     66  C   UNL A   1      47.817  34.849  29.937  1.00  0.00     0.059 A 
ATOM     67  F   UNL A   1      47.535  32.654  30.710  1.00  0.00    -0.206 F 
ATOM     68  C   UNL A   1      47.722  35.777  28.900  1.00  0.00     0.060 A 
BRANCH  68  69
ATOM     69  S   UNL A   1      48.270  37.480  29.143  1.00  0.00     0.124 S 
ATOM     70  O   UNL A   1      49.583  37.281  29.747  1.00  0.00    -0.237 OA
ATOM     71  O   UNL A   1      48.272  38.005  27.780  1.00  0.00    -0.237 OA
ATOM     72  O   UNL A   1      47.252  38.042  30.025  1.00  0.00    -0.744 OA
ENDBRANCH  68  69
ENDBRANCH  47  61
BRANCH  48  73
ATOM     73  C   UNL A   1      43.380  23.867  27.129  1.00  0.00     0.058 A 
ATOM     74  C   UNL A   1      43.277  22.946  28.182  1.00  0.00     0.135 A 
ATOM     75  C   UNL A   1      42.980  23.447  25.852  1.00  0.00     0.135 A 
ATOM     76  F   UNL A   1      43.658  23.297  29.419  1.00  0.00    -0.206 F 
ATOM     77  C   UNL A   1      42.811  21.652  27.975  1.00  0.00     0.059 A 
ATOM     78  C   UNL A   1      42.485  22.166  25.624  1.00  0.00     0.059 A 
ATOM     79  F   UNL A   1      43.049  24.292  24.812  1.00  0.00    -0.206 F 
ATOM     80  C   UNL A   1      42.414  21.271  26.691  1.00  0.00     0.060 A 
BRANCH  80  81
ATOM     81  S   UNL A   1      41.765  19.605  26.441  1.00  0.00     0.124 S 
ATOM     82  O   UNL A   1      40.331  19.856  26.361  1.00  0.00    -0.237 OA
ATOM     83  O   UNL A   1      42.415  19.206  25.197  1.00  0.00    -0.237 OA
ATOM     84  O   UNL A   1      42.217  18.888  27.631  1.00  0.00    -0.744 OA
ENDBRANCH  80  81
ENDBRANCH  48  73
BRANCH  60  85
ATOM     85  C   UNL A   1      49.612  26.863  26.173  1.00  0.00     0.058 A 
ATOM     86  C   UNL A   1      50.078  27.045  24.862  1.00  0.00     0.135 A 
ATOM     87  C   UNL A   1      50.455  26.198  27.080  1.00  0.00     0.135 A 
ATOM     88  F   UNL A   1      49.312  27.673  23.954  1.00  0.00    -0.206 F 
ATOM     89  C   UNL A   1      51.318  26.561  24.457  1.00  0.00     0.059 A 
ATOM     90  C   UNL A   1      51.710  25.730  26.705  1.00  0.00     0.059 A 
ATOM     91  F   UNL A   1      50.064  26.008  28.351  1.00  0.00    -0.206 F 
ATOM     92  C   UNL A   1      52.127  25.903  25.386  1.00  0.00     0.060 A 
BRANCH  92  93
ATOM     93  S   UNL A   1      53.743  25.298  24.857  1.00  0.00     0.124 S 
ATOM     94  O   UNL A   1      53.529  23.855  24.851  1.00  0.00    -0.237 OA
ATOM     95  O   UNL A   1      53.897  25.921  23.545  1.00  0.00    -0.237 OA
ATOM     96  O   UNL A   1      54.648  25.796  25.888  1.00  0.00    -0.744 OA
ENDBRANCH  92  93
ENDBRANCH  60  85
ENDBRANCH  34  35
ENDBRANCH  27  29
ENDBRANCH  26  27
ENDBRANCH  25  26
ENDBRANCH   1  25
TORSDOF 19
ENDMDL
MODEL 2
REMARK VINA RESULT:     -11.2      6.751     12.750
REMARK SMILES O=C(NCC(=O)OCCOCCOC(=O)c1ccc(-c2c3nc(c(-c4c(F)cc(S(=O)(=O)[O-])cc4F)c4ccc([nH]4)c(-c4c(F)cc(S(=O)(=O)[O-])cc4F)c4nc(c(-c5c(F)cc(S(=O)(=O)[O-])cc5F)c5ccc2[nH]5)C=C4)C=C3)cc1)Nc1cccc2c1CCCC2
REMARK SMILES IDX 11 1 10 2 9 3 8 4 7 5 5 6 6 7 4 8 3 9 1 10 2 11 82 12 83 15
REMARK SMILES IDX 84 16 88 17 85 18 87 19 89 20 86 21 92 22 90 23 91 24 12 25
REMARK SMILES IDX 13 26 14 27 15 28 16 29 17 30 81 31 18 32 80 33 19 34 20 35
REMARK SMILES IDX 21 36 74 37 22 38 79 39 73 40 75 41 23 42 78 43 72 44 71 45
REMARK SMILES IDX 24 47 58 48 37 49 57 50 38 51 41 52 56 53 76 54 39 55 40 56
REMARK SMILES IDX 55 58 77 59 42 60 25 61 26 62 35 63 27 64 28 65 34 66 36 67
REMARK SMILES IDX 29 68 30 69 31 70 32 71 33 72 59 73 60 74 69 75 61 76 62 77
REMARK SMILES IDX 68 78 70 79 63 80 64 81 65 82 66 83 67 84 43 85 44 86 53 87
REMARK SMILES IDX 45 88 46 89 52 90 54 91 47 92 48 93 49 94 50 95 51 96
REMARK H PARENT 3 13 82 14 75 46 41 57
REMARK Flexibility Score: inf
ROOT
ATOM      1  C   UNL A   1      43.149  22.976  24.925  1.00  0.00     0.202 C 
ENDROOT
BRANCH   1   2
ATOM      2  O   UNL A   1      43.697  21.660  24.932  1.00  0.00    -0.374 OA
BRANCH   2   3
ATOM      3  C   UNL A   1      43.373  20.799  26.023  1.00  0.00     0.202 C 
BRANCH   3   4
ATOM      4  C   UNL A   1      42.309  19.727  25.765  1.00  0.00     0.261 C 
BRANCH   4   5
ATOM      5  O   UNL A   1      41.377  19.611  26.851  1.00  0.00    -0.462 OA
BRANCH   5   6
ATOM      6  C   UNL A   1      40.640  20.724  27.125  1.00  0.00     0.325 C 
ATOM      7  O   UNL A   1      40.796  21.458  28.094  1.00  0.00    -0.250 OA
BRANCH   6   8
ATOM      8  C   UNL A   1      39.694  21.083  25.984  1.00  0.00     0.240 C 
BRANCH   8   9
ATOM      9  N   UNL A   1      39.046  22.377  26.115  1.00  0.00    -0.327 N 
ATOM     10  O   UNL A   1      37.545  23.987  26.017  1.00  0.00    -0.248 OA
ATOM     11  C   UNL A   1      37.788  22.800  25.810  1.00  0.00     0.319 C 
ATOM     12  N   UNL A   1      36.889  21.835  25.402  1.00  0.00    -0.308 N 
ATOM     13  H   UNL A   1      39.624  23.078  26.495  1.00  0.00     0.166 HD
ATOM     14  H   UNL A   1      37.227  20.986  25.034  1.00  0.00     0.171 HD
BRANCH  12  15
ATOM     15  C   UNL A   1      35.486  22.040  25.504  1.00  0.00     0.046 A 
ATOM     16  C   UNL A   1      34.939  21.683  26.733  1.00  0.00     0.026 A 
ATOM     17  C   UNL A   1      34.818  22.993  24.735  1.00  0.00    -0.021 A 
ATOM     18  C   UNL A   1      33.996  22.530  27.315  1.00  0.00     0.002 A 
ATOM     19  C   UNL A   1      34.071  23.979  25.380  1.00  0.00    -0.043 A 
ATOM     20  C   UNL A   1      34.310  22.609  23.348  1.00  0.00     0.038 C 
ATOM     21  C   UNL A   1      33.654  23.735  26.687  1.00  0.00     0.004 A 
ATOM     22  C   UNL A   1      33.720  25.233  24.620  1.00  0.00     0.036 C 
ATOM     23  C   UNL A   1      33.647  23.758  22.575  1.00  0.00     0.005 C 
ATOM     24  C   UNL A   1      34.045  25.122  23.122  1.00  0.00     0.005 C 
ENDBRANCH  12  15
ENDBRANCH   8   9
ENDBRANCH   6   8
ENDBRANCH   5   6
ENDBRANCH   4   5
ENDBRANCH   3   4
ENDBRANCH   2   3
ENDBRANCH   1   2
BRANCH   1  25
ATOM     25  C   UNL A   1      42.739  23.586  26.273  1.00  0.00     0.261 C 
BRANCH  25  26
ATOM     26  O   UNL A   1      41.433  24.188  26.245  1.00  0.00    -0.460 OA
BRANCH  26  27
ATOM     27  C   UNL A   1      41.451  25.543  26.143  1.00  0.00     0.338 C 
ATOM     28  O   UNL A   1      41.282  26.202  25.133  1.00  0.00    -0.246 OA
BRANCH  27  29
ATOM     29  C   UNL A   1      41.533  26.173  27.476  1.00  0.00     0.060 A 
ATOM     30  C   UNL A   1      40.478  25.927  28.365  1.00  0.00     0.016 A 
ATOM     31  C   UNL A   1      42.532  27.093  27.797  1.00  0.00     0.016 A 
ATOM     32  C   UNL A   1      40.375  26.657  29.545  1.00  0.00     0.010 A 
ATOM     33  C   UNL A   1      42.423  27.831  28.983  1.00  0.00     0.010 A 
ATOM     34  C   UNL A   1      41.316  27.654  29.835  1.00  0.00    -0.014 A 
BRANCH  34  35
ATOM     35  C   UNL A   1      41.027  28.623  30.922  1.00  0.00     0.031 A 
ATOM     36  C   UNL A   1      41.863  28.578  32.175  1.00  0.00     0.074 A 
ATOM     37  C   UNL A   1      40.084  29.570  30.773  1.00  0.00     0.049 A 
ATOM     38  N   UNL A   1      41.800  29.330  33.244  1.00  0.00    -0.248 NA
ATOM     39  C   UNL A   1      42.912  27.546  32.231  1.00  0.00     0.031 C 
ATOM     40  C   UNL A   1      39.238  29.742  29.594  1.00  0.00     0.029 A 
ATOM     41  N   UNL A   1      39.682  30.569  31.626  1.00  0.00    -0.354 N 
ATOM     42  C   UNL A   1      42.791  28.860  34.099  1.00  0.00     0.074 A 
ATOM     43  C   UNL A   1      43.421  27.737  33.439  1.00  0.00     0.031 C 
ATOM     44  C   UNL A   1      38.412  30.783  29.798  1.00  0.00     0.029 A 
ATOM     45  C   UNL A   1      38.652  31.334  31.131  1.00  0.00     0.049 A 
ATOM     46  H   UNL A   1      40.092  30.723  32.507  1.00  0.00     0.167 HD
ATOM     47  C   UNL A   1      43.153  29.327  35.318  1.00  0.00     0.037 A 
ATOM     48  C   UNL A   1      37.973  32.352  31.696  1.00  0.00     0.037 A 
ATOM     49  C   UNL A   1      42.529  30.450  35.969  1.00  0.00     0.049 A 
ATOM     50  C   UNL A   1      38.361  32.825  33.073  1.00  0.00     0.074 A 
ATOM     51  C   UNL A   1      42.829  31.007  37.200  1.00  0.00     0.029 A 
ATOM     52  N   UNL A   1      41.476  31.185  35.444  1.00  0.00    -0.354 N 
ATOM     53  N   UNL A   1      39.311  32.381  33.863  1.00  0.00    -0.248 NA
ATOM     54  C   UNL A   1      37.592  33.946  33.633  1.00  0.00     0.031 C 
ATOM     55  C   UNL A   1      41.930  32.051  37.439  1.00  0.00     0.029 A 
ATOM     56  C   UNL A   1      41.105  32.180  36.333  1.00  0.00     0.049 A 
ATOM     57  H   UNL A   1      41.056  31.023  34.569  1.00  0.00     0.167 HD
ATOM     58  C   UNL A   1      39.276  33.190  34.995  1.00  0.00     0.074 A 
ATOM     59  C   UNL A   1      38.215  34.154  34.785  1.00  0.00     0.031 C 
ATOM     60  C   UNL A   1      40.056  33.143  36.104  1.00  0.00     0.037 A 
BRANCH  47  61
ATOM     61  C   UNL A   1      44.263  28.610  36.037  1.00  0.00     0.058 A 
ATOM     62  C   UNL A   1      45.597  29.042  35.961  1.00  0.00     0.135 A 
ATOM     63  C   UNL A   1      43.984  27.489  36.835  1.00  0.00     0.135 A 
ATOM     64  F   UNL A   1      45.923  30.097  35.198  1.00  0.00    -0.206 F 
ATOM     65  C   UNL A   1      46.618  28.372  36.628  1.00  0.00     0.059 A 
ATOM     66  C   UNL A   1      44.985  26.820  37.534  1.00  0.00     0.059 A 
ATOM     67  F   UNL A   1      42.726  27.031  36.944  1.00  0.00    -0.206 F 
ATOM     68  C   UNL A   1      46.303  27.261  37.412  1.00  0.00     0.060 A 
BRANCH  68  69
ATOM     69  S   UNL A   1      47.638  26.403  38.273  1.00  0.00     0.124 S 
ATOM     70  O   UNL A   1      47.994  25.371  37.305  1.00  0.00    -0.237 OA
ATOM     71  O   UNL A   1      48.623  27.465  38.458  1.00  0.00    -0.237 OA
ATOM     72  O   UNL A   1      47.001  25.924  39.496  1.00  0.00    -0.744 OA
ENDBRANCH  68  69
ENDBRANCH  47  61
BRANCH  48  73
ATOM     73  C   UNL A   1      36.852  32.996  30.959  1.00  0.00     0.058 A 
ATOM     74  C   UNL A   1      35.519  32.640  31.208  1.00  0.00     0.135 A 
ATOM     75  C   UNL A   1      37.096  33.982  29.990  1.00  0.00     0.135 A 
ATOM     76  F   UNL A   1      35.235  31.696  32.116  1.00  0.00    -0.206 F 
ATOM     77  C   UNL A   1      34.466  33.226  30.510  1.00  0.00     0.059 A 
ATOM     78  C   UNL A   1      36.059  34.601  29.299  1.00  0.00     0.059 A 
ATOM     79  F   UNL A   1      38.353  34.366  29.722  1.00  0.00    -0.206 F 
ATOM     80  C   UNL A   1      34.747  34.209  29.559  1.00  0.00     0.060 A 
BRANCH  80  81
ATOM     81  S   UNL A   1      33.371  34.997  28.694  1.00  0.00     0.124 S 
ATOM     82  O   UNL A   1      32.781  33.867  27.988  1.00  0.00    -0.237 OA
ATOM     83  O   UNL A   1      32.587  35.541  29.798  1.00  0.00    -0.237 OA
ATOM     84  O   UNL A   1      34.030  35.994  27.855  1.00  0.00    -0.744 OA
ENDBRANCH  80  81
ENDBRANCH  48  73
BRANCH  60  85
ATOM     85  C   UNL A   1      39.832  34.195  37.157  1.00  0.00     0.058 A 
ATOM     86  C   UNL A   1      38.997  33.975  38.263  1.00  0.00     0.135 A 
ATOM     87  C   UNL A   1      40.503  35.427  37.079  1.00  0.00     0.135 A 
ATOM     88  F   UNL A   1      38.329  32.816  38.386  1.00  0.00    -0.206 F 
ATOM     89  C   UNL A   1      38.813  34.948  39.240  1.00  0.00     0.059 A 
ATOM     90  C   UNL A   1      40.356  36.404  38.058  1.00  0.00     0.059 A 
ATOM     91  F   UNL A   1      41.325  35.685  36.048  1.00  0.00    -0.206 F 
ATOM     92  C   UNL A   1      39.497  36.161  39.129  1.00  0.00     0.060 A 
BRANCH  92  93
ATOM     93  S   UNL A   1      39.267  37.409  40.412  1.00  0.00     0.124 S 
ATOM     94  O   UNL A   1      38.885  36.588  41.556  1.00  0.00    -0.237 OA
ATOM     95  O   UNL A   1      40.588  38.027  40.490  1.00  0.00    -0.237 OA
ATOM     96  O   UNL A   1      38.214  38.264  39.872  1.00  0.00    -0.744 OA
ENDBRANCH  92  93
ENDBRANCH  60  85
ENDBRANCH  34  35
ENDBRANCH  27  29
ENDBRANCH  26  27
ENDBRANCH  25  26
ENDBRANCH   1  25
TORSDOF 19
ENDMDL
MODEL 3
REMARK VINA RESULT:     -11.0      2.289      3.712
REMARK SMILES O=C(NCC(=O)OCCOCCOC(=O)c1ccc(-c2c3nc(c(-c4c(F)cc(S(=O)(=O)[O-])cc4F)c4ccc([nH]4)c(-c4c(F)cc(S(=O)(=O)[O-])cc4F)c4nc(c(-c5c(F)cc(S(=O)(=O)[O-])cc5F)c5ccc2[nH]5)C=C4)C=C3)cc1)Nc1cccc2c1CCCC2
REMARK SMILES IDX 11 1 10 2 9 3 8 4 7 5 5 6 6 7 4 8 3 9 1 10 2 11 82 12 83 15
REMARK SMILES IDX 84 16 88 17 85 18 87 19 89 20 86 21 92 22 90 23 91 24 12 25
REMARK SMILES IDX 13 26 14 27 15 28 16 29 17 30 81 31 18 32 80 33 19 34 20 35
REMARK SMILES IDX 21 36 74 37 22 38 79 39 73 40 75 41 23 42 78 43 72 44 71 45
REMARK SMILES IDX 24 47 58 48 37 49 57 50 38 51 41 52 56 53 76 54 39 55 40 56
REMARK SMILES IDX 55 58 77 59 42 60 25 61 26 62 35 63 27 64 28 65 34 66 36 67
REMARK SMILES IDX 29 68 30 69 31 70 32 71 33 72 59 73 60 74 69 75 61 76 62 77
REMARK SMILES IDX 68 78 70 79 63 80 64 81 65 82 66 83 67 84 43 85 44 86 53 87
REMARK SMILES IDX 45 88 46 89 52 90 54 91 47 92 48 93 49 94 50 95 51 96
REMARK H PARENT 3 13 82 14 75 46 41 57
REMARK Flexibility Score: inf
ROOT
ATOM      1  C   UNL A   1      34.005  31.939  28.244  1.00  0.00     0.202 C 
ENDROOT
BRANCH   1   2
ATOM      2  O   UNL A   1      33.672  30.995  27.228  1.00  0.00    -0.374 OA
BRANCH   2   3
ATOM      3  C   UNL A   1      32.300  30.843  26.869  1.00  0.00     0.202 C 
BRANCH   3   4
ATOM      4  C   UNL A   1      31.979  29.807  25.787  1.00  0.00     0.261 C 
BRANCH   4   5
ATOM      5  O   UNL A   1      31.606  28.536  26.342  1.00  0.00    -0.462 OA
BRANCH   5   6
ATOM      6  C   UNL A   1      31.620  27.481  25.479  1.00  0.00     0.325 C 
ATOM      7  O   UNL A   1      30.629  26.940  25.004  1.00  0.00    -0.250 OA
BRANCH   6   8
ATOM      8  C   UNL A   1      33.030  27.145  25.005  1.00  0.00     0.240 C 
BRANCH   8   9
ATOM      9  N   UNL A   1      33.107  26.608  23.657  1.00  0.00    -0.327 N 
ATOM     10  O   UNL A   1      33.689  25.383  21.921  1.00  0.00    -0.248 OA
ATOM     11  C   UNL A   1      33.822  25.578  23.126  1.00  0.00     0.319 C 
ATOM     12  N   UNL A   1      34.538  24.797  24.011  1.00  0.00    -0.308 N 
ATOM     13  H   UNL A   1      32.534  27.076  23.006  1.00  0.00     0.166 HD
ATOM     14  H   UNL A   1      34.783  25.166  24.891  1.00  0.00     0.171 HD
BRANCH  12  15
ATOM     15  C   UNL A   1      34.927  23.470  23.680  1.00  0.00     0.046 A 
ATOM     16  C   UNL A   1      36.301  23.287  23.557  1.00  0.00     0.026 A 
ATOM     17  C   UNL A   1      34.138  22.365  23.999  1.00  0.00    -0.021 A 
ATOM     18  C   UNL A   1      36.874  22.143  24.113  1.00  0.00     0.002 A 
ATOM     19  C   UNL A   1      34.689  21.342  24.771  1.00  0.00    -0.043 A 
ATOM     20  C   UNL A   1      33.053  21.918  23.023  1.00  0.00     0.038 C 
ATOM     21  C   UNL A   1      36.078  21.234  24.820  1.00  0.00     0.004 A 
ATOM     22  C   UNL A   1      33.759  20.387  25.474  1.00  0.00     0.036 C 
ATOM     23  C   UNL A   1      32.212  20.730  23.512  1.00  0.00     0.005 C 
ATOM     24  C   UNL A   1      32.299  20.547  25.021  1.00  0.00     0.005 C 
ENDBRANCH  12  15
ENDBRANCH   8   9
ENDBRANCH   6   8
ENDBRANCH   5   6
ENDBRANCH   4   5
ENDBRANCH   3   4
ENDBRANCH   2   3
ENDBRANCH   1   2
BRANCH   1  25
ATOM     25  C   UNL A   1      35.226  31.638  29.124  1.00  0.00     0.261 C 
BRANCH  25  26
ATOM     26  O   UNL A   1      35.696  30.285  28.992  1.00  0.00    -0.460 OA
BRANCH  26  27
ATOM     27  C   UNL A   1      36.499  29.878  30.011  1.00  0.00     0.338 C 
ATOM     28  O   UNL A   1      36.146  29.385  31.067  1.00  0.00    -0.246 OA
BRANCH  27  29
ATOM     29  C   UNL A   1      37.922  29.941  29.621  1.00  0.00     0.060 A 
ATOM     30  C   UNL A   1      38.220  29.766  28.263  1.00  0.00     0.016 A 
ATOM     31  C   UNL A   1      38.944  30.020  30.568  1.00  0.00     0.016 A 
ATOM     32  C   UNL A   1      39.539  29.591  27.856  1.00  0.00     0.010 A 
ATOM     33  C   UNL A   1      40.270  29.839  30.156  1.00  0.00     0.010 A 
ATOM     34  C   UNL A   1      40.568  29.570  28.807  1.00  0.00    -0.014 A 
BRANCH  34  35
ATOM     35  C   UNL A   1      41.911  29.079  28.404  1.00  0.00     0.031 A 
ATOM     36  C   UNL A   1      43.059  30.054  28.373  1.00  0.00     0.074 A 
ATOM     37  C   UNL A   1      42.121  27.778  28.136  1.00  0.00     0.049 A 
ATOM     38  N   UNL A   1      44.316  29.849  28.066  1.00  0.00    -0.248 NA
ATOM     39  C   UNL A   1      42.752  31.448  28.735  1.00  0.00     0.031 C 
ATOM     40  C   UNL A   1      41.101  26.733  28.172  1.00  0.00     0.029 A 
ATOM     41  N   UNL A   1      43.271  27.116  27.781  1.00  0.00    -0.354 N 
ATOM     42  C   UNL A   1      44.944  31.084  28.192  1.00  0.00     0.074 A 
ATOM     43  C   UNL A   1      43.926  32.039  28.572  1.00  0.00     0.031 C 
ATOM     44  C   UNL A   1      41.669  25.558  27.846  1.00  0.00     0.029 A 
ATOM     45  C   UNL A   1      43.085  25.773  27.555  1.00  0.00     0.049 A 
ATOM     46  H   UNL A   1      44.145  27.561  27.697  1.00  0.00     0.167 HD
ATOM     47  C   UNL A   1      46.251  31.393  28.019  1.00  0.00     0.037 A 
ATOM     48  C   UNL A   1      43.957  24.830  27.146  1.00  0.00     0.037 A 
ATOM     49  C   UNL A   1      47.263  30.438  27.648  1.00  0.00     0.049 A 
ATOM     50  C   UNL A   1      45.398  25.205  26.914  1.00  0.00     0.074 A 
ATOM     51  C   UNL A   1      48.618  30.649  27.457  1.00  0.00     0.029 A 
ATOM     52  N   UNL A   1      47.032  29.091  27.409  1.00  0.00    -0.354 N 
ATOM     53  N   UNL A   1      45.981  26.373  27.052  1.00  0.00    -0.248 NA
ATOM     54  C   UNL A   1      46.304  24.132  26.479  1.00  0.00     0.031 C 
ATOM     55  C   UNL A   1      49.197  29.440  27.060  1.00  0.00     0.029 A 
ATOM     56  C   UNL A   1      48.214  28.463  27.057  1.00  0.00     0.049 A 
ATOM     57  H   UNL A   1      46.155  28.648  27.479  1.00  0.00     0.167 HD
ATOM     58  C   UNL A   1      47.325  26.167  26.757  1.00  0.00     0.074 A 
ATOM     59  C   UNL A   1      47.470  24.761  26.438  1.00  0.00     0.031 C 
ATOM     60  C   UNL A   1      48.347  27.059  26.756  1.00  0.00     0.037 A 
BRANCH  47  61
ATOM     61  C   UNL A   1      46.658  32.829  28.208  1.00  0.00     0.058 A 
ATOM     62  C   UNL A   1      46.599  33.761  27.160  1.00  0.00     0.135 A 
ATOM     63  C   UNL A   1      47.090  33.285  29.464  1.00  0.00     0.135 A 
ATOM     64  F   UNL A   1      46.211  33.375  25.933  1.00  0.00    -0.206 F 
ATOM     65  C   UNL A   1      46.979  35.087  27.343  1.00  0.00     0.059 A 
ATOM     66  C   UNL A   1      47.448  34.614  29.677  1.00  0.00     0.059 A 
ATOM     67  F   UNL A   1      47.167  32.438  30.503  1.00  0.00    -0.206 F 
ATOM     68  C   UNL A   1      47.403  35.504  28.605  1.00  0.00     0.060 A 
BRANCH  68  69
ATOM     69  S   UNL A   1      47.890  37.228  28.827  1.00  0.00     0.124 S 
ATOM     70  O   UNL A   1      46.606  37.860  29.110  1.00  0.00    -0.237 OA
ATOM     71  O   UNL A   1      48.819  37.149  29.951  1.00  0.00    -0.237 OA
ATOM     72  O   UNL A   1      48.493  37.579  27.545  1.00  0.00    -0.744 OA
ENDBRANCH  68  69
ENDBRANCH  47  61
BRANCH  48  73
ATOM     73  C   UNL A   1      43.491  23.433  26.929  1.00  0.00     0.058 A 
ATOM     74  C   UNL A   1      43.289  22.926  25.637  1.00  0.00     0.135 A 
ATOM     75  C   UNL A   1      43.239  22.578  28.013  1.00  0.00     0.135 A 
ATOM     76  F   UNL A   1      43.507  23.707  24.569  1.00  0.00    -0.206 F 
ATOM     77  C   UNL A   1      42.838  21.627  25.426  1.00  0.00     0.059 A 
ATOM     78  C   UNL A   1      42.812  21.267  27.828  1.00  0.00     0.059 A 
ATOM     79  F   UNL A   1      43.426  23.011  29.270  1.00  0.00    -0.206 F 
ATOM     80  C   UNL A   1      42.605  20.803  26.529  1.00  0.00     0.060 A 
BRANCH  80  81
ATOM     81  S   UNL A   1      42.065  19.103  26.244  1.00  0.00     0.124 S 
ATOM     82  O   UNL A   1      42.230  18.516  27.568  1.00  0.00    -0.237 OA
ATOM     83  O   UNL A   1      40.689  19.290  25.796  1.00  0.00    -0.237 OA
ATOM     84  O   UNL A   1      42.989  18.626  25.220  1.00  0.00    -0.744 OA
ENDBRANCH  80  81
ENDBRANCH  48  73
BRANCH  60  85
ATOM     85  C   UNL A   1      49.726  26.536  26.453  1.00  0.00     0.058 A 
ATOM     86  C   UNL A   1      50.536  25.958  27.442  1.00  0.00     0.135 A 
ATOM     87  C   UNL A   1      50.224  26.574  25.140  1.00  0.00     0.135 A 
ATOM     88  F   UNL A   1      50.110  25.898  28.715  1.00  0.00    -0.206 F 
ATOM     89  C   UNL A   1      51.802  25.461  27.146  1.00  0.00     0.059 A 
ATOM     90  C   UNL A   1      51.474  26.059  24.815  1.00  0.00     0.059 A 
ATOM     91  F   UNL A   1      49.484  27.106  24.152  1.00  0.00    -0.206 F 
ATOM     92  C   UNL A   1      52.263  25.517  25.829  1.00  0.00     0.060 A 
BRANCH  92  93
ATOM     93  S   UNL A   1      53.897  24.851  25.452  1.00  0.00     0.124 S 
ATOM     94  O   UNL A   1      54.306  25.691  24.332  1.00  0.00    -0.237 OA
ATOM     95  O   UNL A   1      54.620  25.066  26.702  1.00  0.00    -0.237 OA
ATOM     96  O   UNL A   1      53.628  23.453  25.125  1.00  0.00    -0.744 OA
ENDBRANCH  92  93
ENDBRANCH  60  85
ENDBRANCH  34  35
ENDBRANCH  27  29
ENDBRANCH  26  27
ENDBRANCH  25  26
ENDBRANCH   1  25
TORSDOF 19
ENDMDL
