MODEL 1
REMARK VINA RESULT:     -10.8      0.000      0.000
REMARK SMILES C[C@H]1CCC[C@@H](n2cnnc2SCC(=O)OCCOCCOC(=O)c2ccc(-c3c4nc(c(-c5c(F)cc(S(=O)(=O)[O-])cc5F)c5ccc([nH]5)c(-c5c(F)cc(S(=O)(=O)[O-])cc5F)c5nc(c(-c6c(F)cc(S(=O)(=O)[O-])cc6F)c6ccc3[nH]6)C=C5)C=C4)cc2)C1
REMARK SMILES IDX 19 1 18 2 17 3 16 4 14 5 15 6 13 7 12 8 11 9 7 10 8 11 9 12
REMARK SMILES IDX 10 13 6 14 1 15 2 16 3 17 91 18 4 19 5 20 20 21 21 22 22 23
REMARK SMILES IDX 23 24 24 25 25 26 26 27 90 28 27 29 89 30 28 31 29 32 30 33
REMARK SMILES IDX 83 34 31 35 88 36 82 37 84 38 32 39 87 40 81 41 80 42 33 44
REMARK SMILES IDX 67 45 46 46 66 47 47 48 50 49 65 50 85 51 48 52 49 53 64 55
REMARK SMILES IDX 86 56 51 57 34 58 35 59 44 60 36 61 37 62 43 63 45 64 38 65
REMARK SMILES IDX 39 66 40 67 41 68 42 69 68 70 69 71 78 72 70 73 71 74 77 75
REMARK SMILES IDX 79 76 72 77 73 78 74 79 75 80 76 81 52 82 53 83 62 84 54 85
REMARK SMILES IDX 55 86 61 87 63 88 56 89 57 90 58 91 59 92 60 93
REMARK H PARENT 84 43 50 54
REMARK Flexibility Score: inf
ROOT
ATOM      1  O   UNL A   1      37.425  22.225  25.159  1.00  0.00    -0.374 OA
ENDROOT
BRANCH   1   2
ATOM      2  C   UNL A   1      36.132  22.068  25.741  1.00  0.00     0.202 C 
BRANCH   2   3
ATOM      3  C   UNL A   1      35.094  21.453  24.796  1.00  0.00     0.261 C 
BRANCH   3   4
ATOM      4  O   UNL A   1      34.048  22.398  24.460  1.00  0.00    -0.463 OA
BRANCH   4   5
ATOM      5  C   UNL A   1      33.306  22.867  25.501  1.00  0.00     0.316 C 
ATOM      6  O   UNL A   1      32.456  22.204  26.092  1.00  0.00    -0.251 OA
BRANCH   5   7
ATOM      7  C   UNL A   1      33.549  24.323  25.861  1.00  0.00     0.200 C 
BRANCH   7   8
ATOM      8  S   UNL A   1      33.974  25.439  24.529  1.00  0.00    -0.074 SA
BRANCH   8   9
ATOM      9  C   UNL A   1      32.628  26.428  24.023  1.00  0.00     0.191 A 
ATOM     10  N   UNL A   1      32.245  27.715  24.361  1.00  0.00    -0.306 N 
ATOM     11  C   UNL A   1      31.365  28.099  23.379  1.00  0.00     0.226 A 
ATOM     12  N   UNL A   1      31.158  27.108  22.550  1.00  0.00    -0.138 NA
ATOM     13  N   UNL A   1      31.947  26.065  22.953  1.00  0.00    -0.124 NA
BRANCH  10  14
ATOM     14  C   UNL A   1      32.564  28.531  25.514  1.00  0.00     0.091 C 
ATOM     15  C   UNL A   1      35.605  29.396  27.741  1.00  0.00     0.008 C 
ATOM     16  C   UNL A   1      34.157  29.320  27.266  1.00  0.00    -0.012 C 
ATOM     17  C   UNL A   1      33.419  30.657  27.371  1.00  0.00     0.003 C 
ATOM     18  C   UNL A   1      34.052  28.801  25.829  1.00  0.00     0.029 C 
ATOM     19  C   UNL A   1      31.981  30.576  26.840  1.00  0.00     0.002 C 
ATOM     20  C   UNL A   1      31.867  29.896  25.473  1.00  0.00     0.025 C 
ENDBRANCH  10  14
ENDBRANCH   8   9
ENDBRANCH   7   8
ENDBRANCH   5   7
ENDBRANCH   4   5
ENDBRANCH   3   4
ENDBRANCH   2   3
ENDBRANCH   1   2
BRANCH   1  21
ATOM     21  C   UNL A   1      38.305  21.128  25.383  1.00  0.00     0.202 C 
BRANCH  21  22
ATOM     22  C   UNL A   1      39.602  21.439  26.153  1.00  0.00     0.261 C 
BRANCH  22  23
ATOM     23  O   UNL A   1      39.720  22.767  26.613  1.00  0.00    -0.460 OA
BRANCH  23  24
ATOM     24  C   UNL A   1      40.812  23.030  27.372  1.00  0.00     0.338 C 
ATOM     25  O   UNL A   1      41.169  22.440  28.381  1.00  0.00    -0.246 OA
BRANCH  24  26
ATOM     26  C   UNL A   1      41.301  24.322  26.839  1.00  0.00     0.060 A 
ATOM     27  C   UNL A   1      42.369  24.755  27.612  1.00  0.00     0.016 A 
ATOM     28  C   UNL A   1      40.269  25.202  26.453  1.00  0.00     0.016 A 
ATOM     29  C   UNL A   1      42.172  25.894  28.358  1.00  0.00     0.010 A 
ATOM     30  C   UNL A   1      40.016  26.276  27.272  1.00  0.00     0.010 A 
ATOM     31  C   UNL A   1      40.948  26.577  28.259  1.00  0.00    -0.014 A 
BRANCH  31  32
ATOM     32  C   UNL A   1      40.851  27.855  28.923  1.00  0.00     0.031 A 
ATOM     33  C   UNL A   1      41.953  28.710  28.448  1.00  0.00     0.074 A 
ATOM     34  C   UNL A   1      39.899  28.271  29.767  1.00  0.00     0.049 A 
ATOM     35  N   UNL A   1      43.159  28.719  28.912  1.00  0.00    -0.248 NA
ATOM     36  C   UNL A   1      41.817  29.305  27.107  1.00  0.00     0.031 C 
ATOM     37  C   UNL A   1      38.594  27.690  30.065  1.00  0.00     0.029 A 
ATOM     38  N   UNL A   1      39.923  29.403  30.517  1.00  0.00    -0.354 N 
ATOM     39  C   UNL A   1      43.850  29.549  28.047  1.00  0.00     0.074 A 
ATOM     40  C   UNL A   1      43.097  29.553  26.826  1.00  0.00     0.031 C 
ATOM     41  C   UNL A   1      37.872  28.582  30.790  1.00  0.00     0.029 A 
ATOM     42  C   UNL A   1      38.718  29.721  31.120  1.00  0.00     0.049 A 
ATOM     43  H   UNL A   1      40.733  29.954  30.623  1.00  0.00     0.167 HD
ATOM     44  C   UNL A   1      44.737  30.461  28.527  1.00  0.00     0.037 A 
ATOM     45  C   UNL A   1      38.462  30.876  31.783  1.00  0.00     0.037 A 
ATOM     46  C   UNL A   1      45.027  30.192  29.919  1.00  0.00     0.049 A 
ATOM     47  C   UNL A   1      39.775  31.451  32.189  1.00  0.00     0.074 A 
ATOM     48  C   UNL A   1      45.669  29.195  30.623  1.00  0.00     0.029 A 
ATOM     49  N   UNL A   1      44.217  30.858  30.810  1.00  0.00    -0.354 N 
ATOM     50  N   UNL A   1      40.573  30.887  33.056  1.00  0.00    -0.248 NA
ATOM     51  C   UNL A   1      40.405  32.463  31.349  1.00  0.00     0.031 C 
ATOM     52  C   UNL A   1      45.018  29.128  31.892  1.00  0.00     0.029 A 
ATOM     53  C   UNL A   1      44.022  30.106  31.938  1.00  0.00     0.049 A 
ATOM     54  H   UNL A   1      43.831  31.751  30.657  1.00  0.00     0.167 HD
ATOM     55  C   UNL A   1      41.852  31.158  32.598  1.00  0.00     0.074 A 
ATOM     56  C   UNL A   1      41.689  32.255  31.654  1.00  0.00     0.031 C 
ATOM     57  C   UNL A   1      42.867  30.268  32.802  1.00  0.00     0.037 A 
BRANCH  44  58
ATOM     58  C   UNL A   1      44.948  31.834  27.921  1.00  0.00     0.058 A 
ATOM     59  C   UNL A   1      46.186  32.113  27.310  1.00  0.00     0.135 A 
ATOM     60  C   UNL A   1      44.117  32.960  28.134  1.00  0.00     0.135 A 
ATOM     61  F   UNL A   1      47.058  31.125  27.050  1.00  0.00    -0.206 F 
ATOM     62  C   UNL A   1      46.596  33.413  27.009  1.00  0.00     0.059 A 
ATOM     63  C   UNL A   1      44.481  34.252  27.792  1.00  0.00     0.059 A 
ATOM     64  F   UNL A   1      42.943  32.903  28.769  1.00  0.00    -0.206 F 
ATOM     65  C   UNL A   1      45.739  34.478  27.271  1.00  0.00     0.060 A 
BRANCH  65  66
ATOM     66  S   UNL A   1      46.285  36.165  26.983  1.00  0.00     0.124 S 
ATOM     67  O   UNL A   1      47.288  36.327  28.028  1.00  0.00    -0.237 OA
ATOM     68  O   UNL A   1      46.786  36.089  25.615  1.00  0.00    -0.237 OA
ATOM     69  O   UNL A   1      45.063  36.947  27.153  1.00  0.00    -0.744 OA
ENDBRANCH  65  66
ENDBRANCH  44  58
BRANCH  45  70
ATOM     70  C   UNL A   1      37.202  31.656  31.839  1.00  0.00     0.058 A 
ATOM     71  C   UNL A   1      36.649  32.060  33.068  1.00  0.00     0.135 A 
ATOM     72  C   UNL A   1      36.678  32.273  30.687  1.00  0.00     0.135 A 
ATOM     73  F   UNL A   1      37.105  31.538  34.217  1.00  0.00    -0.206 F 
ATOM     74  C   UNL A   1      35.672  33.057  33.154  1.00  0.00     0.059 A 
ATOM     75  C   UNL A   1      35.699  33.264  30.747  1.00  0.00     0.059 A 
ATOM     76  F   UNL A   1      37.175  31.998  29.472  1.00  0.00    -0.206 F 
ATOM     77  C   UNL A   1      35.220  33.671  31.986  1.00  0.00     0.060 A 
BRANCH  77  78
ATOM     78  S   UNL A   1      34.101  35.087  32.106  1.00  0.00     0.124 S 
ATOM     79  O   UNL A   1      33.863  35.405  30.703  1.00  0.00    -0.237 OA
ATOM     80  O   UNL A   1      32.968  34.524  32.833  1.00  0.00    -0.237 OA
ATOM     81  O   UNL A   1      34.883  36.075  32.847  1.00  0.00    -0.744 OA
ENDBRANCH  77  78
ENDBRANCH  45  70
BRANCH  57  82
ATOM     82  C   UNL A   1      42.690  29.278  33.922  1.00  0.00     0.058 A 
ATOM     83  C   UNL A   1      42.955  29.540  35.277  1.00  0.00     0.135 A 
ATOM     84  C   UNL A   1      42.146  28.025  33.604  1.00  0.00     0.135 A 
ATOM     85  F   UNL A   1      43.392  30.744  35.673  1.00  0.00    -0.206 F 
ATOM     86  C   UNL A   1      42.729  28.580  36.267  1.00  0.00     0.059 A 
ATOM     87  C   UNL A   1      41.883  27.066  34.576  1.00  0.00     0.059 A 
ATOM     88  F   UNL A   1      41.823  27.736  32.332  1.00  0.00    -0.206 F 
ATOM     89  C   UNL A   1      42.192  27.344  35.904  1.00  0.00     0.060 A 
BRANCH  89  90
ATOM     90  S   UNL A   1      41.837  26.123  37.188  1.00  0.00     0.124 S 
ATOM     91  O   UNL A   1      40.534  26.560  37.677  1.00  0.00    -0.237 OA
ATOM     92  O   UNL A   1      41.849  24.867  36.443  1.00  0.00    -0.237 OA
ATOM     93  O   UNL A   1      42.944  26.287  38.128  1.00  0.00    -0.744 OA
ENDBRANCH  89  90
ENDBRANCH  57  82
ENDBRANCH  31  32
ENDBRANCH  24  26
ENDBRANCH  23  24
ENDBRANCH  22  23
ENDBRANCH  21  22
ENDBRANCH   1  21
TORSDOF 20
ENDMDL
MODEL 2
REMARK VINA RESULT:     -10.6      2.167      3.042
REMARK SMILES C[C@H]1CCC[C@@H](n2cnnc2SCC(=O)OCCOCCOC(=O)c2ccc(-c3c4nc(c(-c5c(F)cc(S(=O)(=O)[O-])cc5F)c5ccc([nH]5)c(-c5c(F)cc(S(=O)(=O)[O-])cc5F)c5nc(c(-c6c(F)cc(S(=O)(=O)[O-])cc6F)c6ccc3[nH]6)C=C5)C=C4)cc2)C1
REMARK SMILES IDX 19 1 18 2 17 3 16 4 14 5 15 6 13 7 12 8 11 9 7 10 8 11 9 12
REMARK SMILES IDX 10 13 6 14 1 15 2 16 3 17 91 18 4 19 5 20 20 21 21 22 22 23
REMARK SMILES IDX 23 24 24 25 25 26 26 27 90 28 27 29 89 30 28 31 29 32 30 33
REMARK SMILES IDX 83 34 31 35 88 36 82 37 84 38 32 39 87 40 81 41 80 42 33 44
REMARK SMILES IDX 67 45 46 46 66 47 47 48 50 49 65 50 85 51 48 52 49 53 64 55
REMARK SMILES IDX 86 56 51 57 34 58 35 59 44 60 36 61 37 62 43 63 45 64 38 65
REMARK SMILES IDX 39 66 40 67 41 68 42 69 68 70 69 71 78 72 70 73 71 74 77 75
REMARK SMILES IDX 79 76 72 77 73 78 74 79 75 80 76 81 52 82 53 83 62 84 54 85
REMARK SMILES IDX 55 86 61 87 63 88 56 89 57 90 58 91 59 92 60 93
REMARK H PARENT 84 43 50 54
REMARK Flexibility Score: inf
ROOT
ATOM      1  O   UNL A   1      39.258  21.811  26.779  1.00  0.00    -0.374 OA
ENDROOT
BRANCH   1   2
ATOM      2  C   UNL A   1      38.520  21.474  25.606  1.00  0.00     0.202 C 
BRANCH   2   3
ATOM      3  C   UNL A   1      37.205  22.248  25.454  1.00  0.00     0.261 C 
BRANCH   3   4
ATOM      4  O   UNL A   1      36.285  21.573  24.562  1.00  0.00    -0.463 OA
BRANCH   4   5
ATOM      5  C   UNL A   1      35.629  22.362  23.667  1.00  0.00     0.316 C 
ATOM      6  O   UNL A   1      36.191  23.040  22.809  1.00  0.00    -0.251 OA
BRANCH   5   7
ATOM      7  C   UNL A   1      34.120  22.411  23.834  1.00  0.00     0.200 C 
BRANCH   7   8
ATOM      8  S   UNL A   1      33.405  23.951  24.399  1.00  0.00    -0.074 SA
BRANCH   8   9
ATOM      9  C   UNL A   1      33.095  25.069  23.095  1.00  0.00     0.191 A 
ATOM     10  N   UNL A   1      32.944  26.445  23.071  1.00  0.00    -0.306 N 
ATOM     11  C   UNL A   1      33.116  26.803  21.757  1.00  0.00     0.226 A 
ATOM     12  N   UNL A   1      33.279  25.736  21.018  1.00  0.00    -0.138 NA
ATOM     13  N   UNL A   1      33.266  24.653  21.855  1.00  0.00    -0.124 NA
BRANCH  10  14
ATOM     14  C   UNL A   1      32.590  27.382  24.117  1.00  0.00     0.091 C 
ATOM     15  C   UNL A   1      34.082  28.839  27.374  1.00  0.00     0.008 C 
ATOM     16  C   UNL A   1      33.058  28.521  26.288  1.00  0.00    -0.012 C 
ATOM     17  C   UNL A   1      32.245  29.742  25.853  1.00  0.00     0.003 C 
ATOM     18  C   UNL A   1      33.709  27.886  25.056  1.00  0.00     0.029 C 
ATOM     19  C   UNL A   1      31.257  29.415  24.724  1.00  0.00     0.002 C 
ATOM     20  C   UNL A   1      31.880  28.626  23.570  1.00  0.00     0.025 C 
ENDBRANCH  10  14
ENDBRANCH   8   9
ENDBRANCH   7   8
ENDBRANCH   5   7
ENDBRANCH   4   5
ENDBRANCH   3   4
ENDBRANCH   2   3
ENDBRANCH   1   2
BRANCH   1  21
ATOM     21  C   UNL A   1      40.648  22.021  26.556  1.00  0.00     0.202 C 
BRANCH  21  22
ATOM     22  C   UNL A   1      41.600  20.944  27.111  1.00  0.00     0.261 C 
BRANCH  22  23
ATOM     23  O   UNL A   1      42.973  21.232  26.975  1.00  0.00    -0.460 OA
BRANCH  23  24
ATOM     24  C   UNL A   1      43.461  21.183  25.711  1.00  0.00     0.338 C 
ATOM     25  O   UNL A   1      43.440  20.228  24.949  1.00  0.00    -0.246 OA
BRANCH  24  26
ATOM     26  C   UNL A   1      44.222  22.446  25.584  1.00  0.00     0.060 A 
ATOM     27  C   UNL A   1      44.790  22.757  26.811  1.00  0.00     0.016 A 
ATOM     28  C   UNL A   1      43.567  23.425  24.807  1.00  0.00     0.016 A 
ATOM     29  C   UNL A   1      44.313  23.881  27.447  1.00  0.00     0.010 A 
ATOM     30  C   UNL A   1      43.003  24.486  25.474  1.00  0.00     0.010 A 
ATOM     31  C   UNL A   1      43.340  24.670  26.811  1.00  0.00    -0.014 A 
BRANCH  31  32
ATOM     32  C   UNL A   1      42.998  25.926  27.435  1.00  0.00     0.031 A 
ATOM     33  C   UNL A   1      44.059  26.901  27.123  1.00  0.00     0.074 A 
ATOM     34  C   UNL A   1      41.887  26.229  28.116  1.00  0.00     0.049 A 
ATOM     35  N   UNL A   1      45.169  27.044  27.768  1.00  0.00    -0.248 NA
ATOM     36  C   UNL A   1      44.066  27.482  25.769  1.00  0.00     0.031 C 
ATOM     37  C   UNL A   1      40.624  25.503  28.216  1.00  0.00     0.029 A 
ATOM     38  N   UNL A   1      41.668  27.353  28.844  1.00  0.00    -0.354 N 
ATOM     39  C   UNL A   1      45.889  27.950  27.008  1.00  0.00     0.074 A 
ATOM     40  C   UNL A   1      45.338  27.874  25.686  1.00  0.00     0.031 C 
ATOM     41  C   UNL A   1      39.704  26.306  28.809  1.00  0.00     0.029 A 
ATOM     42  C   UNL A   1      40.356  27.532  29.250  1.00  0.00     0.049 A 
ATOM     43  H   UNL A   1      42.384  27.992  29.067  1.00  0.00     0.167 HD
ATOM     44  C   UNL A   1      46.583  28.954  27.607  1.00  0.00     0.037 A 
ATOM     45  C   UNL A   1      39.873  28.649  29.850  1.00  0.00     0.037 A 
ATOM     46  C   UNL A   1      46.682  28.714  29.030  1.00  0.00     0.049 A 
ATOM     47  C   UNL A   1      41.035  29.366  30.445  1.00  0.00     0.074 A 
ATOM     48  C   UNL A   1      47.314  27.793  29.839  1.00  0.00     0.029 A 
ATOM     49  N   UNL A   1      45.674  29.282  29.776  1.00  0.00    -0.354 N 
ATOM     50  N   UNL A   1      41.747  28.892  31.433  1.00  0.00    -0.248 NA
ATOM     51  C   UNL A   1      41.670  30.446  29.698  1.00  0.00     0.031 C 
ATOM     52  C   UNL A   1      46.486  27.649  30.993  1.00  0.00     0.029 A 
ATOM     53  C   UNL A   1      45.393  28.508  30.871  1.00  0.00     0.049 A 
ATOM     54  H   UNL A   1      45.220  30.127  29.553  1.00  0.00     0.167 HD
ATOM     55  C   UNL A   1      43.043  29.307  31.174  1.00  0.00     0.074 A 
ATOM     56  C   UNL A   1      42.906  30.382  30.201  1.00  0.00     0.031 C 
ATOM     57  C   UNL A   1      44.107  28.536  31.544  1.00  0.00     0.037 A 
BRANCH  44  58
ATOM     58  C   UNL A   1      46.731  30.344  27.022  1.00  0.00     0.058 A 
ATOM     59  C   UNL A   1      48.009  30.937  27.018  1.00  0.00     0.135 A 
ATOM     60  C   UNL A   1      45.663  31.219  26.710  1.00  0.00     0.135 A 
ATOM     61  F   UNL A   1      49.101  30.207  27.293  1.00  0.00    -0.206 F 
ATOM     62  C   UNL A   1      48.199  32.303  26.801  1.00  0.00     0.059 A 
ATOM     63  C   UNL A   1      45.835  32.567  26.437  1.00  0.00     0.059 A 
ATOM     64  F   UNL A   1      44.377  30.857  26.740  1.00  0.00    -0.206 F 
ATOM     65  C   UNL A   1      47.100  33.111  26.527  1.00  0.00     0.060 A 
BRANCH  65  66
ATOM     66  S   UNL A   1      47.311  34.887  26.342  1.00  0.00     0.124 S 
ATOM     67  O   UNL A   1      48.286  35.172  27.387  1.00  0.00    -0.237 OA
ATOM     68  O   UNL A   1      47.790  34.989  24.968  1.00  0.00    -0.237 OA
ATOM     69  O   UNL A   1      45.967  35.410  26.572  1.00  0.00    -0.744 OA
ENDBRANCH  65  66
ENDBRANCH  44  58
BRANCH  45  70
ATOM     70  C   UNL A   1      38.540  29.281  29.700  1.00  0.00     0.058 A 
ATOM     71  C   UNL A   1      37.742  29.573  30.820  1.00  0.00     0.135 A 
ATOM     72  C   UNL A   1      38.153  29.882  28.486  1.00  0.00     0.135 A 
ATOM     73  F   UNL A   1      38.051  29.059  32.021  1.00  0.00    -0.206 F 
ATOM     74  C   UNL A   1      36.656  30.452  30.754  1.00  0.00     0.059 A 
ATOM     75  C   UNL A   1      37.071  30.755  28.393  1.00  0.00     0.059 A 
ATOM     76  F   UNL A   1      38.880  29.712  27.372  1.00  0.00    -0.206 F 
ATOM     77  C   UNL A   1      36.342  31.057  29.537  1.00  0.00     0.060 A 
BRANCH  77  78
ATOM     78  S   UNL A   1      35.063  32.335  29.488  1.00  0.00     0.124 S 
ATOM     79  O   UNL A   1      35.837  33.524  29.149  1.00  0.00    -0.237 OA
ATOM     80  O   UNL A   1      34.170  31.838  28.447  1.00  0.00    -0.237 OA
ATOM     81  O   UNL A   1      34.511  32.314  30.841  1.00  0.00    -0.744 OA
ENDBRANCH  77  78
ENDBRANCH  45  70
BRANCH  57  82
ATOM     82  C   UNL A   1      43.870  27.528  32.637  1.00  0.00     0.058 A 
ATOM     83  C   UNL A   1      43.777  26.139  32.443  1.00  0.00     0.135 A 
ATOM     84  C   UNL A   1      43.814  27.998  33.957  1.00  0.00     0.135 A 
ATOM     85  F   UNL A   1      43.911  25.604  31.222  1.00  0.00    -0.206 F 
ATOM     86  C   UNL A   1      43.593  25.261  33.514  1.00  0.00     0.059 A 
ATOM     87  C   UNL A   1      43.662  27.141  35.041  1.00  0.00     0.059 A 
ATOM     88  F   UNL A   1      43.948  29.312  34.208  1.00  0.00    -0.206 F 
ATOM     89  C   UNL A   1      43.537  25.774  34.812  1.00  0.00     0.060 A 
BRANCH  89  90
ATOM     90  S   UNL A   1      43.364  24.637  36.205  1.00  0.00     0.124 S 
ATOM     91  O   UNL A   1      43.490  25.532  37.351  1.00  0.00    -0.237 OA
ATOM     92  O   UNL A   1      42.038  24.066  35.987  1.00  0.00    -0.237 OA
ATOM     93  O   UNL A   1      44.472  23.701  36.020  1.00  0.00    -0.744 OA
ENDBRANCH  89  90
ENDBRANCH  57  82
ENDBRANCH  31  32
ENDBRANCH  24  26
ENDBRANCH  23  24
ENDBRANCH  22  23
ENDBRANCH  21  22
ENDBRANCH   1  21
TORSDOF 20
ENDMDL
MODEL 3
REMARK VINA RESULT:     -10.4      3.246      5.379
REMARK SMILES C[C@H]1CCC[C@@H](n2cnnc2SCC(=O)OCCOCCOC(=O)c2ccc(-c3c4nc(c(-c5c(F)cc(S(=O)(=O)[O-])cc5F)c5ccc([nH]5)c(-c5c(F)cc(S(=O)(=O)[O-])cc5F)c5nc(c(-c6c(F)cc(S(=O)(=O)[O-])cc6F)c6ccc3[nH]6)C=C5)C=C4)cc2)C1
REMARK SMILES IDX 19 1 18 2 17 3 16 4 14 5 15 6 13 7 12 8 11 9 7 10 8 11 9 12
REMARK SMILES IDX 10 13 6 14 1 15 2 16 3 17 91 18 4 19 5 20 20 21 21 22 22 23
REMARK SMILES IDX 23 24 24 25 25 26 26 27 90 28 27 29 89 30 28 31 29 32 30 33
REMARK SMILES IDX 83 34 31 35 88 36 82 37 84 38 32 39 87 40 81 41 80 42 33 44
REMARK SMILES IDX 67 45 46 46 66 47 47 48 50 49 65 50 85 51 48 52 49 53 64 55
REMARK SMILES IDX 86 56 51 57 34 58 35 59 44 60 36 61 37 62 43 63 45 64 38 65
REMARK SMILES IDX 39 66 40 67 41 68 42 69 68 70 69 71 78 72 70 73 71 74 77 75
REMARK SMILES IDX 79 76 72 77 73 78 74 79 75 80 76 81 52 82 53 83 62 84 54 85
REMARK SMILES IDX 55 86 61 87 63 88 56 89 57 90 58 91 59 92 60 93
REMARK H PARENT 84 43 50 54
REMARK Flexibility Score: inf
ROOT
ATOM      1  O   UNL A   1      40.907  20.665  26.987  1.00  0.00    -0.374 OA
ENDROOT
BRANCH   1   2
ATOM      2  C   UNL A   1      40.439  21.885  26.415  1.00  0.00     0.202 C 
BRANCH   2   3
ATOM      3  C   UNL A   1      38.978  21.838  25.954  1.00  0.00     0.261 C 
BRANCH   3   4
ATOM      4  O   UNL A   1      38.593  20.509  25.525  1.00  0.00    -0.463 OA
BRANCH   4   5
ATOM      5  C   UNL A   1      37.319  20.374  25.061  1.00  0.00     0.316 C 
ATOM      6  O   UNL A   1      36.856  19.323  24.625  1.00  0.00    -0.251 OA
BRANCH   5   7
ATOM      7  C   UNL A   1      36.498  21.651  25.052  1.00  0.00     0.200 C 
BRANCH   7   8
ATOM      8  S   UNL A   1      35.263  21.844  26.332  1.00  0.00    -0.074 SA
BRANCH   8   9
ATOM      9  C   UNL A   1      33.639  21.919  25.696  1.00  0.00     0.191 A 
ATOM     10  N   UNL A   1      32.841  20.972  25.078  1.00  0.00    -0.306 N 
ATOM     11  C   UNL A   1      31.564  21.469  25.158  1.00  0.00     0.226 A 
ATOM     12  N   UNL A   1      31.578  22.657  25.706  1.00  0.00    -0.138 NA
ATOM     13  N   UNL A   1      32.875  22.938  26.041  1.00  0.00    -0.124 NA
BRANCH  10  14
ATOM     14  C   UNL A   1      33.181  19.745  24.387  1.00  0.00     0.091 C 
ATOM     15  C   UNL A   1      34.540  16.213  25.184  1.00  0.00     0.008 C 
ATOM     16  C   UNL A   1      34.102  17.425  24.367  1.00  0.00    -0.012 C 
ATOM     17  C   UNL A   1      33.221  17.058  23.172  1.00  0.00     0.003 C 
ATOM     18  C   UNL A   1      33.374  18.463  25.228  1.00  0.00     0.029 C 
ATOM     19  C   UNL A   1      32.746  18.293  22.392  1.00  0.00     0.002 C 
ATOM     20  C   UNL A   1      32.176  19.401  23.282  1.00  0.00     0.025 C 
ENDBRANCH  10  14
ENDBRANCH   8   9
ENDBRANCH   7   8
ENDBRANCH   5   7
ENDBRANCH   4   5
ENDBRANCH   3   4
ENDBRANCH   2   3
ENDBRANCH   1   2
BRANCH   1  21
ATOM     21  C   UNL A   1      41.483  19.762  26.049  1.00  0.00     0.202 C 
BRANCH  21  22
ATOM     22  C   UNL A   1      43.021  19.765  25.956  1.00  0.00     0.261 C 
BRANCH  22  23
ATOM     23  O   UNL A   1      43.578  20.879  25.294  1.00  0.00    -0.460 OA
BRANCH  23  24
ATOM     24  C   UNL A   1      44.909  20.811  25.048  1.00  0.00     0.338 C 
ATOM     25  O   UNL A   1      45.656  19.874  25.285  1.00  0.00    -0.246 OA
BRANCH  24  26
ATOM     26  C   UNL A   1      45.263  22.198  24.670  1.00  0.00     0.060 A 
ATOM     27  C   UNL A   1      46.105  22.730  25.636  1.00  0.00     0.016 A 
ATOM     28  C   UNL A   1      44.179  22.937  24.153  1.00  0.00     0.016 A 
ATOM     29  C   UNL A   1      45.605  23.766  26.391  1.00  0.00     0.010 A 
ATOM     30  C   UNL A   1      43.624  23.897  24.966  1.00  0.00     0.010 A 
ATOM     31  C   UNL A   1      44.320  24.261  26.114  1.00  0.00    -0.014 A 
BRANCH  31  32
ATOM     32  C   UNL A   1      43.908  25.456  26.811  1.00  0.00     0.031 A 
ATOM     33  C   UNL A   1      44.954  26.480  26.633  1.00  0.00     0.074 A 
ATOM     34  C   UNL A   1      42.754  25.676  27.451  1.00  0.00     0.049 A 
ATOM     35  N   UNL A   1      46.024  26.602  27.346  1.00  0.00    -0.248 NA
ATOM     36  C   UNL A   1      45.014  27.164  25.329  1.00  0.00     0.031 C 
ATOM     37  C   UNL A   1      41.510  24.912  27.427  1.00  0.00     0.029 A 
ATOM     38  N   UNL A   1      42.463  26.735  28.250  1.00  0.00    -0.354 N 
ATOM     39  C   UNL A   1      46.754  27.582  26.698  1.00  0.00     0.074 A 
ATOM     40  C   UNL A   1      46.276  27.594  25.345  1.00  0.00     0.031 C 
ATOM     41  C   UNL A   1      40.537  25.642  28.029  1.00  0.00     0.029 A 
ATOM     42  C   UNL A   1      41.127  26.847  28.597  1.00  0.00     0.049 A 
ATOM     43  H   UNL A   1      43.147  27.372  28.560  1.00  0.00     0.167 HD
ATOM     44  C   UNL A   1      47.386  28.555  27.408  1.00  0.00     0.037 A 
ATOM     45  C   UNL A   1      40.580  27.901  29.252  1.00  0.00     0.037 A 
ATOM     46  C   UNL A   1      47.417  28.208  28.812  1.00  0.00     0.049 A 
ATOM     47  C   UNL A   1      41.686  28.600  29.963  1.00  0.00     0.074 A 
ATOM     48  C   UNL A   1      48.034  27.244  29.582  1.00  0.00     0.029 A 
ATOM     49  N   UNL A   1      46.355  28.689  29.543  1.00  0.00    -0.354 N 
ATOM     50  N   UNL A   1      42.360  28.070  30.948  1.00  0.00    -0.248 NA
ATOM     51  C   UNL A   1      42.327  29.751  29.336  1.00  0.00     0.031 C 
ATOM     52  C   UNL A   1      47.151  26.989  30.674  1.00  0.00     0.029 A 
ATOM     53  C   UNL A   1      46.040  27.826  30.559  1.00  0.00     0.049 A 
ATOM     54  H   UNL A   1      45.888  29.537  29.360  1.00  0.00     0.167 HD
ATOM     55  C   UNL A   1      43.655  28.537  30.793  1.00  0.00     0.074 A 
ATOM     56  C   UNL A   1      43.537  29.681  29.899  1.00  0.00     0.031 C 
ATOM     57  C   UNL A   1      44.721  27.768  31.161  1.00  0.00     0.037 A 
BRANCH  44  58
ATOM     58  C   UNL A   1      47.522  29.989  26.938  1.00  0.00     0.058 A 
ATOM     59  C   UNL A   1      48.785  30.606  27.026  1.00  0.00     0.135 A 
ATOM     60  C   UNL A   1      46.445  30.865  26.659  1.00  0.00     0.135 A 
ATOM     61  F   UNL A   1      49.884  29.878  27.281  1.00  0.00    -0.206 F 
ATOM     62  C   UNL A   1      48.952  31.988  26.924  1.00  0.00     0.059 A 
ATOM     63  C   UNL A   1      46.597  32.233  26.498  1.00  0.00     0.059 A 
ATOM     64  F   UNL A   1      45.168  30.477  26.615  1.00  0.00    -0.206 F 
ATOM     65  C   UNL A   1      47.845  32.794  26.675  1.00  0.00     0.060 A 
BRANCH  65  66
ATOM     66  S   UNL A   1      48.023  34.582  26.637  1.00  0.00     0.124 S 
ATOM     67  O   UNL A   1      48.433  34.803  25.257  1.00  0.00    -0.237 OA
ATOM     68  O   UNL A   1      46.678  35.023  26.989  1.00  0.00    -0.237 OA
ATOM     69  O   UNL A   1      49.045  34.839  27.649  1.00  0.00    -0.744 OA
ENDBRANCH  65  66
ENDBRANCH  44  58
BRANCH  45  70
ATOM     70  C   UNL A   1      39.238  28.508  29.078  1.00  0.00     0.058 A 
ATOM     71  C   UNL A   1      38.377  28.697  30.173  1.00  0.00     0.135 A 
ATOM     72  C   UNL A   1      38.895  29.184  27.891  1.00  0.00     0.135 A 
ATOM     73  F   UNL A   1      38.641  28.108  31.350  1.00  0.00    -0.206 F 
ATOM     74  C   UNL A   1      37.270  29.551  30.113  1.00  0.00     0.059 A 
ATOM     75  C   UNL A   1      37.793  30.033  27.804  1.00  0.00     0.059 A 
ATOM     76  F   UNL A   1      39.681  29.113  26.807  1.00  0.00    -0.206 F 
ATOM     77  C   UNL A   1      37.000  30.234  28.927  1.00  0.00     0.060 A 
BRANCH  77  78
ATOM     78  S   UNL A   1      35.688  31.479  28.902  1.00  0.00     0.124 S 
ATOM     79  O   UNL A   1      35.357  31.598  30.317  1.00  0.00    -0.237 OA
ATOM     80  O   UNL A   1      36.363  32.627  28.306  1.00  0.00    -0.237 OA
ATOM     81  O   UNL A   1      34.655  30.866  28.068  1.00  0.00    -0.744 OA
ENDBRANCH  77  78
ENDBRANCH  45  70
BRANCH  57  82
ATOM     82  C   UNL A   1      44.457  26.673  32.160  1.00  0.00     0.058 A 
ATOM     83  C   UNL A   1      44.310  25.312  31.840  1.00  0.00     0.135 A 
ATOM     84  C   UNL A   1      44.434  27.021  33.518  1.00  0.00     0.135 A 
ATOM     85  F   UNL A   1      44.409  24.888  30.573  1.00  0.00    -0.206 F 
ATOM     86  C   UNL A   1      44.104  24.346  32.828  1.00  0.00     0.059 A 
ATOM     87  C   UNL A   1      44.262  26.073  34.521  1.00  0.00     0.059 A 
ATOM     88  F   UNL A   1      44.621  28.299  33.888  1.00  0.00    -0.206 F 
ATOM     89  C   UNL A   1      44.082  24.738  34.168  1.00  0.00     0.060 A 
BRANCH  89  90
ATOM     90  S   UNL A   1      43.882  23.485  35.453  1.00  0.00     0.124 S 
ATOM     91  O   UNL A   1      42.487  23.661  35.842  1.00  0.00    -0.237 OA
ATOM     92  O   UNL A   1      44.193  22.248  34.742  1.00  0.00    -0.237 OA
ATOM     93  O   UNL A   1      44.864  23.873  36.463  1.00  0.00    -0.744 OA
ENDBRANCH  89  90
ENDBRANCH  57  82
ENDBRANCH  31  32
ENDBRANCH  24  26
ENDBRANCH  23  24
ENDBRANCH  22  23
ENDBRANCH  21  22
ENDBRANCH   1  21
TORSDOF 20
ENDMDL
