MODEL 1
REMARK VINA RESULT:     -11.5      0.000      0.000
REMARK SMILES COc1ccc2[nH]c(C(=O)c3cc(C)ccn3)c(CC(=O)OCCOCCOC(=O)c3ccc(-c4c5nc(c(-c6c(F)cc(S(=O)(=O)[O-])cc6F)c6ccc([nH]6)c(-c6c(F)cc(S(=O)(=O)[O-])cc6F)c6nc(c(-c7c(F)cc(S(=O)(=O)[O-])cc7F)c7ccc4[nH]7)C=C6)C=C5)cc3)c2c1
REMARK SMILES IDX 25 1 24 2 23 3 22 4 20 5 21 6 19 7 18 8 3 9 4 10 98 11 5 12
REMARK SMILES IDX 97 13 6 14 7 15 8 16 2 18 1 19 9 20 10 21 11 22 12 23 17 24
REMARK SMILES IDX 13 25 16 26 14 27 15 28 26 29 27 30 28 31 29 32 30 33 31 34
REMARK SMILES IDX 32 35 96 36 33 37 95 38 34 39 35 40 36 41 89 42 37 43 94 44
REMARK SMILES IDX 88 45 90 46 38 47 93 48 87 49 86 50 39 52 73 53 52 54 72 55
REMARK SMILES IDX 53 56 56 57 71 58 91 59 54 60 55 61 70 63 92 64 57 65 40 66
REMARK SMILES IDX 41 67 50 68 42 69 43 70 49 71 51 72 44 73 45 74 46 75 47 76
REMARK SMILES IDX 48 77 74 78 75 79 84 80 76 81 77 82 83 83 85 84 78 85 79 86
REMARK SMILES IDX 80 87 81 88 82 89 58 90 59 91 68 92 60 93 61 94 67 95 69 96
REMARK SMILES IDX 62 97 63 98 64 99 65 100 66 101
REMARK H PARENT 7 17 90 51 56 62
REMARK Flexibility Score: inf
ROOT
ATOM      1  O   UNL A   1      39.194  21.053  25.990  1.00  0.00    -0.374 OA
ENDROOT
BRANCH   1   2
ATOM      2  C   UNL A   1      38.110  20.960  25.064  1.00  0.00     0.202 C 
BRANCH   2   3
ATOM      3  C   UNL A   1      37.495  22.274  24.557  1.00  0.00     0.261 C 
BRANCH   3   4
ATOM      4  O   UNL A   1      36.059  22.233  24.404  1.00  0.00    -0.463 OA
BRANCH   4   5
ATOM      5  C   UNL A   1      35.463  23.443  24.205  1.00  0.00     0.310 C 
ATOM      6  O   UNL A   1      35.009  23.813  23.122  1.00  0.00    -0.252 OA
BRANCH   5   7
ATOM      7  C   UNL A   1      35.274  24.291  25.447  1.00  0.00     0.161 C 
BRANCH   7   8
ATOM      8  C   UNL A   1      33.872  24.617  25.887  1.00  0.00     0.000 A 
ATOM      9  C   UNL A   1      32.621  28.035  24.678  1.00  0.00     0.119 A 
ATOM     10  C   UNL A   1      31.336  27.912  25.202  1.00  0.00     0.048 A 
ATOM     11  C   UNL A   1      33.561  27.014  24.875  1.00  0.00     0.057 A 
ATOM     12  C   UNL A   1      30.964  26.783  25.944  1.00  0.00     0.030 A 
ATOM     13  C   UNL A   1      33.202  25.852  25.591  1.00  0.00     0.008 A 
ATOM     14  C   UNL A   1      31.914  25.766  26.107  1.00  0.00     0.046 A 
ATOM     15  N   UNL A   1      31.817  24.550  26.736  1.00  0.00    -0.352 N 
ATOM     16  C   UNL A   1      32.922  23.764  26.466  1.00  0.00     0.093 A 
ATOM     17  H   UNL A   1      31.061  24.273  27.303  1.00  0.00     0.167 HD
BRANCH   9  18
ATOM     18  O   UNL A   1      33.051  29.068  23.888  1.00  0.00    -0.497 OA
ATOM     19  C   UNL A   1      33.804  28.692  22.740  1.00  0.00     0.278 C 
ENDBRANCH   9  18
BRANCH  16  20
ATOM     20  C   UNL A   1      33.015  22.329  26.745  1.00  0.00     0.227 C 
ATOM     21  O   UNL A   1      33.179  21.870  27.875  1.00  0.00    -0.285 OA
BRANCH  20  22
ATOM     22  C   UNL A   1      32.886  21.348  25.625  1.00  0.00     0.113 A 
ATOM     23  C   UNL A   1      32.398  21.722  24.381  1.00  0.00     0.036 A 
ATOM     24  N   UNL A   1      33.272  20.082  25.924  1.00  0.00    -0.253 NA
ATOM     25  C   UNL A   1      32.278  20.730  23.400  1.00  0.00    -0.047 A 
ATOM     26  C   UNL A   1      33.128  19.141  24.976  1.00  0.00     0.112 A 
ATOM     27  C   UNL A   1      31.787  21.042  22.019  1.00  0.00     0.044 C 
ATOM     28  C   UNL A   1      32.639  19.414  23.714  1.00  0.00     0.023 A 
ENDBRANCH  20  22
ENDBRANCH  16  20
ENDBRANCH   7   8
ENDBRANCH   5   7
ENDBRANCH   4   5
ENDBRANCH   3   4
ENDBRANCH   2   3
ENDBRANCH   1   2
BRANCH   1  29
ATOM     29  C   UNL A   1      39.466  22.338  26.540  1.00  0.00     0.202 C 
BRANCH  29  30
ATOM     30  C   UNL A   1      40.903  22.852  26.442  1.00  0.00     0.261 C 
BRANCH  30  31
ATOM     31  O   UNL A   1      41.042  24.263  26.289  1.00  0.00    -0.460 OA
BRANCH  31  32
ATOM     32  C   UNL A   1      42.074  24.795  26.972  1.00  0.00     0.338 C 
ATOM     33  O   UNL A   1      43.263  24.508  26.897  1.00  0.00    -0.246 OA
BRANCH  32  34
ATOM     34  C   UNL A   1      41.573  25.880  27.812  1.00  0.00     0.060 A 
ATOM     35  C   UNL A   1      42.442  26.931  28.113  1.00  0.00     0.016 A 
ATOM     36  C   UNL A   1      40.302  25.797  28.387  1.00  0.00     0.016 A 
ATOM     37  C   UNL A   1      42.062  27.876  29.057  1.00  0.00     0.010 A 
ATOM     38  C   UNL A   1      39.919  26.753  29.328  1.00  0.00     0.010 A 
ATOM     39  C   UNL A   1      40.818  27.767  29.700  1.00  0.00    -0.014 A 
BRANCH  39  40
ATOM     40  C   UNL A   1      40.541  28.646  30.856  1.00  0.00     0.031 A 
ATOM     41  C   UNL A   1      41.405  28.537  32.082  1.00  0.00     0.074 A 
ATOM     42  C   UNL A   1      39.582  29.584  30.766  1.00  0.00     0.049 A 
ATOM     43  N   UNL A   1      41.425  29.292  33.149  1.00  0.00    -0.248 NA
ATOM     44  C   UNL A   1      42.378  27.432  32.110  1.00  0.00     0.031 C 
ATOM     45  C   UNL A   1      38.690  29.766  29.621  1.00  0.00     0.029 A 
ATOM     46  N   UNL A   1      39.210  30.567  31.644  1.00  0.00    -0.354 N 
ATOM     47  C   UNL A   1      42.413  28.761  33.971  1.00  0.00     0.074 A 
ATOM     48  C   UNL A   1      42.941  27.595  33.298  1.00  0.00     0.031 C 
ATOM     49  C   UNL A   1      37.882  30.811  29.860  1.00  0.00     0.029 A 
ATOM     50  C   UNL A   1      38.194  31.365  31.176  1.00  0.00     0.049 A 
ATOM     51  H   UNL A   1      39.630  30.690  32.525  1.00  0.00     0.167 HD
ATOM     52  C   UNL A   1      42.847  29.218  35.169  1.00  0.00     0.037 A 
ATOM     53  C   UNL A   1      37.593  32.427  31.744  1.00  0.00     0.037 A 
ATOM     54  C   UNL A   1      42.311  30.382  35.823  1.00  0.00     0.049 A 
ATOM     55  C   UNL A   1      38.095  32.916  33.077  1.00  0.00     0.074 A 
ATOM     56  C   UNL A   1      42.687  30.947  37.028  1.00  0.00     0.029 A 
ATOM     57  N   UNL A   1      41.275  31.160  35.323  1.00  0.00    -0.354 N 
ATOM     58  N   UNL A   1      39.061  32.433  33.821  1.00  0.00    -0.248 NA
ATOM     59  C   UNL A   1      37.438  34.104  33.637  1.00  0.00     0.031 C 
ATOM     60  C   UNL A   1      41.853  32.043  37.275  1.00  0.00     0.029 A 
ATOM     61  C   UNL A   1      40.987  32.188  36.202  1.00  0.00     0.049 A 
ATOM     62  H   UNL A   1      40.813  31.002  34.468  1.00  0.00     0.167 HD
ATOM     63  C   UNL A   1      39.145  33.270  34.928  1.00  0.00     0.074 A 
ATOM     64  C   UNL A   1      38.138  34.297  34.747  1.00  0.00     0.031 C 
ATOM     65  C   UNL A   1      39.978  33.198  35.997  1.00  0.00     0.037 A 
BRANCH  52  66
ATOM     66  C   UNL A   1      43.941  28.444  35.852  1.00  0.00     0.058 A 
ATOM     67  C   UNL A   1      43.661  27.377  36.722  1.00  0.00     0.135 A 
ATOM     68  C   UNL A   1      45.290  28.762  35.624  1.00  0.00     0.135 A 
ATOM     69  F   UNL A   1      42.389  27.042  36.991  1.00  0.00    -0.206 F 
ATOM     70  C   UNL A   1      44.677  26.672  37.361  1.00  0.00     0.059 A 
ATOM     71  C   UNL A   1      46.322  28.055  36.234  1.00  0.00     0.059 A 
ATOM     72  F   UNL A   1      45.615  29.775  34.805  1.00  0.00    -0.206 F 
ATOM     73  C   UNL A   1      46.005  27.022  37.114  1.00  0.00     0.060 A 
BRANCH  73  74
ATOM     74  S   UNL A   1      47.314  26.105  37.956  1.00  0.00     0.124 S 
ATOM     75  O   UNL A   1      47.545  26.941  39.130  1.00  0.00    -0.237 OA
ATOM     76  O   UNL A   1      46.680  24.815  38.212  1.00  0.00    -0.237 OA
ATOM     77  O   UNL A   1      48.397  26.083  36.977  1.00  0.00    -0.744 OA
ENDBRANCH  73  74
ENDBRANCH  52  66
BRANCH  53  78
ATOM     78  C   UNL A   1      36.477  33.107  31.038  1.00  0.00     0.058 A 
ATOM     79  C   UNL A   1      35.157  33.018  31.502  1.00  0.00     0.135 A 
ATOM     80  C   UNL A   1      36.718  33.890  29.898  1.00  0.00     0.135 A 
ATOM     81  F   UNL A   1      34.876  32.278  32.586  1.00  0.00    -0.206 F 
ATOM     82  C   UNL A   1      34.112  33.674  30.857  1.00  0.00     0.059 A 
ATOM     83  C   UNL A   1      35.695  34.574  29.249  1.00  0.00     0.059 A 
ATOM     84  F   UNL A   1      37.967  34.020  29.424  1.00  0.00    -0.206 F 
ATOM     85  C   UNL A   1      34.393  34.453  29.732  1.00  0.00     0.060 A 
BRANCH  85  86
ATOM     86  S   UNL A   1      33.043  35.350  28.937  1.00  0.00     0.124 S 
ATOM     87  O   UNL A   1      32.565  34.366  27.972  1.00  0.00    -0.237 OA
ATOM     88  O   UNL A   1      32.154  35.629  30.060  1.00  0.00    -0.237 OA
ATOM     89  O   UNL A   1      33.708  36.520  28.369  1.00  0.00    -0.744 OA
ENDBRANCH  85  86
ENDBRANCH  53  78
BRANCH  65  90
ATOM     90  C   UNL A   1      39.848  34.274  37.038  1.00  0.00     0.058 A 
ATOM     91  C   UNL A   1      40.460  35.527  36.882  1.00  0.00     0.135 A 
ATOM     92  C   UNL A   1      39.069  34.059  38.186  1.00  0.00     0.135 A 
ATOM     93  F   UNL A   1      41.216  35.779  35.801  1.00  0.00    -0.206 F 
ATOM     94  C   UNL A   1      40.331  36.521  37.844  1.00  0.00     0.059 A 
ATOM     95  C   UNL A   1      38.907  35.048  39.151  1.00  0.00     0.059 A 
ATOM     96  F   UNL A   1      38.452  32.882  38.376  1.00  0.00    -0.206 F 
ATOM     97  C   UNL A   1      39.555  36.271  38.978  1.00  0.00     0.060 A 
BRANCH  97  98
ATOM     98  S   UNL A   1      39.382  37.574  40.216  1.00  0.00     0.124 S 
ATOM     99  O   UNL A   1      38.334  38.400  39.626  1.00  0.00    -0.237 OA
ATOM    100  O   UNL A   1      39.003  36.825  41.410  1.00  0.00    -0.237 OA
ATOM    101  O   UNL A   1      40.710  38.178  40.258  1.00  0.00    -0.744 OA
ENDBRANCH  97  98
ENDBRANCH  65  90
ENDBRANCH  39  40
ENDBRANCH  32  34
ENDBRANCH  31  32
ENDBRANCH  30  31
ENDBRANCH  29  30
ENDBRANCH   1  29
TORSDOF 21
ENDMDL
MODEL 2
REMARK VINA RESULT:     -11.4      6.281     12.120
REMARK SMILES COc1ccc2[nH]c(C(=O)c3cc(C)ccn3)c(CC(=O)OCCOCCOC(=O)c3ccc(-c4c5nc(c(-c6c(F)cc(S(=O)(=O)[O-])cc6F)c6ccc([nH]6)c(-c6c(F)cc(S(=O)(=O)[O-])cc6F)c6nc(c(-c7c(F)cc(S(=O)(=O)[O-])cc7F)c7ccc4[nH]7)C=C6)C=C5)cc3)c2c1
REMARK SMILES IDX 25 1 24 2 23 3 22 4 20 5 21 6 19 7 18 8 3 9 4 10 98 11 5 12
REMARK SMILES IDX 97 13 6 14 7 15 8 16 2 18 1 19 9 20 10 21 11 22 12 23 17 24
REMARK SMILES IDX 13 25 16 26 14 27 15 28 26 29 27 30 28 31 29 32 30 33 31 34
REMARK SMILES IDX 32 35 96 36 33 37 95 38 34 39 35 40 36 41 89 42 37 43 94 44
REMARK SMILES IDX 88 45 90 46 38 47 93 48 87 49 86 50 39 52 73 53 52 54 72 55
REMARK SMILES IDX 53 56 56 57 71 58 91 59 54 60 55 61 70 63 92 64 57 65 40 66
REMARK SMILES IDX 41 67 50 68 42 69 43 70 49 71 51 72 44 73 45 74 46 75 47 76
REMARK SMILES IDX 48 77 74 78 75 79 84 80 76 81 77 82 83 83 85 84 78 85 79 86
REMARK SMILES IDX 80 87 81 88 82 89 58 90 59 91 68 92 60 93 61 94 67 95 69 96
REMARK SMILES IDX 62 97 63 98 64 99 65 100 66 101
REMARK H PARENT 7 17 90 51 56 62
REMARK Flexibility Score: inf
ROOT
ATOM      1  O   UNL A   1      33.309  32.062  27.628  1.00  0.00    -0.374 OA
ENDROOT
BRANCH   1   2
ATOM      2  C   UNL A   1      33.126  30.904  26.813  1.00  0.00     0.202 C 
BRANCH   2   3
ATOM      3  C   UNL A   1      32.633  29.622  27.502  1.00  0.00     0.261 C 
BRANCH   3   4
ATOM      4  O   UNL A   1      31.833  28.767  26.655  1.00  0.00    -0.463 OA
BRANCH   4   5
ATOM      5  C   UNL A   1      32.219  27.460  26.622  1.00  0.00     0.310 C 
ATOM      6  O   UNL A   1      31.482  26.521  26.923  1.00  0.00    -0.252 OA
BRANCH   5   7
ATOM      7  C   UNL A   1      33.606  27.202  26.068  1.00  0.00     0.161 C 
BRANCH   7   8
ATOM      8  C   UNL A   1      33.738  26.377  24.816  1.00  0.00     0.000 A 
ATOM      9  C   UNL A   1      34.632  22.704  25.463  1.00  0.00     0.119 A 
ATOM     10  C   UNL A   1      34.578  22.305  24.130  1.00  0.00     0.048 A 
ATOM     11  C   UNL A   1      34.403  24.044  25.806  1.00  0.00     0.057 A 
ATOM     12  C   UNL A   1      34.311  23.230  23.110  1.00  0.00     0.030 A 
ATOM     13  C   UNL A   1      34.102  24.988  24.801  1.00  0.00     0.008 A 
ATOM     14  C   UNL A   1      34.064  24.557  23.480  1.00  0.00     0.046 A 
ATOM     15  N   UNL A   1      33.739  25.649  22.714  1.00  0.00    -0.352 N 
ATOM     16  C   UNL A   1      33.362  26.716  23.508  1.00  0.00     0.093 A 
ATOM     17  H   UNL A   1      33.768  25.670  21.730  1.00  0.00     0.167 HD
BRANCH   9  18
ATOM     18  O   UNL A   1      34.819  21.862  26.527  1.00  0.00    -0.497 OA
ATOM     19  C   UNL A   1      34.059  22.165  27.692  1.00  0.00     0.278 C 
ENDBRANCH   9  18
BRANCH  16  20
ATOM     20  C   UNL A   1      32.699  27.928  23.021  1.00  0.00     0.227 C 
ATOM     21  O   UNL A   1      33.308  28.905  22.590  1.00  0.00    -0.285 OA
BRANCH  20  22
ATOM     22  C   UNL A   1      31.205  28.001  23.014  1.00  0.00     0.113 A 
ATOM     23  C   UNL A   1      30.533  29.118  22.539  1.00  0.00     0.036 A 
ATOM     24  N   UNL A   1      30.576  26.906  23.508  1.00  0.00    -0.253 NA
ATOM     25  C   UNL A   1      29.134  29.115  22.601  1.00  0.00    -0.047 A 
ATOM     26  C   UNL A   1      29.234  26.933  23.580  1.00  0.00     0.112 A 
ATOM     27  C   UNL A   1      28.319  30.264  22.088  1.00  0.00     0.044 C 
ATOM     28  C   UNL A   1      28.478  28.004  23.146  1.00  0.00     0.023 A 
ENDBRANCH  20  22
ENDBRANCH  16  20
ENDBRANCH   7   8
ENDBRANCH   5   7
ENDBRANCH   4   5
ENDBRANCH   3   4
ENDBRANCH   2   3
ENDBRANCH   1   2
BRANCH   1  29
ATOM     29  C   UNL A   1      34.642  32.371  28.023  1.00  0.00     0.202 C 
BRANCH  29  30
ATOM     30  C   UNL A   1      35.068  31.961  29.433  1.00  0.00     0.261 C 
BRANCH  30  31
ATOM     31  O   UNL A   1      36.474  31.968  29.677  1.00  0.00    -0.460 OA
BRANCH  31  32
ATOM     32  C   UNL A   1      36.882  31.069  30.593  1.00  0.00     0.338 C 
ATOM     33  O   UNL A   1      36.396  30.831  31.692  1.00  0.00    -0.246 OA
BRANCH  32  34
ATOM     34  C   UNL A   1      38.002  30.311  30.041  1.00  0.00     0.060 A 
ATOM     35  C   UNL A   1      39.026  29.927  30.910  1.00  0.00     0.016 A 
ATOM     36  C   UNL A   1      38.092  30.090  28.663  1.00  0.00     0.016 A 
ATOM     37  C   UNL A   1      40.188  29.375  30.387  1.00  0.00     0.010 A 
ATOM     38  C   UNL A   1      39.258  29.527  28.142  1.00  0.00     0.010 A 
ATOM     39  C   UNL A   1      40.326  29.214  28.998  1.00  0.00    -0.014 A 
BRANCH  39  40
ATOM     40  C   UNL A   1      41.653  28.844  28.460  1.00  0.00     0.031 A 
ATOM     41  C   UNL A   1      42.738  29.883  28.407  1.00  0.00     0.074 A 
ATOM     42  C   UNL A   1      41.897  27.570  28.106  1.00  0.00     0.049 A 
ATOM     43  N   UNL A   1      44.001  29.746  28.100  1.00  0.00    -0.248 NA
ATOM     44  C   UNL A   1      42.350  31.263  28.747  1.00  0.00     0.031 C 
ATOM     45  C   UNL A   1      40.910  26.490  28.119  1.00  0.00     0.029 A 
ATOM     46  N   UNL A   1      43.052  26.966  27.685  1.00  0.00    -0.354 N 
ATOM     47  C   UNL A   1      44.560  31.013  28.216  1.00  0.00     0.074 A 
ATOM     48  C   UNL A   1      43.490  31.916  28.581  1.00  0.00     0.031 C 
ATOM     49  C   UNL A   1      41.506  25.349  27.738  1.00  0.00     0.029 A 
ATOM     50  C   UNL A   1      42.913  25.621  27.446  1.00  0.00     0.049 A 
ATOM     51  H   UNL A   1      43.900  27.451  27.564  1.00  0.00     0.167 HD
ATOM     52  C   UNL A   1      45.851  31.383  28.048  1.00  0.00     0.037 A 
ATOM     53  C   UNL A   1      43.822  24.711  27.047  1.00  0.00     0.037 A 
ATOM     54  C   UNL A   1      46.904  30.470  27.687  1.00  0.00     0.049 A 
ATOM     55  C   UNL A   1      45.252  25.147  26.868  1.00  0.00     0.074 A 
ATOM     56  C   UNL A   1      48.251  30.731  27.509  1.00  0.00     0.029 A 
ATOM     57  N   UNL A   1      46.723  29.115  27.444  1.00  0.00    -0.354 N 
ATOM     58  N   UNL A   1      45.776  26.340  27.027  1.00  0.00    -0.248 NA
ATOM     59  C   UNL A   1      46.216  24.112  26.475  1.00  0.00     0.031 C 
ATOM     60  C   UNL A   1      48.877  29.542  27.121  1.00  0.00     0.029 A 
ATOM     61  C   UNL A   1      47.929  28.530  27.101  1.00  0.00     0.049 A 
ATOM     62  H   UNL A   1      45.862  28.641  27.507  1.00  0.00     0.167 HD
ATOM     63  C   UNL A   1      47.135  26.195  26.775  1.00  0.00     0.074 A 
ATOM     64  C   UNL A   1      47.353  24.796  26.466  1.00  0.00     0.031 C 
ATOM     65  C   UNL A   1      48.116  27.133  26.797  1.00  0.00     0.037 A 
BRANCH  52  66
ATOM     66  C   UNL A   1      46.188  32.837  28.236  1.00  0.00     0.058 A 
ATOM     67  C   UNL A   1      46.688  33.330  29.453  1.00  0.00     0.135 A 
ATOM     68  C   UNL A   1      46.024  33.750  27.181  1.00  0.00     0.135 A 
ATOM     69  F   UNL A   1      46.847  32.505  30.500  1.00  0.00    -0.206 F 
ATOM     70  C   UNL A   1      46.987  34.678  29.625  1.00  0.00     0.059 A 
ATOM     71  C   UNL A   1      46.338  35.098  27.324  1.00  0.00     0.059 A 
ATOM     72  F   UNL A   1      45.545  33.334  25.997  1.00  0.00    -0.206 F 
ATOM     73  C   UNL A   1      46.804  35.556  28.556  1.00  0.00     0.060 A 
BRANCH  73  74
ATOM     74  S   UNL A   1      47.187  37.305  28.795  1.00  0.00     0.124 S 
ATOM     75  O   UNL A   1      46.026  37.943  28.180  1.00  0.00    -0.237 OA
ATOM     76  O   UNL A   1      47.272  37.412  30.248  1.00  0.00    -0.237 OA
ATOM     77  O   UNL A   1      48.449  37.476  28.082  1.00  0.00    -0.744 OA
ENDBRANCH  73  74
ENDBRANCH  52  66
BRANCH  53  78
ATOM     78  C   UNL A   1      43.405  23.303  26.822  1.00  0.00     0.058 A 
ATOM     79  C   UNL A   1      43.309  22.768  25.530  1.00  0.00     0.135 A 
ATOM     80  C   UNL A   1      43.128  22.454  27.905  1.00  0.00     0.135 A 
ATOM     81  F   UNL A   1      43.561  23.541  24.463  1.00  0.00    -0.206 F 
ATOM     82  C   UNL A   1      42.943  21.442  25.316  1.00  0.00     0.059 A 
ATOM     83  C   UNL A   1      42.783  21.119  27.719  1.00  0.00     0.059 A 
ATOM     84  F   UNL A   1      43.223  22.915  29.162  1.00  0.00    -0.206 F 
ATOM     85  C   UNL A   1      42.685  20.624  26.419  1.00  0.00     0.060 A 
BRANCH  85  86
ATOM     86  S   UNL A   1      42.271  18.889  26.137  1.00  0.00     0.124 S 
ATOM     87  O   UNL A   1      43.191  18.539  25.060  1.00  0.00    -0.237 OA
ATOM     88  O   UNL A   1      42.552  18.289  27.438  1.00  0.00    -0.237 OA
ATOM     89  O   UNL A   1      40.858  18.939  25.771  1.00  0.00    -0.744 OA
ENDBRANCH  85  86
ENDBRANCH  53  78
BRANCH  65  90
ATOM     90  C   UNL A   1      49.514  26.666  26.502  1.00  0.00     0.058 A 
ATOM     91  C   UNL A   1      50.345  26.150  27.508  1.00  0.00     0.135 A 
ATOM     92  C   UNL A   1      50.011  26.702  25.190  1.00  0.00     0.135 A 
ATOM     93  F   UNL A   1      49.915  26.097  28.778  1.00  0.00    -0.206 F 
ATOM     94  C   UNL A   1      51.634  25.713  27.228  1.00  0.00     0.059 A 
ATOM     95  C   UNL A   1      51.290  26.248  24.883  1.00  0.00     0.059 A 
ATOM     96  F   UNL A   1      49.250  27.174  24.190  1.00  0.00    -0.206 F 
ATOM     97  C   UNL A   1      52.100  25.770  25.912  1.00  0.00     0.060 A 
BRANCH  97  98
ATOM     98  S   UNL A   1      53.771  25.187  25.557  1.00  0.00     0.124 S 
ATOM     99  O   UNL A   1      53.502  23.994  24.763  1.00  0.00    -0.237 OA
ATOM    100  O   UNL A   1      54.350  26.315  24.834  1.00  0.00    -0.237 OA
ATOM    101  O   UNL A   1      54.333  24.946  26.883  1.00  0.00    -0.744 OA
ENDBRANCH  97  98
ENDBRANCH  65  90
ENDBRANCH  39  40
ENDBRANCH  32  34
ENDBRANCH  31  32
ENDBRANCH  30  31
ENDBRANCH  29  30
ENDBRANCH   1  29
TORSDOF 21
ENDMDL
MODEL 3
REMARK VINA RESULT:     -11.2      6.215     11.908
REMARK SMILES COc1ccc2[nH]c(C(=O)c3cc(C)ccn3)c(CC(=O)OCCOCCOC(=O)c3ccc(-c4c5nc(c(-c6c(F)cc(S(=O)(=O)[O-])cc6F)c6ccc([nH]6)c(-c6c(F)cc(S(=O)(=O)[O-])cc6F)c6nc(c(-c7c(F)cc(S(=O)(=O)[O-])cc7F)c7ccc4[nH]7)C=C6)C=C5)cc3)c2c1
REMARK SMILES IDX 25 1 24 2 23 3 22 4 20 5 21 6 19 7 18 8 3 9 4 10 98 11 5 12
REMARK SMILES IDX 97 13 6 14 7 15 8 16 2 18 1 19 9 20 10 21 11 22 12 23 17 24
REMARK SMILES IDX 13 25 16 26 14 27 15 28 26 29 27 30 28 31 29 32 30 33 31 34
REMARK SMILES IDX 32 35 96 36 33 37 95 38 34 39 35 40 36 41 89 42 37 43 94 44
REMARK SMILES IDX 88 45 90 46 38 47 93 48 87 49 86 50 39 52 73 53 52 54 72 55
REMARK SMILES IDX 53 56 56 57 71 58 91 59 54 60 55 61 70 63 92 64 57 65 40 66
REMARK SMILES IDX 41 67 50 68 42 69 43 70 49 71 51 72 44 73 45 74 46 75 47 76
REMARK SMILES IDX 48 77 74 78 75 79 84 80 76 81 77 82 83 83 85 84 78 85 79 86
REMARK SMILES IDX 80 87 81 88 82 89 58 90 59 91 68 92 60 93 61 94 67 95 69 96
REMARK SMILES IDX 62 97 63 98 64 99 65 100 66 101
REMARK H PARENT 7 17 90 51 56 62
REMARK Flexibility Score: inf
ROOT
ATOM      1  O   UNL A   1      35.553  32.811  27.749  1.00  0.00    -0.374 OA
ENDROOT
BRANCH   1   2
ATOM      2  C   UNL A   1      35.133  31.446  27.770  1.00  0.00     0.202 C 
BRANCH   2   3
ATOM      3  C   UNL A   1      33.627  31.166  27.640  1.00  0.00     0.261 C 
BRANCH   3   4
ATOM      4  O   UNL A   1      33.253  30.512  26.406  1.00  0.00    -0.463 OA
BRANCH   4   5
ATOM      5  C   UNL A   1      33.310  29.151  26.432  1.00  0.00     0.310 C 
ATOM      6  O   UNL A   1      33.208  28.481  27.460  1.00  0.00    -0.252 OA
BRANCH   5   7
ATOM      7  C   UNL A   1      33.388  28.473  25.078  1.00  0.00     0.161 C 
BRANCH   7   8
ATOM      8  C   UNL A   1      32.157  27.791  24.544  1.00  0.00     0.000 A 
ATOM      9  C   UNL A   1      29.361  30.210  23.527  1.00  0.00     0.119 A 
ATOM     10  C   UNL A   1      28.495  29.233  23.041  1.00  0.00     0.048 A 
ATOM     11  C   UNL A   1      30.594  29.843  24.083  1.00  0.00     0.057 A 
ATOM     12  C   UNL A   1      28.828  27.874  23.110  1.00  0.00     0.030 A 
ATOM     13  C   UNL A   1      30.967  28.483  24.135  1.00  0.00     0.008 A 
ATOM     14  C   UNL A   1      30.076  27.534  23.648  1.00  0.00     0.046 A 
ATOM     15  N   UNL A   1      30.676  26.308  23.799  1.00  0.00    -0.352 N 
ATOM     16  C   UNL A   1      32.000  26.449  24.170  1.00  0.00     0.093 A 
ATOM     17  H   UNL A   1      30.225  25.444  23.659  1.00  0.00     0.167 HD
BRANCH   9  18
ATOM     18  O   UNL A   1      29.148  31.561  23.442  1.00  0.00    -0.497 OA
ATOM     19  C   UNL A   1      28.102  31.963  22.563  1.00  0.00     0.278 C 
ENDBRANCH   9  18
BRANCH  16  20
ATOM     20  C   UNL A   1      32.994  25.373  24.147  1.00  0.00     0.227 C 
ATOM     21  O   UNL A   1      34.157  25.535  23.783  1.00  0.00    -0.285 OA
BRANCH  20  22
ATOM     22  C   UNL A   1      32.610  24.002  24.606  1.00  0.00     0.113 A 
ATOM     23  C   UNL A   1      33.401  22.894  24.334  1.00  0.00     0.036 A 
ATOM     24  N   UNL A   1      31.441  23.934  25.290  1.00  0.00    -0.253 NA
ATOM     25  C   UNL A   1      32.948  21.644  24.771  1.00  0.00    -0.047 A 
ATOM     26  C   UNL A   1      31.013  22.721  25.681  1.00  0.00     0.112 A 
ATOM     27  C   UNL A   1      33.745  20.395  24.549  1.00  0.00     0.044 C 
ATOM     28  C   UNL A   1      31.724  21.560  25.445  1.00  0.00     0.023 A 
ENDBRANCH  20  22
ENDBRANCH  16  20
ENDBRANCH   7   8
ENDBRANCH   5   7
ENDBRANCH   4   5
ENDBRANCH   3   4
ENDBRANCH   2   3
ENDBRANCH   1   2
BRANCH   1  29
ATOM     29  C   UNL A   1      36.508  33.209  28.726  1.00  0.00     0.202 C 
BRANCH  29  30
ATOM     30  C   UNL A   1      36.217  32.842  30.182  1.00  0.00     0.261 C 
BRANCH  30  31
ATOM     31  O   UNL A   1      37.267  32.159  30.865  1.00  0.00    -0.460 OA
BRANCH  31  32
ATOM     32  C   UNL A   1      37.052  30.841  31.035  1.00  0.00     0.338 C 
ATOM     33  O   UNL A   1      36.085  30.289  31.547  1.00  0.00    -0.246 OA
BRANCH  32  34
ATOM     34  C   UNL A   1      38.152  30.102  30.421  1.00  0.00     0.060 A 
ATOM     35  C   UNL A   1      39.200  29.683  31.244  1.00  0.00     0.016 A 
ATOM     36  C   UNL A   1      38.201  29.932  29.034  1.00  0.00     0.016 A 
ATOM     37  C   UNL A   1      40.344  29.149  30.666  1.00  0.00     0.010 A 
ATOM     38  C   UNL A   1      39.348  29.387  28.458  1.00  0.00     0.010 A 
ATOM     39  C   UNL A   1      40.441  29.039  29.270  1.00  0.00    -0.014 A 
BRANCH  39  40
ATOM     40  C   UNL A   1      41.750  28.687  28.679  1.00  0.00     0.031 A 
ATOM     41  C   UNL A   1      42.829  29.732  28.613  1.00  0.00     0.074 A 
ATOM     42  C   UNL A   1      41.986  27.422  28.288  1.00  0.00     0.049 A 
ATOM     43  N   UNL A   1      44.081  29.606  28.260  1.00  0.00    -0.248 NA
ATOM     44  C   UNL A   1      42.448  31.101  28.996  1.00  0.00     0.031 C 
ATOM     45  C   UNL A   1      41.004  26.339  28.309  1.00  0.00     0.029 A 
ATOM     46  N   UNL A   1      43.128  26.833  27.813  1.00  0.00    -0.354 N 
ATOM     47  C   UNL A   1      44.640  30.873  28.386  1.00  0.00     0.074 A 
ATOM     48  C   UNL A   1      43.580  31.763  28.807  1.00  0.00     0.031 C 
ATOM     49  C   UNL A   1      41.590  25.209  27.882  1.00  0.00     0.029 A 
ATOM     50  C   UNL A   1      42.985  25.493  27.549  1.00  0.00     0.049 A 
ATOM     51  H   UNL A   1      43.970  27.324  27.675  1.00  0.00     0.167 HD
ATOM     52  C   UNL A   1      45.924  31.252  28.182  1.00  0.00     0.037 A 
ATOM     53  C   UNL A   1      43.884  24.597  27.099  1.00  0.00     0.037 A 
ATOM     54  C   UNL A   1      46.966  30.352  27.765  1.00  0.00     0.049 A 
ATOM     55  C   UNL A   1      45.305  25.042  26.882  1.00  0.00     0.074 A 
ATOM     56  C   UNL A   1      48.305  30.622  27.548  1.00  0.00     0.029 A 
ATOM     57  N   UNL A   1      46.781  29.002  27.498  1.00  0.00    -0.354 N 
ATOM     58  N   UNL A   1      45.830  26.233  27.050  1.00  0.00    -0.248 NA
ATOM     59  C   UNL A   1      46.259  24.020  26.432  1.00  0.00     0.031 C 
ATOM     60  C   UNL A   1      48.922  29.444  27.112  1.00  0.00     0.029 A 
ATOM     61  C   UNL A   1      47.977  28.430  27.101  1.00  0.00     0.049 A 
ATOM     62  H   UNL A   1      45.925  28.523  27.579  1.00  0.00     0.167 HD
ATOM     63  C   UNL A   1      47.180  26.100  26.749  1.00  0.00     0.074 A 
ATOM     64  C   UNL A   1      47.392  24.708  26.401  1.00  0.00     0.031 C 
ATOM     65  C   UNL A   1      48.159  27.040  26.759  1.00  0.00     0.037 A 
BRANCH  52  66
ATOM     66  C   UNL A   1      46.261  32.703  28.392  1.00  0.00     0.058 A 
ATOM     67  C   UNL A   1      46.694  33.190  29.637  1.00  0.00     0.135 A 
ATOM     68  C   UNL A   1      46.168  33.618  27.331  1.00  0.00     0.135 A 
ATOM     69  F   UNL A   1      46.784  32.363  30.691  1.00  0.00    -0.206 F 
ATOM     70  C   UNL A   1      46.994  34.535  29.829  1.00  0.00     0.059 A 
ATOM     71  C   UNL A   1      46.485  34.963  27.494  1.00  0.00     0.059 A 
ATOM     72  F   UNL A   1      45.756  33.208  26.120  1.00  0.00    -0.206 F 
ATOM     73  C   UNL A   1      46.882  35.416  28.752  1.00  0.00     0.060 A 
BRANCH  73  74
ATOM     74  S   UNL A   1      47.266  37.160  29.015  1.00  0.00     0.124 S 
ATOM     75  O   UNL A   1      47.569  37.178  30.443  1.00  0.00    -0.237 OA
ATOM     76  O   UNL A   1      48.403  37.371  28.124  1.00  0.00    -0.237 OA
ATOM     77  O   UNL A   1      46.035  37.842  28.626  1.00  0.00    -0.744 OA
ENDBRANCH  73  74
ENDBRANCH  52  66
BRANCH  53  78
ATOM     78  C   UNL A   1      43.464  23.192  26.856  1.00  0.00     0.058 A 
ATOM     79  C   UNL A   1      43.367  22.673  25.558  1.00  0.00     0.135 A 
ATOM     80  C   UNL A   1      43.184  22.330  27.928  1.00  0.00     0.135 A 
ATOM     81  F   UNL A   1      43.622  23.459  24.500  1.00  0.00    -0.206 F 
ATOM     82  C   UNL A   1      42.999  21.351  25.327  1.00  0.00     0.059 A 
ATOM     83  C   UNL A   1      42.836  20.998  27.725  1.00  0.00     0.059 A 
ATOM     84  F   UNL A   1      43.278  22.775  29.190  1.00  0.00    -0.206 F 
ATOM     85  C   UNL A   1      42.739  20.520  26.419  1.00  0.00     0.060 A 
BRANCH  85  86
ATOM     86  S   UNL A   1      42.321  18.789  26.116  1.00  0.00     0.124 S 
ATOM     87  O   UNL A   1      42.592  18.189  27.417  1.00  0.00    -0.237 OA
ATOM     88  O   UNL A   1      40.916  18.874  25.731  1.00  0.00    -0.237 OA
ATOM     89  O   UNL A   1      43.235  18.409  25.042  1.00  0.00    -0.744 OA
ENDBRANCH  85  86
ENDBRANCH  53  78
BRANCH  65  90
ATOM     90  C   UNL A   1      49.547  26.586  26.406  1.00  0.00     0.058 A 
ATOM     91  C   UNL A   1      50.377  25.957  27.347  1.00  0.00     0.135 A 
ATOM     92  C   UNL A   1      50.036  26.750  25.100  1.00  0.00     0.135 A 
ATOM     93  F   UNL A   1      49.954  25.780  28.609  1.00  0.00    -0.206 F 
ATOM     94  C   UNL A   1      51.657  25.533  27.013  1.00  0.00     0.059 A 
ATOM     95  C   UNL A   1      51.306  26.311  24.738  1.00  0.00     0.059 A 
ATOM     96  F   UNL A   1      49.276  27.334  24.160  1.00  0.00    -0.206 F 
ATOM     97  C   UNL A   1      52.115  25.717  25.707  1.00  0.00     0.060 A 
BRANCH  97  98
ATOM     98  S   UNL A   1      53.775  25.150  25.280  1.00  0.00     0.124 S 
ATOM     99  O   UNL A   1      53.634  23.705  25.419  1.00  0.00    -0.237 OA
ATOM    100  O   UNL A   1      53.935  25.644  23.916  1.00  0.00    -0.237 OA
ATOM    101  O   UNL A   1      54.620  25.799  26.278  1.00  0.00    -0.744 OA
ENDBRANCH  97  98
ENDBRANCH  65  90
ENDBRANCH  39  40
ENDBRANCH  32  34
ENDBRANCH  31  32
ENDBRANCH  30  31
ENDBRANCH  29  30
ENDBRANCH   1  29
TORSDOF 21
ENDMDL
