MODEL 1
REMARK VINA RESULT:     -11.0      0.000      0.000
REMARK SMILES COc1cc(Nc2cn[nH]c(=O)n2)c(C(=O)OCCOCCOC(=O)c2ccc(-c3c4nc(c(-c5c(F)cc(S(=O)(=O)[O-])cc5F)c5ccc([nH]5)c(-c5c(F)cc(S(=O)(=O)[O-])cc5F)c5nc(c(-c6c(F)cc(S(=O)(=O)[O-])cc6F)c6ccc3[nH]6)C=C5)C=C4)cc2)cc1OC
REMARK SMILES IDX 21 1 20 2 19 3 18 4 17 5 15 6 16 7 14 8 3 9 4 10 93 11 5 12
REMARK SMILES IDX 92 13 2 14 1 15 94 16 95 17 6 18 7 20 8 21 13 22 9 23 11 24
REMARK SMILES IDX 10 25 12 26 22 28 23 29 24 30 25 31 26 32 27 33 91 34 28 35
REMARK SMILES IDX 90 36 29 37 30 38 31 39 84 40 32 41 89 42 83 43 85 44 33 45
REMARK SMILES IDX 88 46 82 47 81 48 34 50 68 51 47 52 67 53 48 54 51 55 66 56
REMARK SMILES IDX 86 57 49 58 50 59 65 61 87 62 52 63 35 64 36 65 45 66 37 67
REMARK SMILES IDX 38 68 44 69 46 70 39 71 40 72 41 73 42 74 43 75 69 76 70 77
REMARK SMILES IDX 79 78 71 79 72 80 78 81 80 82 73 83 74 84 75 85 76 86 77 87
REMARK SMILES IDX 53 88 54 89 63 90 55 91 56 92 62 93 64 94 57 95 58 96 59 97
REMARK SMILES IDX 60 98 61 99
REMARK H PARENT 6 19 10 27 85 49 51 60
REMARK Flexibility Score: inf
ROOT
ATOM      1  C   UNL A   1      40.445  21.156  26.492  1.00  0.00     0.202 C 
ENDROOT
BRANCH   1   2
ATOM      2  O   UNL A   1      39.146  21.596  26.088  1.00  0.00    -0.374 OA
BRANCH   2   3
ATOM      3  C   UNL A   1      38.280  20.578  25.575  1.00  0.00     0.202 C 
BRANCH   3   4
ATOM      4  C   UNL A   1      37.386  21.054  24.428  1.00  0.00     0.261 C 
BRANCH   4   5
ATOM      5  O   UNL A   1      36.695  22.258  24.805  1.00  0.00    -0.460 OA
BRANCH   5   6
ATOM      6  C   UNL A   1      35.792  22.711  23.907  1.00  0.00     0.340 C 
ATOM      7  O   UNL A   1      36.022  23.060  22.757  1.00  0.00    -0.246 OA
BRANCH   6   8
ATOM      8  C   UNL A   1      34.403  22.564  24.421  1.00  0.00     0.087 A 
ATOM      9  C   UNL A   1      31.813  22.298  25.429  1.00  0.00     0.162 A 
ATOM     10  C   UNL A   1      32.415  23.566  25.350  1.00  0.00     0.077 A 
ATOM     11  C   UNL A   1      32.473  21.166  24.941  1.00  0.00     0.161 A 
ATOM     12  C   UNL A   1      33.717  23.723  24.853  1.00  0.00     0.058 A 
ATOM     13  C   UNL A   1      33.775  21.311  24.448  1.00  0.00     0.068 A 
BRANCH   9  14
ATOM     14  O   UNL A   1      30.536  22.228  25.920  1.00  0.00    -0.493 OA
ATOM     15  C   UNL A   1      30.218  23.397  26.683  1.00  0.00     0.278 C 
ENDBRANCH   9  14
BRANCH  11  16
ATOM     16  O   UNL A   1      32.015  19.882  24.854  1.00  0.00    -0.493 OA
ATOM     17  C   UNL A   1      32.952  18.825  24.713  1.00  0.00     0.278 C 
ENDBRANCH  11  16
BRANCH  12  18
ATOM     18  N   UNL A   1      34.278  25.004  24.642  1.00  0.00    -0.338 N 
ATOM     19  H   UNL A   1      35.029  25.252  25.228  1.00  0.00     0.168 HD
BRANCH  18  20
ATOM     20  C   UNL A   1      33.899  25.937  23.716  1.00  0.00     0.156 A 
ATOM     21  C   UNL A   1      33.618  25.419  22.327  1.00  0.00     0.180 A 
ATOM     22  N   UNL A   1      33.806  27.204  23.971  1.00  0.00    -0.173 NA
ATOM     23  N   UNL A   1      33.312  26.208  21.352  1.00  0.00    -0.176 NA
ATOM     24  C   UNL A   1      33.505  28.054  22.943  1.00  0.00     0.363 A 
ATOM     25  N   UNL A   1      33.271  27.527  21.689  1.00  0.00    -0.227 N 
ATOM     26  O   UNL A   1      33.445  29.276  23.096  1.00  0.00    -0.244 OA
ATOM     27  H   UNL A   1      33.054  28.166  20.971  1.00  0.00     0.195 HD
ENDBRANCH  18  20
ENDBRANCH  12  18
ENDBRANCH   6   8
ENDBRANCH   5   6
ENDBRANCH   4   5
ENDBRANCH   3   4
ENDBRANCH   2   3
ENDBRANCH   1   2
BRANCH   1  28
ATOM     28  C   UNL A   1      41.582  22.124  26.150  1.00  0.00     0.261 C 
BRANCH  28  29
ATOM     29  O   UNL A   1      41.659  23.179  27.126  1.00  0.00    -0.460 OA
BRANCH  29  30
ATOM     30  C   UNL A   1      42.127  24.360  26.656  1.00  0.00     0.338 C 
ATOM     31  O   UNL A   1      42.694  24.550  25.592  1.00  0.00    -0.246 OA
BRANCH  30  32
ATOM     32  C   UNL A   1      41.698  25.461  27.545  1.00  0.00     0.060 A 
ATOM     33  C   UNL A   1      42.563  26.555  27.672  1.00  0.00     0.016 A 
ATOM     34  C   UNL A   1      40.501  25.421  28.265  1.00  0.00     0.016 A 
ATOM     35  C   UNL A   1      42.261  27.587  28.558  1.00  0.00     0.010 A 
ATOM     36  C   UNL A   1      40.202  26.456  29.161  1.00  0.00     0.010 A 
ATOM     37  C   UNL A   1      41.099  27.524  29.337  1.00  0.00    -0.014 A 
BRANCH  37  38
ATOM     38  C   UNL A   1      40.902  28.503  30.432  1.00  0.00     0.031 A 
ATOM     39  C   UNL A   1      41.774  28.407  31.656  1.00  0.00     0.074 A 
ATOM     40  C   UNL A   1      39.981  29.478  30.329  1.00  0.00     0.049 A 
ATOM     41  N   UNL A   1      41.768  29.144  32.736  1.00  0.00    -0.248 NA
ATOM     42  C   UNL A   1      42.787  27.338  31.663  1.00  0.00     0.031 C 
ATOM     43  C   UNL A   1      39.090  29.684  29.188  1.00  0.00     0.029 A 
ATOM     44  N   UNL A   1      39.636  30.475  31.208  1.00  0.00    -0.354 N 
ATOM     45  C   UNL A   1      42.763  28.623  33.555  1.00  0.00     0.074 A 
ATOM     46  C   UNL A   1      43.344  27.498  32.857  1.00  0.00     0.031 C 
ATOM     47  C   UNL A   1      38.285  30.731  29.445  1.00  0.00     0.029 A 
ATOM     48  C   UNL A   1      38.591  31.256  30.774  1.00  0.00     0.049 A 
ATOM     49  H   UNL A   1      40.093  30.618  32.067  1.00  0.00     0.167 HD
ATOM     50  C   UNL A   1      43.161  29.051  34.775  1.00  0.00     0.037 A 
ATOM     51  C   UNL A   1      37.943  32.266  31.390  1.00  0.00     0.037 A 
ATOM     52  C   UNL A   1      42.599  30.184  35.459  1.00  0.00     0.049 A 
ATOM     53  C   UNL A   1      38.390  32.702  32.761  1.00  0.00     0.074 A 
ATOM     54  C   UNL A   1      42.972  30.724  36.679  1.00  0.00     0.029 A 
ATOM     55  N   UNL A   1      41.545  30.950  34.987  1.00  0.00    -0.354 N 
ATOM     56  N   UNL A   1      39.368  32.232  33.500  1.00  0.00    -0.248 NA
ATOM     57  C   UNL A   1      37.650  33.811  33.383  1.00  0.00     0.031 C 
ATOM     58  C   UNL A   1      42.115  31.793  36.963  1.00  0.00     0.029 A 
ATOM     59  C   UNL A   1      41.236  31.943  35.902  1.00  0.00     0.049 A 
ATOM     60  H   UNL A   1      41.082  30.809  34.130  1.00  0.00     0.167 HD
ATOM     61  C   UNL A   1      39.374  33.003  34.658  1.00  0.00     0.074 A 
ATOM     62  C   UNL A   1      38.311  33.977  34.520  1.00  0.00     0.031 C 
ATOM     63  C   UNL A   1      40.187  32.915  35.740  1.00  0.00     0.037 A 
BRANCH  50  64
ATOM     64  C   UNL A   1      44.254  28.288  35.467  1.00  0.00     0.058 A 
ATOM     65  C   UNL A   1      45.604  28.631  35.306  1.00  0.00     0.135 A 
ATOM     66  C   UNL A   1      43.938  27.254  36.362  1.00  0.00     0.135 A 
ATOM     67  F   UNL A   1      45.959  29.600  34.447  1.00  0.00    -0.206 F 
ATOM     68  C   UNL A   1      46.607  27.972  36.010  1.00  0.00     0.059 A 
ATOM     69  C   UNL A   1      44.923  26.594  37.090  1.00  0.00     0.059 A 
ATOM     70  F   UNL A   1      42.660  26.885  36.544  1.00  0.00    -0.206 F 
ATOM     71  C   UNL A   1      46.255  26.959  36.905  1.00  0.00     0.060 A 
BRANCH  71  72
ATOM     72  S   UNL A   1      47.564  26.145  37.846  1.00  0.00     0.124 S 
ATOM     73  O   UNL A   1      48.461  27.263  38.122  1.00  0.00    -0.237 OA
ATOM     74  O   UNL A   1      46.840  25.615  38.996  1.00  0.00    -0.237 OA
ATOM     75  O   UNL A   1      48.078  25.143  36.917  1.00  0.00    -0.744 OA
ENDBRANCH  71  72
ENDBRANCH  50  64
BRANCH  51  76
ATOM     76  C   UNL A   1      36.782  32.923  30.735  1.00  0.00     0.058 A 
ATOM     77  C   UNL A   1      36.958  33.858  29.706  1.00  0.00     0.135 A 
ATOM     78  C   UNL A   1      35.471  32.657  31.161  1.00  0.00     0.135 A 
ATOM     79  F   UNL A   1      38.193  34.152  29.272  1.00  0.00    -0.206 F 
ATOM     80  C   UNL A   1      35.879  34.531  29.140  1.00  0.00     0.059 A 
ATOM     81  C   UNL A   1      34.375  33.299  30.595  1.00  0.00     0.059 A 
ATOM     82  F   UNL A   1      35.248  31.760  32.134  1.00  0.00    -0.206 F 
ATOM     83  C   UNL A   1      34.591  34.249  29.597  1.00  0.00     0.060 A 
BRANCH  83  84
ATOM     84  S   UNL A   1      33.191  35.114  28.854  1.00  0.00     0.124 S 
ATOM     85  O   UNL A   1      33.842  36.286  28.284  1.00  0.00    -0.237 OA
ATOM     86  O   UNL A   1      32.691  34.131  27.897  1.00  0.00    -0.237 OA
ATOM     87  O   UNL A   1      32.314  35.367  29.994  1.00  0.00    -0.744 OA
ENDBRANCH  83  84
ENDBRANCH  51  76
BRANCH  63  88
ATOM     88  C   UNL A   1      39.989  33.916  36.842  1.00  0.00     0.058 A 
ATOM     89  C   UNL A   1      40.550  35.200  36.778  1.00  0.00     0.135 A 
ATOM     90  C   UNL A   1      39.180  33.605  37.947  1.00  0.00     0.135 A 
ATOM     91  F   UNL A   1      41.334  35.544  35.744  1.00  0.00    -0.206 F 
ATOM     92  C   UNL A   1      40.332  36.137  37.783  1.00  0.00     0.059 A 
ATOM     93  C   UNL A   1      38.931  34.533  38.951  1.00  0.00     0.059 A 
ATOM     94  F   UNL A   1      38.611  32.393  38.048  1.00  0.00    -0.206 F 
ATOM     95  C   UNL A   1      39.520  35.794  38.866  1.00  0.00     0.060 A 
BRANCH  95  96
ATOM     96  S   UNL A   1      39.214  37.028  40.148  1.00  0.00     0.124 S 
ATOM     97  O   UNL A   1      38.396  36.274  41.091  1.00  0.00    -0.237 OA
ATOM     98  O   UNL A   1      40.563  37.357  40.599  1.00  0.00    -0.237 OA
ATOM     99  O   UNL A   1      38.523  38.097  39.431  1.00  0.00    -0.744 OA
ENDBRANCH  95  96
ENDBRANCH  63  88
ENDBRANCH  37  38
ENDBRANCH  30  32
ENDBRANCH  29  30
ENDBRANCH  28  29
ENDBRANCH   1  28
TORSDOF 21
ENDMDL
MODEL 2
REMARK VINA RESULT:     -11.0      1.673      8.564
REMARK SMILES COc1cc(Nc2cn[nH]c(=O)n2)c(C(=O)OCCOCCOC(=O)c2ccc(-c3c4nc(c(-c5c(F)cc(S(=O)(=O)[O-])cc5F)c5ccc([nH]5)c(-c5c(F)cc(S(=O)(=O)[O-])cc5F)c5nc(c(-c6c(F)cc(S(=O)(=O)[O-])cc6F)c6ccc3[nH]6)C=C5)C=C4)cc2)cc1OC
REMARK SMILES IDX 21 1 20 2 19 3 18 4 17 5 15 6 16 7 14 8 3 9 4 10 93 11 5 12
REMARK SMILES IDX 92 13 2 14 1 15 94 16 95 17 6 18 7 20 8 21 13 22 9 23 11 24
REMARK SMILES IDX 10 25 12 26 22 28 23 29 24 30 25 31 26 32 27 33 91 34 28 35
REMARK SMILES IDX 90 36 29 37 30 38 31 39 84 40 32 41 89 42 83 43 85 44 33 45
REMARK SMILES IDX 88 46 82 47 81 48 34 50 68 51 47 52 67 53 48 54 51 55 66 56
REMARK SMILES IDX 86 57 49 58 50 59 65 61 87 62 52 63 35 64 36 65 45 66 37 67
REMARK SMILES IDX 38 68 44 69 46 70 39 71 40 72 41 73 42 74 43 75 69 76 70 77
REMARK SMILES IDX 79 78 71 79 72 80 78 81 80 82 73 83 74 84 75 85 76 86 77 87
REMARK SMILES IDX 53 88 54 89 63 90 55 91 56 92 62 93 64 94 57 95 58 96 59 97
REMARK SMILES IDX 60 98 61 99
REMARK H PARENT 6 19 10 27 85 49 51 60
REMARK Flexibility Score: inf
ROOT
ATOM      1  C   UNL A   1      40.092  21.552  26.174  1.00  0.00     0.202 C 
ENDROOT
BRANCH   1   2
ATOM      2  O   UNL A   1      38.754  21.996  25.934  1.00  0.00    -0.374 OA
BRANCH   2   3
ATOM      3  C   UNL A   1      37.909  21.070  25.241  1.00  0.00     0.202 C 
BRANCH   3   4
ATOM      4  C   UNL A   1      37.013  21.726  24.188  1.00  0.00     0.261 C 
BRANCH   4   5
ATOM      5  O   UNL A   1      36.068  22.607  24.821  1.00  0.00    -0.460 OA
BRANCH   5   6
ATOM      6  C   UNL A   1      35.106  23.099  24.010  1.00  0.00     0.340 C 
ATOM      7  O   UNL A   1      35.162  23.200  22.792  1.00  0.00    -0.246 OA
BRANCH   6   8
ATOM      8  C   UNL A   1      33.845  23.348  24.761  1.00  0.00     0.087 A 
ATOM      9  C   UNL A   1      31.456  23.798  26.133  1.00  0.00     0.162 A 
ATOM     10  C   UNL A   1      31.940  22.489  25.965  1.00  0.00     0.077 A 
ATOM     11  C   UNL A   1      32.196  24.894  25.679  1.00  0.00     0.161 A 
ATOM     12  C   UNL A   1      33.134  22.238  25.275  1.00  0.00     0.058 A 
ATOM     13  C   UNL A   1      33.387  24.655  24.983  1.00  0.00     0.068 A 
BRANCH   9  14
ATOM     14  O   UNL A   1      30.285  23.961  26.825  1.00  0.00    -0.493 OA
ATOM     15  C   UNL A   1      29.681  22.695  27.112  1.00  0.00     0.278 C 
ENDBRANCH   9  14
BRANCH  11  16
ATOM     16  O   UNL A   1      31.931  26.225  25.829  1.00  0.00    -0.493 OA
ATOM     17  C   UNL A   1      32.955  27.082  26.313  1.00  0.00     0.278 C 
ENDBRANCH  11  16
BRANCH  12  18
ATOM     18  N   UNL A   1      33.699  20.943  25.220  1.00  0.00    -0.338 N 
ATOM     19  H   UNL A   1      34.616  20.853  25.566  1.00  0.00     0.168 HD
BRANCH  18  20
ATOM     20  C   UNL A   1      33.117  19.800  24.742  1.00  0.00     0.156 A 
ATOM     21  C   UNL A   1      32.751  18.761  25.773  1.00  0.00     0.180 A 
ATOM     22  N   UNL A   1      32.907  19.574  23.484  1.00  0.00    -0.173 NA
ATOM     23  N   UNL A   1      32.252  17.616  25.443  1.00  0.00    -0.176 NA
ATOM     24  C   UNL A   1      32.401  18.357  23.118  1.00  0.00     0.363 A 
ATOM     25  N   UNL A   1      32.096  17.439  24.101  1.00  0.00    -0.227 N 
ATOM     26  O   UNL A   1      32.217  18.050  21.939  1.00  0.00    -0.244 OA
ATOM     27  H   UNL A   1      31.732  16.573  23.805  1.00  0.00     0.195 HD
ENDBRANCH  18  20
ENDBRANCH  12  18
ENDBRANCH   6   8
ENDBRANCH   5   6
ENDBRANCH   4   5
ENDBRANCH   3   4
ENDBRANCH   2   3
ENDBRANCH   1   2
BRANCH   1  28
ATOM     28  C   UNL A   1      41.010  22.604  26.802  1.00  0.00     0.261 C 
BRANCH  28  29
ATOM     29  O   UNL A   1      40.450  23.920  26.651  1.00  0.00    -0.460 OA
BRANCH  29  30
ATOM     30  C   UNL A   1      41.355  24.927  26.618  1.00  0.00     0.338 C 
ATOM     31  O   UNL A   1      42.248  25.082  25.800  1.00  0.00    -0.246 OA
BRANCH  30  32
ATOM     32  C   UNL A   1      41.009  25.948  27.631  1.00  0.00     0.060 A 
ATOM     33  C   UNL A   1      41.856  27.058  27.736  1.00  0.00     0.016 A 
ATOM     34  C   UNL A   1      39.909  25.817  28.483  1.00  0.00     0.016 A 
ATOM     35  C   UNL A   1      41.638  28.014  28.726  1.00  0.00     0.010 A 
ATOM     36  C   UNL A   1      39.694  26.775  29.482  1.00  0.00     0.010 A 
ATOM     37  C   UNL A   1      40.579  27.857  29.630  1.00  0.00    -0.014 A 
BRANCH  37  38
ATOM     38  C   UNL A   1      40.492  28.749  30.810  1.00  0.00     0.031 A 
ATOM     39  C   UNL A   1      39.455  29.840  30.819  1.00  0.00     0.074 A 
ATOM     40  C   UNL A   1      41.304  28.575  31.869  1.00  0.00     0.049 A 
ATOM     41  N   UNL A   1      39.210  30.741  31.734  1.00  0.00    -0.248 NA
ATOM     42  C   UNL A   1      38.578  29.929  29.639  1.00  0.00     0.031 C 
ATOM     43  C   UNL A   1      42.334  27.544  31.984  1.00  0.00     0.029 A 
ATOM     44  N   UNL A   1      41.394  29.273  33.048  1.00  0.00    -0.354 N 
ATOM     45  C   UNL A   1      38.163  31.510  31.239  1.00  0.00     0.074 A 
ATOM     46  C   UNL A   1      37.827  30.981  29.935  1.00  0.00     0.031 C 
ATOM     47  C   UNL A   1      42.968  27.689  33.162  1.00  0.00     0.029 A 
ATOM     48  C   UNL A   1      42.401  28.833  33.874  1.00  0.00     0.049 A 
ATOM     49  H   UNL A   1      40.795  30.018  33.280  1.00  0.00     0.167 HD
ATOM     50  C   UNL A   1      37.533  32.555  31.823  1.00  0.00     0.037 A 
ATOM     51  C   UNL A   1      42.829  29.314  35.059  1.00  0.00     0.037 A 
ATOM     52  C   UNL A   1      37.852  33.065  33.129  1.00  0.00     0.049 A 
ATOM     53  C   UNL A   1      42.127  30.498  35.673  1.00  0.00     0.074 A 
ATOM     54  C   UNL A   1      37.235  34.091  33.825  1.00  0.00     0.029 A 
ATOM     55  N   UNL A   1      38.876  32.593  33.934  1.00  0.00    -0.354 N 
ATOM     56  N   UNL A   1      41.103  31.180  35.213  1.00  0.00    -0.248 NA
ATOM     57  C   UNL A   1      42.633  30.976  36.968  1.00  0.00     0.031 C 
ATOM     58  C   UNL A   1      37.913  34.265  35.037  1.00  0.00     0.029 A 
ATOM     59  C   UNL A   1      38.925  33.322  35.111  1.00  0.00     0.049 A 
ATOM     60  H   UNL A   1      39.480  31.851  33.705  1.00  0.00     0.167 HD
ATOM     61  C   UNL A   1      40.830  32.148  36.175  1.00  0.00     0.074 A 
ATOM     62  C   UNL A   1      41.787  31.959  37.245  1.00  0.00     0.031 C 
ATOM     63  C   UNL A   1      39.873  33.108  36.174  1.00  0.00     0.037 A 
BRANCH  50  64
ATOM     64  C   UNL A   1      36.436  33.235  31.055  1.00  0.00     0.058 A 
ATOM     65  C   UNL A   1      35.091  33.110  31.429  1.00  0.00     0.135 A 
ATOM     66  C   UNL A   1      36.746  34.084  29.981  1.00  0.00     0.135 A 
ATOM     67  F   UNL A   1      34.742  32.295  32.438  1.00  0.00    -0.206 F 
ATOM     68  C   UNL A   1      34.087  33.806  30.764  1.00  0.00     0.059 A 
ATOM     69  C   UNL A   1      35.760  34.803  29.313  1.00  0.00     0.059 A 
ATOM     70  F   UNL A   1      38.019  34.231  29.581  1.00  0.00    -0.206 F 
ATOM     71  C   UNL A   1      34.432  34.654  29.710  1.00  0.00     0.060 A 
BRANCH  71  72
ATOM     72  S   UNL A   1      33.123  35.586  28.886  1.00  0.00     0.124 S 
ATOM     73  O   UNL A   1      32.471  34.540  28.103  1.00  0.00    -0.237 OA
ATOM     74  O   UNL A   1      32.355  36.108  30.010  1.00  0.00    -0.237 OA
ATOM     75  O   UNL A   1      33.854  36.585  28.111  1.00  0.00    -0.744 OA
ENDBRANCH  71  72
ENDBRANCH  50  64
BRANCH  51  76
ATOM     76  C   UNL A   1      43.998  28.700  35.740  1.00  0.00     0.058 A 
ATOM     77  C   UNL A   1      45.307  29.110  35.454  1.00  0.00     0.135 A 
ATOM     78  C   UNL A   1      43.826  27.658  36.665  1.00  0.00     0.135 A 
ATOM     79  F   UNL A   1      45.522  30.096  34.570  1.00  0.00    -0.206 F 
ATOM     80  C   UNL A   1      46.409  28.489  36.034  1.00  0.00     0.059 A 
ATOM     81  C   UNL A   1      44.911  27.037  37.276  1.00  0.00     0.059 A 
ATOM     82  F   UNL A   1      42.592  27.237  36.984  1.00  0.00    -0.206 F 
ATOM     83  C   UNL A   1      46.200  27.448  36.939  1.00  0.00     0.060 A 
BRANCH  83  84
ATOM     84  S   UNL A   1      47.631  26.651  37.700  1.00  0.00     0.124 S 
ATOM     85  O   UNL A   1      48.720  27.162  36.879  1.00  0.00    -0.237 OA
ATOM     86  O   UNL A   1      47.573  27.152  39.071  1.00  0.00    -0.237 OA
ATOM     87  O   UNL A   1      47.337  25.228  37.550  1.00  0.00    -0.744 OA
ENDBRANCH  83  84
ENDBRANCH  51  76
BRANCH  63  88
ATOM     88  C   UNL A   1      39.783  34.003  37.377  1.00  0.00     0.058 A 
ATOM     89  C   UNL A   1      40.463  35.228  37.433  1.00  0.00     0.135 A 
ATOM     90  C   UNL A   1      38.962  33.655  38.462  1.00  0.00     0.135 A 
ATOM     91  F   UNL A   1      41.264  35.604  36.423  1.00  0.00    -0.206 F 
ATOM     92  C   UNL A   1      40.347  36.072  38.533  1.00  0.00     0.059 A 
ATOM     93  C   UNL A   1      38.814  34.493  39.561  1.00  0.00     0.059 A 
ATOM     94  F   UNL A   1      38.282  32.497  38.450  1.00  0.00    -0.206 F 
ATOM     95  C   UNL A   1      39.519  35.695  39.592  1.00  0.00     0.060 A 
BRANCH  95  96
ATOM     96  S   UNL A   1      39.347  36.812  41.000  1.00  0.00     0.124 S 
ATOM     97  O   UNL A   1      38.523  36.018  41.905  1.00  0.00    -0.237 OA
ATOM     98  O   UNL A   1      40.732  37.014  41.415  1.00  0.00    -0.237 OA
ATOM     99  O   UNL A   1      38.695  37.986  40.424  1.00  0.00    -0.744 OA
ENDBRANCH  95  96
ENDBRANCH  63  88
ENDBRANCH  37  38
ENDBRANCH  30  32
ENDBRANCH  29  30
ENDBRANCH  28  29
ENDBRANCH   1  28
TORSDOF 21
ENDMDL
MODEL 3
REMARK VINA RESULT:     -10.8      1.581      3.006
REMARK SMILES COc1cc(Nc2cn[nH]c(=O)n2)c(C(=O)OCCOCCOC(=O)c2ccc(-c3c4nc(c(-c5c(F)cc(S(=O)(=O)[O-])cc5F)c5ccc([nH]5)c(-c5c(F)cc(S(=O)(=O)[O-])cc5F)c5nc(c(-c6c(F)cc(S(=O)(=O)[O-])cc6F)c6ccc3[nH]6)C=C5)C=C4)cc2)cc1OC
REMARK SMILES IDX 21 1 20 2 19 3 18 4 17 5 15 6 16 7 14 8 3 9 4 10 93 11 5 12
REMARK SMILES IDX 92 13 2 14 1 15 94 16 95 17 6 18 7 20 8 21 13 22 9 23 11 24
REMARK SMILES IDX 10 25 12 26 22 28 23 29 24 30 25 31 26 32 27 33 91 34 28 35
REMARK SMILES IDX 90 36 29 37 30 38 31 39 84 40 32 41 89 42 83 43 85 44 33 45
REMARK SMILES IDX 88 46 82 47 81 48 34 50 68 51 47 52 67 53 48 54 51 55 66 56
REMARK SMILES IDX 86 57 49 58 50 59 65 61 87 62 52 63 35 64 36 65 45 66 37 67
REMARK SMILES IDX 38 68 44 69 46 70 39 71 40 72 41 73 42 74 43 75 69 76 70 77
REMARK SMILES IDX 79 78 71 79 72 80 78 81 80 82 73 83 74 84 75 85 76 86 77 87
REMARK SMILES IDX 53 88 54 89 63 90 55 91 56 92 62 93 64 94 57 95 58 96 59 97
REMARK SMILES IDX 60 98 61 99
REMARK H PARENT 6 19 10 27 85 49 51 60
REMARK Flexibility Score: inf
ROOT
ATOM      1  C   UNL A   1      41.079  21.277  27.014  1.00  0.00     0.202 C 
ENDROOT
BRANCH   1   2
ATOM      2  O   UNL A   1      39.654  21.231  26.897  1.00  0.00    -0.374 OA
BRANCH   2   3
ATOM      3  C   UNL A   1      39.109  21.846  25.724  1.00  0.00     0.202 C 
BRANCH   3   4
ATOM      4  C   UNL A   1      37.645  22.265  25.874  1.00  0.00     0.261 C 
BRANCH   4   5
ATOM      5  O   UNL A   1      36.841  21.618  24.872  1.00  0.00    -0.460 OA
BRANCH   5   6
ATOM      6  C   UNL A   1      36.199  22.449  24.022  1.00  0.00     0.340 C 
ATOM      7  O   UNL A   1      36.494  22.665  22.854  1.00  0.00    -0.246 OA
BRANCH   6   8
ATOM      8  C   UNL A   1      34.936  22.960  24.620  1.00  0.00     0.087 A 
ATOM      9  C   UNL A   1      32.542  23.903  25.702  1.00  0.00     0.162 A 
ATOM     10  C   UNL A   1      32.773  22.521  25.595  1.00  0.00     0.077 A 
ATOM     11  C   UNL A   1      33.530  24.821  25.335  1.00  0.00     0.161 A 
ATOM     12  C   UNL A   1      33.965  22.024  25.050  1.00  0.00     0.058 A 
ATOM     13  C   UNL A   1      34.722  24.336  24.783  1.00  0.00     0.068 A 
BRANCH   9  14
ATOM     14  O   UNL A   1      31.354  24.310  26.252  1.00  0.00    -0.493 OA
ATOM     15  C   UNL A   1      30.614  23.192  26.753  1.00  0.00     0.278 C 
ENDBRANCH   9  14
BRANCH  11  16
ATOM     16  O   UNL A   1      33.517  26.182  25.449  1.00  0.00    -0.493 OA
ATOM     17  C   UNL A   1      32.985  26.958  24.385  1.00  0.00     0.278 C 
ENDBRANCH  11  16
BRANCH  12  18
ATOM     18  N   UNL A   1      34.266  20.642  25.065  1.00  0.00    -0.338 N 
ATOM     19  H   UNL A   1      35.148  20.392  25.425  1.00  0.00     0.168 HD
BRANCH  18  20
ATOM     20  C   UNL A   1      33.473  19.613  24.638  1.00  0.00     0.156 A 
ATOM     21  C   UNL A   1      32.908  18.718  25.715  1.00  0.00     0.180 A 
ATOM     22  N   UNL A   1      33.225  19.368  23.390  1.00  0.00    -0.173 NA
ATOM     23  N   UNL A   1      32.196  17.678  25.435  1.00  0.00    -0.176 NA
ATOM     24  C   UNL A   1      32.491  18.257  23.078  1.00  0.00     0.363 A 
ATOM     25  N   UNL A   1      32.011  17.467  24.102  1.00  0.00    -0.227 N 
ATOM     26  O   UNL A   1      32.253  17.932  21.914  1.00  0.00    -0.244 OA
ATOM     27  H   UNL A   1      31.484  16.675  23.844  1.00  0.00     0.195 HD
ENDBRANCH  18  20
ENDBRANCH  12  18
ENDBRANCH   6   8
ENDBRANCH   5   6
ENDBRANCH   4   5
ENDBRANCH   3   4
ENDBRANCH   2   3
ENDBRANCH   1   2
BRANCH   1  28
ATOM     28  C   UNL A   1      41.753  22.364  26.172  1.00  0.00     0.261 C 
BRANCH  28  29
ATOM     29  O   UNL A   1      42.292  23.396  27.017  1.00  0.00    -0.460 OA
BRANCH  29  30
ATOM     30  C   UNL A   1      42.376  24.620  26.442  1.00  0.00     0.338 C 
ATOM     31  O   UNL A   1      42.662  24.865  25.282  1.00  0.00    -0.246 OA
BRANCH  30  32
ATOM     32  C   UNL A   1      41.892  25.652  27.385  1.00  0.00     0.060 A 
ATOM     33  C   UNL A   1      42.627  26.841  27.465  1.00  0.00     0.016 A 
ATOM     34  C   UNL A   1      40.770  25.461  28.196  1.00  0.00     0.016 A 
ATOM     35  C   UNL A   1      42.277  27.819  28.393  1.00  0.00     0.010 A 
ATOM     36  C   UNL A   1      40.423  26.442  29.133  1.00  0.00     0.010 A 
ATOM     37  C   UNL A   1      41.197  27.608  29.260  1.00  0.00    -0.014 A 
BRANCH  37  38
ATOM     38  C   UNL A   1      40.974  28.545  30.387  1.00  0.00     0.031 A 
ATOM     39  C   UNL A   1      41.832  28.417  31.617  1.00  0.00     0.074 A 
ATOM     40  C   UNL A   1      40.042  29.512  30.307  1.00  0.00     0.049 A 
ATOM     41  N   UNL A   1      41.803  29.114  32.722  1.00  0.00    -0.248 NA
ATOM     42  C   UNL A   1      42.859  27.360  31.600  1.00  0.00     0.031 C 
ATOM     43  C   UNL A   1      39.163  29.747  29.162  1.00  0.00     0.029 A 
ATOM     44  N   UNL A   1      39.673  30.472  31.216  1.00  0.00    -0.354 N 
ATOM     45  C   UNL A   1      42.794  28.577  33.536  1.00  0.00     0.074 A 
ATOM     46  C   UNL A   1      43.398  27.484  32.805  1.00  0.00     0.031 C 
ATOM     47  C   UNL A   1      38.341  30.774  29.445  1.00  0.00     0.029 A 
ATOM     48  C   UNL A   1      38.623  31.255  30.796  1.00  0.00     0.049 A 
ATOM     49  H   UNL A   1      40.118  30.590  32.085  1.00  0.00     0.167 HD
ATOM     50  C   UNL A   1      43.172  28.966  34.775  1.00  0.00     0.037 A 
ATOM     51  C   UNL A   1      37.955  32.234  31.440  1.00  0.00     0.037 A 
ATOM     52  C   UNL A   1      42.587  30.067  35.492  1.00  0.00     0.049 A 
ATOM     53  C   UNL A   1      38.378  32.627  32.832  1.00  0.00     0.074 A 
ATOM     54  C   UNL A   1      42.936  30.567  36.734  1.00  0.00     0.029 A 
ATOM     55  N   UNL A   1      41.528  30.835  35.034  1.00  0.00    -0.354 N 
ATOM     56  N   UNL A   1      39.353  32.142  33.565  1.00  0.00    -0.248 NA
ATOM     57  C   UNL A   1      37.617  33.703  33.483  1.00  0.00     0.031 C 
ATOM     58  C   UNL A   1      42.063  31.614  37.045  1.00  0.00     0.029 A 
ATOM     59  C   UNL A   1      41.195  31.791  35.979  1.00  0.00     0.049 A 
ATOM     60  H   UNL A   1      41.078  30.719  34.166  1.00  0.00     0.167 HD
ATOM     61  C   UNL A   1      39.335  32.871  34.750  1.00  0.00     0.074 A 
ATOM     62  C   UNL A   1      38.261  33.836  34.633  1.00  0.00     0.031 C 
ATOM     63  C   UNL A   1      40.135  32.755  35.838  1.00  0.00     0.037 A 
BRANCH  50  64
ATOM     64  C   UNL A   1      44.266  28.192  35.453  1.00  0.00     0.058 A 
ATOM     65  C   UNL A   1      45.615  28.544  35.304  1.00  0.00     0.135 A 
ATOM     66  C   UNL A   1      43.952  27.137  36.323  1.00  0.00     0.135 A 
ATOM     67  F   UNL A   1      45.968  29.534  34.469  1.00  0.00    -0.206 F 
ATOM     68  C   UNL A   1      46.618  27.875  35.998  1.00  0.00     0.059 A 
ATOM     69  C   UNL A   1      44.937  26.465  37.041  1.00  0.00     0.059 A 
ATOM     70  F   UNL A   1      42.675  26.758  36.493  1.00  0.00    -0.206 F 
ATOM     71  C   UNL A   1      46.268  26.840  36.868  1.00  0.00     0.060 A 
BRANCH  71  72
ATOM     72  S   UNL A   1      47.577  26.011  37.795  1.00  0.00     0.124 S 
ATOM     73  O   UNL A   1      47.643  24.721  37.115  1.00  0.00    -0.237 OA
ATOM     74  O   UNL A   1      48.718  26.896  37.587  1.00  0.00    -0.237 OA
ATOM     75  O   UNL A   1      47.056  25.975  39.159  1.00  0.00    -0.744 OA
ENDBRANCH  71  72
ENDBRANCH  50  64
BRANCH  51  76
ATOM     76  C   UNL A   1      36.793  32.899  30.794  1.00  0.00     0.058 A 
ATOM     77  C   UNL A   1      36.968  33.839  29.769  1.00  0.00     0.135 A 
ATOM     78  C   UNL A   1      35.483  32.636  31.224  1.00  0.00     0.135 A 
ATOM     79  F   UNL A   1      38.202  34.131  29.331  1.00  0.00    -0.206 F 
ATOM     80  C   UNL A   1      35.890  34.520  29.212  1.00  0.00     0.059 A 
ATOM     81  C   UNL A   1      34.387  33.286  30.667  1.00  0.00     0.059 A 
ATOM     82  F   UNL A   1      35.261  31.735  32.194  1.00  0.00    -0.206 F 
ATOM     83  C   UNL A   1      34.603  34.240  29.673  1.00  0.00     0.060 A 
BRANCH  83  84
ATOM     84  S   UNL A   1      33.203  35.116  28.941  1.00  0.00     0.124 S 
ATOM     85  O   UNL A   1      33.866  36.248  28.308  1.00  0.00    -0.237 OA
ATOM     86  O   UNL A   1      32.647  34.112  28.037  1.00  0.00    -0.237 OA
ATOM     87  O   UNL A   1      32.369  35.435  30.097  1.00  0.00    -0.744 OA
ENDBRANCH  83  84
ENDBRANCH  51  76
BRANCH  63  88
ATOM     88  C   UNL A   1      39.910  33.713  36.973  1.00  0.00     0.058 A 
ATOM     89  C   UNL A   1      39.082  33.387  38.057  1.00  0.00     0.135 A 
ATOM     90  C   UNL A   1      40.578  34.949  37.002  1.00  0.00     0.135 A 
ATOM     91  F   UNL A   1      38.419  32.220  38.074  1.00  0.00    -0.206 F 
ATOM     92  C   UNL A   1      38.907  34.261  39.124  1.00  0.00     0.059 A 
ATOM     93  C   UNL A   1      40.434  35.828  38.070  1.00  0.00     0.059 A 
ATOM     94  F   UNL A   1      41.391  35.301  35.994  1.00  0.00    -0.206 F 
ATOM     95  C   UNL A   1      39.588  35.480  39.122  1.00  0.00     0.060 A 
BRANCH  95  96
ATOM     96  S   UNL A   1      39.383  36.594  40.528  1.00  0.00     0.124 S 
ATOM     97  O   UNL A   1      38.185  36.053  41.159  1.00  0.00    -0.237 OA
ATOM     98  O   UNL A   1      40.629  36.406  41.265  1.00  0.00    -0.237 OA
ATOM     99  O   UNL A   1      39.226  37.905  39.902  1.00  0.00    -0.744 OA
ENDBRANCH  95  96
ENDBRANCH  63  88
ENDBRANCH  37  38
ENDBRANCH  30  32
ENDBRANCH  29  30
ENDBRANCH  28  29
ENDBRANCH   1  28
TORSDOF 21
ENDMDL
