MODEL 1
REMARK VINA RESULT:     -12.8      0.000      0.000
REMARK SMILES Cc1ccc(-c2cc3cccnc3n2CCC(=O)OCCOCCOC(=O)c2ccc(-c3c4nc(c(-c5c(F)cc(S(=O)(=O)[O-])cc5F)c5ccc([nH]5)c(-c5c(F)cc(S(=O)(=O)[O-])cc5F)c5nc(c(-c6c(F)cc(S(=O)(=O)[O-])cc6F)c6ccc3[nH]6)C=C5)C=C4)cc2)cn1
REMARK SMILES IDX 22 1 21 2 20 3 19 4 17 5 18 6 16 7 15 8 14 9 6 10 7 11 8 12
REMARK SMILES IDX 13 13 9 14 12 15 10 16 11 17 5 18 1 19 2 20 3 21 95 22 4 23
REMARK SMILES IDX 94 24 23 25 24 26 25 27 26 28 27 29 28 30 29 31 93 32 30 33
REMARK SMILES IDX 92 34 31 35 32 36 33 37 86 38 34 39 91 40 85 41 87 42 35 43
REMARK SMILES IDX 90 44 84 45 83 46 36 48 70 49 49 50 69 51 50 52 53 53 68 54
REMARK SMILES IDX 88 55 51 56 52 57 67 59 89 60 54 61 37 62 38 63 47 64 39 65
REMARK SMILES IDX 40 66 46 67 48 68 41 69 42 70 43 71 44 72 45 73 71 74 72 75
REMARK SMILES IDX 81 76 73 77 74 78 80 79 82 80 75 81 76 82 77 83 78 84 79 85
REMARK SMILES IDX 55 86 56 87 65 88 57 89 58 90 64 91 66 92 59 93 60 94 61 95
REMARK SMILES IDX 62 96 63 97
REMARK H PARENT 87 47 53 58
REMARK Flexibility Score: inf
ROOT
ATOM      1  O   UNL A   1      39.939  21.737  26.639  1.00  0.00    -0.374 OA
ENDROOT
BRANCH   1   2
ATOM      2  C   UNL A   1      39.047  20.776  25.671  1.00  0.00     0.202 C 
BRANCH   2   3
ATOM      3  C   UNL A   1      36.988  21.028  24.992  1.00  0.00     0.261 C 
BRANCH   3   4
ATOM      4  O   UNL A   1      35.889  22.206  25.622  1.00  0.00    -0.463 OA
BRANCH   4   5
ATOM      5  C   UNL A   1      36.069  23.558  25.611  1.00  0.00     0.307 C 
ATOM      6  O   UNL A   1      37.073  24.086  26.082  1.00  0.00    -0.252 OA
BRANCH   5   7
ATOM      7  C   UNL A   1      34.964  24.419  24.906  1.00  0.00     0.144 C 
BRANCH   7   8
ATOM      8  C   UNL A   1      34.273  24.101  23.558  1.00  0.00     0.136 C 
BRANCH   8   9
ATOM      9  N   UNL A   1      32.840  24.239  23.569  1.00  0.00    -0.325 N 
ATOM     10  C   UNL A   1      31.981  23.182  23.702  1.00  0.00     0.052 A 
ATOM     11  C   UNL A   1      30.727  23.734  23.942  1.00  0.00     0.039 A 
ATOM     12  C   UNL A   1      30.816  25.133  23.817  1.00  0.00     0.020 A 
ATOM     13  C   UNL A   1      32.140  25.421  23.508  1.00  0.00     0.140 A 
ATOM     14  C   UNL A   1      29.911  26.194  23.951  1.00  0.00     0.013 A 
ATOM     15  N   UNL A   1      32.653  26.643  23.257  1.00  0.00    -0.238 NA
ATOM     16  C   UNL A   1      30.388  27.473  23.691  1.00  0.00     0.021 A 
ATOM     17  C   UNL A   1      31.722  27.628  23.332  1.00  0.00     0.113 A 
BRANCH  10  18
ATOM     18  C   UNL A   1      32.372  21.778  23.844  1.00  0.00     0.017 A 
ATOM     19  C   UNL A   1      33.350  16.924  23.541  1.00  0.00     0.066 C 
ATOM     20  C   UNL A   1      32.609  18.208  23.825  1.00  0.00     0.037 A 
ATOM     21  C   UNL A   1      32.869  19.040  25.374  1.00  0.00     0.024 A 
ATOM     22  N   UNL A   1      32.202  19.086  22.380  1.00  0.00    -0.261 NA
ATOM     23  C   UNL A   1      32.782  20.854  25.380  1.00  0.00     0.014 A 
ATOM     24  C   UNL A   1      32.107  20.816  22.379  1.00  0.00     0.121 A 
ENDBRANCH  10  18
ENDBRANCH   8   9
ENDBRANCH   7   8
ENDBRANCH   5   7
ENDBRANCH   4   5
ENDBRANCH   3   4
ENDBRANCH   2   3
ENDBRANCH   1   2
BRANCH   1  25
ATOM     25  C   UNL A   1      40.829  21.167  27.627  1.00  0.00     0.202 C 
BRANCH  25  26
ATOM     26  C   UNL A   1      42.311  21.071  27.299  1.00  0.00     0.261 C 
BRANCH  26  27
ATOM     27  O   UNL A   1      42.509  21.275  25.921  1.00  0.00    -0.460 OA
BRANCH  27  28
ATOM     28  C   UNL A   1      43.665  20.763  25.432  1.00  0.00     0.338 C 
ATOM     29  O   UNL A   1      43.955  19.592  25.279  1.00  0.00    -0.246 OA
BRANCH  28  30
ATOM     30  C   UNL A   1      44.536  21.924  25.142  1.00  0.00     0.060 A 
ATOM     31  C   UNL A   1      45.432  22.216  26.154  1.00  0.00     0.016 A 
ATOM     32  C   UNL A   1      44.009  22.912  24.293  1.00  0.00     0.016 A 
ATOM     33  C   UNL A   1      45.325  23.477  26.672  1.00  0.00     0.010 A 
ATOM     34  C   UNL A   1      43.890  24.163  24.808  1.00  0.00     0.010 A 
ATOM     35  C   UNL A   1      44.405  24.354  26.078  1.00  0.00    -0.014 A 
BRANCH  35  36
ATOM     36  C   UNL A   1      44.032  25.553  26.773  1.00  0.00     0.031 A 
ATOM     37  C   UNL A   1      45.060  26.574  26.534  1.00  0.00     0.074 A 
ATOM     38  C   UNL A   1      42.903  25.657  27.502  1.00  0.00     0.049 A 
ATOM     39  N   UNL A   1      46.096  26.767  27.278  1.00  0.00    -0.248 NA
ATOM     40  C   UNL A   1      45.168  27.169  25.192  1.00  0.00     0.031 C 
ATOM     41  C   UNL A   1      41.759  24.747  27.613  1.00  0.00     0.029 A 
ATOM     42  N   UNL A   1      42.544  26.684  28.320  1.00  0.00    -0.354 N 
ATOM     43  C   UNL A   1      46.804  27.766  26.639  1.00  0.00     0.074 A 
ATOM     44  C   UNL A   1      46.370  27.744  25.269  1.00  0.00     0.031 C 
ATOM     45  C   UNL A   1      40.742  25.371  28.261  1.00  0.00     0.029 A 
ATOM     46  C   UNL A   1      41.212  26.656  28.747  1.00  0.00     0.049 A 
ATOM     47  H   UNL A   1      43.173  27.392  28.589  1.00  0.00     0.167 HD
ATOM     48  C   UNL A   1      47.389  28.741  27.381  1.00  0.00     0.037 A 
ATOM     49  C   UNL A   1      40.592  27.659  29.433  1.00  0.00     0.037 A 
ATOM     50  C   UNL A   1      47.508  28.321  28.762  1.00  0.00     0.049 A 
ATOM     51  C   UNL A   1      41.688  28.440  30.087  1.00  0.00     0.074 A 
ATOM     52  C   UNL A   1      48.149  27.275  29.398  1.00  0.00     0.029 A 
ATOM     53  N   UNL A   1      46.536  28.757  29.633  1.00  0.00    -0.354 N 
ATOM     54  N   UNL A   1      42.455  27.937  31.021  1.00  0.00    -0.248 NA
ATOM     55  C   UNL A   1      42.273  29.528  29.314  1.00  0.00     0.031 C 
ATOM     56  C   UNL A   1      47.244  26.842  30.412  1.00  0.00     0.029 A 
ATOM     57  C   UNL A   1      46.145  27.702  30.419  1.00  0.00     0.049 A 
ATOM     58  H   UNL A   1      46.180  29.674  29.683  1.00  0.00     0.167 HD
ATOM     59  C   UNL A   1      43.743  28.331  30.675  1.00  0.00     0.074 A 
ATOM     60  C   UNL A   1      43.560  29.334  29.622  1.00  0.00     0.031 C 
ATOM     61  C   UNL A   1      44.837  27.594  31.035  1.00  0.00     0.037 A 
BRANCH  48  62
ATOM     62  C   UNL A   1      47.422  30.188  26.962  1.00  0.00     0.058 A 
ATOM     63  C   UNL A   1      48.639  30.886  27.059  1.00  0.00     0.135 A 
ATOM     64  C   UNL A   1      46.278  30.987  26.728  1.00  0.00     0.135 A 
ATOM     65  F   UNL A   1      49.787  30.228  27.291  1.00  0.00    -0.206 F 
ATOM     66  C   UNL A   1      48.707  32.275  26.993  1.00  0.00     0.059 A 
ATOM     67  C   UNL A   1      46.330  32.367  26.606  1.00  0.00     0.059 A 
ATOM     68  F   UNL A   1      45.036  30.494  26.693  1.00  0.00    -0.206 F 
ATOM     69  C   UNL A   1      47.543  33.007  26.772  1.00  0.00     0.060 A 
BRANCH  69  70
ATOM     70  S   UNL A   1      47.618  34.802  26.743  1.00  0.00     0.124 S 
ATOM     71  O   UNL A   1      48.858  35.055  27.467  1.00  0.00    -0.237 OA
ATOM     72  O   UNL A   1      47.646  35.071  25.308  1.00  0.00    -0.237 OA
ATOM     73  O   UNL A   1      46.392  35.202  27.427  1.00  0.00    -0.744 OA
ENDBRANCH  69  70
ENDBRANCH  48  62
BRANCH  49  74
ATOM     74  C   UNL A   1      39.246  28.259  29.167  1.00  0.00     0.058 A 
ATOM     75  C   UNL A   1      38.296  28.430  30.197  1.00  0.00     0.135 A 
ATOM     76  C   UNL A   1      38.980  28.954  27.972  1.00  0.00     0.135 A 
ATOM     77  F   UNL A   1      38.468  27.819  31.380  1.00  0.00    -0.206 F 
ATOM     78  C   UNL A   1      37.187  29.283  30.069  1.00  0.00     0.059 A 
ATOM     79  C   UNL A   1      37.884  29.807  27.821  1.00  0.00     0.059 A 
ATOM     80  F   UNL A   1      39.830  28.895  26.937  1.00  0.00    -0.206 F 
ATOM     81  C   UNL A   1      37.005  29.990  28.882  1.00  0.00     0.060 A 
BRANCH  81  82
ATOM     82  S   UNL A   1      35.688  31.230  28.762  1.00  0.00     0.124 S 
ATOM     83  O   UNL A   1      34.658  30.512  28.021  1.00  0.00    -0.237 OA
ATOM     84  O   UNL A   1      35.391  31.503  30.164  1.00  0.00    -0.237 OA
ATOM     85  O   UNL A   1      36.322  32.331  28.039  1.00  0.00    -0.744 OA
ENDBRANCH  81  82
ENDBRANCH  49  74
BRANCH  61  86
ATOM     86  C   UNL A   1      44.655  26.473  32.033  1.00  0.00     0.058 A 
ATOM     87  C   UNL A   1      44.399  25.128  31.704  1.00  0.00     0.135 A 
ATOM     88  C   UNL A   1      44.930  26.757  33.378  1.00  0.00     0.135 A 
ATOM     89  F   UNL A   1      44.219  24.755  30.429  1.00  0.00    -0.206 F 
ATOM     90  C   UNL A   1      44.391  24.119  32.677  1.00  0.00     0.059 A 
ATOM     91  C   UNL A   1      44.955  25.769  34.356  1.00  0.00     0.059 A 
ATOM     92  F   UNL A   1      45.240  28.010  33.747  1.00  0.00    -0.206 F 
ATOM     93  C   UNL A   1      44.673  24.452  34.003  1.00  0.00     0.060 A 
BRANCH  93  94
ATOM     94  S   UNL A   1      44.709  23.155  35.262  1.00  0.00     0.124 S 
ATOM     95  O   UNL A   1      43.854  23.713  36.304  1.00  0.00    -0.237 OA
ATOM     96  O   UNL A   1      44.166  22.004  34.545  1.00  0.00    -0.237 OA
ATOM     97  O   UNL A   1      46.124  23.052  35.608  1.00  0.00    -0.744 OA
ENDBRANCH  93  94
ENDBRANCH  61  86
ENDBRANCH  35  36
ENDBRANCH  28  30
ENDBRANCH  27  28
ENDBRANCH  26  27
ENDBRANCH  25  26
ENDBRANCH   1  25
TORSDOF 20
ENDMDL
MODEL 2
REMARK VINA RESULT:     -12.8      2.817      9.221
REMARK SMILES Cc1ccc(-c2cc3cccnc3n2CCC(=O)OCCOCCOC(=O)c2ccc(-c3c4nc(c(-c5c(F)cc(S(=O)(=O)[O-])cc5F)c5ccc([nH]5)c(-c5c(F)cc(S(=O)(=O)[O-])cc5F)c5nc(c(-c6c(F)cc(S(=O)(=O)[O-])cc6F)c6ccc3[nH]6)C=C5)C=C4)cc2)cn1
REMARK SMILES IDX 22 1 21 2 20 3 19 4 17 5 18 6 16 7 15 8 14 9 6 10 7 11 8 12
REMARK SMILES IDX 13 13 9 14 12 15 10 16 11 17 5 18 1 19 2 20 3 21 95 22 4 23
REMARK SMILES IDX 94 24 23 25 24 26 25 27 26 28 27 29 28 30 29 31 93 32 30 33
REMARK SMILES IDX 92 34 31 35 32 36 33 37 86 38 34 39 91 40 85 41 87 42 35 43
REMARK SMILES IDX 90 44 84 45 83 46 36 48 70 49 49 50 69 51 50 52 53 53 68 54
REMARK SMILES IDX 88 55 51 56 52 57 67 59 89 60 54 61 37 62 38 63 47 64 39 65
REMARK SMILES IDX 40 66 46 67 48 68 41 69 42 70 43 71 44 72 45 73 71 74 72 75
REMARK SMILES IDX 81 76 73 77 74 78 80 79 82 80 75 81 76 82 77 83 78 84 79 85
REMARK SMILES IDX 55 86 56 87 65 88 57 89 58 90 64 91 66 92 59 93 60 94 61 95
REMARK SMILES IDX 62 96 63 97
REMARK H PARENT 87 47 53 58
REMARK Flexibility Score: inf
ROOT
ATOM      1  O   UNL A   1      34.561  32.964  27.772  1.00  0.00    -0.374 OA
ENDROOT
BRANCH   1   2
ATOM      2  C   UNL A   1      33.840  31.512  27.608  1.00  0.00     0.202 C 
BRANCH   2   3
ATOM      3  C   UNL A   1      32.012  30.990  26.536  1.00  0.00     0.261 C 
BRANCH   3   4
ATOM      4  O   UNL A   1      31.725  29.462  25.780  1.00  0.00    -0.463 OA
BRANCH   4   5
ATOM      5  C   UNL A   1      32.668  28.661  25.206  1.00  0.00     0.307 C 
ATOM      6  O   UNL A   1      33.355  27.886  25.866  1.00  0.00    -0.252 OA
BRANCH   5   7
ATOM      7  C   UNL A   1      32.799  28.719  23.644  1.00  0.00     0.144 C 
BRANCH   7   8
ATOM      8  C   UNL A   1      32.040  27.833  22.626  1.00  0.00     0.136 C 
BRANCH   8   9
ATOM      9  N   UNL A   1      30.614  27.781  22.819  1.00  0.00    -0.325 N 
ATOM     10  C   UNL A   1      29.981  26.772  23.493  1.00  0.00     0.052 A 
ATOM     11  C   UNL A   1      28.677  27.211  23.703  1.00  0.00     0.039 A 
ATOM     12  C   UNL A   1      28.496  28.433  23.030  1.00  0.00     0.020 A 
ATOM     13  C   UNL A   1      29.708  28.734  22.419  1.00  0.00     0.140 A 
ATOM     14  C   UNL A   1      27.430  29.332  22.888  1.00  0.00     0.013 A 
ATOM     15  N   UNL A   1      29.961  29.799  21.631  1.00  0.00    -0.238 NA
ATOM     16  C   UNL A   1      27.637  30.439  22.075  1.00  0.00     0.021 A 
ATOM     17  C   UNL A   1      28.878  30.601  21.470  1.00  0.00     0.113 A 
BRANCH  10  18
ATOM     18  C   UNL A   1      30.634  25.613  24.104  1.00  0.00     0.017 A 
ATOM     19  C   UNL A   1      32.778  22.131  26.912  1.00  0.00     0.066 C 
ATOM     20  C   UNL A   1      32.620  23.351  26.037  1.00  0.00     0.037 A 
ATOM     21  C   UNL A   1      32.648  23.165  24.269  1.00  0.00     0.024 A 
ATOM     22  N   UNL A   1      31.705  24.617  26.802  1.00  0.00    -0.261 NA
ATOM     23  C   UNL A   1      31.615  24.290  23.288  1.00  0.00     0.014 A 
ATOM     24  C   UNL A   1      30.725  25.701  25.873  1.00  0.00     0.121 A 
ENDBRANCH  10  18
ENDBRANCH   8   9
ENDBRANCH   7   8
ENDBRANCH   5   7
ENDBRANCH   4   5
ENDBRANCH   3   4
ENDBRANCH   2   3
ENDBRANCH   1   2
BRANCH   1  25
ATOM     25  C   UNL A   1      34.740  33.556  29.080  1.00  0.00     0.202 C 
BRANCH  25  26
ATOM     26  C   UNL A   1      34.571  32.671  30.305  1.00  0.00     0.261 C 
BRANCH  26  27
ATOM     27  O   UNL A   1      35.821  32.454  30.914  1.00  0.00    -0.460 OA
BRANCH  27  28
ATOM     28  C   UNL A   1      36.221  31.159  30.942  1.00  0.00     0.338 C 
ATOM     29  O   UNL A   1      36.101  30.362  31.853  1.00  0.00    -0.246 OA
BRANCH  28  30
ATOM     30  C   UNL A   1      36.871  30.905  29.637  1.00  0.00     0.060 A 
ATOM     31  C   UNL A   1      36.705  29.612  29.173  1.00  0.00     0.016 A 
ATOM     32  C   UNL A   1      38.009  31.673  29.337  1.00  0.00     0.016 A 
ATOM     33  C   UNL A   1      37.868  28.927  28.951  1.00  0.00     0.010 A 
ATOM     34  C   UNL A   1      39.167  30.996  29.127  1.00  0.00     0.010 A 
ATOM     35  C   UNL A   1      39.078  29.615  29.120  1.00  0.00    -0.014 A 
BRANCH  35  36
ATOM     36  C   UNL A   1      40.301  28.870  29.212  1.00  0.00     0.031 A 
ATOM     37  C   UNL A   1      40.646  28.705  30.629  1.00  0.00     0.074 A 
ATOM     38  C   UNL A   1      40.968  28.420  28.130  1.00  0.00     0.049 A 
ATOM     39  N   UNL A   1      41.384  29.516  31.309  1.00  0.00    -0.248 NA
ATOM     40  C   UNL A   1      39.824  27.807  31.457  1.00  0.00     0.031 C 
ATOM     41  C   UNL A   1      40.573  28.386  26.719  1.00  0.00     0.029 A 
ATOM     42  N   UNL A   1      42.204  27.851  28.106  1.00  0.00    -0.354 N 
ATOM     43  C   UNL A   1      41.376  29.002  32.592  1.00  0.00     0.074 A 
ATOM     44  C   UNL A   1      40.200  28.181  32.682  1.00  0.00     0.031 C 
ATOM     45  C   UNL A   1      41.448  27.619  26.020  1.00  0.00     0.029 A 
ATOM     46  C   UNL A   1      42.544  27.240  26.893  1.00  0.00     0.049 A 
ATOM     47  H   UNL A   1      42.812  27.868  28.880  1.00  0.00     0.167 HD
ATOM     48  C   UNL A   1      42.526  29.011  33.315  1.00  0.00     0.037 A 
ATOM     49  C   UNL A   1      43.655  26.473  26.691  1.00  0.00     0.037 A 
ATOM     50  C   UNL A   1      43.474  29.944  32.745  1.00  0.00     0.049 A 
ATOM     51  C   UNL A   1      44.630  26.886  27.749  1.00  0.00     0.074 A 
ATOM     52  C   UNL A   1      43.461  31.307  32.511  1.00  0.00     0.029 A 
ATOM     53  N   UNL A   1      44.438  29.425  31.911  1.00  0.00    -0.354 N 
ATOM     54  N   UNL A   1      45.158  28.082  27.797  1.00  0.00    -0.248 NA
ATOM     55  C   UNL A   1      44.555  26.183  29.023  1.00  0.00     0.031 C 
ATOM     56  C   UNL A   1      44.087  31.474  31.240  1.00  0.00     0.029 A 
ATOM     57  C   UNL A   1      44.543  30.229  30.804  1.00  0.00     0.049 A 
ATOM     58  H   UNL A   1      44.965  28.611  32.082  1.00  0.00     0.167 HD
ATOM     59  C   UNL A   1      45.080  28.453  29.135  1.00  0.00     0.074 A 
ATOM     60  C   UNL A   1      44.719  27.224  29.846  1.00  0.00     0.031 C 
ATOM     61  C   UNL A   1      45.000  29.765  29.509  1.00  0.00     0.037 A 
BRANCH  48  62
ATOM     62  C   UNL A   1      42.939  27.878  34.218  1.00  0.00     0.058 A 
ATOM     63  C   UNL A   1      43.097  28.140  35.591  1.00  0.00     0.135 A 
ATOM     64  C   UNL A   1      43.439  26.631  33.774  1.00  0.00     0.135 A 
ATOM     65  F   UNL A   1      42.668  29.298  36.119  1.00  0.00    -0.206 F 
ATOM     66  C   UNL A   1      43.759  27.261  36.445  1.00  0.00     0.059 A 
ATOM     67  C   UNL A   1      44.055  25.718  34.617  1.00  0.00     0.059 A 
ATOM     68  F   UNL A   1      43.444  26.261  32.490  1.00  0.00    -0.206 F 
ATOM     69  C   UNL A   1      44.240  26.054  35.944  1.00  0.00     0.060 A 
BRANCH  69  70
ATOM     70  S   UNL A   1      45.144  24.943  37.029  1.00  0.00     0.124 S 
ATOM     71  O   UNL A   1      45.025  23.677  36.317  1.00  0.00    -0.237 OA
ATOM     72  O   UNL A   1      46.469  25.554  37.037  1.00  0.00    -0.237 OA
ATOM     73  O   UNL A   1      44.411  25.032  38.289  1.00  0.00    -0.744 OA
ENDBRANCH  69  70
ENDBRANCH  48  62
BRANCH  49  74
ATOM     74  C   UNL A   1      43.740  25.140  26.016  1.00  0.00     0.058 A 
ATOM     75  C   UNL A   1      44.810  24.815  25.154  1.00  0.00     0.135 A 
ATOM     76  C   UNL A   1      42.947  24.056  26.437  1.00  0.00     0.135 A 
ATOM     77  F   UNL A   1      45.632  25.777  24.708  1.00  0.00    -0.206 F 
ATOM     78  C   UNL A   1      45.109  23.492  24.785  1.00  0.00     0.059 A 
ATOM     79  C   UNL A   1      43.223  22.733  26.083  1.00  0.00     0.059 A 
ATOM     80  F   UNL A   1      41.924  24.240  27.284  1.00  0.00    -0.206 F 
ATOM     81  C   UNL A   1      44.322  22.453  25.280  1.00  0.00     0.060 A 
BRANCH  81  82
ATOM     82  S   UNL A   1      44.798  20.732  24.964  1.00  0.00     0.124 S 
ATOM     83  O   UNL A   1      44.646  20.633  23.518  1.00  0.00    -0.237 OA
ATOM     84  O   UNL A   1      46.167  20.692  25.466  1.00  0.00    -0.237 OA
ATOM     85  O   UNL A   1      43.830  19.964  25.745  1.00  0.00    -0.744 OA
ENDBRANCH  81  82
ENDBRANCH  49  74
BRANCH  61  86
ATOM     86  C   UNL A   1      45.251  30.830  28.465  1.00  0.00     0.058 A 
ATOM     87  C   UNL A   1      44.315  31.260  27.505  1.00  0.00     0.135 A 
ATOM     88  C   UNL A   1      46.441  31.565  28.567  1.00  0.00     0.135 A 
ATOM     89  F   UNL A   1      43.115  30.673  27.404  1.00  0.00    -0.206 F 
ATOM     90  C   UNL A   1      44.568  32.355  26.667  1.00  0.00     0.059 A 
ATOM     91  C   UNL A   1      46.701  32.672  27.765  1.00  0.00     0.059 A 
ATOM     92  F   UNL A   1      47.348  31.243  29.502  1.00  0.00    -0.206 F 
ATOM     93  C   UNL A   1      45.766  33.056  26.808  1.00  0.00     0.060 A 
BRANCH  93  94
ATOM     94  S   UNL A   1      46.088  34.496  25.763  1.00  0.00     0.124 S 
ATOM     95  O   UNL A   1      47.491  34.311  25.406  1.00  0.00    -0.237 OA
ATOM     96  O   UNL A   1      45.128  34.319  24.677  1.00  0.00    -0.237 OA
ATOM     97  O   UNL A   1      45.816  35.628  26.646  1.00  0.00    -0.744 OA
ENDBRANCH  93  94
ENDBRANCH  61  86
ENDBRANCH  35  36
ENDBRANCH  28  30
ENDBRANCH  27  28
ENDBRANCH  26  27
ENDBRANCH  25  26
ENDBRANCH   1  25
TORSDOF 20
ENDMDL
MODEL 3
REMARK VINA RESULT:     -12.7      0.809      3.013
REMARK SMILES Cc1ccc(-c2cc3cccnc3n2CCC(=O)OCCOCCOC(=O)c2ccc(-c3c4nc(c(-c5c(F)cc(S(=O)(=O)[O-])cc5F)c5ccc([nH]5)c(-c5c(F)cc(S(=O)(=O)[O-])cc5F)c5nc(c(-c6c(F)cc(S(=O)(=O)[O-])cc6F)c6ccc3[nH]6)C=C5)C=C4)cc2)cn1
REMARK SMILES IDX 22 1 21 2 20 3 19 4 17 5 18 6 16 7 15 8 14 9 6 10 7 11 8 12
REMARK SMILES IDX 13 13 9 14 12 15 10 16 11 17 5 18 1 19 2 20 3 21 95 22 4 23
REMARK SMILES IDX 94 24 23 25 24 26 25 27 26 28 27 29 28 30 29 31 93 32 30 33
REMARK SMILES IDX 92 34 31 35 32 36 33 37 86 38 34 39 91 40 85 41 87 42 35 43
REMARK SMILES IDX 90 44 84 45 83 46 36 48 70 49 49 50 69 51 50 52 53 53 68 54
REMARK SMILES IDX 88 55 51 56 52 57 67 59 89 60 54 61 37 62 38 63 47 64 39 65
REMARK SMILES IDX 40 66 46 67 48 68 41 69 42 70 43 71 44 72 45 73 71 74 72 75
REMARK SMILES IDX 81 76 73 77 74 78 80 79 82 80 75 81 76 82 77 83 78 84 79 85
REMARK SMILES IDX 55 86 56 87 65 88 57 89 58 90 64 91 66 92 59 93 60 94 61 95
REMARK SMILES IDX 62 96 63 97
REMARK H PARENT 87 47 53 58
REMARK Flexibility Score: inf
ROOT
ATOM      1  O   UNL A   1      40.023  21.778  27.071  1.00  0.00    -0.374 OA
ENDROOT
BRANCH   1   2
ATOM      2  C   UNL A   1      39.112  21.038  25.939  1.00  0.00     0.202 C 
BRANCH   2   3
ATOM      3  C   UNL A   1      37.496  21.850  24.719  1.00  0.00     0.261 C 
BRANCH   3   4
ATOM      4  O   UNL A   1      35.814  21.617  25.045  1.00  0.00    -0.463 OA
BRANCH   4   5
ATOM      5  C   UNL A   1      35.075  22.291  25.973  1.00  0.00     0.307 C 
ATOM      6  O   UNL A   1      35.287  23.470  26.243  1.00  0.00    -0.252 OA
BRANCH   5   7
ATOM      7  C   UNL A   1      33.888  21.514  26.641  1.00  0.00     0.144 C 
BRANCH   7   8
ATOM      8  C   UNL A   1      32.471  21.317  26.049  1.00  0.00     0.136 C 
BRANCH   8   9
ATOM      9  N   UNL A   1      32.420  20.487  24.874  1.00  0.00    -0.325 N 
ATOM     10  C   UNL A   1      32.301  20.984  23.604  1.00  0.00     0.052 A 
ATOM     11  C   UNL A   1      32.563  19.919  22.749  1.00  0.00     0.039 A 
ATOM     12  C   UNL A   1      32.706  18.747  23.515  1.00  0.00     0.020 A 
ATOM     13  C   UNL A   1      32.538  19.118  24.844  1.00  0.00     0.140 A 
ATOM     14  C   UNL A   1      32.980  17.405  23.221  1.00  0.00     0.013 A 
ATOM     15  N   UNL A   1      32.550  18.292  25.910  1.00  0.00    -0.238 NA
ATOM     16  C   UNL A   1      32.991  16.511  24.285  1.00  0.00     0.021 A 
ATOM     17  C   UNL A   1      32.750  16.994  25.565  1.00  0.00     0.113 A 
BRANCH  10  18
ATOM     18  C   UNL A   1      32.204  22.402  23.248  1.00  0.00     0.017 A 
ATOM     19  C   UNL A   1      32.736  27.173  22.001  1.00  0.00     0.066 C 
ATOM     20  C   UNL A   1      32.630  25.932  22.853  1.00  0.00     0.037 A 
ATOM     21  C   UNL A   1      31.026  25.348  23.348  1.00  0.00     0.024 A 
ATOM     22  N   UNL A   1      33.961  24.837  22.619  1.00  0.00    -0.261 NA
ATOM     23  C   UNL A   1      30.798  23.554  23.517  1.00  0.00     0.014 A 
ATOM     24  C   UNL A   1      33.755  23.126  22.788  1.00  0.00     0.121 A 
ENDBRANCH  10  18
ENDBRANCH   8   9
ENDBRANCH   7   8
ENDBRANCH   5   7
ENDBRANCH   4   5
ENDBRANCH   3   4
ENDBRANCH   2   3
ENDBRANCH   1   2
BRANCH   1  25
ATOM     25  C   UNL A   1      41.079  21.061  27.753  1.00  0.00     0.202 C 
BRANCH  25  26
ATOM     26  C   UNL A   1      42.522  21.382  27.396  1.00  0.00     0.261 C 
BRANCH  26  27
ATOM     27  O   UNL A   1      42.667  21.435  25.997  1.00  0.00    -0.460 OA
BRANCH  27  28
ATOM     28  C   UNL A   1      43.845  20.954  25.530  1.00  0.00     0.338 C 
ATOM     29  O   UNL A   1      44.183  19.791  25.419  1.00  0.00    -0.246 OA
BRANCH  28  30
ATOM     30  C   UNL A   1      44.669  22.140  25.202  1.00  0.00     0.060 A 
ATOM     31  C   UNL A   1      45.566  22.487  26.196  1.00  0.00     0.016 A 
ATOM     32  C   UNL A   1      44.095  23.087  24.337  1.00  0.00     0.016 A 
ATOM     33  C   UNL A   1      45.418  23.756  26.686  1.00  0.00     0.010 A 
ATOM     34  C   UNL A   1      43.937  24.344  24.825  1.00  0.00     0.010 A 
ATOM     35  C   UNL A   1      44.460  24.584  26.084  1.00  0.00    -0.014 A 
BRANCH  35  36
ATOM     36  C   UNL A   1      44.050  25.785  26.755  1.00  0.00     0.031 A 
ATOM     37  C   UNL A   1      45.057  26.826  26.512  1.00  0.00     0.074 A 
ATOM     38  C   UNL A   1      42.912  25.873  27.471  1.00  0.00     0.049 A 
ATOM     39  N   UNL A   1      46.080  27.055  27.262  1.00  0.00    -0.248 NA
ATOM     40  C   UNL A   1      45.165  27.402  25.161  1.00  0.00     0.031 C 
ATOM     41  C   UNL A   1      41.789  24.938  27.585  1.00  0.00     0.029 A 
ATOM     42  N   UNL A   1      42.520  26.904  28.269  1.00  0.00    -0.354 N 
ATOM     43  C   UNL A   1      46.770  28.061  26.615  1.00  0.00     0.074 A 
ATOM     44  C   UNL A   1      46.352  28.007  25.241  1.00  0.00     0.031 C 
ATOM     45  C   UNL A   1      40.751  25.548  28.213  1.00  0.00     0.029 A 
ATOM     46  C   UNL A   1      41.184  26.851  28.683  1.00  0.00     0.049 A 
ATOM     47  H   UNL A   1      43.129  27.631  28.534  1.00  0.00     0.167 HD
ATOM     48  C   UNL A   1      47.325  29.061  27.348  1.00  0.00     0.037 A 
ATOM     49  C   UNL A   1      40.533  27.850  29.347  1.00  0.00     0.037 A 
ATOM     50  C   UNL A   1      47.439  28.666  28.736  1.00  0.00     0.049 A 
ATOM     51  C   UNL A   1      41.604  28.666  30.000  1.00  0.00     0.074 A 
ATOM     52  C   UNL A   1      48.098  27.645  29.395  1.00  0.00     0.029 A 
ATOM     53  N   UNL A   1      46.447  29.091  29.590  1.00  0.00    -0.354 N 
ATOM     54  N   UNL A   1      42.373  28.196  30.949  1.00  0.00    -0.248 NA
ATOM     55  C   UNL A   1      42.171  29.755  29.216  1.00  0.00     0.031 C 
ATOM     56  C   UNL A   1      47.193  27.207  30.407  1.00  0.00     0.029 A 
ATOM     57  C   UNL A   1      46.073  28.040  30.389  1.00  0.00     0.049 A 
ATOM     58  H   UNL A   1      46.069  30.000  29.622  1.00  0.00     0.167 HD
ATOM     59  C   UNL A   1      43.654  28.616  30.610  1.00  0.00     0.074 A 
ATOM     60  C   UNL A   1      43.459  29.597  29.539  1.00  0.00     0.031 C 
ATOM     61  C   UNL A   1      44.762  27.910  30.993  1.00  0.00     0.037 A 
BRANCH  48  62
ATOM     62  C   UNL A   1      47.327  30.501  26.906  1.00  0.00     0.058 A 
ATOM     63  C   UNL A   1      48.537  31.217  26.965  1.00  0.00     0.135 A 
ATOM     64  C   UNL A   1      46.167  31.281  26.685  1.00  0.00     0.135 A 
ATOM     65  F   UNL A   1      49.699  30.579  27.180  1.00  0.00    -0.206 F 
ATOM     66  C   UNL A   1      48.583  32.607  26.876  1.00  0.00     0.059 A 
ATOM     67  C   UNL A   1      46.197  32.660  26.542  1.00  0.00     0.059 A 
ATOM     68  F   UNL A   1      44.932  30.770  26.686  1.00  0.00    -0.206 F 
ATOM     69  C   UNL A   1      47.405  33.319  26.670  1.00  0.00     0.060 A 
BRANCH  69  70
ATOM     70  S   UNL A   1      47.454  35.113  26.612  1.00  0.00     0.124 S 
ATOM     71  O   UNL A   1      48.186  35.427  27.833  1.00  0.00    -0.237 OA
ATOM     72  O   UNL A   1      48.165  35.347  25.359  1.00  0.00    -0.237 OA
ATOM     73  O   UNL A   1      46.043  35.490  26.606  1.00  0.00    -0.744 OA
ENDBRANCH  69  70
ENDBRANCH  48  62
BRANCH  49  74
ATOM     74  C   UNL A   1      39.177  28.413  29.058  1.00  0.00     0.058 A 
ATOM     75  C   UNL A   1      38.185  28.503  30.058  1.00  0.00     0.135 A 
ATOM     76  C   UNL A   1      38.928  29.151  27.885  1.00  0.00     0.135 A 
ATOM     77  F   UNL A   1      38.337  27.845  31.218  1.00  0.00    -0.206 F 
ATOM     78  C   UNL A   1      37.050  29.321  29.926  1.00  0.00     0.059 A 
ATOM     79  C   UNL A   1      37.807  29.972  27.731  1.00  0.00     0.059 A 
ATOM     80  F   UNL A   1      39.817  29.169  26.881  1.00  0.00    -0.206 F 
ATOM     81  C   UNL A   1      36.885  30.075  28.765  1.00  0.00     0.060 A 
BRANCH  81  82
ATOM     82  S   UNL A   1      35.528  31.272  28.652  1.00  0.00     0.124 S 
ATOM     83  O   UNL A   1      34.499  30.502  27.962  1.00  0.00    -0.237 OA
ATOM     84  O   UNL A   1      35.264  31.575  30.054  1.00  0.00    -0.237 OA
ATOM     85  O   UNL A   1      36.107  32.369  27.879  1.00  0.00    -0.744 OA
ENDBRANCH  81  82
ENDBRANCH  49  74
BRANCH  61  86
ATOM     86  C   UNL A   1      44.596  26.801  32.006  1.00  0.00     0.058 A 
ATOM     87  C   UNL A   1      44.380  25.445  31.697  1.00  0.00     0.135 A 
ATOM     88  C   UNL A   1      44.846  27.114  33.350  1.00  0.00     0.135 A 
ATOM     89  F   UNL A   1      44.226  25.047  30.426  1.00  0.00    -0.206 F 
ATOM     90  C   UNL A   1      44.385  24.452  32.685  1.00  0.00     0.059 A 
ATOM     91  C   UNL A   1      44.883  26.142  34.345  1.00  0.00     0.059 A 
ATOM     92  F   UNL A   1      45.118  28.381  33.703  1.00  0.00    -0.206 F 
ATOM     93  C   UNL A   1      44.641  24.813  34.009  1.00  0.00     0.060 A 
BRANCH  93  94
ATOM     94  S   UNL A   1      44.693  23.537  35.290  1.00  0.00     0.124 S 
ATOM     95  O   UNL A   1      44.947  24.321  36.494  1.00  0.00    -0.237 OA
ATOM     96  O   UNL A   1      43.365  22.937  35.192  1.00  0.00    -0.237 OA
ATOM     97  O   UNL A   1      45.791  22.673  34.867  1.00  0.00    -0.744 OA
ENDBRANCH  93  94
ENDBRANCH  61  86
ENDBRANCH  35  36
ENDBRANCH  28  30
ENDBRANCH  27  28
ENDBRANCH  26  27
ENDBRANCH  25  26
ENDBRANCH   1  25
TORSDOF 20
ENDMDL
