MODEL 1
REMARK VINA RESULT:     -11.2      0.000      0.000
REMARK SMILES CC1(C)[C@@]2(CC[C@@H]2C(=O)NCc2ccco2)[C@]1(C)C(=O)OCCOCCOC(=O)c1ccc(-c2c3nc(c(-c4c(F)cc(S(=O)(=O)[O-])cc4F)c4ccc([nH]4)c(-c4c(F)cc(S(=O)(=O)[O-])cc4F)c4nc(c(-c5c(F)cc(S(=O)(=O)[O-])cc5F)c5ccc2[nH]5)C=C4)C=C3)cc1
REMARK SMILES IDX 24 1 23 2 22 3 21 4 19 5 20 6 17 7 1 8 2 9 3 10 4 11 18 12
REMARK SMILES IDX 5 13 7 14 6 15 8 16 9 17 10 18 11 20 12 21 13 22 16 23 14 24
REMARK SMILES IDX 15 25 25 26 26 27 27 28 28 29 29 30 30 31 31 32 95 33 32 34
REMARK SMILES IDX 94 35 33 36 34 37 35 38 88 39 36 40 93 41 87 42 89 43 37 44
REMARK SMILES IDX 92 45 86 46 85 47 38 49 72 50 51 51 71 52 52 53 55 54 70 55
REMARK SMILES IDX 90 56 53 57 54 58 69 60 91 61 56 62 39 63 40 64 49 65 41 66
REMARK SMILES IDX 42 67 48 68 50 69 43 70 44 71 45 72 46 73 47 74 73 75 74 76
REMARK SMILES IDX 83 77 75 78 76 79 82 80 84 81 77 82 78 83 79 84 80 85 81 86
REMARK SMILES IDX 57 87 58 88 67 89 59 90 60 91 66 92 68 93 61 94 62 95 63 96
REMARK SMILES IDX 64 97 65 98
REMARK H PARENT 10 19 89 48 55 59
REMARK Flexibility Score: inf
ROOT
ATOM      1  O   UNL A   1      34.304  30.272  27.860  1.00  0.00    -0.374 OA
ENDROOT
BRANCH   1   2
ATOM      2  C   UNL A   1      33.434  30.244  26.726  1.00  0.00     0.202 C 
BRANCH   2   3
ATOM      3  C   UNL A   1      31.960  29.886  26.962  1.00  0.00     0.261 C 
BRANCH   3   4
ATOM      4  O   UNL A   1      31.584  28.666  26.294  1.00  0.00    -0.463 OA
BRANCH   4   5
ATOM      5  C   UNL A   1      31.383  28.784  24.957  1.00  0.00     0.313 C 
ATOM      6  O   UNL A   1      30.796  29.700  24.394  1.00  0.00    -0.252 OA
BRANCH   5   7
ATOM      7  C   UNL A   1      32.115  27.744  24.144  1.00  0.00     0.078 C 
ATOM      8  C   UNL A   1      29.762  26.669  23.858  1.00  0.00     0.013 C 
ATOM      9  C   UNL A   1      31.245  26.644  23.506  1.00  0.00    -0.011 C 
ATOM     10  C   UNL A   1      31.468  26.266  22.064  1.00  0.00     0.013 C 
ATOM     11  C   UNL A   1      32.263  26.277  24.571  1.00  0.00     0.005 C 
ATOM     12  C   UNL A   1      33.243  28.336  23.296  1.00  0.00     0.025 C 
ATOM     13  C   UNL A   1      33.608  25.629  24.489  1.00  0.00     0.010 C 
ATOM     14  C   UNL A   1      31.929  25.594  25.867  1.00  0.00     0.086 C 
ATOM     15  C   UNL A   1      33.382  25.116  25.909  1.00  0.00     0.015 C 
BRANCH  14  16
ATOM     16  C   UNL A   1      30.788  24.547  25.929  1.00  0.00     0.224 C 
ATOM     17  O   UNL A   1      29.898  24.617  26.793  1.00  0.00    -0.275 OA
ATOM     18  N   UNL A   1      30.660  23.479  25.075  1.00  0.00    -0.349 N 
ATOM     19  H   UNL A   1      29.872  22.919  25.261  1.00  0.00     0.163 HD
BRANCH  18  20
ATOM     20  C   UNL A   1      31.450  23.012  23.960  1.00  0.00     0.191 C 
BRANCH  20  21
ATOM     21  C   UNL A   1      32.351  21.909  24.378  1.00  0.00     0.122 A 
ATOM     22  C   UNL A   1      33.715  21.699  24.331  1.00  0.00     0.047 A 
ATOM     23  O   UNL A   1      31.743  20.835  24.968  1.00  0.00    -0.467 OA
ATOM     24  C   UNL A   1      33.953  20.438  24.928  1.00  0.00     0.042 A 
ATOM     25  C   UNL A   1      32.722  19.954  25.299  1.00  0.00     0.195 A 
ENDBRANCH  20  21
ENDBRANCH  18  20
ENDBRANCH  14  16
ENDBRANCH   5   7
ENDBRANCH   4   5
ENDBRANCH   3   4
ENDBRANCH   2   3
ENDBRANCH   1   2
BRANCH   1  26
ATOM     26  C   UNL A   1      34.850  31.536  28.219  1.00  0.00     0.202 C 
BRANCH  26  27
ATOM     27  C   UNL A   1      34.864  31.934  29.698  1.00  0.00     0.261 C 
BRANCH  27  28
ATOM     28  O   UNL A   1      36.180  31.878  30.266  1.00  0.00    -0.460 OA
BRANCH  28  29
ATOM     29  C   UNL A   1      36.619  30.617  30.502  1.00  0.00     0.338 C 
ATOM     30  O   UNL A   1      35.947  29.658  30.841  1.00  0.00    -0.246 OA
BRANCH  29  31
ATOM     31  C   UNL A   1      38.032  30.497  30.105  1.00  0.00     0.060 A 
ATOM     32  C   UNL A   1      38.291  30.183  28.764  1.00  0.00     0.016 A 
ATOM     33  C   UNL A   1      39.075  30.621  31.023  1.00  0.00     0.016 A 
ATOM     34  C   UNL A   1      39.592  29.924  28.349  1.00  0.00     0.010 A 
ATOM     35  C   UNL A   1      40.383  30.354  30.606  1.00  0.00     0.010 A 
ATOM     36  C   UNL A   1      40.639  29.963  29.279  1.00  0.00    -0.014 A 
BRANCH  36  37
ATOM     37  C   UNL A   1      41.971  29.441  28.889  1.00  0.00     0.031 A 
ATOM     38  C   UNL A   1      43.142  30.387  28.871  1.00  0.00     0.074 A 
ATOM     39  C   UNL A   1      42.135  28.139  28.598  1.00  0.00     0.049 A 
ATOM     40  N   UNL A   1      44.382  30.161  28.530  1.00  0.00    -0.248 NA
ATOM     41  C   UNL A   1      42.879  31.775  29.292  1.00  0.00     0.031 C 
ATOM     42  C   UNL A   1      41.077  27.128  28.621  1.00  0.00     0.029 A 
ATOM     43  N   UNL A   1      43.254  27.443  28.217  1.00  0.00    -0.354 N 
ATOM     44  C   UNL A   1      45.044  31.375  28.678  1.00  0.00     0.074 A 
ATOM     45  C   UNL A   1      44.064  32.342  29.118  1.00  0.00     0.031 C 
ATOM     46  C   UNL A   1      41.597  25.943  28.257  1.00  0.00     0.029 A 
ATOM     47  C   UNL A   1      43.012  26.119  27.939  1.00  0.00     0.049 A 
ATOM     48  H   UNL A   1      44.147  27.854  28.149  1.00  0.00     0.167 HD
ATOM     49  C   UNL A   1      46.352  31.652  28.471  1.00  0.00     0.037 A 
ATOM     50  C   UNL A   1      43.835  25.166  27.458  1.00  0.00     0.037 A 
ATOM     51  C   UNL A   1      47.322  30.673  28.052  1.00  0.00     0.049 A 
ATOM     52  C   UNL A   1      45.277  25.517  27.185  1.00  0.00     0.074 A 
ATOM     53  C   UNL A   1      48.680  30.842  27.850  1.00  0.00     0.029 A 
ATOM     54  N   UNL A   1      47.037  29.346  27.767  1.00  0.00    -0.354 N 
ATOM     55  N   UNL A   1      45.897  26.661  27.364  1.00  0.00    -0.248 NA
ATOM     56  C   UNL A   1      46.133  24.450  26.651  1.00  0.00     0.031 C 
ATOM     57  C   UNL A   1      49.205  29.634  27.384  1.00  0.00     0.029 A 
ATOM     58  C   UNL A   1      48.189  28.693  27.360  1.00  0.00     0.049 A 
ATOM     59  H   UNL A   1      46.148  28.929  27.843  1.00  0.00     0.167 HD
ATOM     60  C   UNL A   1      47.220  26.438  26.997  1.00  0.00     0.074 A 
ATOM     61  C   UNL A   1      47.314  25.049  26.600  1.00  0.00     0.031 C 
ATOM     62  C   UNL A   1      48.266  27.302  26.988  1.00  0.00     0.037 A 
BRANCH  49  63
ATOM     63  C   UNL A   1      46.823  33.066  28.668  1.00  0.00     0.058 A 
ATOM     64  C   UNL A   1      47.318  33.519  29.900  1.00  0.00     0.135 A 
ATOM     65  C   UNL A   1      46.859  33.955  27.581  1.00  0.00     0.135 A 
ATOM     66  F   UNL A   1      47.288  32.719  30.978  1.00  0.00    -0.206 F 
ATOM     67  C   UNL A   1      47.833  34.804  30.047  1.00  0.00     0.059 A 
ATOM     68  C   UNL A   1      47.393  35.234  27.699  1.00  0.00     0.059 A 
ATOM     69  F   UNL A   1      46.388  33.575  26.383  1.00  0.00    -0.206 F 
ATOM     70  C   UNL A   1      47.877  35.650  28.938  1.00  0.00     0.060 A 
BRANCH  70  71
ATOM     71  S   UNL A   1      48.601  37.293  29.133  1.00  0.00     0.124 S 
ATOM     72  O   UNL A   1      48.173  37.949  27.901  1.00  0.00    -0.237 OA
ATOM     73  O   UNL A   1      47.966  37.768  30.357  1.00  0.00    -0.237 OA
ATOM     74  O   UNL A   1      50.032  37.026  29.234  1.00  0.00    -0.744 OA
ENDBRANCH  70  71
ENDBRANCH  49  63
BRANCH  50  75
ATOM     75  C   UNL A   1      43.320  23.799  27.170  1.00  0.00     0.058 A 
ATOM     76  C   UNL A   1      43.148  22.854  28.192  1.00  0.00     0.135 A 
ATOM     77  C   UNL A   1      43.030  23.397  25.856  1.00  0.00     0.135 A 
ATOM     78  F   UNL A   1      43.418  23.185  29.464  1.00  0.00    -0.206 F 
ATOM     79  C   UNL A   1      42.745  21.550  27.920  1.00  0.00     0.059 A 
ATOM     80  C   UNL A   1      42.593  22.109  25.562  1.00  0.00     0.059 A 
ATOM     81  F   UNL A   1      43.165  24.264  24.841  1.00  0.00    -0.206 F 
ATOM     82  C   UNL A   1      42.474  21.186  26.599  1.00  0.00     0.060 A 
BRANCH  82  83
ATOM     83  S   UNL A   1      41.956  19.491  26.257  1.00  0.00     0.124 S 
ATOM     84  O   UNL A   1      40.512  19.648  26.126  1.00  0.00    -0.237 OA
ATOM     85  O   UNL A   1      42.680  19.191  25.026  1.00  0.00    -0.237 OA
ATOM     86  O   UNL A   1      42.406  18.757  27.437  1.00  0.00    -0.744 OA
ENDBRANCH  82  83
ENDBRANCH  50  75
BRANCH  62  87
ATOM     87  C   UNL A   1      49.613  26.764  26.587  1.00  0.00     0.058 A 
ATOM     88  C   UNL A   1      50.486  26.181  27.518  1.00  0.00     0.135 A 
ATOM     89  C   UNL A   1      50.009  26.782  25.239  1.00  0.00     0.135 A 
ATOM     90  F   UNL A   1      50.158  26.141  28.819  1.00  0.00    -0.206 F 
ATOM     91  C   UNL A   1      51.717  25.660  27.132  1.00  0.00     0.059 A 
ATOM     92  C   UNL A   1      51.220  26.236  24.825  1.00  0.00     0.059 A 
ATOM     93  F   UNL A   1      49.206  27.315  24.305  1.00  0.00    -0.206 F 
ATOM     94  C   UNL A   1      52.073  25.689  25.782  1.00  0.00     0.060 A 
BRANCH  94  95
ATOM     95  S   UNL A   1      53.658  24.981  25.291  1.00  0.00     0.124 S 
ATOM     96  O   UNL A   1      54.529  25.428  26.372  1.00  0.00    -0.237 OA
ATOM     97  O   UNL A   1      53.365  23.551  25.264  1.00  0.00    -0.237 OA
ATOM     98  O   UNL A   1      53.914  25.587  23.987  1.00  0.00    -0.744 OA
ENDBRANCH  94  95
ENDBRANCH  62  87
ENDBRANCH  36  37
ENDBRANCH  29  31
ENDBRANCH  28  29
ENDBRANCH  27  28
ENDBRANCH  26  27
ENDBRANCH   1  26
TORSDOF 20
ENDMDL
MODEL 2
REMARK VINA RESULT:     -11.2      6.255     11.802
REMARK SMILES CC1(C)[C@@]2(CC[C@@H]2C(=O)NCc2ccco2)[C@]1(C)C(=O)OCCOCCOC(=O)c1ccc(-c2c3nc(c(-c4c(F)cc(S(=O)(=O)[O-])cc4F)c4ccc([nH]4)c(-c4c(F)cc(S(=O)(=O)[O-])cc4F)c4nc(c(-c5c(F)cc(S(=O)(=O)[O-])cc5F)c5ccc2[nH]5)C=C4)C=C3)cc1
REMARK SMILES IDX 24 1 23 2 22 3 21 4 19 5 20 6 17 7 1 8 2 9 3 10 4 11 18 12
REMARK SMILES IDX 5 13 7 14 6 15 8 16 9 17 10 18 11 20 12 21 13 22 16 23 14 24
REMARK SMILES IDX 15 25 25 26 26 27 27 28 28 29 29 30 30 31 31 32 95 33 32 34
REMARK SMILES IDX 94 35 33 36 34 37 35 38 88 39 36 40 93 41 87 42 89 43 37 44
REMARK SMILES IDX 92 45 86 46 85 47 38 49 72 50 51 51 71 52 52 53 55 54 70 55
REMARK SMILES IDX 90 56 53 57 54 58 69 60 91 61 56 62 39 63 40 64 49 65 41 66
REMARK SMILES IDX 42 67 48 68 50 69 43 70 44 71 45 72 46 73 47 74 73 75 74 76
REMARK SMILES IDX 83 77 75 78 76 79 82 80 84 81 77 82 78 83 79 84 80 85 81 86
REMARK SMILES IDX 57 87 58 88 67 89 59 90 60 91 66 92 68 93 61 94 62 95 63 96
REMARK SMILES IDX 64 97 65 98
REMARK H PARENT 10 19 89 48 55 59
REMARK Flexibility Score: inf
ROOT
ATOM      1  O   UNL A   1      38.773  22.042  25.926  1.00  0.00    -0.374 OA
ENDROOT
BRANCH   1   2
ATOM      2  C   UNL A   1      37.786  21.410  25.108  1.00  0.00     0.202 C 
BRANCH   2   3
ATOM      3  C   UNL A   1      36.383  21.213  25.699  1.00  0.00     0.261 C 
BRANCH   3   4
ATOM      4  O   UNL A   1      35.570  22.394  25.572  1.00  0.00    -0.463 OA
BRANCH   4   5
ATOM      5  C   UNL A   1      34.412  22.222  24.885  1.00  0.00     0.313 C 
ATOM      6  O   UNL A   1      33.707  21.221  24.901  1.00  0.00    -0.252 OA
BRANCH   5   7
ATOM      7  C   UNL A   1      33.931  23.474  24.192  1.00  0.00     0.078 C 
ATOM      8  C   UNL A   1      33.703  24.422  26.605  1.00  0.00     0.013 C 
ATOM      9  C   UNL A   1      33.606  24.672  25.105  1.00  0.00    -0.011 C 
ATOM     10  C   UNL A   1      34.112  26.043  24.737  1.00  0.00     0.013 C 
ATOM     11  C   UNL A   1      32.497  24.013  24.305  1.00  0.00     0.005 C 
ATOM     12  C   UNL A   1      34.678  23.759  22.889  1.00  0.00     0.025 C 
ATOM     13  C   UNL A   1      31.778  24.427  23.060  1.00  0.00     0.010 C 
ATOM     14  C   UNL A   1      31.263  23.401  24.905  1.00  0.00     0.086 C 
ATOM     15  C   UNL A   1      30.584  23.610  23.549  1.00  0.00     0.015 C 
BRANCH  14  16
ATOM     16  C   UNL A   1      30.622  24.017  26.174  1.00  0.00     0.224 C 
ATOM     17  O   UNL A   1      30.391  23.324  27.178  1.00  0.00    -0.275 OA
ATOM     18  N   UNL A   1      30.252  25.334  26.302  1.00  0.00    -0.349 N 
ATOM     19  H   UNL A   1      29.862  25.549  27.180  1.00  0.00     0.163 HD
BRANCH  18  20
ATOM     20  C   UNL A   1      30.320  26.465  25.408  1.00  0.00     0.191 C 
BRANCH  20  21
ATOM     21  C   UNL A   1      31.155  27.546  25.987  1.00  0.00     0.122 A 
ATOM     22  C   UNL A   1      31.654  27.818  27.246  1.00  0.00     0.047 A 
ATOM     23  O   UNL A   1      31.567  28.514  25.113  1.00  0.00    -0.467 OA
ATOM     24  C   UNL A   1      32.416  29.006  27.133  1.00  0.00     0.042 A 
ATOM     25  C   UNL A   1      32.331  29.389  25.816  1.00  0.00     0.195 A 
ENDBRANCH  20  21
ENDBRANCH  18  20
ENDBRANCH  14  16
ENDBRANCH   5   7
ENDBRANCH   4   5
ENDBRANCH   3   4
ENDBRANCH   2   3
ENDBRANCH   1   2
BRANCH   1  26
ATOM     26  C   UNL A   1      39.968  21.308  26.172  1.00  0.00     0.202 C 
BRANCH  26  27
ATOM     27  C   UNL A   1      41.293  22.073  26.260  1.00  0.00     0.261 C 
BRANCH  27  28
ATOM     28  O   UNL A   1      41.234  23.161  27.192  1.00  0.00    -0.460 OA
BRANCH  28  29
ATOM     29  C   UNL A   1      41.793  24.306  26.730  1.00  0.00     0.338 C 
ATOM     30  O   UNL A   1      42.429  24.448  25.700  1.00  0.00    -0.246 OA
BRANCH  29  31
ATOM     31  C   UNL A   1      41.365  25.443  27.563  1.00  0.00     0.060 A 
ATOM     32  C   UNL A   1      42.232  26.542  27.631  1.00  0.00     0.016 A 
ATOM     33  C   UNL A   1      40.186  25.416  28.309  1.00  0.00     0.016 A 
ATOM     34  C   UNL A   1      41.956  27.592  28.499  1.00  0.00     0.010 A 
ATOM     35  C   UNL A   1      39.914  26.469  29.187  1.00  0.00     0.010 A 
ATOM     36  C   UNL A   1      40.819  27.538  29.316  1.00  0.00    -0.014 A 
BRANCH  36  37
ATOM     37  C   UNL A   1      40.670  28.527  30.411  1.00  0.00     0.031 A 
ATOM     38  C   UNL A   1      41.568  28.416  31.614  1.00  0.00     0.074 A 
ATOM     39  C   UNL A   1      39.776  29.527  30.310  1.00  0.00     0.049 A 
ATOM     40  N   UNL A   1      41.590  29.143  32.699  1.00  0.00    -0.248 NA
ATOM     41  C   UNL A   1      42.575  27.341  31.591  1.00  0.00     0.031 C 
ATOM     42  C   UNL A   1      38.882  29.750  29.173  1.00  0.00     0.029 A 
ATOM     43  N   UNL A   1      39.467  30.539  31.183  1.00  0.00    -0.354 N 
ATOM     44  C   UNL A   1      42.597  28.606  33.494  1.00  0.00     0.074 A 
ATOM     45  C   UNL A   1      43.149  27.479  32.778  1.00  0.00     0.031 C 
ATOM     46  C   UNL A   1      38.117  30.825  29.423  1.00  0.00     0.029 A 
ATOM     47  C   UNL A   1      38.438  31.343  30.752  1.00  0.00     0.049 A 
ATOM     48  H   UNL A   1      39.937  30.677  32.037  1.00  0.00     0.167 HD
ATOM     49  C   UNL A   1      43.024  29.025  34.708  1.00  0.00     0.037 A 
ATOM     50  C   UNL A   1      37.811  32.361  31.373  1.00  0.00     0.037 A 
ATOM     51  C   UNL A   1      42.479  30.165  35.400  1.00  0.00     0.049 A 
ATOM     52  C   UNL A   1      38.274  32.772  32.749  1.00  0.00     0.074 A 
ATOM     53  C   UNL A   1      42.866  30.694  36.618  1.00  0.00     0.029 A 
ATOM     54  N   UNL A   1      41.429  30.945  34.939  1.00  0.00    -0.354 N 
ATOM     55  N   UNL A   1      39.251  32.279  33.474  1.00  0.00    -0.248 NA
ATOM     56  C   UNL A   1      37.554  33.881  33.391  1.00  0.00     0.031 C 
ATOM     57  C   UNL A   1      42.011  31.757  36.923  1.00  0.00     0.029 A 
ATOM     58  C   UNL A   1      41.134  31.932  35.865  1.00  0.00     0.049 A 
ATOM     59  H   UNL A   1      40.962  30.816  34.082  1.00  0.00     0.167 HD
ATOM     60  C   UNL A   1      39.283  33.039  34.639  1.00  0.00     0.074 A 
ATOM     61  C   UNL A   1      38.238  34.033  34.516  1.00  0.00     0.031 C 
ATOM     62  C   UNL A   1      40.101  32.927  35.715  1.00  0.00     0.037 A 
BRANCH  49  63
ATOM     63  C   UNL A   1      44.117  28.248  35.388  1.00  0.00     0.058 A 
ATOM     64  C   UNL A   1      43.842  27.153  36.222  1.00  0.00     0.135 A 
ATOM     65  C   UNL A   1      45.464  28.551  35.129  1.00  0.00     0.135 A 
ATOM     66  F   UNL A   1      42.573  26.832  36.521  1.00  0.00    -0.206 F 
ATOM     67  C   UNL A   1      44.864  26.387  36.775  1.00  0.00     0.059 A 
ATOM     68  C   UNL A   1      46.501  27.783  35.648  1.00  0.00     0.059 A 
ATOM     69  F   UNL A   1      45.782  29.593  34.345  1.00  0.00    -0.206 F 
ATOM     70  C   UNL A   1      46.190  26.703  36.472  1.00  0.00     0.060 A 
BRANCH  70  71
ATOM     71  S   UNL A   1      47.501  25.664  37.151  1.00  0.00     0.124 S 
ATOM     72  O   UNL A   1      47.816  26.364  38.393  1.00  0.00    -0.237 OA
ATOM     73  O   UNL A   1      46.830  24.377  37.303  1.00  0.00    -0.237 OA
ATOM     74  O   UNL A   1      48.539  25.710  36.127  1.00  0.00    -0.744 OA
ENDBRANCH  70  71
ENDBRANCH  49  63
BRANCH  50  75
ATOM     75  C   UNL A   1      36.661  33.049  30.723  1.00  0.00     0.058 A 
ATOM     76  C   UNL A   1      36.857  34.004  29.715  1.00  0.00     0.135 A 
ATOM     77  C   UNL A   1      35.342  32.791  31.129  1.00  0.00     0.135 A 
ATOM     78  F   UNL A   1      38.098  34.292  29.296  1.00  0.00    -0.206 F 
ATOM     79  C   UNL A   1      35.792  34.709  29.162  1.00  0.00     0.059 A 
ATOM     80  C   UNL A   1      34.258  33.458  30.567  1.00  0.00     0.059 A 
ATOM     81  F   UNL A   1      35.096  31.877  32.081  1.00  0.00    -0.206 F 
ATOM     82  C   UNL A   1      34.495  34.431  29.598  1.00  0.00     0.060 A 
BRANCH  82  83
ATOM     83  S   UNL A   1      33.121  35.353  28.876  1.00  0.00     0.124 S 
ATOM     84  O   UNL A   1      32.387  35.764  30.067  1.00  0.00    -0.237 OA
ATOM     85  O   UNL A   1      33.812  36.416  28.153  1.00  0.00    -0.237 OA
ATOM     86  O   UNL A   1      32.456  34.362  28.035  1.00  0.00    -0.744 OA
ENDBRANCH  82  83
ENDBRANCH  50  75
BRANCH  62  87
ATOM     87  C   UNL A   1      39.939  33.934  36.822  1.00  0.00     0.058 A 
ATOM     88  C   UNL A   1      40.616  35.162  36.813  1.00  0.00     0.135 A 
ATOM     89  C   UNL A   1      39.048  33.684  37.879  1.00  0.00     0.135 A 
ATOM     90  F   UNL A   1      41.483  35.450  35.829  1.00  0.00    -0.206 F 
ATOM     91  C   UNL A   1      40.437  36.097  37.827  1.00  0.00     0.059 A 
ATOM     92  C   UNL A   1      38.827  34.619  38.885  1.00  0.00     0.059 A 
ATOM     93  F   UNL A   1      38.364  32.530  37.929  1.00  0.00    -0.206 F 
ATOM     94  C   UNL A   1      39.538  35.818  38.858  1.00  0.00     0.060 A 
BRANCH  94  95
ATOM     95  S   UNL A   1      39.290  37.054  40.149  1.00  0.00     0.124 S 
ATOM     96  O   UNL A   1      40.664  37.365  40.527  1.00  0.00    -0.237 OA
ATOM     97  O   UNL A   1      38.574  38.108  39.437  1.00  0.00    -0.237 OA
ATOM     98  O   UNL A   1      38.509  36.343  41.157  1.00  0.00    -0.744 OA
ENDBRANCH  94  95
ENDBRANCH  62  87
ENDBRANCH  36  37
ENDBRANCH  29  31
ENDBRANCH  28  29
ENDBRANCH  27  28
ENDBRANCH  26  27
ENDBRANCH   1  26
TORSDOF 20
ENDMDL
MODEL 3
REMARK VINA RESULT:     -11.1      6.561     11.852
REMARK SMILES CC1(C)[C@@]2(CC[C@@H]2C(=O)NCc2ccco2)[C@]1(C)C(=O)OCCOCCOC(=O)c1ccc(-c2c3nc(c(-c4c(F)cc(S(=O)(=O)[O-])cc4F)c4ccc([nH]4)c(-c4c(F)cc(S(=O)(=O)[O-])cc4F)c4nc(c(-c5c(F)cc(S(=O)(=O)[O-])cc5F)c5ccc2[nH]5)C=C4)C=C3)cc1
REMARK SMILES IDX 24 1 23 2 22 3 21 4 19 5 20 6 17 7 1 8 2 9 3 10 4 11 18 12
REMARK SMILES IDX 5 13 7 14 6 15 8 16 9 17 10 18 11 20 12 21 13 22 16 23 14 24
REMARK SMILES IDX 15 25 25 26 26 27 27 28 28 29 29 30 30 31 31 32 95 33 32 34
REMARK SMILES IDX 94 35 33 36 34 37 35 38 88 39 36 40 93 41 87 42 89 43 37 44
REMARK SMILES IDX 92 45 86 46 85 47 38 49 72 50 51 51 71 52 52 53 55 54 70 55
REMARK SMILES IDX 90 56 53 57 54 58 69 60 91 61 56 62 39 63 40 64 49 65 41 66
REMARK SMILES IDX 42 67 48 68 50 69 43 70 44 71 45 72 46 73 47 74 73 75 74 76
REMARK SMILES IDX 83 77 75 78 76 79 82 80 84 81 77 82 78 83 79 84 80 85 81 86
REMARK SMILES IDX 57 87 58 88 67 89 59 90 60 91 66 92 68 93 61 94 62 95 63 96
REMARK SMILES IDX 64 97 65 98
REMARK H PARENT 10 19 89 48 55 59
REMARK Flexibility Score: inf
ROOT
ATOM      1  O   UNL A   1      38.785  21.719  26.083  1.00  0.00    -0.374 OA
ENDROOT
BRANCH   1   2
ATOM      2  C   UNL A   1      37.924  21.146  25.096  1.00  0.00     0.202 C 
BRANCH   2   3
ATOM      3  C   UNL A   1      36.414  21.390  25.232  1.00  0.00     0.261 C 
BRANCH   3   4
ATOM      4  O   UNL A   1      35.972  22.508  24.439  1.00  0.00    -0.463 OA
BRANCH   4   5
ATOM      5  C   UNL A   1      35.660  23.625  25.147  1.00  0.00     0.313 C 
ATOM      6  O   UNL A   1      36.416  24.244  25.886  1.00  0.00    -0.252 OA
BRANCH   5   7
ATOM      7  C   UNL A   1      34.299  24.186  24.816  1.00  0.00     0.078 C 
ATOM      8  C   UNL A   1      33.518  22.862  26.916  1.00  0.00     0.013 C 
ATOM      9  C   UNL A   1      33.162  23.828  25.792  1.00  0.00    -0.011 C 
ATOM     10  C   UNL A   1      32.224  24.909  26.266  1.00  0.00     0.013 C 
ATOM     11  C   UNL A   1      33.111  23.328  24.360  1.00  0.00     0.005 C 
ATOM     12  C   UNL A   1      34.357  25.622  24.293  1.00  0.00     0.025 C 
ATOM     13  C   UNL A   1      32.311  23.765  23.174  1.00  0.00     0.010 C 
ATOM     14  C   UNL A   1      33.040  21.879  23.968  1.00  0.00     0.086 C 
ATOM     15  C   UNL A   1      32.430  22.339  22.642  1.00  0.00     0.015 C 
BRANCH  14  16
ATOM     16  C   UNL A   1      32.262  20.867  24.846  1.00  0.00     0.224 C 
ATOM     17  O   UNL A   1      31.212  21.192  25.423  1.00  0.00    -0.275 OA
ATOM     18  N   UNL A   1      32.648  19.568  25.070  1.00  0.00    -0.349 N 
ATOM     19  H   UNL A   1      32.031  19.069  25.652  1.00  0.00     0.163 HD
BRANCH  18  20
ATOM     20  C   UNL A   1      33.777  18.787  24.623  1.00  0.00     0.191 C 
BRANCH  20  21
ATOM     21  C   UNL A   1      33.571  17.347  24.915  1.00  0.00     0.122 A 
ATOM     22  C   UNL A   1      34.294  16.195  24.678  1.00  0.00     0.047 A 
ATOM     23  O   UNL A   1      32.420  17.034  25.586  1.00  0.00    -0.467 OA
ATOM     24  C   UNL A   1      33.554  15.127  25.240  1.00  0.00     0.042 A 
ATOM     25  C   UNL A   1      32.423  15.691  25.780  1.00  0.00     0.195 A 
ENDBRANCH  20  21
ENDBRANCH  18  20
ENDBRANCH  14  16
ENDBRANCH   5   7
ENDBRANCH   4   5
ENDBRANCH   3   4
ENDBRANCH   2   3
ENDBRANCH   1   2
BRANCH   1  26
ATOM     26  C   UNL A   1      40.104  21.190  26.167  1.00  0.00     0.202 C 
BRANCH  26  27
ATOM     27  C   UNL A   1      41.179  22.014  26.884  1.00  0.00     0.261 C 
BRANCH  27  28
ATOM     28  O   UNL A   1      40.675  23.270  27.361  1.00  0.00    -0.460 OA
BRANCH  28  29
ATOM     29  C   UNL A   1      41.443  24.332  27.016  1.00  0.00     0.338 C 
ATOM     30  O   UNL A   1      42.225  24.400  26.083  1.00  0.00    -0.246 OA
BRANCH  29  31
ATOM     31  C   UNL A   1      41.069  25.504  27.825  1.00  0.00     0.060 A 
ATOM     32  C   UNL A   1      42.017  26.531  27.933  1.00  0.00     0.016 A 
ATOM     33  C   UNL A   1      39.858  25.576  28.513  1.00  0.00     0.016 A 
ATOM     34  C   UNL A   1      41.785  27.604  28.785  1.00  0.00     0.010 A 
ATOM     35  C   UNL A   1      39.629  26.653  29.375  1.00  0.00     0.010 A 
ATOM     36  C   UNL A   1      40.610  27.647  29.546  1.00  0.00    -0.014 A 
BRANCH  36  37
ATOM     37  C   UNL A   1      40.488  28.650  30.630  1.00  0.00     0.031 A 
ATOM     38  C   UNL A   1      41.380  28.524  31.836  1.00  0.00     0.074 A 
ATOM     39  C   UNL A   1      39.626  29.676  30.517  1.00  0.00     0.049 A 
ATOM     40  N   UNL A   1      41.422  29.261  32.914  1.00  0.00    -0.248 NA
ATOM     41  C   UNL A   1      42.354  27.419  31.827  1.00  0.00     0.031 C 
ATOM     42  C   UNL A   1      38.741  29.915  29.376  1.00  0.00     0.029 A 
ATOM     43  N   UNL A   1      39.345  30.706  31.379  1.00  0.00    -0.354 N 
ATOM     44  C   UNL A   1      42.411  28.702  33.717  1.00  0.00     0.074 A 
ATOM     45  C   UNL A   1      42.929  27.551  33.014  1.00  0.00     0.031 C 
ATOM     46  C   UNL A   1      38.008  31.015  29.614  1.00  0.00     0.029 A 
ATOM     47  C   UNL A   1      38.343  31.536  30.938  1.00  0.00     0.049 A 
ATOM     48  H   UNL A   1      39.818  30.838  32.233  1.00  0.00     0.167 HD
ATOM     49  C   UNL A   1      42.848  29.120  34.928  1.00  0.00     0.037 A 
ATOM     50  C   UNL A   1      37.746  32.579  31.547  1.00  0.00     0.037 A 
ATOM     51  C   UNL A   1      42.336  30.282  35.608  1.00  0.00     0.049 A 
ATOM     52  C   UNL A   1      38.217  32.990  32.921  1.00  0.00     0.074 A 
ATOM     53  C   UNL A   1      42.736  30.812  36.821  1.00  0.00     0.029 A 
ATOM     54  N   UNL A   1      41.311  31.089  35.136  1.00  0.00    -0.354 N 
ATOM     55  N   UNL A   1      39.177  32.474  33.652  1.00  0.00    -0.248 NA
ATOM     56  C   UNL A   1      37.530  34.126  33.549  1.00  0.00     0.031 C 
ATOM     57  C   UNL A   1      41.913  31.903  37.113  1.00  0.00     0.029 A 
ATOM     58  C   UNL A   1      41.044  32.094  36.051  1.00  0.00     0.049 A 
ATOM     59  H   UNL A   1      40.842  30.966  34.279  1.00  0.00     0.167 HD
ATOM     60  C   UNL A   1      39.230  33.244  34.810  1.00  0.00     0.074 A 
ATOM     61  C   UNL A   1      38.216  34.269  34.674  1.00  0.00     0.031 C 
ATOM     62  C   UNL A   1      40.042  33.118  35.889  1.00  0.00     0.037 A 
BRANCH  49  63
ATOM     63  C   UNL A   1      43.915  28.317  35.618  1.00  0.00     0.058 A 
ATOM     64  C   UNL A   1      45.281  28.556  35.402  1.00  0.00     0.135 A 
ATOM     65  C   UNL A   1      43.563  27.352  36.575  1.00  0.00     0.135 A 
ATOM     66  F   UNL A   1      45.675  29.451  34.483  1.00  0.00    -0.206 F 
ATOM     67  C   UNL A   1      46.259  27.866  36.113  1.00  0.00     0.059 A 
ATOM     68  C   UNL A   1      44.523  26.670  37.316  1.00  0.00     0.059 A 
ATOM     69  F   UNL A   1      42.270  27.078  36.814  1.00  0.00    -0.206 F 
ATOM     70  C   UNL A   1      45.870  26.934  37.076  1.00  0.00     0.060 A 
BRANCH  70  71
ATOM     71  S   UNL A   1      47.151  26.090  38.028  1.00  0.00     0.124 S 
ATOM     72  O   UNL A   1      46.804  24.689  37.809  1.00  0.00    -0.237 OA
ATOM     73  O   UNL A   1      48.374  26.549  37.377  1.00  0.00    -0.237 OA
ATOM     74  O   UNL A   1      46.945  26.580  39.387  1.00  0.00    -0.744 OA
ENDBRANCH  70  71
ENDBRANCH  49  63
BRANCH  50  75
ATOM     75  C   UNL A   1      36.618  33.294  30.888  1.00  0.00     0.058 A 
ATOM     76  C   UNL A   1      35.287  33.062  31.265  1.00  0.00     0.135 A 
ATOM     77  C   UNL A   1      36.849  34.196  29.837  1.00  0.00     0.135 A 
ATOM     78  F   UNL A   1      35.011  32.204  32.260  1.00  0.00    -0.206 F 
ATOM     79  C   UNL A   1      34.224  33.665  30.599  1.00  0.00     0.059 A 
ATOM     80  C   UNL A   1      35.805  34.838  29.178  1.00  0.00     0.059 A 
ATOM     81  F   UNL A   1      38.104  34.465  29.443  1.00  0.00    -0.206 F 
ATOM     82  C   UNL A   1      34.495  34.549  29.553  1.00  0.00     0.060 A 
BRANCH  82  83
ATOM     83  S   UNL A   1      33.108  35.324  28.693  1.00  0.00     0.124 S 
ATOM     84  O   UNL A   1      33.795  36.289  27.842  1.00  0.00    -0.237 OA
ATOM     85  O   UNL A   1      32.498  34.189  28.009  1.00  0.00    -0.237 OA
ATOM     86  O   UNL A   1      32.316  35.894  29.779  1.00  0.00    -0.744 OA
ENDBRANCH  82  83
ENDBRANCH  50  75
BRANCH  62  87
ATOM     87  C   UNL A   1      39.909  34.141  36.985  1.00  0.00     0.058 A 
ATOM     88  C   UNL A   1      40.539  35.392  36.915  1.00  0.00     0.135 A 
ATOM     89  C   UNL A   1      39.090  33.881  38.097  1.00  0.00     0.135 A 
ATOM     90  F   UNL A   1      41.336  35.690  35.876  1.00  0.00    -0.206 F 
ATOM     91  C   UNL A   1      40.386  36.340  37.921  1.00  0.00     0.059 A 
ATOM     92  C   UNL A   1      38.894  34.827  39.098  1.00  0.00     0.059 A 
ATOM     93  F   UNL A   1      38.452  32.705  38.208  1.00  0.00    -0.206 F 
ATOM     94  C   UNL A   1      39.558  36.050  39.008  1.00  0.00     0.060 A 
BRANCH  94  95
ATOM     95  S   UNL A   1      39.341  37.301  40.289  1.00  0.00     0.124 S 
ATOM     96  O   UNL A   1      38.549  36.579  41.277  1.00  0.00    -0.237 OA
ATOM     97  O   UNL A   1      40.719  37.595  40.673  1.00  0.00    -0.237 OA
ATOM     98  O   UNL A   1      38.646  38.382  39.596  1.00  0.00    -0.744 OA
ENDBRANCH  94  95
ENDBRANCH  62  87
ENDBRANCH  36  37
ENDBRANCH  29  31
ENDBRANCH  28  29
ENDBRANCH  27  28
ENDBRANCH  26  27
ENDBRANCH   1  26
TORSDOF 20
ENDMDL
