MODEL 1
REMARK VINA RESULT:     -12.1      0.000      0.000
REMARK SMILES C[C@@H]1C(C(=O)OCCOCCOC(=O)c2ccc(-c3c4nc(c(-c5c(F)cc(S(=O)(=O)[O-])cc5F)c5ccc([nH]5)c(-c5c(F)cc(S(=O)(=O)[O-])cc5F)c5nc(c(-c6c(F)cc(S(=O)(=O)[O-])cc6F)c6ccc3[nH]6)C=C5)C=C4)cc2)=NC2=C1C(=O)C[C@H](c1ccccc1)C2
REMARK SMILES IDX 10 1 9 2 8 3 7 4 6 5 4 6 5 7 3 8 1 9 2 10 83 11 81 12 82 13
REMARK SMILES IDX 84 14 94 15 85 16 86 17 87 18 88 19 89 20 93 21 90 22 92 23
REMARK SMILES IDX 91 24 11 25 12 26 13 27 14 28 15 29 16 30 80 31 17 32 79 33
REMARK SMILES IDX 18 34 19 35 20 36 73 37 21 38 78 39 72 40 74 41 22 42 77 43
REMARK SMILES IDX 71 44 70 45 23 47 57 48 36 49 56 50 37 51 40 52 55 53 75 54
REMARK SMILES IDX 38 55 39 56 54 58 76 59 41 60 24 61 25 62 34 63 26 64 27 65
REMARK SMILES IDX 33 66 35 67 28 68 29 69 30 70 31 71 32 72 58 73 59 74 68 75
REMARK SMILES IDX 60 76 61 77 67 78 69 79 62 80 63 81 64 82 65 83 66 84 42 85
REMARK SMILES IDX 43 86 52 87 44 88 45 89 51 90 53 91 46 92 47 93 48 94 49 95
REMARK SMILES IDX 50 96
REMARK H PARENT 74 46 40 57
REMARK Flexibility Score: inf
ROOT
ATOM      1  C   UNL A   1      37.752  23.869  25.938  1.00  0.00     0.202 C 
ENDROOT
BRANCH   1   2
ATOM      2  O   UNL A   1      36.445  23.637  26.459  1.00  0.00    -0.374 OA
BRANCH   2   3
ATOM      3  C   UNL A   1      35.704  22.633  25.768  1.00  0.00     0.202 C 
BRANCH   3   4
ATOM      4  C   UNL A   1      34.203  22.680  26.082  1.00  0.00     0.261 C 
BRANCH   4   5
ATOM      5  O   UNL A   1      33.762  24.040  26.308  1.00  0.00    -0.459 OA
BRANCH   5   6
ATOM      6  C   UNL A   1      32.425  24.244  26.400  1.00  0.00     0.353 C 
ATOM      7  O   UNL A   1      31.716  24.027  27.363  1.00  0.00    -0.245 OA
BRANCH   6   8
ATOM      8  C   UNL A   1      31.932  24.993  25.158  1.00  0.00     0.133 C 
ATOM      9  C   UNL A   1      31.330  23.606  23.203  1.00  0.00     0.020 C 
ATOM     10  C   UNL A   1      32.375  24.572  23.772  1.00  0.00     0.078 C 
ATOM     11  C   UNL A   1      32.182  25.940  23.228  1.00  0.00     0.026 C 
ATOM     12  N   UNL A   1      31.153  26.049  25.209  1.00  0.00    -0.249 NA
ATOM     13  C   UNL A   1      31.320  26.630  23.972  1.00  0.00     0.049 C 
ATOM     14  C   UNL A   1      33.047  26.695  22.319  1.00  0.00     0.161 C 
ATOM     15  C   UNL A   1      30.989  28.055  23.642  1.00  0.00     0.065 C 
ATOM     16  O   UNL A   1      33.625  26.100  21.415  1.00  0.00    -0.294 OA
ATOM     17  C   UNL A   1      33.272  28.197  22.606  1.00  0.00     0.089 C 
ATOM     18  C   UNL A   1      32.295  28.874  23.638  1.00  0.00     0.033 C 
BRANCH  18  19
ATOM     19  C   UNL A   1      32.824  29.143  25.062  1.00  0.00    -0.044 A 
ATOM     20  C   UNL A   1      33.936  28.449  25.584  1.00  0.00     0.004 A 
ATOM     21  C   UNL A   1      32.216  30.068  25.920  1.00  0.00     0.004 A 
ATOM     22  C   UNL A   1      34.544  28.801  26.790  1.00  0.00     0.000 A 
ATOM     23  C   UNL A   1      32.808  30.408  27.150  1.00  0.00     0.000 A 
ATOM     24  C   UNL A   1      34.000  29.813  27.559  1.00  0.00     0.000 A 
ENDBRANCH  18  19
ENDBRANCH   6   8
ENDBRANCH   5   6
ENDBRANCH   4   5
ENDBRANCH   3   4
ENDBRANCH   2   3
ENDBRANCH   1   2
BRANCH   1  25
ATOM     25  C   UNL A   1      38.785  22.898  26.477  1.00  0.00     0.261 C 
BRANCH  25  26
ATOM     26  O   UNL A   1      39.891  23.646  26.935  1.00  0.00    -0.460 OA
BRANCH  26  27
ATOM     27  C   UNL A   1      41.102  23.326  26.447  1.00  0.00     0.338 C 
ATOM     28  O   UNL A   1      41.548  22.229  26.167  1.00  0.00    -0.246 OA
BRANCH  27  29
ATOM     29  C   UNL A   1      41.812  24.611  26.426  1.00  0.00     0.060 A 
ATOM     30  C   UNL A   1      42.608  24.823  27.543  1.00  0.00     0.016 A 
ATOM     31  C   UNL A   1      41.227  25.659  25.691  1.00  0.00     0.016 A 
ATOM     32  C   UNL A   1      42.480  26.041  28.162  1.00  0.00     0.010 A 
ATOM     33  C   UNL A   1      41.067  26.856  26.333  1.00  0.00     0.010 A 
ATOM     34  C   UNL A   1      41.596  26.980  27.614  1.00  0.00    -0.014 A 
BRANCH  34  35
ATOM     35  C   UNL A   1      41.336  28.188  28.356  1.00  0.00     0.031 A 
ATOM     36  C   UNL A   1      42.438  29.148  28.155  1.00  0.00     0.074 A 
ATOM     37  C   UNL A   1      40.195  28.430  29.024  1.00  0.00     0.049 A 
ATOM     38  N   UNL A   1      43.487  29.295  28.896  1.00  0.00    -0.248 NA
ATOM     39  C   UNL A   1      42.560  29.748  26.814  1.00  0.00     0.031 C 
ATOM     40  C   UNL A   1      38.932  27.688  29.027  1.00  0.00     0.029 A 
ATOM     41  N   UNL A   1      39.923  29.496  29.820  1.00  0.00    -0.354 N 
ATOM     42  C   UNL A   1      44.266  30.213  28.208  1.00  0.00     0.074 A 
ATOM     43  C   UNL A   1      43.827  30.159  26.843  1.00  0.00     0.031 C 
ATOM     44  C   UNL A   1      37.967  28.454  29.597  1.00  0.00     0.029 A 
ATOM     45  C   UNL A   1      38.572  29.667  30.119  1.00  0.00     0.049 A 
ATOM     46  H   UNL A   1      40.624  30.100  30.160  1.00  0.00     0.167 HD
ATOM     47  C   UNL A   1      44.950  31.192  28.859  1.00  0.00     0.037 A 
ATOM     48  C   UNL A   1      38.053  30.803  30.659  1.00  0.00     0.037 A 
ATOM     49  C   UNL A   1      45.026  30.912  30.272  1.00  0.00     0.049 A 
ATOM     50  C   UNL A   1      39.203  31.531  31.285  1.00  0.00     0.074 A 
ATOM     51  C   UNL A   1      45.578  29.893  31.025  1.00  0.00     0.029 A 
ATOM     52  N   UNL A   1      44.096  31.520  31.084  1.00  0.00    -0.354 N 
ATOM     53  N   UNL A   1      39.894  31.056  32.292  1.00  0.00    -0.248 NA
ATOM     54  C   UNL A   1      39.906  32.499  30.454  1.00  0.00     0.031 C 
ATOM     55  C   UNL A   1      44.631  29.644  32.062  1.00  0.00     0.029 A 
ATOM     56  C   UNL A   1      43.595  30.571  31.941  1.00  0.00     0.049 A 
ATOM     57  H   UNL A   1      43.836  32.470  31.055  1.00  0.00     0.167 HD
ATOM     58  C   UNL A   1      41.221  31.348  31.992  1.00  0.00     0.074 A 
ATOM     59  C   UNL A   1      41.159  32.268  30.857  1.00  0.00     0.031 C 
ATOM     60  C   UNL A   1      42.252  30.598  32.488  1.00  0.00     0.037 A 
BRANCH  47  61
ATOM     61  C   UNL A   1      45.198  32.565  28.280  1.00  0.00     0.058 A 
ATOM     62  C   UNL A   1      46.521  32.962  28.016  1.00  0.00     0.135 A 
ATOM     63  C   UNL A   1      44.229  33.594  28.190  1.00  0.00     0.135 A 
ATOM     64  F   UNL A   1      47.526  32.074  28.079  1.00  0.00    -0.206 F 
ATOM     65  C   UNL A   1      46.861  34.288  27.742  1.00  0.00     0.059 A 
ATOM     66  C   UNL A   1      44.537  34.904  27.857  1.00  0.00     0.059 A 
ATOM     67  F   UNL A   1      42.943  33.420  28.512  1.00  0.00    -0.206 F 
ATOM     68  C   UNL A   1      45.860  35.253  27.676  1.00  0.00     0.060 A 
BRANCH  68  69
ATOM     69  S   UNL A   1      46.295  36.977  27.415  1.00  0.00     0.124 S 
ATOM     70  O   UNL A   1      46.920  37.315  28.688  1.00  0.00    -0.237 OA
ATOM     71  O   UNL A   1      47.188  36.889  26.265  1.00  0.00    -0.237 OA
ATOM     72  O   UNL A   1      45.007  37.614  27.154  1.00  0.00    -0.744 OA
ENDBRANCH  68  69
ENDBRANCH  47  61
BRANCH  48  73
ATOM     73  C   UNL A   1      36.795  31.496  30.251  1.00  0.00     0.058 A 
ATOM     74  C   UNL A   1      35.861  31.964  31.195  1.00  0.00     0.135 A 
ATOM     75  C   UNL A   1      36.621  31.962  28.931  1.00  0.00     0.135 A 
ATOM     76  F   UNL A   1      35.967  31.601  32.482  1.00  0.00    -0.206 F 
ATOM     77  C   UNL A   1      34.837  32.862  30.855  1.00  0.00     0.059 A 
ATOM     78  C   UNL A   1      35.609  32.851  28.570  1.00  0.00     0.059 A 
ATOM     79  F   UNL A   1      37.492  31.634  27.965  1.00  0.00    -0.206 F 
ATOM     80  C   UNL A   1      34.730  33.313  29.539  1.00  0.00     0.060 A 
BRANCH  80  81
ATOM     81  S   UNL A   1      33.510  34.584  29.118  1.00  0.00     0.124 S 
ATOM     82  O   UNL A   1      32.908  34.868  30.417  1.00  0.00    -0.237 OA
ATOM     83  O   UNL A   1      34.344  35.642  28.556  1.00  0.00    -0.237 OA
ATOM     84  O   UNL A   1      32.634  33.911  28.162  1.00  0.00    -0.744 OA
ENDBRANCH  80  81
ENDBRANCH  48  73
BRANCH  60  85
ATOM     85  C   UNL A   1      41.950  29.576  33.559  1.00  0.00     0.058 A 
ATOM     86  C   UNL A   1      41.564  28.244  33.309  1.00  0.00     0.135 A 
ATOM     87  C   UNL A   1      42.256  29.909  34.886  1.00  0.00     0.135 A 
ATOM     88  F   UNL A   1      41.343  27.819  32.058  1.00  0.00    -0.206 F 
ATOM     89  C   UNL A   1      41.469  27.297  34.334  1.00  0.00     0.059 A 
ATOM     90  C   UNL A   1      42.197  28.977  35.918  1.00  0.00     0.059 A 
ATOM     91  F   UNL A   1      42.687  31.146  35.183  1.00  0.00    -0.206 F 
ATOM     92  C   UNL A   1      41.795  27.674  35.638  1.00  0.00     0.060 A 
BRANCH  92  93
ATOM     93  S   UNL A   1      41.761  26.436  36.955  1.00  0.00     0.124 S 
ATOM     94  O   UNL A   1      41.860  25.188  36.206  1.00  0.00    -0.237 OA
ATOM     95  O   UNL A   1      42.929  26.791  37.754  1.00  0.00    -0.237 OA
ATOM     96  O   UNL A   1      40.476  26.669  37.609  1.00  0.00    -0.744 OA
ENDBRANCH  92  93
ENDBRANCH  60  85
ENDBRANCH  34  35
ENDBRANCH  27  29
ENDBRANCH  26  27
ENDBRANCH  25  26
ENDBRANCH   1  25
TORSDOF 18
ENDMDL
MODEL 2
REMARK VINA RESULT:     -11.8      3.214      5.160
REMARK SMILES C[C@@H]1C(C(=O)OCCOCCOC(=O)c2ccc(-c3c4nc(c(-c5c(F)cc(S(=O)(=O)[O-])cc5F)c5ccc([nH]5)c(-c5c(F)cc(S(=O)(=O)[O-])cc5F)c5nc(c(-c6c(F)cc(S(=O)(=O)[O-])cc6F)c6ccc3[nH]6)C=C5)C=C4)cc2)=NC2=C1C(=O)C[C@H](c1ccccc1)C2
REMARK SMILES IDX 10 1 9 2 8 3 7 4 6 5 4 6 5 7 3 8 1 9 2 10 83 11 81 12 82 13
REMARK SMILES IDX 84 14 94 15 85 16 86 17 87 18 88 19 89 20 93 21 90 22 92 23
REMARK SMILES IDX 91 24 11 25 12 26 13 27 14 28 15 29 16 30 80 31 17 32 79 33
REMARK SMILES IDX 18 34 19 35 20 36 73 37 21 38 78 39 72 40 74 41 22 42 77 43
REMARK SMILES IDX 71 44 70 45 23 47 57 48 36 49 56 50 37 51 40 52 55 53 75 54
REMARK SMILES IDX 38 55 39 56 54 58 76 59 41 60 24 61 25 62 34 63 26 64 27 65
REMARK SMILES IDX 33 66 35 67 28 68 29 69 30 70 31 71 32 72 58 73 59 74 68 75
REMARK SMILES IDX 60 76 61 77 67 78 69 79 62 80 63 81 64 82 65 83 66 84 42 85
REMARK SMILES IDX 43 86 52 87 44 88 45 89 51 90 53 91 46 92 47 93 48 94 49 95
REMARK SMILES IDX 50 96
REMARK H PARENT 74 46 40 57
REMARK Flexibility Score: inf
ROOT
ATOM      1  C   UNL A   1      41.108  19.864  26.287  1.00  0.00     0.202 C 
ENDROOT
BRANCH   1   2
ATOM      2  O   UNL A   1      40.568  20.480  27.453  1.00  0.00    -0.374 OA
BRANCH   2   3
ATOM      3  C   UNL A   1      40.082  21.806  27.250  1.00  0.00     0.202 C 
BRANCH   3   4
ATOM      4  C   UNL A   1      39.620  22.054  25.809  1.00  0.00     0.261 C 
BRANCH   4   5
ATOM      5  O   UNL A   1      38.215  22.397  25.765  1.00  0.00    -0.459 OA
BRANCH   5   6
ATOM      6  C   UNL A   1      37.383  21.501  25.179  1.00  0.00     0.353 C 
ATOM      7  O   UNL A   1      37.583  20.313  25.019  1.00  0.00    -0.245 OA
BRANCH   6   8
ATOM      8  C   UNL A   1      36.027  22.159  24.907  1.00  0.00     0.133 C 
ATOM      9  C   UNL A   1      35.733  24.465  25.749  1.00  0.00     0.020 C 
ATOM     10  C   UNL A   1      35.346  22.998  25.970  1.00  0.00     0.078 C 
ATOM     11  C   UNL A   1      33.997  22.718  25.413  1.00  0.00     0.026 C 
ATOM     12  N   UNL A   1      35.357  22.008  23.788  1.00  0.00    -0.249 NA
ATOM     13  C   UNL A   1      34.075  22.376  24.129  1.00  0.00     0.049 C 
ATOM     14  C   UNL A   1      32.762  22.391  26.127  1.00  0.00     0.161 C 
ATOM     15  C   UNL A   1      32.844  22.011  23.355  1.00  0.00     0.065 C 
ATOM     16  O   UNL A   1      32.527  22.944  27.197  1.00  0.00    -0.294 OA
ATOM     17  C   UNL A   1      31.855  21.282  25.546  1.00  0.00     0.089 C 
ATOM     18  C   UNL A   1      32.149  20.832  24.065  1.00  0.00     0.033 C 
BRANCH  18  19
ATOM     19  C   UNL A   1      32.892  19.497  23.852  1.00  0.00    -0.044 A 
ATOM     20  C   UNL A   1      33.979  19.114  24.666  1.00  0.00     0.004 A 
ATOM     21  C   UNL A   1      32.545  18.609  22.826  1.00  0.00     0.004 A 
ATOM     22  C   UNL A   1      34.545  17.839  24.613  1.00  0.00     0.000 A 
ATOM     23  C   UNL A   1      33.132  17.332  22.750  1.00  0.00     0.000 A 
ATOM     24  C   UNL A   1      34.093  16.929  23.676  1.00  0.00     0.000 A 
ENDBRANCH  18  19
ENDBRANCH   6   8
ENDBRANCH   5   6
ENDBRANCH   4   5
ENDBRANCH   3   4
ENDBRANCH   2   3
ENDBRANCH   1   2
BRANCH   1  25
ATOM     25  C   UNL A   1      42.625  19.833  26.282  1.00  0.00     0.261 C 
BRANCH  25  26
ATOM     26  O   UNL A   1      43.082  20.923  25.511  1.00  0.00    -0.460 OA
BRANCH  26  27
ATOM     27  C   UNL A   1      44.327  20.850  25.007  1.00  0.00     0.338 C 
ATOM     28  O   UNL A   1      45.005  19.864  24.787  1.00  0.00    -0.246 OA
BRANCH  27  29
ATOM     29  C   UNL A   1      44.727  22.256  24.878  1.00  0.00     0.060 A 
ATOM     30  C   UNL A   1      45.675  22.651  25.812  1.00  0.00     0.016 A 
ATOM     31  C   UNL A   1      43.792  23.143  24.312  1.00  0.00     0.016 A 
ATOM     32  C   UNL A   1      45.423  23.822  26.480  1.00  0.00     0.010 A 
ATOM     33  C   UNL A   1      43.519  24.287  25.009  1.00  0.00     0.010 A 
ATOM     34  C   UNL A   1      44.265  24.541  26.156  1.00  0.00    -0.014 A 
BRANCH  34  35
ATOM     35  C   UNL A   1      43.915  25.678  26.971  1.00  0.00     0.031 A 
ATOM     36  C   UNL A   1      44.897  26.761  26.772  1.00  0.00     0.074 A 
ATOM     37  C   UNL A   1      42.790  25.760  27.702  1.00  0.00     0.049 A 
ATOM     38  N   UNL A   1      45.959  26.986  27.473  1.00  0.00    -0.248 NA
ATOM     39  C   UNL A   1      44.885  27.433  25.461  1.00  0.00     0.031 C 
ATOM     40  C   UNL A   1      41.616  24.886  27.722  1.00  0.00     0.029 A 
ATOM     41  N   UNL A   1      42.446  26.751  28.565  1.00  0.00    -0.354 N 
ATOM     42  C   UNL A   1      46.600  28.016  26.800  1.00  0.00     0.074 A 
ATOM     43  C   UNL A   1      46.102  27.979  25.455  1.00  0.00     0.031 C 
ATOM     44  C   UNL A   1      40.604  25.514  28.375  1.00  0.00     0.029 A 
ATOM     45  C   UNL A   1      41.101  26.759  28.933  1.00  0.00     0.049 A 
ATOM     46  H   UNL A   1      43.094  27.411  28.904  1.00  0.00     0.167 HD
ATOM     47  C   UNL A   1      47.207  29.032  27.470  1.00  0.00     0.037 A 
ATOM     48  C   UNL A   1      40.491  27.804  29.555  1.00  0.00     0.037 A 
ATOM     49  C   UNL A   1      47.384  28.694  28.861  1.00  0.00     0.049 A 
ATOM     50  C   UNL A   1      41.586  28.624  30.166  1.00  0.00     0.074 A 
ATOM     51  C   UNL A   1      48.079  27.708  29.534  1.00  0.00     0.029 A 
ATOM     52  N   UNL A   1      46.436  29.158  29.745  1.00  0.00    -0.354 N 
ATOM     53  N   UNL A   1      42.374  28.179  31.115  1.00  0.00    -0.248 NA
ATOM     54  C   UNL A   1      42.139  29.701  29.356  1.00  0.00     0.031 C 
ATOM     55  C   UNL A   1      47.218  27.307  30.598  1.00  0.00     0.029 A 
ATOM     56  C   UNL A   1      46.083  28.120  30.573  1.00  0.00     0.049 A 
ATOM     57  H   UNL A   1      46.074  30.074  29.778  1.00  0.00     0.167 HD
ATOM     58  C   UNL A   1      43.646  28.628  30.771  1.00  0.00     0.074 A 
ATOM     59  C   UNL A   1      43.428  29.589  29.690  1.00  0.00     0.031 C 
ATOM     60  C   UNL A   1      44.774  27.974  31.180  1.00  0.00     0.037 A 
BRANCH  47  61
ATOM     61  C   UNL A   1      47.277  30.450  26.954  1.00  0.00     0.058 A 
ATOM     62  C   UNL A   1      48.518  31.112  26.953  1.00  0.00     0.135 A 
ATOM     63  C   UNL A   1      46.155  31.269  26.680  1.00  0.00     0.135 A 
ATOM     64  F   UNL A   1      49.651  30.439  27.208  1.00  0.00    -0.206 F 
ATOM     65  C   UNL A   1      48.628  32.489  26.754  1.00  0.00     0.059 A 
ATOM     66  C   UNL A   1      46.248  32.627  26.416  1.00  0.00     0.059 A 
ATOM     67  F   UNL A   1      44.894  30.830  26.745  1.00  0.00    -0.206 F 
ATOM     68  C   UNL A   1      47.483  33.239  26.498  1.00  0.00     0.060 A 
BRANCH  68  69
ATOM     69  S   UNL A   1      47.602  35.024  26.330  1.00  0.00     0.124 S 
ATOM     70  O   UNL A   1      48.066  35.410  27.657  1.00  0.00    -0.237 OA
ATOM     71  O   UNL A   1      48.569  35.159  25.247  1.00  0.00    -0.237 OA
ATOM     72  O   UNL A   1      46.237  35.422  25.998  1.00  0.00    -0.744 OA
ENDBRANCH  68  69
ENDBRANCH  47  61
BRANCH  48  73
ATOM     73  C   UNL A   1      39.147  28.374  29.240  1.00  0.00     0.058 A 
ATOM     74  C   UNL A   1      38.168  28.569  30.234  1.00  0.00     0.135 A 
ATOM     75  C   UNL A   1      38.898  29.000  28.002  1.00  0.00     0.135 A 
ATOM     76  F   UNL A   1      38.335  28.038  31.455  1.00  0.00    -0.206 F 
ATOM     77  C   UNL A   1      37.029  29.360  30.020  1.00  0.00     0.059 A 
ATOM     78  C   UNL A   1      37.772  29.788  27.765  1.00  0.00     0.059 A 
ATOM     79  F   UNL A   1      39.795  28.938  27.007  1.00  0.00    -0.206 F 
ATOM     80  C   UNL A   1      36.849  29.981  28.783  1.00  0.00     0.060 A 
BRANCH  80  81
ATOM     81  S   UNL A   1      35.464  31.124  28.541  1.00  0.00     0.124 S 
ATOM     82  O   UNL A   1      35.180  31.548  29.909  1.00  0.00    -0.237 OA
ATOM     83  O   UNL A   1      36.047  32.138  27.668  1.00  0.00    -0.237 OA
ATOM     84  O   UNL A   1      34.438  30.288  27.924  1.00  0.00    -0.744 OA
ENDBRANCH  80  81
ENDBRANCH  48  73
BRANCH  60  85
ATOM     85  C   UNL A   1      44.638  26.874  32.208  1.00  0.00     0.058 A 
ATOM     86  C   UNL A   1      44.523  27.086  33.596  1.00  0.00     0.135 A 
ATOM     87  C   UNL A   1      44.418  25.570  31.744  1.00  0.00     0.135 A 
ATOM     88  F   UNL A   1      44.628  28.318  34.113  1.00  0.00    -0.206 F 
ATOM     89  C   UNL A   1      44.224  26.044  34.480  1.00  0.00     0.059 A 
ATOM     90  C   UNL A   1      44.089  24.523  32.601  1.00  0.00     0.059 A 
ATOM     91  F   UNL A   1      44.453  25.313  30.426  1.00  0.00    -0.206 F 
ATOM     92  C   UNL A   1      44.002  24.764  33.970  1.00  0.00     0.060 A 
BRANCH  92  93
ATOM     93  S   UNL A   1      43.527  23.429  35.093  1.00  0.00     0.124 S 
ATOM     94  O   UNL A   1      44.069  22.254  34.422  1.00  0.00    -0.237 OA
ATOM     95  O   UNL A   1      44.189  23.811  36.337  1.00  0.00    -0.237 OA
ATOM     96  O   UNL A   1      42.068  23.512  35.124  1.00  0.00    -0.744 OA
ENDBRANCH  92  93
ENDBRANCH  60  85
ENDBRANCH  34  35
ENDBRANCH  27  29
ENDBRANCH  26  27
ENDBRANCH  25  26
ENDBRANCH   1  25
TORSDOF 18
ENDMDL
MODEL 3
REMARK VINA RESULT:     -11.7      2.900      4.190
REMARK SMILES C[C@@H]1C(C(=O)OCCOCCOC(=O)c2ccc(-c3c4nc(c(-c5c(F)cc(S(=O)(=O)[O-])cc5F)c5ccc([nH]5)c(-c5c(F)cc(S(=O)(=O)[O-])cc5F)c5nc(c(-c6c(F)cc(S(=O)(=O)[O-])cc6F)c6ccc3[nH]6)C=C5)C=C4)cc2)=NC2=C1C(=O)C[C@H](c1ccccc1)C2
REMARK SMILES IDX 10 1 9 2 8 3 7 4 6 5 4 6 5 7 3 8 1 9 2 10 83 11 81 12 82 13
REMARK SMILES IDX 84 14 94 15 85 16 86 17 87 18 88 19 89 20 93 21 90 22 92 23
REMARK SMILES IDX 91 24 11 25 12 26 13 27 14 28 15 29 16 30 80 31 17 32 79 33
REMARK SMILES IDX 18 34 19 35 20 36 73 37 21 38 78 39 72 40 74 41 22 42 77 43
REMARK SMILES IDX 71 44 70 45 23 47 57 48 36 49 56 50 37 51 40 52 55 53 75 54
REMARK SMILES IDX 38 55 39 56 54 58 76 59 41 60 24 61 25 62 34 63 26 64 27 65
REMARK SMILES IDX 33 66 35 67 28 68 29 69 30 70 31 71 32 72 58 73 59 74 68 75
REMARK SMILES IDX 60 76 61 77 67 78 69 79 62 80 63 81 64 82 65 83 66 84 42 85
REMARK SMILES IDX 43 86 52 87 44 88 45 89 51 90 53 91 46 92 47 93 48 94 49 95
REMARK SMILES IDX 50 96
REMARK H PARENT 74 46 40 57
REMARK Flexibility Score: inf
ROOT
ATOM      1  C   UNL A   1      40.891  19.920  26.153  1.00  0.00     0.202 C 
ENDROOT
BRANCH   1   2
ATOM      2  O   UNL A   1      40.611  21.303  25.945  1.00  0.00    -0.374 OA
BRANCH   2   3
ATOM      3  C   UNL A   1      39.366  21.741  26.486  1.00  0.00     0.202 C 
BRANCH   3   4
ATOM      4  C   UNL A   1      38.310  22.006  25.407  1.00  0.00     0.261 C 
BRANCH   4   5
ATOM      5  O   UNL A   1      36.973  21.843  25.936  1.00  0.00    -0.459 OA
BRANCH   5   6
ATOM      6  C   UNL A   1      36.119  22.884  25.777  1.00  0.00     0.353 C 
ATOM      7  O   UNL A   1      36.410  24.057  25.652  1.00  0.00    -0.245 OA
BRANCH   6   8
ATOM      8  C   UNL A   1      34.696  22.355  25.572  1.00  0.00     0.133 C 
ATOM      9  C   UNL A   1      34.490  20.009  24.821  1.00  0.00     0.020 C 
ATOM     10  C   UNL A   1      34.360  21.473  24.386  1.00  0.00     0.078 C 
ATOM     11  C   UNL A   1      32.937  21.902  24.393  1.00  0.00     0.026 C 
ATOM     12  N   UNL A   1      33.688  22.659  26.357  1.00  0.00    -0.249 NA
ATOM     13  C   UNL A   1      32.583  22.355  25.594  1.00  0.00     0.049 C 
ATOM     14  C   UNL A   1      32.081  22.251  23.258  1.00  0.00     0.161 C 
ATOM     15  C   UNL A   1      31.201  22.880  25.839  1.00  0.00     0.065 C 
ATOM     16  O   UNL A   1      32.191  21.619  22.212  1.00  0.00    -0.294 OA
ATOM     17  C   UNL A   1      31.145  23.473  23.399  1.00  0.00     0.089 C 
ATOM     18  C   UNL A   1      30.931  24.035  24.855  1.00  0.00     0.033 C 
BRANCH  18  19
ATOM     19  C   UNL A   1      31.680  25.327  25.244  1.00  0.00    -0.044 A 
ATOM     20  C   UNL A   1      31.214  26.174  26.272  1.00  0.00     0.004 A 
ATOM     21  C   UNL A   1      32.844  25.740  24.584  1.00  0.00     0.004 A 
ATOM     22  C   UNL A   1      31.966  27.242  26.765  1.00  0.00     0.000 A 
ATOM     23  C   UNL A   1      33.593  26.833  25.059  1.00  0.00     0.000 A 
ATOM     24  C   UNL A   1      33.181  27.549  26.181  1.00  0.00     0.000 A 
ENDBRANCH  18  19
ENDBRANCH   6   8
ENDBRANCH   5   6
ENDBRANCH   4   5
ENDBRANCH   3   4
ENDBRANCH   2   3
ENDBRANCH   1   2
BRANCH   1  25
ATOM     25  C   UNL A   1      42.329  19.554  25.838  1.00  0.00     0.261 C 
BRANCH  25  26
ATOM     26  O   UNL A   1      43.011  20.735  25.474  1.00  0.00    -0.460 OA
BRANCH  26  27
ATOM     27  C   UNL A   1      44.287  20.616  25.067  1.00  0.00     0.338 C 
ATOM     28  O   UNL A   1      44.946  19.606  24.904  1.00  0.00    -0.246 OA
BRANCH  27  29
ATOM     29  C   UNL A   1      44.744  22.006  24.962  1.00  0.00     0.060 A 
ATOM     30  C   UNL A   1      45.672  22.361  25.930  1.00  0.00     0.016 A 
ATOM     31  C   UNL A   1      43.863  22.931  24.369  1.00  0.00     0.016 A 
ATOM     32  C   UNL A   1      45.440  23.537  26.598  1.00  0.00     0.010 A 
ATOM     33  C   UNL A   1      43.609  24.081  25.063  1.00  0.00     0.010 A 
ATOM     34  C   UNL A   1      44.322  24.301  26.238  1.00  0.00    -0.014 A 
BRANCH  34  35
ATOM     35  C   UNL A   1      43.986  25.445  27.048  1.00  0.00     0.031 A 
ATOM     36  C   UNL A   1      44.998  26.504  26.867  1.00  0.00     0.074 A 
ATOM     37  C   UNL A   1      42.850  25.555  27.758  1.00  0.00     0.049 A 
ATOM     38  N   UNL A   1      46.053  26.702  27.586  1.00  0.00    -0.248 NA
ATOM     39  C   UNL A   1      45.026  27.177  25.556  1.00  0.00     0.031 C 
ATOM     40  C   UNL A   1      41.655  24.710  27.757  1.00  0.00     0.029 A 
ATOM     41  N   UNL A   1      42.516  26.554  28.616  1.00  0.00    -0.354 N 
ATOM     42  C   UNL A   1      46.730  27.716  26.926  1.00  0.00     0.074 A 
ATOM     43  C   UNL A   1      46.256  27.692  25.572  1.00  0.00     0.031 C 
ATOM     44  C   UNL A   1      40.648  25.362  28.392  1.00  0.00     0.029 A 
ATOM     45  C   UNL A   1      41.165  26.594  28.960  1.00  0.00     0.049 A 
ATOM     46  H   UNL A   1      43.174  27.197  28.967  1.00  0.00     0.167 HD
ATOM     47  C   UNL A   1      47.351  28.717  27.607  1.00  0.00     0.037 A 
ATOM     48  C   UNL A   1      40.570  27.654  29.572  1.00  0.00     0.037 A 
ATOM     49  C   UNL A   1      47.495  28.374  29.001  1.00  0.00     0.049 A 
ATOM     50  C   UNL A   1      41.675  28.446  30.203  1.00  0.00     0.074 A 
ATOM     51  C   UNL A   1      48.153  27.370  29.686  1.00  0.00     0.029 A 
ATOM     52  N   UNL A   1      46.543  28.860  29.869  1.00  0.00    -0.354 N 
ATOM     53  N   UNL A   1      42.434  27.982  31.165  1.00  0.00    -0.248 NA
ATOM     54  C   UNL A   1      42.268  29.510  29.404  1.00  0.00     0.031 C 
ATOM     55  C   UNL A   1      47.263  26.991  30.734  1.00  0.00     0.029 A 
ATOM     56  C   UNL A   1      46.149  27.831  30.689  1.00  0.00     0.049 A 
ATOM     57  H   UNL A   1      46.203  29.785  29.896  1.00  0.00     0.167 HD
ATOM     58  C   UNL A   1      43.722  28.400  30.844  1.00  0.00     0.074 A 
ATOM     59  C   UNL A   1      43.548  29.366  29.761  1.00  0.00     0.031 C 
ATOM     60  C   UNL A   1      44.827  27.717  31.273  1.00  0.00     0.037 A 
BRANCH  47  61
ATOM     61  C   UNL A   1      47.465  30.132  27.094  1.00  0.00     0.058 A 
ATOM     62  C   UNL A   1      48.723  30.761  27.109  1.00  0.00     0.135 A 
ATOM     63  C   UNL A   1      46.368  30.982  26.808  1.00  0.00     0.135 A 
ATOM     64  F   UNL A   1      49.835  30.058  27.377  1.00  0.00    -0.206 F 
ATOM     65  C   UNL A   1      48.873  32.135  26.913  1.00  0.00     0.059 A 
ATOM     66  C   UNL A   1      46.502  32.337  26.547  1.00  0.00     0.059 A 
ATOM     67  F   UNL A   1      45.096  30.577  26.857  1.00  0.00    -0.206 F 
ATOM     68  C   UNL A   1      47.752  32.915  26.643  1.00  0.00     0.060 A 
BRANCH  68  69
ATOM     69  S   UNL A   1      47.920  34.697  26.480  1.00  0.00     0.124 S 
ATOM     70  O   UNL A   1      47.931  34.855  25.031  1.00  0.00    -0.237 OA
ATOM     71  O   UNL A   1      46.727  35.174  27.170  1.00  0.00    -0.237 OA
ATOM     72  O   UNL A   1      49.183  34.980  27.156  1.00  0.00    -0.744 OA
ENDBRANCH  68  69
ENDBRANCH  47  61
BRANCH  48  73
ATOM     73  C   UNL A   1      39.247  28.257  29.234  1.00  0.00     0.058 A 
ATOM     74  C   UNL A   1      38.236  28.427  30.200  1.00  0.00     0.135 A 
ATOM     75  C   UNL A   1      39.051  28.937  28.014  1.00  0.00     0.135 A 
ATOM     76  F   UNL A   1      38.352  27.846  31.403  1.00  0.00    -0.206 F 
ATOM     77  C   UNL A   1      37.117  29.245  29.978  1.00  0.00     0.059 A 
ATOM     78  C   UNL A   1      37.945  29.752  27.771  1.00  0.00     0.059 A 
ATOM     79  F   UNL A   1      39.982  28.901  27.049  1.00  0.00    -0.206 F 
ATOM     80  C   UNL A   1      36.989  29.918  28.762  1.00  0.00     0.060 A 
BRANCH  80  81
ATOM     81  S   UNL A   1      35.631  31.091  28.519  1.00  0.00     0.124 S 
ATOM     82  O   UNL A   1      36.284  32.159  27.768  1.00  0.00    -0.237 OA
ATOM     83  O   UNL A   1      34.660  30.293  27.779  1.00  0.00    -0.237 OA
ATOM     84  O   UNL A   1      35.237  31.441  29.882  1.00  0.00    -0.744 OA
ENDBRANCH  80  81
ENDBRANCH  48  73
BRANCH  60  85
ATOM     85  C   UNL A   1      44.645  26.621  32.298  1.00  0.00     0.058 A 
ATOM     86  C   UNL A   1      44.456  25.260  31.988  1.00  0.00     0.135 A 
ATOM     87  C   UNL A   1      44.869  26.941  33.644  1.00  0.00     0.135 A 
ATOM     88  F   UNL A   1      44.328  24.857  30.717  1.00  0.00    -0.206 F 
ATOM     89  C   UNL A   1      44.470  24.269  32.976  1.00  0.00     0.059 A 
ATOM     90  C   UNL A   1      44.916  25.970  34.640  1.00  0.00     0.059 A 
ATOM     91  F   UNL A   1      45.115  28.214  33.997  1.00  0.00    -0.206 F 
ATOM     92  C   UNL A   1      44.707  24.635  34.302  1.00  0.00     0.060 A 
BRANCH  92  93
ATOM     93  S   UNL A   1      44.815  23.354  35.572  1.00  0.00     0.124 S 
ATOM     94  O   UNL A   1      46.256  23.176  35.708  1.00  0.00    -0.237 OA
ATOM     95  O   UNL A   1      44.142  23.976  36.708  1.00  0.00    -0.237 OA
ATOM     96  O   UNL A   1      44.101  22.225  34.979  1.00  0.00    -0.744 OA
ENDBRANCH  92  93
ENDBRANCH  60  85
ENDBRANCH  34  35
ENDBRANCH  27  29
ENDBRANCH  26  27
ENDBRANCH  25  26
ENDBRANCH   1  25
TORSDOF 18
ENDMDL
