MODEL 1
REMARK VINA RESULT:     -11.3      0.000      0.000
REMARK SMILES CC(C)c1nc(C(=O)OCCOCCOC(=O)c2ccc(-c3c4nc(c(-c5c(F)cc(S(=O)(=O)[O-])cc5F)c5ccc([nH]5)c(-c5c(F)cc(S(=O)(=O)[O-])cc5F)c5nc(c(-c6c(F)cc(S(=O)(=O)[O-])cc6F)c6ccc3[nH]6)C=C5)C=C4)cc2)nn1-c1ccccc1F
REMARK SMILES IDX 13 1 12 2 11 3 10 4 9 5 7 6 8 7 6 8 4 9 5 10 85 11 84 12
REMARK SMILES IDX 2 13 1 14 3 15 86 16 87 17 91 18 88 19 90 20 92 21 89 22
REMARK SMILES IDX 14 23 15 24 16 25 17 26 18 27 19 28 83 29 20 30 82 31 21 32
REMARK SMILES IDX 22 33 23 34 76 35 24 36 81 37 75 38 77 39 25 40 80 41 74 42
REMARK SMILES IDX 73 43 26 45 60 46 39 47 59 48 40 49 43 50 58 51 78 52 41 53
REMARK SMILES IDX 42 54 57 56 79 57 44 58 27 59 28 60 37 61 29 62 30 63 36 64
REMARK SMILES IDX 38 65 31 66 32 67 33 68 34 69 35 70 61 71 62 72 71 73 63 74
REMARK SMILES IDX 64 75 70 76 72 77 65 78 66 79 67 80 68 81 69 82 45 83 46 84
REMARK SMILES IDX 55 85 47 86 48 87 54 88 56 89 49 90 50 91 51 92 52 93 53 94
REMARK H PARENT 77 44 43 55
REMARK Flexibility Score: inf
ROOT
ATOM      1  C   UNL A   1      42.102  19.754  26.786  1.00  0.00     0.202 C 
ENDROOT
BRANCH   1   2
ATOM      2  O   UNL A   1      41.847  21.155  26.814  1.00  0.00    -0.374 OA
BRANCH   2   3
ATOM      3  C   UNL A   1      40.703  21.675  26.140  1.00  0.00     0.202 C 
BRANCH   3   4
ATOM      4  C   UNL A   1      39.554  20.705  25.854  1.00  0.00     0.261 C 
BRANCH   4   5
ATOM      5  O   UNL A   1      38.324  21.378  25.552  1.00  0.00    -0.457 OA
BRANCH   5   6
ATOM      6  C   UNL A   1      37.305  20.588  25.084  1.00  0.00     0.378 C 
ATOM      7  O   UNL A   1      37.423  19.396  24.824  1.00  0.00    -0.242 OA
BRANCH   6   8
ATOM      8  C   UNL A   1      36.020  21.308  25.020  1.00  0.00     0.260 A 
ATOM      9  C   UNL A   1      33.913  21.646  24.826  1.00  0.00     0.136 A 
ATOM     10  N   UNL A   1      34.804  20.670  24.906  1.00  0.00    -0.205 NA
ATOM     11  N   UNL A   1      34.581  22.860  24.951  1.00  0.00    -0.214 N 
ATOM     12  N   UNL A   1      35.920  22.643  25.019  1.00  0.00    -0.138 NA
BRANCH   9  13
ATOM     13  C   UNL A   1      32.485  21.378  24.416  1.00  0.00     0.051 C 
ATOM     14  C   UNL A   1      31.471  21.964  25.394  1.00  0.00     0.016 C 
ATOM     15  C   UNL A   1      32.134  21.689  22.964  1.00  0.00     0.016 C 
ENDBRANCH   9  13
BRANCH  11  16
ATOM     16  C   UNL A   1      34.131  24.184  24.815  1.00  0.00     0.102 A 
ATOM     17  C   UNL A   1      33.772  24.888  25.975  1.00  0.00     0.031 A 
ATOM     18  C   UNL A   1      34.023  24.795  23.573  1.00  0.00     0.148 A 
ATOM     19  C   UNL A   1      33.392  26.225  25.884  1.00  0.00     0.002 A 
ATOM     20  C   UNL A   1      33.621  26.125  23.478  1.00  0.00     0.041 A 
ATOM     21  F   UNL A   1      34.266  24.117  22.446  1.00  0.00    -0.205 F 
ATOM     22  C   UNL A   1      33.322  26.845  24.637  1.00  0.00     0.003 A 
ENDBRANCH  11  16
ENDBRANCH   6   8
ENDBRANCH   5   6
ENDBRANCH   4   5
ENDBRANCH   3   4
ENDBRANCH   2   3
ENDBRANCH   1   2
BRANCH   1  23
ATOM     23  C   UNL A   1      43.049  19.218  25.723  1.00  0.00     0.261 C 
BRANCH  23  24
ATOM     24  O   UNL A   1      43.402  20.212  24.773  1.00  0.00    -0.460 OA
BRANCH  24  25
ATOM     25  C   UNL A   1      44.719  20.532  24.765  1.00  0.00     0.338 C 
ATOM     26  O   UNL A   1      45.661  19.765  24.756  1.00  0.00    -0.246 OA
BRANCH  25  27
ATOM     27  C   UNL A   1      44.827  21.984  24.948  1.00  0.00     0.060 A 
ATOM     28  C   UNL A   1      45.735  22.413  25.916  1.00  0.00     0.016 A 
ATOM     29  C   UNL A   1      43.848  22.837  24.412  1.00  0.00     0.016 A 
ATOM     30  C   UNL A   1      45.501  23.622  26.527  1.00  0.00     0.010 A 
ATOM     31  C   UNL A   1      43.612  24.041  25.028  1.00  0.00     0.010 A 
ATOM     32  C   UNL A   1      44.379  24.367  26.140  1.00  0.00    -0.014 A 
BRANCH  32  33
ATOM     33  C   UNL A   1      44.082  25.568  26.886  1.00  0.00     0.031 A 
ATOM     34  C   UNL A   1      45.093  26.622  26.661  1.00  0.00     0.074 A 
ATOM     35  C   UNL A   1      42.971  25.711  27.633  1.00  0.00     0.049 A 
ATOM     36  N   UNL A   1      46.019  27.001  27.476  1.00  0.00    -0.248 NA
ATOM     37  C   UNL A   1      45.241  27.148  25.294  1.00  0.00     0.031 C 
ATOM     38  C   UNL A   1      41.795  24.842  27.716  1.00  0.00     0.029 A 
ATOM     39  N   UNL A   1      42.637  26.746  28.445  1.00  0.00    -0.354 N 
ATOM     40  C   UNL A   1      46.715  27.998  26.804  1.00  0.00     0.074 A 
ATOM     41  C   UNL A   1      46.344  27.886  25.419  1.00  0.00     0.031 C 
ATOM     42  C   UNL A   1      40.794  25.504  28.346  1.00  0.00     0.029 A 
ATOM     43  C   UNL A   1      41.304  26.773  28.837  1.00  0.00     0.049 A 
ATOM     44  H   UNL A   1      43.289  27.425  28.736  1.00  0.00     0.167 HD
ATOM     45  C   UNL A   1      47.325  29.002  27.487  1.00  0.00     0.037 A 
ATOM     46  C   UNL A   1      40.681  27.813  29.453  1.00  0.00     0.037 A 
ATOM     47  C   UNL A   1      47.499  28.655  28.875  1.00  0.00     0.049 A 
ATOM     48  C   UNL A   1      41.754  28.637  30.082  1.00  0.00     0.074 A 
ATOM     49  C   UNL A   1      48.173  27.648  29.540  1.00  0.00     0.029 A 
ATOM     50  N   UNL A   1      46.589  29.158  29.775  1.00  0.00    -0.354 N 
ATOM     51  N   UNL A   1      42.506  28.211  31.063  1.00  0.00    -0.248 NA
ATOM     52  C   UNL A   1      42.318  29.722  29.291  1.00  0.00     0.031 C 
ATOM     53  C   UNL A   1      47.316  27.280  30.618  1.00  0.00     0.029 A 
ATOM     54  C   UNL A   1      46.208  28.129  30.600  1.00  0.00     0.049 A 
ATOM     55  H   UNL A   1      46.269  30.088  29.820  1.00  0.00     0.167 HD
ATOM     56  C   UNL A   1      43.782  28.670  30.762  1.00  0.00     0.074 A 
ATOM     57  C   UNL A   1      43.592  29.642  29.685  1.00  0.00     0.031 C 
ATOM     58  C   UNL A   1      44.897  28.018  31.203  1.00  0.00     0.037 A 
BRANCH  45  59
ATOM     59  C   UNL A   1      47.394  30.424  26.993  1.00  0.00     0.058 A 
ATOM     60  C   UNL A   1      48.624  31.108  27.044  1.00  0.00     0.135 A 
ATOM     61  C   UNL A   1      46.258  31.228  26.742  1.00  0.00     0.135 A 
ATOM     62  F   UNL A   1      49.766  30.444  27.284  1.00  0.00    -0.206 F 
ATOM     63  C   UNL A   1      48.710  32.495  26.930  1.00  0.00     0.059 A 
ATOM     64  C   UNL A   1      46.328  32.604  26.569  1.00  0.00     0.059 A 
ATOM     65  F   UNL A   1      45.012  30.742  26.750  1.00  0.00    -0.206 F 
ATOM     66  C   UNL A   1      47.551  33.234  26.706  1.00  0.00     0.060 A 
BRANCH  66  67
ATOM     67  S   UNL A   1      47.641  35.030  26.658  1.00  0.00     0.124 S 
ATOM     68  O   UNL A   1      46.825  35.330  25.487  1.00  0.00    -0.237 OA
ATOM     69  O   UNL A   1      47.068  35.393  27.950  1.00  0.00    -0.237 OA
ATOM     70  O   UNL A   1      49.070  35.290  26.516  1.00  0.00    -0.744 OA
ENDBRANCH  66  67
ENDBRANCH  45  59
BRANCH  46  71
ATOM     71  C   UNL A   1      39.324  28.358  29.156  1.00  0.00     0.058 A 
ATOM     72  C   UNL A   1      38.342  28.470  30.160  1.00  0.00     0.135 A 
ATOM     73  C   UNL A   1      39.057  29.047  27.955  1.00  0.00     0.135 A 
ATOM     74  F   UNL A   1      38.521  27.869  31.346  1.00  0.00    -0.206 F 
ATOM     75  C   UNL A   1      37.189  29.253  29.997  1.00  0.00     0.059 A 
ATOM     76  C   UNL A   1      37.915  29.827  27.768  1.00  0.00     0.059 A 
ATOM     77  F   UNL A   1      39.948  29.058  26.953  1.00  0.00    -0.206 F 
ATOM     78  C   UNL A   1      36.995  29.945  28.803  1.00  0.00     0.060 A 
BRANCH  78  79
ATOM     79  S   UNL A   1      35.599  31.088  28.643  1.00  0.00     0.124 S 
ATOM     80  O   UNL A   1      36.171  32.150  27.822  1.00  0.00    -0.237 OA
ATOM     81  O   UNL A   1      34.589  30.257  27.998  1.00  0.00    -0.237 OA
ATOM     82  O   UNL A   1      35.305  31.459  30.026  1.00  0.00    -0.744 OA
ENDBRANCH  78  79
ENDBRANCH  46  71
BRANCH  58  83
ATOM     83  C   UNL A   1      44.745  26.949  32.255  1.00  0.00     0.058 A 
ATOM     84  C   UNL A   1      44.621  27.195  33.635  1.00  0.00     0.135 A 
ATOM     85  C   UNL A   1      44.504  25.640  31.813  1.00  0.00     0.135 A 
ATOM     86  F   UNL A   1      44.749  28.435  34.127  1.00  0.00    -0.206 F 
ATOM     87  C   UNL A   1      44.282  26.177  34.533  1.00  0.00     0.059 A 
ATOM     88  C   UNL A   1      44.138  24.620  32.684  1.00  0.00     0.059 A 
ATOM     89  F   UNL A   1      44.553  25.356  30.500  1.00  0.00    -0.206 F 
ATOM     90  C   UNL A   1      44.031  24.894  34.045  1.00  0.00     0.060 A 
BRANCH  90  91
ATOM     91  S   UNL A   1      43.482  23.602  35.183  1.00  0.00     0.124 S 
ATOM     92  O   UNL A   1      42.031  23.750  35.138  1.00  0.00    -0.237 OA
ATOM     93  O   UNL A   1      44.016  22.389  34.569  1.00  0.00    -0.237 OA
ATOM     94  O   UNL A   1      44.107  23.974  36.450  1.00  0.00    -0.744 OA
ENDBRANCH  90  91
ENDBRANCH  58  83
ENDBRANCH  32  33
ENDBRANCH  25  27
ENDBRANCH  24  25
ENDBRANCH  23  24
ENDBRANCH   1  23
TORSDOF 19
ENDMDL
MODEL 2
REMARK VINA RESULT:     -11.1      0.838      1.791
REMARK SMILES CC(C)c1nc(C(=O)OCCOCCOC(=O)c2ccc(-c3c4nc(c(-c5c(F)cc(S(=O)(=O)[O-])cc5F)c5ccc([nH]5)c(-c5c(F)cc(S(=O)(=O)[O-])cc5F)c5nc(c(-c6c(F)cc(S(=O)(=O)[O-])cc6F)c6ccc3[nH]6)C=C5)C=C4)cc2)nn1-c1ccccc1F
REMARK SMILES IDX 13 1 12 2 11 3 10 4 9 5 7 6 8 7 6 8 4 9 5 10 85 11 84 12
REMARK SMILES IDX 2 13 1 14 3 15 86 16 87 17 91 18 88 19 90 20 92 21 89 22
REMARK SMILES IDX 14 23 15 24 16 25 17 26 18 27 19 28 83 29 20 30 82 31 21 32
REMARK SMILES IDX 22 33 23 34 76 35 24 36 81 37 75 38 77 39 25 40 80 41 74 42
REMARK SMILES IDX 73 43 26 45 60 46 39 47 59 48 40 49 43 50 58 51 78 52 41 53
REMARK SMILES IDX 42 54 57 56 79 57 44 58 27 59 28 60 37 61 29 62 30 63 36 64
REMARK SMILES IDX 38 65 31 66 32 67 33 68 34 69 35 70 61 71 62 72 71 73 63 74
REMARK SMILES IDX 64 75 70 76 72 77 65 78 66 79 67 80 68 81 69 82 45 83 46 84
REMARK SMILES IDX 55 85 47 86 48 87 54 88 56 89 49 90 50 91 51 92 52 93 53 94
REMARK H PARENT 77 44 43 55
REMARK Flexibility Score: inf
ROOT
ATOM      1  C   UNL A   1      42.398  19.247  26.395  1.00  0.00     0.202 C 
ENDROOT
BRANCH   1   2
ATOM      2  O   UNL A   1      41.791  20.534  26.341  1.00  0.00    -0.374 OA
BRANCH   2   3
ATOM      3  C   UNL A   1      40.377  20.638  26.180  1.00  0.00     0.202 C 
BRANCH   3   4
ATOM      4  C   UNL A   1      39.732  21.988  26.502  1.00  0.00     0.261 C 
BRANCH   4   5
ATOM      5  O   UNL A   1      38.488  22.184  25.814  1.00  0.00    -0.457 OA
BRANCH   5   6
ATOM      6  C   UNL A   1      37.884  23.402  25.999  1.00  0.00     0.378 C 
ATOM      7  O   UNL A   1      38.468  24.408  26.386  1.00  0.00    -0.242 OA
BRANCH   6   8
ATOM      8  C   UNL A   1      36.468  23.395  25.588  1.00  0.00     0.260 A 
ATOM      9  C   UNL A   1      34.411  23.980  25.453  1.00  0.00     0.136 A 
ATOM     10  N   UNL A   1      35.568  24.363  25.972  1.00  0.00    -0.205 NA
ATOM     11  N   UNL A   1      34.628  22.822  24.712  1.00  0.00    -0.214 N 
ATOM     12  N   UNL A   1      35.919  22.425  24.845  1.00  0.00    -0.138 NA
BRANCH   9  13
ATOM     13  C   UNL A   1      33.109  24.621  25.868  1.00  0.00     0.051 C 
ATOM     14  C   UNL A   1      32.489  25.469  24.761  1.00  0.00     0.016 C 
ATOM     15  C   UNL A   1      32.089  23.699  26.530  1.00  0.00     0.016 C 
ENDBRANCH   9  13
BRANCH  11  16
ATOM     16  C   UNL A   1      33.730  21.953  24.070  1.00  0.00     0.102 A 
ATOM     17  C   UNL A   1      33.511  20.686  24.633  1.00  0.00     0.031 A 
ATOM     18  C   UNL A   1      33.074  22.313  22.900  1.00  0.00     0.148 A 
ATOM     19  C   UNL A   1      32.573  19.828  24.064  1.00  0.00     0.002 A 
ATOM     20  C   UNL A   1      32.153  21.447  22.317  1.00  0.00     0.041 A 
ATOM     21  F   UNL A   1      33.337  23.475  22.290  1.00  0.00    -0.205 F 
ATOM     22  C   UNL A   1      31.890  20.210  22.910  1.00  0.00     0.003 A 
ENDBRANCH  11  16
ENDBRANCH   6   8
ENDBRANCH   5   6
ENDBRANCH   4   5
ENDBRANCH   3   4
ENDBRANCH   2   3
ENDBRANCH   1   2
BRANCH   1  23
ATOM     23  C   UNL A   1      43.427  18.894  25.331  1.00  0.00     0.261 C 
BRANCH  23  24
ATOM     24  O   UNL A   1      43.763  20.011  24.522  1.00  0.00    -0.460 OA
BRANCH  24  25
ATOM     25  C   UNL A   1      45.048  20.422  24.645  1.00  0.00     0.338 C 
ATOM     26  O   UNL A   1      46.034  19.722  24.766  1.00  0.00    -0.246 OA
BRANCH  25  27
ATOM     27  C   UNL A   1      45.041  21.882  24.787  1.00  0.00     0.060 A 
ATOM     28  C   UNL A   1      46.043  22.425  25.591  1.00  0.00     0.016 A 
ATOM     29  C   UNL A   1      43.911  22.622  24.401  1.00  0.00     0.016 A 
ATOM     30  C   UNL A   1      45.790  23.624  26.214  1.00  0.00     0.010 A 
ATOM     31  C   UNL A   1      43.657  23.816  25.029  1.00  0.00     0.010 A 
ATOM     32  C   UNL A   1      44.553  24.247  26.000  1.00  0.00    -0.014 A 
BRANCH  32  33
ATOM     33  C   UNL A   1      44.260  25.437  26.765  1.00  0.00     0.031 A 
ATOM     34  C   UNL A   1      45.265  26.498  26.544  1.00  0.00     0.074 A 
ATOM     35  C   UNL A   1      43.157  25.565  27.526  1.00  0.00     0.049 A 
ATOM     36  N   UNL A   1      46.198  26.868  27.353  1.00  0.00    -0.248 NA
ATOM     37  C   UNL A   1      45.395  27.042  25.183  1.00  0.00     0.031 C 
ATOM     38  C   UNL A   1      41.985  24.690  27.610  1.00  0.00     0.029 A 
ATOM     39  N   UNL A   1      42.829  26.588  28.356  1.00  0.00    -0.354 N 
ATOM     40  C   UNL A   1      46.883  27.878  26.687  1.00  0.00     0.074 A 
ATOM     41  C   UNL A   1      46.497  27.783  25.305  1.00  0.00     0.031 C 
ATOM     42  C   UNL A   1      40.989  25.340  28.261  1.00  0.00     0.029 A 
ATOM     43  C   UNL A   1      41.499  26.604  28.763  1.00  0.00     0.049 A 
ATOM     44  H   UNL A   1      43.481  27.265  28.649  1.00  0.00     0.167 HD
ATOM     45  C   UNL A   1      47.496  28.874  27.378  1.00  0.00     0.037 A 
ATOM     46  C   UNL A   1      40.879  27.633  29.400  1.00  0.00     0.037 A 
ATOM     47  C   UNL A   1      47.688  28.508  28.759  1.00  0.00     0.049 A 
ATOM     48  C   UNL A   1      41.956  28.452  30.029  1.00  0.00     0.074 A 
ATOM     49  C   UNL A   1      48.373  27.495  29.402  1.00  0.00     0.029 A 
ATOM     50  N   UNL A   1      46.785  28.996  29.676  1.00  0.00    -0.354 N 
ATOM     51  N   UNL A   1      42.721  28.016  30.995  1.00  0.00    -0.248 NA
ATOM     52  C   UNL A   1      42.508  29.550  29.246  1.00  0.00     0.031 C 
ATOM     53  C   UNL A   1      47.529  27.109  30.484  1.00  0.00     0.029 A 
ATOM     54  C   UNL A   1      46.418  27.955  30.490  1.00  0.00     0.049 A 
ATOM     55  H   UNL A   1      46.463  29.924  29.737  1.00  0.00     0.167 HD
ATOM     56  C   UNL A   1      43.992  28.483  30.687  1.00  0.00     0.074 A 
ATOM     57  C   UNL A   1      43.786  29.470  29.625  1.00  0.00     0.031 C 
ATOM     58  C   UNL A   1      45.114  27.829  31.106  1.00  0.00     0.037 A 
BRANCH  45  59
ATOM     59  C   UNL A   1      47.555  30.303  26.903  1.00  0.00     0.058 A 
ATOM     60  C   UNL A   1      48.778  30.998  26.970  1.00  0.00     0.135 A 
ATOM     61  C   UNL A   1      46.413  31.100  26.655  1.00  0.00     0.135 A 
ATOM     62  F   UNL A   1      49.925  30.342  27.208  1.00  0.00    -0.206 F 
ATOM     63  C   UNL A   1      48.852  32.387  26.874  1.00  0.00     0.059 A 
ATOM     64  C   UNL A   1      46.471  32.478  26.501  1.00  0.00     0.059 A 
ATOM     65  F   UNL A   1      45.172  30.602  26.650  1.00  0.00    -0.206 F 
ATOM     66  C   UNL A   1      47.687  33.118  26.653  1.00  0.00     0.060 A 
BRANCH  66  67
ATOM     67  S   UNL A   1      47.760  34.915  26.629  1.00  0.00     0.124 S 
ATOM     68  O   UNL A   1      48.072  35.174  25.228  1.00  0.00    -0.237 OA
ATOM     69  O   UNL A   1      46.414  35.275  27.064  1.00  0.00    -0.237 OA
ATOM     70  O   UNL A   1      48.824  35.221  27.580  1.00  0.00    -0.744 OA
ENDBRANCH  66  67
ENDBRANCH  45  59
BRANCH  46  71
ATOM     71  C   UNL A   1      39.517  28.176  29.126  1.00  0.00     0.058 A 
ATOM     72  C   UNL A   1      38.535  28.239  30.134  1.00  0.00     0.135 A 
ATOM     73  C   UNL A   1      39.244  28.911  27.954  1.00  0.00     0.135 A 
ATOM     74  F   UNL A   1      38.720  27.593  31.295  1.00  0.00    -0.206 F 
ATOM     75  C   UNL A   1      37.375  29.017  30.003  1.00  0.00     0.059 A 
ATOM     76  C   UNL A   1      38.094  29.687  27.799  1.00  0.00     0.059 A 
ATOM     77  F   UNL A   1      40.134  28.971  26.953  1.00  0.00    -0.206 F 
ATOM     78  C   UNL A   1      37.173  29.755  28.837  1.00  0.00     0.060 A 
BRANCH  78  79
ATOM     79  S   UNL A   1      35.767  30.891  28.724  1.00  0.00     0.124 S 
ATOM     80  O   UNL A   1      35.491  31.171  30.129  1.00  0.00    -0.237 OA
ATOM     81  O   UNL A   1      36.323  31.996  27.950  1.00  0.00    -0.237 OA
ATOM     82  O   UNL A   1      34.749  30.102  28.034  1.00  0.00    -0.744 OA
ENDBRANCH  78  79
ENDBRANCH  46  71
BRANCH  58  83
ATOM     83  C   UNL A   1      44.978  26.746  32.145  1.00  0.00     0.058 A 
ATOM     84  C   UNL A   1      44.920  26.970  33.533  1.00  0.00     0.135 A 
ATOM     85  C   UNL A   1      44.681  25.452  31.691  1.00  0.00     0.135 A 
ATOM     86  F   UNL A   1      45.104  28.196  34.041  1.00  0.00    -0.206 F 
ATOM     87  C   UNL A   1      44.592  25.944  34.427  1.00  0.00     0.059 A 
ATOM     88  C   UNL A   1      44.325  24.427  32.559  1.00  0.00     0.059 A 
ATOM     89  F   UNL A   1      44.666  25.191  30.372  1.00  0.00    -0.206 F 
ATOM     90  C   UNL A   1      44.285  24.678  33.928  1.00  0.00     0.060 A 
BRANCH  90  91
ATOM     91  S   UNL A   1      43.749  23.380  35.066  1.00  0.00     0.124 S 
ATOM     92  O   UNL A   1      42.310  23.611  35.140  1.00  0.00    -0.237 OA
ATOM     93  O   UNL A   1      44.162  22.161  34.376  1.00  0.00    -0.237 OA
ATOM     94  O   UNL A   1      44.490  23.672  36.291  1.00  0.00    -0.744 OA
ENDBRANCH  90  91
ENDBRANCH  58  83
ENDBRANCH  32  33
ENDBRANCH  25  27
ENDBRANCH  24  25
ENDBRANCH  23  24
ENDBRANCH   1  23
TORSDOF 19
ENDMDL
MODEL 3
REMARK VINA RESULT:     -11.0      2.781      9.438
REMARK SMILES CC(C)c1nc(C(=O)OCCOCCOC(=O)c2ccc(-c3c4nc(c(-c5c(F)cc(S(=O)(=O)[O-])cc5F)c5ccc([nH]5)c(-c5c(F)cc(S(=O)(=O)[O-])cc5F)c5nc(c(-c6c(F)cc(S(=O)(=O)[O-])cc6F)c6ccc3[nH]6)C=C5)C=C4)cc2)nn1-c1ccccc1F
REMARK SMILES IDX 13 1 12 2 11 3 10 4 9 5 7 6 8 7 6 8 4 9 5 10 85 11 84 12
REMARK SMILES IDX 2 13 1 14 3 15 86 16 87 17 91 18 88 19 90 20 92 21 89 22
REMARK SMILES IDX 14 23 15 24 16 25 17 26 18 27 19 28 83 29 20 30 82 31 21 32
REMARK SMILES IDX 22 33 23 34 76 35 24 36 81 37 75 38 77 39 25 40 80 41 74 42
REMARK SMILES IDX 73 43 26 45 60 46 39 47 59 48 40 49 43 50 58 51 78 52 41 53
REMARK SMILES IDX 42 54 57 56 79 57 44 58 27 59 28 60 37 61 29 62 30 63 36 64
REMARK SMILES IDX 38 65 31 66 32 67 33 68 34 69 35 70 61 71 62 72 71 73 63 74
REMARK SMILES IDX 64 75 70 76 72 77 65 78 66 79 67 80 68 81 69 82 45 83 46 84
REMARK SMILES IDX 55 85 47 86 48 87 54 88 56 89 49 90 50 91 51 92 52 93 53 94
REMARK H PARENT 77 44 43 55
REMARK Flexibility Score: inf
ROOT
ATOM      1  C   UNL A   1      32.686  29.787  25.738  1.00  0.00     0.202 C 
ENDROOT
BRANCH   1   2
ATOM      2  O   UNL A   1      31.830  28.654  25.849  1.00  0.00    -0.374 OA
BRANCH   2   3
ATOM      3  C   UNL A   1      32.390  27.343  25.811  1.00  0.00     0.202 C 
BRANCH   3   4
ATOM      4  C   UNL A   1      31.699  26.259  26.643  1.00  0.00     0.261 C 
BRANCH   4   5
ATOM      5  O   UNL A   1      31.057  25.264  25.831  1.00  0.00    -0.457 OA
BRANCH   5   6
ATOM      6  C   UNL A   1      30.934  24.019  26.393  1.00  0.00     0.378 C 
ATOM      7  O   UNL A   1      30.084  23.719  27.223  1.00  0.00    -0.242 OA
BRANCH   6   8
ATOM      8  C   UNL A   1      31.880  23.046  25.815  1.00  0.00     0.260 A 
ATOM      9  C   UNL A   1      33.674  22.259  24.946  1.00  0.00     0.136 A 
ATOM     10  N   UNL A   1      33.174  23.367  25.471  1.00  0.00    -0.205 NA
ATOM     11  N   UNL A   1      32.706  21.263  25.029  1.00  0.00    -0.214 N 
ATOM     12  N   UNL A   1      31.554  21.779  25.529  1.00  0.00    -0.138 NA
BRANCH   9  13
ATOM     13  C   UNL A   1      34.981  22.263  24.191  1.00  0.00     0.051 C 
ATOM     14  C   UNL A   1      35.119  23.460  23.256  1.00  0.00     0.016 C 
ATOM     15  C   UNL A   1      36.237  22.032  25.025  1.00  0.00     0.016 C 
ENDBRANCH   9  13
BRANCH  11  16
ATOM     16  C   UNL A   1      32.677  19.955  24.515  1.00  0.00     0.102 A 
ATOM     17  C   UNL A   1      32.966  18.891  25.384  1.00  0.00     0.031 A 
ATOM     18  C   UNL A   1      32.384  19.700  23.182  1.00  0.00     0.148 A 
ATOM     19  C   UNL A   1      32.874  17.579  24.926  1.00  0.00     0.002 A 
ATOM     20  C   UNL A   1      32.315  18.389  22.718  1.00  0.00     0.041 A 
ATOM     21  F   UNL A   1      32.200  20.699  22.312  1.00  0.00    -0.205 F 
ATOM     22  C   UNL A   1      32.543  17.327  23.595  1.00  0.00     0.003 A 
ENDBRANCH  11  16
ENDBRANCH   6   8
ENDBRANCH   5   6
ENDBRANCH   4   5
ENDBRANCH   3   4
ENDBRANCH   2   3
ENDBRANCH   1   2
BRANCH   1  23
ATOM     23  C   UNL A   1      33.185  30.437  27.019  1.00  0.00     0.261 C 
BRANCH  23  24
ATOM     24  O   UNL A   1      34.599  30.385  27.129  1.00  0.00    -0.460 OA
BRANCH  24  25
ATOM     25  C   UNL A   1      35.146  31.438  27.784  1.00  0.00     0.338 C 
ATOM     26  O   UNL A   1      34.903  32.617  27.612  1.00  0.00    -0.246 OA
BRANCH  25  27
ATOM     27  C   UNL A   1      36.229  30.926  28.630  1.00  0.00     0.060 A 
ATOM     28  C   UNL A   1      37.310  31.785  28.830  1.00  0.00     0.016 A 
ATOM     29  C   UNL A   1      36.299  29.555  28.933  1.00  0.00     0.016 A 
ATOM     30  C   UNL A   1      38.537  31.225  29.096  1.00  0.00     0.010 A 
ATOM     31  C   UNL A   1      37.526  28.998  29.192  1.00  0.00     0.010 A 
ATOM     32  C   UNL A   1      38.640  29.829  29.169  1.00  0.00    -0.014 A 
BRANCH  32  33
ATOM     33  C   UNL A   1      39.959  29.261  29.319  1.00  0.00     0.031 A 
ATOM     34  C   UNL A   1      40.300  29.022  30.738  1.00  0.00     0.074 A 
ATOM     35  C   UNL A   1      40.738  28.930  28.273  1.00  0.00     0.049 A 
ATOM     36  N   UNL A   1      41.108  29.709  31.472  1.00  0.00    -0.248 NA
ATOM     37  C   UNL A   1      39.473  28.062  31.486  1.00  0.00     0.031 C 
ATOM     38  C   UNL A   1      40.401  28.884  26.848  1.00  0.00     0.029 A 
ATOM     39  N   UNL A   1      42.020  28.484  28.292  1.00  0.00    -0.354 N 
ATOM     40  C   UNL A   1      41.076  29.102  32.721  1.00  0.00     0.074 A 
ATOM     41  C   UNL A   1      39.911  28.259  32.731  1.00  0.00     0.031 C 
ATOM     42  C   UNL A   1      41.374  28.215  26.180  1.00  0.00     0.029 A 
ATOM     43  C   UNL A   1      42.460  27.922  27.099  1.00  0.00     0.049 A 
ATOM     44  H   UNL A   1      42.595  28.554  29.089  1.00  0.00     0.167 HD
ATOM     45  C   UNL A   1      42.160  29.137  33.539  1.00  0.00     0.037 A 
ATOM     46  C   UNL A   1      43.608  27.211  26.935  1.00  0.00     0.037 A 
ATOM     47  C   UNL A   1      43.081  30.172  33.139  1.00  0.00     0.049 A 
ATOM     48  C   UNL A   1      44.508  27.594  28.061  1.00  0.00     0.074 A 
ATOM     49  C   UNL A   1      42.994  31.546  33.019  1.00  0.00     0.029 A 
ATOM     50  N   UNL A   1      44.175  29.795  32.396  1.00  0.00    -0.354 N 
ATOM     51  N   UNL A   1      45.005  28.794  28.209  1.00  0.00    -0.248 NA
ATOM     52  C   UNL A   1      44.439  26.795  29.278  1.00  0.00     0.031 C 
ATOM     53  C   UNL A   1      43.730  31.859  31.839  1.00  0.00     0.029 A 
ATOM     54  C   UNL A   1      44.289  30.677  31.350  1.00  0.00     0.049 A 
ATOM     55  H   UNL A   1      44.769  29.033  32.580  1.00  0.00     0.167 HD
ATOM     56  C   UNL A   1      44.922  29.053  29.570  1.00  0.00     0.074 A 
ATOM     57  C   UNL A   1      44.615  27.761  30.184  1.00  0.00     0.031 C 
ATOM     58  C   UNL A   1      44.821  30.327  30.050  1.00  0.00     0.037 A 
BRANCH  45  59
ATOM     59  C   UNL A   1      42.566  27.994  34.435  1.00  0.00     0.058 A 
ATOM     60  C   UNL A   1      42.656  28.210  35.823  1.00  0.00     0.135 A 
ATOM     61  C   UNL A   1      43.140  26.790  33.965  1.00  0.00     0.135 A 
ATOM     62  F   UNL A   1      42.152  29.325  36.376  1.00  0.00    -0.206 F 
ATOM     63  C   UNL A   1      43.331  27.333  36.671  1.00  0.00     0.059 A 
ATOM     64  C   UNL A   1      43.768  25.876  34.800  1.00  0.00     0.059 A 
ATOM     65  F   UNL A   1      43.213  26.482  32.666  1.00  0.00    -0.206 F 
ATOM     66  C   UNL A   1      43.896  26.175  36.143  1.00  0.00     0.060 A 
BRANCH  66  67
ATOM     67  S   UNL A   1      44.854  25.090  37.212  1.00  0.00     0.124 S 
ATOM     68  O   UNL A   1      46.194  25.649  37.068  1.00  0.00    -0.237 OA
ATOM     69  O   UNL A   1      44.208  25.295  38.504  1.00  0.00    -0.237 OA
ATOM     70  O   UNL A   1      44.653  23.772  36.619  1.00  0.00    -0.744 OA
ENDBRANCH  66  67
ENDBRANCH  45  59
BRANCH  46  71
ATOM     71  C   UNL A   1      43.784  25.946  26.164  1.00  0.00     0.058 A 
ATOM     72  C   UNL A   1      44.955  25.695  25.423  1.00  0.00     0.135 A 
ATOM     73  C   UNL A   1      42.938  24.837  26.372  1.00  0.00     0.135 A 
ATOM     74  F   UNL A   1      45.833  26.684  25.197  1.00  0.00    -0.206 F 
ATOM     75  C   UNL A   1      45.287  24.414  24.955  1.00  0.00     0.059 A 
ATOM     76  C   UNL A   1      43.244  23.556  25.911  1.00  0.00     0.059 A 
ATOM     77  F   UNL A   1      41.826  24.946  27.113  1.00  0.00    -0.206 F 
ATOM     78  C   UNL A   1      44.433  23.346  25.223  1.00  0.00     0.060 A 
BRANCH  78  79
ATOM     79  S   UNL A   1      44.929  21.663  24.772  1.00  0.00     0.124 S 
ATOM     80  O   UNL A   1      46.360  21.684  25.057  1.00  0.00    -0.237 OA
ATOM     81  O   UNL A   1      44.112  20.849  25.664  1.00  0.00    -0.237 OA
ATOM     82  O   UNL A   1      44.578  21.575  23.356  1.00  0.00    -0.744 OA
ENDBRANCH  78  79
ENDBRANCH  46  71
BRANCH  58  83
ATOM     83  C   UNL A   1      45.079  31.479  29.113  1.00  0.00     0.058 A 
ATOM     84  C   UNL A   1      46.355  31.978  28.790  1.00  0.00     0.135 A 
ATOM     85  C   UNL A   1      43.996  31.947  28.355  1.00  0.00     0.135 A 
ATOM     86  F   UNL A   1      47.451  31.516  29.407  1.00  0.00    -0.206 F 
ATOM     87  C   UNL A   1      46.538  32.911  27.763  1.00  0.00     0.059 A 
ATOM     88  C   UNL A   1      44.159  32.853  27.312  1.00  0.00     0.059 A 
ATOM     89  F   UNL A   1      42.762  31.466  28.579  1.00  0.00    -0.206 F 
ATOM     90  C   UNL A   1      45.434  33.334  27.022  1.00  0.00     0.060 A 
BRANCH  90  91
ATOM     91  S   UNL A   1      45.677  34.451  25.622  1.00  0.00     0.124 S 
ATOM     92  O   UNL A   1      47.109  34.323  25.374  1.00  0.00    -0.237 OA
ATOM     93  O   UNL A   1      44.803  33.879  24.603  1.00  0.00    -0.237 OA
ATOM     94  O   UNL A   1      45.249  35.747  26.141  1.00  0.00    -0.744 OA
ENDBRANCH  90  91
ENDBRANCH  58  83
ENDBRANCH  32  33
ENDBRANCH  25  27
ENDBRANCH  24  25
ENDBRANCH  23  24
ENDBRANCH   1  23
TORSDOF 19
ENDMDL
