MODEL 1
REMARK VINA RESULT:     -10.4      0.000      0.000
REMARK SMILES C[C@H](CNC(=O)N1C[C@H]2CCCC[N@@H+]2C[C@@H]1C)C(=O)OCCOCCOC(=O)c1ccc(-c2c3nc(c(-c4c(F)cc(S(=O)(=O)[O-])cc4F)c4ccc([nH]4)c(-c4c(F)cc(S(=O)(=O)[O-])cc4F)c4nc(c(-c5c(F)cc(S(=O)(=O)[O-])cc5F)c5ccc2[nH]5)C=C4)C=C3)cc1
REMARK SMILES IDX 23 1 22 2 21 3 20 4 18 5 19 6 2 7 1 8 3 9 4 10 5 11 6 13
REMARK SMILES IDX 7 14 8 15 16 16 9 17 15 18 17 19 10 20 14 21 11 22 13 23
REMARK SMILES IDX 12 25 24 26 25 27 26 28 27 29 28 30 29 31 30 32 94 33 31 34
REMARK SMILES IDX 93 35 32 36 33 37 34 38 87 39 35 40 92 41 86 42 88 43 36 44
REMARK SMILES IDX 91 45 85 46 84 47 37 49 71 50 50 51 70 52 51 53 54 54 69 55
REMARK SMILES IDX 89 56 52 57 53 58 68 60 90 61 55 62 38 63 39 64 48 65 40 66
REMARK SMILES IDX 41 67 47 68 49 69 42 70 43 71 44 72 45 73 46 74 72 75 73 76
REMARK SMILES IDX 82 77 74 78 75 79 81 80 83 81 76 82 77 83 78 84 79 85 80 86
REMARK SMILES IDX 56 87 57 88 66 89 58 90 59 91 65 92 67 93 60 94 61 95 62 96
REMARK SMILES IDX 63 97 64 98
REMARK H PARENT 4 12 14 24 88 48 54 59
REMARK Flexibility Score: inf
ROOT
ATOM      1  O   UNL A   1      31.433  28.814  24.778  1.00  0.00    -0.374 OA
ENDROOT
BRANCH   1   2
ATOM      2  C   UNL A   1      32.510  28.561  23.875  1.00  0.00     0.202 C 
BRANCH   2   3
ATOM      3  C   UNL A   1      32.158  28.476  22.388  1.00  0.00     0.261 C 
BRANCH   3   4
ATOM      4  O   UNL A   1      31.638  27.178  22.040  1.00  0.00    -0.463 OA
BRANCH   4   5
ATOM      5  C   UNL A   1      32.562  26.201  21.869  1.00  0.00     0.310 C 
ATOM      6  O   UNL A   1      33.504  26.255  21.086  1.00  0.00    -0.252 OA
BRANCH   5   7
ATOM      7  C   UNL A   1      32.350  25.004  22.778  1.00  0.00     0.115 C 
ATOM      8  C   UNL A   1      32.860  23.738  22.105  1.00  0.00     0.022 C 
BRANCH   7   9
ATOM      9  C   UNL A   1      30.966  24.923  23.445  1.00  0.00     0.132 C 
BRANCH   9  10
ATOM     10  N   UNL A   1      30.756  25.715  24.642  1.00  0.00    -0.337 N 
ATOM     11  C   UNL A   1      31.216  25.540  25.912  1.00  0.00     0.318 C 
ATOM     12  H   UNL A   1      30.186  26.508  24.517  1.00  0.00     0.165 HD
ATOM     13  O   UNL A   1      30.739  26.226  26.810  1.00  0.00    -0.249 OA
BRANCH  11  14
ATOM     14  N   UNL A   1      32.134  24.544  26.122  1.00  0.00    -0.311 N 
ATOM     15  C   UNL A   1      33.558  24.884  26.186  1.00  0.00     0.186 C 
ATOM     16  C   UNL A   1      31.800  23.350  26.917  1.00  0.00     0.139 C 
ATOM     17  C   UNL A   1      34.384  23.725  25.607  1.00  0.00     0.203 C 
ATOM     18  C   UNL A   1      32.766  22.172  26.559  1.00  0.00     0.287 C 
ATOM     19  C   UNL A   1      30.365  22.843  26.707  1.00  0.00     0.037 C 
ATOM     20  C   UNL A   1      35.868  24.099  25.522  1.00  0.00     0.067 C 
ATOM     21  N   UNL A   1      34.207  22.502  26.426  1.00  0.00    -0.329 N 
ATOM     22  C   UNL A   1      36.665  22.958  24.898  1.00  0.00     0.012 C 
ATOM     23  C   UNL A   1      34.923  21.368  25.817  1.00  0.00     0.262 C 
ATOM     24  H   UNL A   1      34.594  22.680  27.352  1.00  0.00     0.348 HD
ATOM     25  C   UNL A   1      36.416  21.654  25.650  1.00  0.00     0.062 C 
ENDBRANCH  11  14
ENDBRANCH   9  10
ENDBRANCH   7   9
ENDBRANCH   5   7
ENDBRANCH   4   5
ENDBRANCH   3   4
ENDBRANCH   2   3
ENDBRANCH   1   2
BRANCH   1  26
ATOM     26  C   UNL A   1      31.582  29.885  25.707  1.00  0.00     0.202 C 
BRANCH  26  27
ATOM     27  C   UNL A   1      32.539  29.662  26.889  1.00  0.00     0.261 C 
BRANCH  27  28
ATOM     28  O   UNL A   1      33.866  30.161  26.645  1.00  0.00    -0.460 OA
BRANCH  28  29
ATOM     29  C   UNL A   1      34.419  30.829  27.688  1.00  0.00     0.338 C 
ATOM     30  O   UNL A   1      33.901  31.732  28.337  1.00  0.00    -0.246 OA
BRANCH  29  31
ATOM     31  C   UNL A   1      35.693  30.208  28.093  1.00  0.00     0.060 A 
ATOM     32  C   UNL A   1      35.799  29.756  29.415  1.00  0.00     0.016 A 
ATOM     33  C   UNL A   1      36.795  30.156  27.237  1.00  0.00     0.016 A 
ATOM     34  C   UNL A   1      37.020  29.292  29.900  1.00  0.00     0.010 A 
ATOM     35  C   UNL A   1      38.023  29.698  27.731  1.00  0.00     0.010 A 
ATOM     36  C   UNL A   1      38.151  29.296  29.074  1.00  0.00    -0.014 A 
BRANCH  36  37
ATOM     37  C   UNL A   1      39.484  29.014  29.664  1.00  0.00     0.031 A 
ATOM     38  C   UNL A   1      39.977  29.865  30.805  1.00  0.00     0.074 A 
ATOM     39  C   UNL A   1      40.230  27.985  29.221  1.00  0.00     0.049 A 
ATOM     40  N   UNL A   1      41.110  29.802  31.456  1.00  0.00    -0.248 NA
ATOM     41  C   UNL A   1      39.071  30.925  31.274  1.00  0.00     0.031 C 
ATOM     42  C   UNL A   1      39.847  27.064  28.151  1.00  0.00     0.029 A 
ATOM     43  N   UNL A   1      41.468  27.544  29.615  1.00  0.00    -0.354 N 
ATOM     44  C   UNL A   1      41.056  30.814  32.408  1.00  0.00     0.074 A 
ATOM     45  C   UNL A   1      39.789  31.493  32.232  1.00  0.00     0.031 C 
ATOM     46  C   UNL A   1      40.837  26.174  27.966  1.00  0.00     0.029 A 
ATOM     47  C   UNL A   1      41.934  26.478  28.884  1.00  0.00     0.049 A 
ATOM     48  H   UNL A   1      41.975  27.953  30.354  1.00  0.00     0.167 HD
ATOM     49  C   UNL A   1      41.974  31.143  33.348  1.00  0.00     0.037 A 
ATOM     50  C   UNL A   1      43.118  25.835  28.933  1.00  0.00     0.037 A 
ATOM     51  C   UNL A   1      43.232  30.464  33.524  1.00  0.00     0.049 A 
ATOM     52  C   UNL A   1      44.150  26.258  29.947  1.00  0.00     0.074 A 
ATOM     53  C   UNL A   1      44.220  30.712  34.462  1.00  0.00     0.029 A 
ATOM     54  N   UNL A   1      43.678  29.407  32.746  1.00  0.00    -0.354 N 
ATOM     55  N   UNL A   1      44.076  27.203  30.854  1.00  0.00    -0.248 NA
ATOM     56  C   UNL A   1      45.426  25.527  29.946  1.00  0.00     0.031 C 
ATOM     57  C   UNL A   1      45.283  29.835  34.222  1.00  0.00     0.029 A 
ATOM     58  C   UNL A   1      44.936  29.007  33.166  1.00  0.00     0.049 A 
ATOM     59  H   UNL A   1      43.175  29.001  32.003  1.00  0.00     0.167 HD
ATOM     60  C   UNL A   1      45.281  27.160  31.550  1.00  0.00     0.074 A 
ATOM     61  C   UNL A   1      46.062  26.091  30.964  1.00  0.00     0.031 C 
ATOM     62  C   UNL A   1      45.701  27.934  32.581  1.00  0.00     0.037 A 
BRANCH  49  63
ATOM     63  C   UNL A   1      41.665  32.306  34.250  1.00  0.00     0.058 A 
ATOM     64  C   UNL A   1      42.092  33.608  33.947  1.00  0.00     0.135 A 
ATOM     65  C   UNL A   1      40.890  32.122  35.406  1.00  0.00     0.135 A 
ATOM     66  F   UNL A   1      42.850  33.837  32.863  1.00  0.00    -0.206 F 
ATOM     67  C   UNL A   1      41.778  34.685  34.770  1.00  0.00     0.059 A 
ATOM     68  C   UNL A   1      40.544  33.188  36.231  1.00  0.00     0.059 A 
ATOM     69  F   UNL A   1      40.458  30.896  35.742  1.00  0.00    -0.206 F 
ATOM     70  C   UNL A   1      41.002  34.465  35.910  1.00  0.00     0.060 A 
BRANCH  70  71
ATOM     71  S   UNL A   1      40.590  35.875  36.961  1.00  0.00     0.124 S 
ATOM     72  O   UNL A   1      39.733  36.656  36.075  1.00  0.00    -0.237 OA
ATOM     73  O   UNL A   1      39.920  35.237  38.090  1.00  0.00    -0.237 OA
ATOM     74  O   UNL A   1      41.889  36.468  37.260  1.00  0.00    -0.744 OA
ENDBRANCH  70  71
ENDBRANCH  49  63
BRANCH  50  75
ATOM     75  C   UNL A   1      43.405  24.729  27.981  1.00  0.00     0.058 A 
ATOM     76  C   UNL A   1      43.114  23.396  28.306  1.00  0.00     0.135 A 
ATOM     77  C   UNL A   1      43.986  24.985  26.728  1.00  0.00     0.135 A 
ATOM     78  F   UNL A   1      42.569  23.098  29.495  1.00  0.00    -0.206 F 
ATOM     79  C   UNL A   1      43.405  22.353  27.431  1.00  0.00     0.059 A 
ATOM     80  C   UNL A   1      44.262  23.961  25.827  1.00  0.00     0.059 A 
ATOM     81  F   UNL A   1      44.275  26.244  26.366  1.00  0.00    -0.206 F 
ATOM     82  C   UNL A   1      43.979  22.646  26.193  1.00  0.00     0.060 A 
BRANCH  82  83
ATOM     83  S   UNL A   1      44.313  21.291  25.047  1.00  0.00     0.124 S 
ATOM     84  O   UNL A   1      45.618  20.832  25.508  1.00  0.00    -0.237 OA
ATOM     85  O   UNL A   1      43.193  20.390  25.302  1.00  0.00    -0.237 OA
ATOM     86  O   UNL A   1      44.296  21.945  23.742  1.00  0.00    -0.744 OA
ENDBRANCH  82  83
ENDBRANCH  50  75
BRANCH  62  87
ATOM     87  C   UNL A   1      47.049  27.632  33.175  1.00  0.00     0.058 A 
ATOM     88  C   UNL A   1      48.214  28.274  32.728  1.00  0.00     0.135 A 
ATOM     89  C   UNL A   1      47.168  26.729  34.245  1.00  0.00     0.135 A 
ATOM     90  F   UNL A   1      48.157  29.142  31.705  1.00  0.00    -0.206 F 
ATOM     91  C   UNL A   1      49.453  28.017  33.306  1.00  0.00     0.059 A 
ATOM     92  C   UNL A   1      48.393  26.476  34.855  1.00  0.00     0.059 A 
ATOM     93  F   UNL A   1      46.083  26.096  34.720  1.00  0.00    -0.206 F 
ATOM     94  C   UNL A   1      49.533  27.116  34.371  1.00  0.00     0.060 A 
BRANCH  94  95
ATOM     95  S   UNL A   1      51.140  26.817  35.136  1.00  0.00     0.124 S 
ATOM     96  O   UNL A   1      50.772  25.988  36.279  1.00  0.00    -0.237 OA
ATOM     97  O   UNL A   1      51.874  26.138  34.073  1.00  0.00    -0.237 OA
ATOM     98  O   UNL A   1      51.617  28.158  35.459  1.00  0.00    -0.744 OA
ENDBRANCH  94  95
ENDBRANCH  62  87
ENDBRANCH  36  37
ENDBRANCH  29  31
ENDBRANCH  28  29
ENDBRANCH  27  28
ENDBRANCH  26  27
ENDBRANCH   1  26
TORSDOF 20
ENDMDL
MODEL 2
REMARK VINA RESULT:     -10.3      2.285      3.113
REMARK SMILES C[C@H](CNC(=O)N1C[C@H]2CCCC[N@@H+]2C[C@@H]1C)C(=O)OCCOCCOC(=O)c1ccc(-c2c3nc(c(-c4c(F)cc(S(=O)(=O)[O-])cc4F)c4ccc([nH]4)c(-c4c(F)cc(S(=O)(=O)[O-])cc4F)c4nc(c(-c5c(F)cc(S(=O)(=O)[O-])cc5F)c5ccc2[nH]5)C=C4)C=C3)cc1
REMARK SMILES IDX 23 1 22 2 21 3 20 4 18 5 19 6 2 7 1 8 3 9 4 10 5 11 6 13
REMARK SMILES IDX 7 14 8 15 16 16 9 17 15 18 17 19 10 20 14 21 11 22 13 23
REMARK SMILES IDX 12 25 24 26 25 27 26 28 27 29 28 30 29 31 30 32 94 33 31 34
REMARK SMILES IDX 93 35 32 36 33 37 34 38 87 39 35 40 92 41 86 42 88 43 36 44
REMARK SMILES IDX 91 45 85 46 84 47 37 49 71 50 50 51 70 52 51 53 54 54 69 55
REMARK SMILES IDX 89 56 52 57 53 58 68 60 90 61 55 62 38 63 39 64 48 65 40 66
REMARK SMILES IDX 41 67 47 68 49 69 42 70 43 71 44 72 45 73 46 74 72 75 73 76
REMARK SMILES IDX 82 77 74 78 75 79 81 80 83 81 76 82 77 83 78 84 79 85 80 86
REMARK SMILES IDX 56 87 57 88 66 89 58 90 59 91 65 92 67 93 60 94 61 95 62 96
REMARK SMILES IDX 63 97 64 98
REMARK H PARENT 4 12 14 24 88 48 54 59
REMARK Flexibility Score: inf
ROOT
ATOM      1  O   UNL A   1      30.938  27.225  25.363  1.00  0.00    -0.374 OA
ENDROOT
BRANCH   1   2
ATOM      2  C   UNL A   1      30.396  27.859  24.205  1.00  0.00     0.202 C 
BRANCH   2   3
ATOM      3  C   UNL A   1      31.263  27.852  22.943  1.00  0.00     0.261 C 
BRANCH   3   4
ATOM      4  O   UNL A   1      31.569  26.510  22.518  1.00  0.00    -0.463 OA
BRANCH   4   5
ATOM      5  C   UNL A   1      32.885  26.231  22.352  1.00  0.00     0.310 C 
ATOM      6  O   UNL A   1      33.806  26.862  22.860  1.00  0.00    -0.252 OA
BRANCH   5   7
ATOM      7  C   UNL A   1      33.140  25.013  21.482  1.00  0.00     0.115 C 
ATOM      8  C   UNL A   1      32.627  25.261  20.072  1.00  0.00     0.022 C 
BRANCH   7   9
ATOM      9  C   UNL A   1      32.776  23.662  22.123  1.00  0.00     0.132 C 
BRANCH   9  10
ATOM     10  N   UNL A   1      31.852  23.683  23.241  1.00  0.00    -0.337 N 
ATOM     11  C   UNL A   1      31.961  23.152  24.490  1.00  0.00     0.318 C 
ATOM     12  H   UNL A   1      31.007  24.158  23.068  1.00  0.00     0.165 HD
ATOM     13  O   UNL A   1      30.963  23.118  25.203  1.00  0.00    -0.249 OA
BRANCH  11  14
ATOM     14  N   UNL A   1      33.168  22.610  24.846  1.00  0.00    -0.311 N 
ATOM     15  C   UNL A   1      34.066  23.371  25.716  1.00  0.00     0.186 C 
ATOM     16  C   UNL A   1      33.343  21.154  24.986  1.00  0.00     0.139 C 
ATOM     17  C   UNL A   1      35.523  23.066  25.338  1.00  0.00     0.203 C 
ATOM     18  C   UNL A   1      34.855  20.773  24.852  1.00  0.00     0.287 C 
ATOM     19  C   UNL A   1      32.572  20.331  23.943  1.00  0.00     0.037 C 
ATOM     20  C   UNL A   1      36.493  23.952  26.128  1.00  0.00     0.067 C 
ATOM     21  N   UNL A   1      35.830  21.633  25.569  1.00  0.00    -0.329 N 
ATOM     22  C   UNL A   1      37.931  23.671  25.703  1.00  0.00     0.012 C 
ATOM     23  C   UNL A   1      37.196  21.321  25.117  1.00  0.00     0.262 C 
ATOM     24  H   UNL A   1      35.761  21.450  26.570  1.00  0.00     0.348 HD
ATOM     25  C   UNL A   1      38.245  22.183  25.821  1.00  0.00     0.062 C 
ENDBRANCH  11  14
ENDBRANCH   9  10
ENDBRANCH   7   9
ENDBRANCH   5   7
ENDBRANCH   4   5
ENDBRANCH   3   4
ENDBRANCH   2   3
ENDBRANCH   1   2
BRANCH   1  26
ATOM     26  C   UNL A   1      32.238  27.622  25.791  1.00  0.00     0.202 C 
BRANCH  26  27
ATOM     27  C   UNL A   1      32.330  28.437  27.092  1.00  0.00     0.261 C 
BRANCH  27  28
ATOM     28  O   UNL A   1      33.670  28.526  27.610  1.00  0.00    -0.460 OA
BRANCH  28  29
ATOM     29  C   UNL A   1      34.178  29.783  27.647  1.00  0.00     0.338 C 
ATOM     30  O   UNL A   1      33.559  30.829  27.486  1.00  0.00    -0.246 OA
BRANCH  29  31
ATOM     31  C   UNL A   1      35.582  29.768  28.097  1.00  0.00     0.060 A 
ATOM     32  C   UNL A   1      36.570  30.024  27.137  1.00  0.00     0.016 A 
ATOM     33  C   UNL A   1      35.937  29.415  29.401  1.00  0.00     0.016 A 
ATOM     34  C   UNL A   1      37.917  29.885  27.465  1.00  0.00     0.010 A 
ATOM     35  C   UNL A   1      37.292  29.266  29.724  1.00  0.00     0.010 A 
ATOM     36  C   UNL A   1      38.288  29.466  28.750  1.00  0.00    -0.014 A 
BRANCH  36  37
ATOM     37  C   UNL A   1      39.703  29.106  29.018  1.00  0.00     0.031 A 
ATOM     38  C   UNL A   1      40.616  30.131  29.638  1.00  0.00     0.074 A 
ATOM     39  C   UNL A   1      40.161  27.868  28.756  1.00  0.00     0.049 A 
ATOM     40  N   UNL A   1      41.884  30.035  29.944  1.00  0.00    -0.248 NA
ATOM     41  C   UNL A   1      40.018  31.438  29.957  1.00  0.00     0.031 C 
ATOM     42  C   UNL A   1      39.367  26.776  28.194  1.00  0.00     0.029 A 
ATOM     43  N   UNL A   1      41.409  27.323  28.925  1.00  0.00    -0.354 N 
ATOM     44  C   UNL A   1      42.238  31.265  30.486  1.00  0.00     0.074 A 
ATOM     45  C   UNL A   1      41.057  32.101  30.444  1.00  0.00     0.031 C 
ATOM     46  C   UNL A   1      40.152  25.693  28.053  1.00  0.00     0.029 A 
ATOM     47  C   UNL A   1      41.508  26.024  28.489  1.00  0.00     0.049 A 
ATOM     48  H   UNL A   1      42.162  27.816  29.323  1.00  0.00     0.167 HD
ATOM     49  C   UNL A   1      43.435  31.659  30.981  1.00  0.00     0.037 A 
ATOM     50  C   UNL A   1      42.575  25.202  28.427  1.00  0.00     0.037 A 
ATOM     51  C   UNL A   1      44.608  30.825  31.027  1.00  0.00     0.049 A 
ATOM     52  C   UNL A   1      43.913  25.683  28.928  1.00  0.00     0.074 A 
ATOM     53  C   UNL A   1      45.862  31.130  31.528  1.00  0.00     0.029 A 
ATOM     54  N   UNL A   1      44.674  29.525  30.551  1.00  0.00    -0.354 N 
ATOM     55  N   UNL A   1      44.226  26.842  29.458  1.00  0.00    -0.248 NA
ATOM     56  C   UNL A   1      45.041  24.746  28.825  1.00  0.00     0.031 C 
ATOM     57  C   UNL A   1      46.699  30.030  31.314  1.00  0.00     0.029 A 
ATOM     58  C   UNL A   1      45.953  29.021  30.724  1.00  0.00     0.049 A 
ATOM     59  H   UNL A   1      43.924  29.032  30.148  1.00  0.00     0.167 HD
ATOM     60  C   UNL A   1      45.578  26.762  29.778  1.00  0.00     0.074 A 
ATOM     61  C   UNL A   1      46.021  25.439  29.390  1.00  0.00     0.031 C 
ATOM     62  C   UNL A   1      46.380  27.698  30.343  1.00  0.00     0.037 A 
BRANCH  49  63
ATOM     63  C   UNL A   1      43.548  33.067  31.498  1.00  0.00     0.058 A 
ATOM     64  C   UNL A   1      43.402  33.366  32.862  1.00  0.00     0.135 A 
ATOM     65  C   UNL A   1      43.855  34.123  30.624  1.00  0.00     0.135 A 
ATOM     66  F   UNL A   1      43.091  32.398  33.738  1.00  0.00    -0.206 F 
ATOM     67  C   UNL A   1      43.536  34.667  33.338  1.00  0.00     0.059 A 
ATOM     68  C   UNL A   1      44.018  35.427  31.082  1.00  0.00     0.059 A 
ATOM     69  F   UNL A   1      44.003  33.891  29.310  1.00  0.00    -0.206 F 
ATOM     70  C   UNL A   1      43.846  35.691  32.440  1.00  0.00     0.060 A 
BRANCH  70  71
ATOM     71  S   UNL A   1      44.033  37.371  33.076  1.00  0.00     0.124 S 
ATOM     72  O   UNL A   1      42.876  37.477  33.959  1.00  0.00    -0.237 OA
ATOM     73  O   UNL A   1      45.332  37.311  33.738  1.00  0.00    -0.237 OA
ATOM     74  O   UNL A   1      43.982  38.197  31.874  1.00  0.00    -0.744 OA
ENDBRANCH  70  71
ENDBRANCH  49  63
BRANCH  50  75
ATOM     75  C   UNL A   1      42.431  23.837  27.853  1.00  0.00     0.058 A 
ATOM     76  C   UNL A   1      42.316  23.637  26.470  1.00  0.00     0.135 A 
ATOM     77  C   UNL A   1      42.396  22.704  28.682  1.00  0.00     0.135 A 
ATOM     78  F   UNL A   1      42.333  24.688  25.637  1.00  0.00    -0.206 F 
ATOM     79  C   UNL A   1      42.155  22.365  25.928  1.00  0.00     0.059 A 
ATOM     80  C   UNL A   1      42.260  21.421  28.163  1.00  0.00     0.059 A 
ATOM     81  F   UNL A   1      42.511  22.840  30.012  1.00  0.00    -0.206 F 
ATOM     82  C   UNL A   1      42.128  21.262  26.784  1.00  0.00     0.060 A 
BRANCH  82  83
ATOM     83  S   UNL A   1      41.961  19.612  26.069  1.00  0.00     0.124 S 
ATOM     84  O   UNL A   1      42.424  18.769  27.165  1.00  0.00    -0.237 OA
ATOM     85  O   UNL A   1      40.533  19.549  25.773  1.00  0.00    -0.237 OA
ATOM     86  O   UNL A   1      42.833  19.665  24.899  1.00  0.00    -0.744 OA
ENDBRANCH  82  83
ENDBRANCH  50  75
BRANCH  62  87
ATOM     87  C   UNL A   1      47.809  27.318  30.618  1.00  0.00     0.058 A 
ATOM     88  C   UNL A   1      48.186  26.667  31.803  1.00  0.00     0.135 A 
ATOM     89  C   UNL A   1      48.805  27.559  29.657  1.00  0.00     0.135 A 
ATOM     90  F   UNL A   1      47.274  26.417  32.756  1.00  0.00    -0.206 F 
ATOM     91  C   UNL A   1      49.504  26.287  32.035  1.00  0.00     0.059 A 
ATOM     92  C   UNL A   1      50.125  27.164  29.857  1.00  0.00     0.059 A 
ATOM     93  F   UNL A   1      48.496  28.168  28.501  1.00  0.00    -0.206 F 
ATOM     94  C   UNL A   1      50.467  26.539  31.055  1.00  0.00     0.060 A 
BRANCH  94  95
ATOM     95  S   UNL A   1      52.167  26.009  31.352  1.00  0.00     0.124 S 
ATOM     96  O   UNL A   1      51.974  24.624  31.769  1.00  0.00    -0.237 OA
ATOM     97  O   UNL A   1      52.789  26.196  30.045  1.00  0.00    -0.237 OA
ATOM     98  O   UNL A   1      52.630  26.921  32.395  1.00  0.00    -0.744 OA
ENDBRANCH  94  95
ENDBRANCH  62  87
ENDBRANCH  36  37
ENDBRANCH  29  31
ENDBRANCH  28  29
ENDBRANCH  27  28
ENDBRANCH  26  27
ENDBRANCH   1  26
TORSDOF 20
ENDMDL
MODEL 3
REMARK VINA RESULT:     -10.2      2.582      8.384
REMARK SMILES C[C@H](CNC(=O)N1C[C@H]2CCCC[N@@H+]2C[C@@H]1C)C(=O)OCCOCCOC(=O)c1ccc(-c2c3nc(c(-c4c(F)cc(S(=O)(=O)[O-])cc4F)c4ccc([nH]4)c(-c4c(F)cc(S(=O)(=O)[O-])cc4F)c4nc(c(-c5c(F)cc(S(=O)(=O)[O-])cc5F)c5ccc2[nH]5)C=C4)C=C3)cc1
REMARK SMILES IDX 23 1 22 2 21 3 20 4 18 5 19 6 2 7 1 8 3 9 4 10 5 11 6 13
REMARK SMILES IDX 7 14 8 15 16 16 9 17 15 18 17 19 10 20 14 21 11 22 13 23
REMARK SMILES IDX 12 25 24 26 25 27 26 28 27 29 28 30 29 31 30 32 94 33 31 34
REMARK SMILES IDX 93 35 32 36 33 37 34 38 87 39 35 40 92 41 86 42 88 43 36 44
REMARK SMILES IDX 91 45 85 46 84 47 37 49 71 50 50 51 70 52 51 53 54 54 69 55
REMARK SMILES IDX 89 56 52 57 53 58 68 60 90 61 55 62 38 63 39 64 48 65 40 66
REMARK SMILES IDX 41 67 47 68 49 69 42 70 43 71 44 72 45 73 46 74 72 75 73 76
REMARK SMILES IDX 82 77 74 78 75 79 81 80 83 81 76 82 77 83 78 84 79 85 80 86
REMARK SMILES IDX 56 87 57 88 66 89 58 90 59 91 65 92 67 93 60 94 61 95 62 96
REMARK SMILES IDX 63 97 64 98
REMARK H PARENT 4 12 14 24 88 48 54 59
REMARK Flexibility Score: inf
ROOT
ATOM      1  O   UNL A   1      31.539  28.817  27.411  1.00  0.00    -0.374 OA
ENDROOT
BRANCH   1   2
ATOM      2  C   UNL A   1      31.595  27.503  26.858  1.00  0.00     0.202 C 
BRANCH   2   3
ATOM      3  C   UNL A   1      31.658  27.397  25.332  1.00  0.00     0.261 C 
BRANCH   3   4
ATOM      4  O   UNL A   1      32.841  26.701  24.897  1.00  0.00    -0.463 OA
BRANCH   4   5
ATOM      5  C   UNL A   1      33.308  27.043  23.671  1.00  0.00     0.310 C 
ATOM      6  O   UNL A   1      33.835  28.115  23.394  1.00  0.00    -0.252 OA
BRANCH   5   7
ATOM      7  C   UNL A   1      33.149  25.942  22.637  1.00  0.00     0.115 C 
ATOM      8  C   UNL A   1      31.918  26.201  21.781  1.00  0.00     0.022 C 
BRANCH   7   9
ATOM      9  C   UNL A   1      33.333  24.511  23.169  1.00  0.00     0.132 C 
BRANCH   9  10
ATOM     10  N   UNL A   1      32.353  24.023  24.122  1.00  0.00    -0.337 N 
ATOM     11  C   UNL A   1      32.465  23.097  25.112  1.00  0.00     0.318 C 
ATOM     12  H   UNL A   1      31.460  24.428  24.036  1.00  0.00     0.165 HD
ATOM     13  O   UNL A   1      31.444  22.695  25.660  1.00  0.00    -0.249 OA
BRANCH  11  14
ATOM     14  N   UNL A   1      33.716  22.605  25.383  1.00  0.00    -0.311 N 
ATOM     15  C   UNL A   1      34.612  23.369  26.254  1.00  0.00     0.186 C 
ATOM     16  C   UNL A   1      33.976  21.156  25.432  1.00  0.00     0.139 C 
ATOM     17  C   UNL A   1      36.064  23.167  25.795  1.00  0.00     0.203 C 
ATOM     18  C   UNL A   1      35.498  20.869  25.210  1.00  0.00     0.287 C 
ATOM     19  C   UNL A   1      33.202  20.348  24.380  1.00  0.00     0.037 C 
ATOM     20  C   UNL A   1      37.020  24.062  26.590  1.00  0.00     0.067 C 
ATOM     21  N   UNL A   1      36.458  21.744  25.930  1.00  0.00    -0.329 N 
ATOM     22  C   UNL A   1      38.450  23.887  26.086  1.00  0.00     0.012 C 
ATOM     23  C   UNL A   1      37.816  21.534  25.401  1.00  0.00     0.262 C 
ATOM     24  H   UNL A   1      36.447  21.503  26.921  1.00  0.00     0.348 HD
ATOM     25  C   UNL A   1      38.849  22.415  26.105  1.00  0.00     0.062 C 
ENDBRANCH  11  14
ENDBRANCH   9  10
ENDBRANCH   7   9
ENDBRANCH   5   7
ENDBRANCH   4   5
ENDBRANCH   3   4
ENDBRANCH   2   3
ENDBRANCH   1   2
BRANCH   1  26
ATOM     26  C   UNL A   1      31.977  29.901  26.595  1.00  0.00     0.202 C 
BRANCH  26  27
ATOM     27  C   UNL A   1      33.469  30.268  26.658  1.00  0.00     0.261 C 
BRANCH  27  28
ATOM     28  O   UNL A   1      34.149  29.680  27.783  1.00  0.00    -0.460 OA
BRANCH  28  29
ATOM     29  C   UNL A   1      34.994  30.519  28.432  1.00  0.00     0.338 C 
ATOM     30  O   UNL A   1      34.691  31.543  29.035  1.00  0.00    -0.246 OA
BRANCH  29  31
ATOM     31  C   UNL A   1      36.353  29.950  28.494  1.00  0.00     0.060 A 
ATOM     32  C   UNL A   1      36.807  29.497  29.739  1.00  0.00     0.016 A 
ATOM     33  C   UNL A   1      37.205  29.949  27.387  1.00  0.00     0.016 A 
ATOM     34  C   UNL A   1      38.128  29.082  29.895  1.00  0.00     0.010 A 
ATOM     35  C   UNL A   1      38.535  29.541  27.549  1.00  0.00     0.010 A 
ATOM     36  C   UNL A   1      39.013  29.138  28.811  1.00  0.00    -0.014 A 
BRANCH  36  37
ATOM     37  C   UNL A   1      40.462  28.909  29.042  1.00  0.00     0.031 A 
ATOM     38  C   UNL A   1      41.059  27.572  28.689  1.00  0.00     0.074 A 
ATOM     39  C   UNL A   1      41.247  29.892  29.518  1.00  0.00     0.049 A 
ATOM     40  N   UNL A   1      42.292  27.154  28.820  1.00  0.00    -0.248 NA
ATOM     41  C   UNL A   1      40.145  26.575  28.109  1.00  0.00     0.031 C 
ATOM     42  C   UNL A   1      40.798  31.241  29.860  1.00  0.00     0.029 A 
ATOM     43  N   UNL A   1      42.590  29.905  29.800  1.00  0.00    -0.354 N 
ATOM     44  C   UNL A   1      42.302  25.848  28.345  1.00  0.00     0.074 A 
ATOM     45  C   UNL A   1      40.947  25.533  27.946  1.00  0.00     0.031 C 
ATOM     46  C   UNL A   1      41.845  31.948  30.318  1.00  0.00     0.029 A 
ATOM     47  C   UNL A   1      43.033  31.095  30.328  1.00  0.00     0.049 A 
ATOM     48  H   UNL A   1      43.182  29.135  29.639  1.00  0.00     0.167 HD
ATOM     49  C   UNL A   1      43.346  24.992  28.242  1.00  0.00     0.037 A 
ATOM     50  C   UNL A   1      44.250  31.448  30.786  1.00  0.00     0.037 A 
ATOM     51  C   UNL A   1      44.695  25.309  28.635  1.00  0.00     0.049 A 
ATOM     52  C   UNL A   1      45.385  30.458  30.719  1.00  0.00     0.074 A 
ATOM     53  C   UNL A   1      45.826  24.513  28.552  1.00  0.00     0.029 A 
ATOM     54  N   UNL A   1      45.097  26.514  29.190  1.00  0.00    -0.354 N 
ATOM     55  N   UNL A   1      45.383  29.234  30.247  1.00  0.00    -0.248 NA
ATOM     56  C   UNL A   1      46.686  30.897  31.244  1.00  0.00     0.031 C 
ATOM     57  C   UNL A   1      46.901  25.221  29.097  1.00  0.00     0.029 A 
ATOM     58  C   UNL A   1      46.452  26.477  29.475  1.00  0.00     0.049 A 
ATOM     59  H   UNL A   1      44.506  27.284  29.357  1.00  0.00     0.167 HD
ATOM     60  C   UNL A   1      46.687  28.767  30.391  1.00  0.00     0.074 A 
ATOM     61  C   UNL A   1      47.451  29.844  30.986  1.00  0.00     0.031 C 
ATOM     62  C   UNL A   1      47.205  27.559  30.058  1.00  0.00     0.037 A 
BRANCH  49  63
ATOM     63  C   UNL A   1      43.072  23.616  27.701  1.00  0.00     0.058 A 
ATOM     64  C   UNL A   1      42.675  22.561  28.538  1.00  0.00     0.135 A 
ATOM     65  C   UNL A   1      43.160  23.363  26.323  1.00  0.00     0.135 A 
ATOM     66  F   UNL A   1      42.591  22.743  29.865  1.00  0.00    -0.206 F 
ATOM     67  C   UNL A   1      42.393  21.297  28.027  1.00  0.00     0.059 A 
ATOM     68  C   UNL A   1      42.860  22.114  25.788  1.00  0.00     0.059 A 
ATOM     69  F   UNL A   1      43.537  24.338  25.480  1.00  0.00    -0.206 F 
ATOM     70  C   UNL A   1      42.488  21.084  26.650  1.00  0.00     0.060 A 
BRANCH  70  71
ATOM     71  S   UNL A   1      42.105  19.442  26.002  1.00  0.00     0.124 S 
ATOM     72  O   UNL A   1      42.542  18.587  27.100  1.00  0.00    -0.237 OA
ATOM     73  O   UNL A   1      40.661  19.518  25.794  1.00  0.00    -0.237 OA
ATOM     74  O   UNL A   1      42.906  19.361  24.786  1.00  0.00    -0.744 OA
ENDBRANCH  70  71
ENDBRANCH  49  63
BRANCH  50  75
ATOM     75  C   UNL A   1      44.463  32.800  31.368  1.00  0.00     0.058 A 
ATOM     76  C   UNL A   1      44.869  33.880  30.571  1.00  0.00     0.135 A 
ATOM     77  C   UNL A   1      44.273  33.036  32.740  1.00  0.00     0.135 A 
ATOM     78  F   UNL A   1      45.075  33.704  29.258  1.00  0.00    -0.206 F 
ATOM     79  C   UNL A   1      45.096  35.142  31.114  1.00  0.00     0.059 A 
ATOM     80  C   UNL A   1      44.469  34.293  33.301  1.00  0.00     0.059 A 
ATOM     81  F   UNL A   1      43.875  32.037  33.544  1.00  0.00    -0.206 F 
ATOM     82  C   UNL A   1      44.892  35.339  32.481  1.00  0.00     0.060 A 
BRANCH  82  83
ATOM     83  S   UNL A   1      45.148  36.988  33.169  1.00  0.00     0.124 S 
ATOM     84  O   UNL A   1      44.960  36.745  34.594  1.00  0.00    -0.237 OA
ATOM     85  O   UNL A   1      46.513  37.289  32.747  1.00  0.00    -0.237 OA
ATOM     86  O   UNL A   1      44.111  37.785  32.520  1.00  0.00    -0.744 OA
ENDBRANCH  82  83
ENDBRANCH  50  75
BRANCH  62  87
ATOM     87  C   UNL A   1      48.675  27.343  30.290  1.00  0.00     0.058 A 
ATOM     88  C   UNL A   1      49.163  26.812  31.494  1.00  0.00     0.135 A 
ATOM     89  C   UNL A   1      49.602  27.619  29.271  1.00  0.00     0.135 A 
ATOM     90  F   UNL A   1      48.321  26.535  32.501  1.00  0.00    -0.206 F 
ATOM     91  C   UNL A   1      50.522  26.581  31.688  1.00  0.00     0.059 A 
ATOM     92  C   UNL A   1      50.962  27.372  29.434  1.00  0.00     0.059 A 
ATOM     93  F   UNL A   1      49.187  28.117  28.095  1.00  0.00    -0.206 F 
ATOM     94  C   UNL A   1      51.414  26.863  30.651  1.00  0.00     0.060 A 
BRANCH  94  95
ATOM     95  S   UNL A   1      53.170  26.527  30.901  1.00  0.00     0.124 S 
ATOM     96  O   UNL A   1      53.124  25.314  31.711  1.00  0.00    -0.237 OA
ATOM     97  O   UNL A   1      53.657  26.358  29.536  1.00  0.00    -0.237 OA
ATOM     98  O   UNL A   1      53.651  27.722  31.587  1.00  0.00    -0.744 OA
ENDBRANCH  94  95
ENDBRANCH  62  87
ENDBRANCH  36  37
ENDBRANCH  29  31
ENDBRANCH  28  29
ENDBRANCH  27  28
ENDBRANCH  26  27
ENDBRANCH   1  26
TORSDOF 20
ENDMDL
