MODEL 1
REMARK VINA RESULT:     -10.8      0.000      0.000
REMARK SMILES CC[C@@H]1CCC[C@@](CC[NH+]2CCOCC2)(C(=O)OCCOCCOC(=O)c2ccc(-c3c4nc(c(-c5c(F)cc(S(=O)(=O)[O-])cc5F)c5ccc([nH]5)c(-c5c(F)cc(S(=O)(=O)[O-])cc5F)c5nc(c(-c6c(F)cc(S(=O)(=O)[O-])cc6F)c6ccc3[nH]6)C=C5)C=C4)cc2)C1
REMARK SMILES IDX 21 1 20 2 19 3 18 4 16 5 17 6 7 7 3 8 4 9 93 10 5 11 6 12
REMARK SMILES IDX 2 13 1 14 8 15 9 16 10 17 11 18 15 19 12 21 14 22 13 23
REMARK SMILES IDX 22 24 23 25 24 26 25 27 26 28 27 29 28 30 92 31 29 32 91 33
REMARK SMILES IDX 30 34 31 35 32 36 85 37 33 38 90 39 84 40 86 41 34 42 89 43
REMARK SMILES IDX 83 44 82 45 35 47 69 48 48 49 68 50 49 51 52 52 67 53 87 54
REMARK SMILES IDX 50 55 51 56 66 58 88 59 53 60 36 61 37 62 46 63 38 64 39 65
REMARK SMILES IDX 45 66 47 67 40 68 41 69 42 70 43 71 44 72 70 73 71 74 80 75
REMARK SMILES IDX 72 76 73 77 79 78 81 79 74 80 75 81 76 82 77 83 78 84 54 85
REMARK SMILES IDX 55 86 64 87 56 88 57 89 63 90 65 91 58 92 59 93 60 94 61 95
REMARK SMILES IDX 62 96
REMARK H PARENT 10 20 86 46 52 57
REMARK Flexibility Score: inf
ROOT
ATOM      1  O   UNL A   1      39.398  22.796  26.278  1.00  0.00    -0.374 OA
ENDROOT
BRANCH   1   2
ATOM      2  C   UNL A   1      38.193  22.176  25.825  1.00  0.00     0.202 C 
BRANCH   2   3
ATOM      3  C   UNL A   1      37.039  23.149  25.596  1.00  0.00     0.261 C 
BRANCH   3   4
ATOM      4  O   UNL A   1      35.760  22.498  25.808  1.00  0.00    -0.463 OA
BRANCH   4   5
ATOM      5  C   UNL A   1      35.014  22.443  24.681  1.00  0.00     0.312 C 
ATOM      6  O   UNL A   1      35.505  22.534  23.555  1.00  0.00    -0.252 OA
BRANCH   5   7
ATOM      7  C   UNL A   1      33.503  22.245  24.889  1.00  0.00     0.074 C 
ATOM      8  C   UNL A   1      33.175  24.799  24.849  1.00  0.00    -0.010 C 
ATOM      9  C   UNL A   1      32.118  24.709  23.743  1.00  0.00     0.003 C 
ATOM     10  C   UNL A   1      33.123  23.518  25.737  1.00  0.00     0.022 C 
ATOM     11  C   UNL A   1      32.311  23.462  22.901  1.00  0.00     0.001 C 
ATOM     12  C   UNL A   1      32.471  22.209  23.738  1.00  0.00     0.019 C 
BRANCH   8  13
ATOM     13  C   UNL A   1      33.000  26.113  25.626  1.00  0.00     0.000 C 
ATOM     14  C   UNL A   1      31.706  26.142  26.426  1.00  0.00     0.004 C 
ENDBRANCH   8  13
BRANCH   7  15
ATOM     15  C   UNL A   1      33.389  20.886  25.679  1.00  0.00     0.080 C 
BRANCH  15  16
ATOM     16  C   UNL A   1      33.741  19.550  24.936  1.00  0.00     0.263 C 
BRANCH  16  17
ATOM     17  N   UNL A   1      32.773  18.479  24.657  1.00  0.00    -0.331 N 
ATOM     18  C   UNL A   1      32.608  17.349  25.570  1.00  0.00     0.291 C 
ATOM     19  C   UNL A   1      32.938  17.917  23.291  1.00  0.00     0.291 C 
ATOM     20  H   UNL A   1      31.924  19.027  24.794  1.00  0.00     0.348 HD
ATOM     21  C   UNL A   1      33.652  16.225  25.442  1.00  0.00     0.221 C 
ATOM     22  C   UNL A   1      34.030  16.832  23.199  1.00  0.00     0.221 C 
ATOM     23  O   UNL A   1      33.767  15.753  24.100  1.00  0.00    -0.370 OA
ENDBRANCH  16  17
ENDBRANCH  15  16
ENDBRANCH   7  15
ENDBRANCH   5   7
ENDBRANCH   4   5
ENDBRANCH   3   4
ENDBRANCH   2   3
ENDBRANCH   1   2
BRANCH   1  24
ATOM     24  C   UNL A   1      40.473  21.920  26.603  1.00  0.00     0.202 C 
BRANCH  24  25
ATOM     25  C   UNL A   1      41.886  22.491  26.424  1.00  0.00     0.261 C 
BRANCH  25  26
ATOM     26  O   UNL A   1      42.225  23.555  27.334  1.00  0.00    -0.460 OA
BRANCH  26  27
ATOM     27  C   UNL A   1      42.248  24.777  26.748  1.00  0.00     0.338 C 
ATOM     28  O   UNL A   1      42.688  25.035  25.630  1.00  0.00    -0.246 OA
BRANCH  27  29
ATOM     29  C   UNL A   1      41.600  25.821  27.564  1.00  0.00     0.060 A 
ATOM     30  C   UNL A   1      42.351  26.972  27.823  1.00  0.00     0.016 A 
ATOM     31  C   UNL A   1      40.377  25.621  28.212  1.00  0.00     0.016 A 
ATOM     32  C   UNL A   1      41.926  27.882  28.789  1.00  0.00     0.010 A 
ATOM     33  C   UNL A   1      39.945  26.550  29.176  1.00  0.00     0.010 A 
ATOM     34  C   UNL A   1      40.743  27.659  29.510  1.00  0.00    -0.014 A 
BRANCH  34  35
ATOM     35  C   UNL A   1      40.459  28.530  30.687  1.00  0.00     0.031 A 
ATOM     36  C   UNL A   1      41.330  28.438  31.918  1.00  0.00     0.074 A 
ATOM     37  C   UNL A   1      39.519  29.494  30.611  1.00  0.00     0.049 A 
ATOM     38  N   UNL A   1      41.343  29.200  32.984  1.00  0.00    -0.248 NA
ATOM     39  C   UNL A   1      42.319  27.349  31.953  1.00  0.00     0.031 C 
ATOM     40  C   UNL A   1      38.618  29.705  29.478  1.00  0.00     0.029 A 
ATOM     41  N   UNL A   1      39.186  30.492  31.495  1.00  0.00    -0.354 N 
ATOM     42  C   UNL A   1      42.349  28.697  33.803  1.00  0.00     0.074 A 
ATOM     43  C   UNL A   1      42.887  27.532  33.137  1.00  0.00     0.031 C 
ATOM     44  C   UNL A   1      37.852  30.784  29.724  1.00  0.00     0.029 A 
ATOM     45  C   UNL A   1      38.194  31.329  31.037  1.00  0.00     0.049 A 
ATOM     46  H   UNL A   1      39.616  30.599  32.373  1.00  0.00     0.167 HD
ATOM     47  C   UNL A   1      42.804  29.173  34.988  1.00  0.00     0.037 A 
ATOM     48  C   UNL A   1      37.629  32.413  31.606  1.00  0.00     0.037 A 
ATOM     49  C   UNL A   1      42.278  30.336  35.658  1.00  0.00     0.049 A 
ATOM     50  C   UNL A   1      38.125  32.893  32.947  1.00  0.00     0.074 A 
ATOM     51  C   UNL A   1      42.674  30.889  36.864  1.00  0.00     0.029 A 
ATOM     52  N   UNL A   1      41.247  31.130  35.179  1.00  0.00    -0.354 N 
ATOM     53  N   UNL A   1      39.094  32.417  33.692  1.00  0.00    -0.248 NA
ATOM     54  C   UNL A   1      37.456  34.073  33.517  1.00  0.00     0.031 C 
ATOM     55  C   UNL A   1      41.860  31.995  37.132  1.00  0.00     0.029 A 
ATOM     56  C   UNL A   1      40.987  32.160  36.071  1.00  0.00     0.049 A 
ATOM     57  H   UNL A   1      40.770  30.985  34.331  1.00  0.00     0.167 HD
ATOM     58  C   UNL A   1      39.169  33.257  34.801  1.00  0.00     0.074 A 
ATOM     59  C   UNL A   1      38.165  34.282  34.617  1.00  0.00     0.031 C 
ATOM     60  C   UNL A   1      39.991  33.182  35.877  1.00  0.00     0.037 A 
BRANCH  47  61
ATOM     61  C   UNL A   1      43.944  28.444  35.647  1.00  0.00     0.058 A 
ATOM     62  C   UNL A   1      45.279  28.813  35.416  1.00  0.00     0.135 A 
ATOM     63  C   UNL A   1      43.700  27.416  36.572  1.00  0.00     0.135 A 
ATOM     64  F   UNL A   1      45.569  29.778  34.529  1.00  0.00    -0.206 F 
ATOM     65  C   UNL A   1      46.332  28.185  36.074  1.00  0.00     0.059 A 
ATOM     66  C   UNL A   1      44.737  26.789  37.259  1.00  0.00     0.059 A 
ATOM     67  F   UNL A   1      42.443  27.022  36.828  1.00  0.00    -0.206 F 
ATOM     68  C   UNL A   1      46.051  27.177  36.997  1.00  0.00     0.060 A 
BRANCH  68  69
ATOM     69  S   UNL A   1      47.427  26.397  37.868  1.00  0.00     0.124 S 
ATOM     70  O   UNL A   1      46.914  25.046  38.073  1.00  0.00    -0.237 OA
ATOM     71  O   UNL A   1      48.516  26.521  36.904  1.00  0.00    -0.237 OA
ATOM     72  O   UNL A   1      47.568  27.204  39.076  1.00  0.00    -0.744 OA
ENDBRANCH  68  69
ENDBRANCH  47  61
BRANCH  48  73
ATOM     73  C   UNL A   1      36.517  33.131  30.924  1.00  0.00     0.058 A 
ATOM     74  C   UNL A   1      36.758  34.000  29.848  1.00  0.00     0.135 A 
ATOM     75  C   UNL A   1      35.195  33.009  31.378  1.00  0.00     0.135 A 
ATOM     76  F   UNL A   1      38.006  34.159  29.382  1.00  0.00    -0.206 F 
ATOM     77  C   UNL A   1      35.739  34.756  29.278  1.00  0.00     0.059 A 
ATOM     78  C   UNL A   1      34.153  33.730  30.804  1.00  0.00     0.059 A 
ATOM     79  F   UNL A   1      34.906  32.182  32.396  1.00  0.00    -0.206 F 
ATOM     80  C   UNL A   1      34.439  34.619  29.769  1.00  0.00     0.060 A 
BRANCH  80  81
ATOM     81  S   UNL A   1      33.119  35.607  29.032  1.00  0.00     0.124 S 
ATOM     82  O   UNL A   1      32.478  34.632  28.158  1.00  0.00    -0.237 OA
ATOM     83  O   UNL A   1      32.350  36.018  30.203  1.00  0.00    -0.237 OA
ATOM     84  O   UNL A   1      33.843  36.682  28.359  1.00  0.00    -0.744 OA
ENDBRANCH  80  81
ENDBRANCH  48  73
BRANCH  60  85
ATOM     85  C   UNL A   1      39.865  34.264  36.917  1.00  0.00     0.058 A 
ATOM     86  C   UNL A   1      39.052  34.109  38.053  1.00  0.00     0.135 A 
ATOM     87  C   UNL A   1      40.562  35.475  36.776  1.00  0.00     0.135 A 
ATOM     88  F   UNL A   1      38.363  32.972  38.238  1.00  0.00    -0.206 F 
ATOM     89  C   UNL A   1      38.893  35.134  38.980  1.00  0.00     0.059 A 
ATOM     90  C   UNL A   1      40.442  36.503  37.708  1.00  0.00     0.059 A 
ATOM     91  F   UNL A   1      41.368  35.673  35.720  1.00  0.00    -0.206 F 
ATOM     92  C   UNL A   1      39.584  36.331  38.793  1.00  0.00     0.060 A 
BRANCH  92  93
ATOM     93  S   UNL A   1      39.354  37.664  39.991  1.00  0.00     0.124 S 
ATOM     94  O   UNL A   1      40.619  38.382  39.876  1.00  0.00    -0.237 OA
ATOM     95  O   UNL A   1      38.181  38.358  39.468  1.00  0.00    -0.237 OA
ATOM     96  O   UNL A   1      39.146  36.955  41.250  1.00  0.00    -0.744 OA
ENDBRANCH  92  93
ENDBRANCH  60  85
ENDBRANCH  34  35
ENDBRANCH  27  29
ENDBRANCH  26  27
ENDBRANCH  25  26
ENDBRANCH  24  25
ENDBRANCH   1  24
TORSDOF 21
ENDMDL
MODEL 2
REMARK VINA RESULT:     -10.5      4.968      9.796
REMARK SMILES CC[C@@H]1CCC[C@@](CC[NH+]2CCOCC2)(C(=O)OCCOCCOC(=O)c2ccc(-c3c4nc(c(-c5c(F)cc(S(=O)(=O)[O-])cc5F)c5ccc([nH]5)c(-c5c(F)cc(S(=O)(=O)[O-])cc5F)c5nc(c(-c6c(F)cc(S(=O)(=O)[O-])cc6F)c6ccc3[nH]6)C=C5)C=C4)cc2)C1
REMARK SMILES IDX 21 1 20 2 19 3 18 4 16 5 17 6 7 7 3 8 4 9 93 10 5 11 6 12
REMARK SMILES IDX 2 13 1 14 8 15 9 16 10 17 11 18 15 19 12 21 14 22 13 23
REMARK SMILES IDX 22 24 23 25 24 26 25 27 26 28 27 29 28 30 92 31 29 32 91 33
REMARK SMILES IDX 30 34 31 35 32 36 85 37 33 38 90 39 84 40 86 41 34 42 89 43
REMARK SMILES IDX 83 44 82 45 35 47 69 48 48 49 68 50 49 51 52 52 67 53 87 54
REMARK SMILES IDX 50 55 51 56 66 58 88 59 53 60 36 61 37 62 46 63 38 64 39 65
REMARK SMILES IDX 45 66 47 67 40 68 41 69 42 70 43 71 44 72 70 73 71 74 80 75
REMARK SMILES IDX 72 76 73 77 79 78 81 79 74 80 75 81 76 82 77 83 78 84 54 85
REMARK SMILES IDX 55 86 64 87 56 88 57 89 63 90 65 91 58 92 59 93 60 94 61 95
REMARK SMILES IDX 62 96
REMARK H PARENT 10 20 86 46 52 57
REMARK Flexibility Score: inf
ROOT
ATOM      1  O   UNL A   1      33.490  27.076  25.205  1.00  0.00    -0.374 OA
ENDROOT
BRANCH   1   2
ATOM      2  C   UNL A   1      32.415  26.422  24.527  1.00  0.00     0.202 C 
BRANCH   2   3
ATOM      3  C   UNL A   1      32.862  25.457  23.432  1.00  0.00     0.261 C 
BRANCH   3   4
ATOM      4  O   UNL A   1      32.232  24.161  23.592  1.00  0.00    -0.463 OA
BRANCH   4   5
ATOM      5  C   UNL A   1      33.056  23.139  23.263  1.00  0.00     0.312 C 
ATOM      6  O   UNL A   1      33.556  23.025  22.143  1.00  0.00    -0.252 OA
BRANCH   5   7
ATOM      7  C   UNL A   1      33.345  22.127  24.384  1.00  0.00     0.074 C 
ATOM      8  C   UNL A   1      35.571  23.325  24.876  1.00  0.00    -0.010 C 
ATOM      9  C   UNL A   1      35.222  23.500  26.358  1.00  0.00     0.003 C 
ATOM     10  C   UNL A   1      34.916  22.020  24.328  1.00  0.00     0.022 C 
ATOM     11  C   UNL A   1      33.720  23.521  26.568  1.00  0.00     0.001 C 
ATOM     12  C   UNL A   1      33.014  22.374  25.874  1.00  0.00     0.019 C 
BRANCH   8  13
ATOM     13  C   UNL A   1      37.095  23.392  24.692  1.00  0.00     0.000 C 
ATOM     14  C   UNL A   1      37.807  23.872  25.949  1.00  0.00     0.004 C 
ENDBRANCH   8  13
BRANCH   7  15
ATOM     15  C   UNL A   1      32.593  20.817  23.935  1.00  0.00     0.080 C 
BRANCH  15  16
ATOM     16  C   UNL A   1      32.883  19.479  24.702  1.00  0.00     0.263 C 
BRANCH  16  17
ATOM     17  N   UNL A   1      32.310  18.176  24.338  1.00  0.00    -0.331 N 
ATOM     18  C   UNL A   1      32.323  17.052  25.273  1.00  0.00     0.291 C 
ATOM     19  C   UNL A   1      32.839  17.673  23.043  1.00  0.00     0.291 C 
ATOM     20  H   UNL A   1      31.331  18.462  24.317  1.00  0.00     0.348 HD
ATOM     21  C   UNL A   1      33.646  16.270  25.362  1.00  0.00     0.221 C 
ATOM     22  C   UNL A   1      34.191  16.941  23.172  1.00  0.00     0.221 C 
ATOM     23  O   UNL A   1      34.099  15.839  24.079  1.00  0.00    -0.370 OA
ENDBRANCH  16  17
ENDBRANCH  15  16
ENDBRANCH   7  15
ENDBRANCH   5   7
ENDBRANCH   4   5
ENDBRANCH   3   4
ENDBRANCH   2   3
ENDBRANCH   1   2
BRANCH   1  24
ATOM     24  C   UNL A   1      33.207  28.364  25.739  1.00  0.00     0.202 C 
BRANCH  24  25
ATOM     25  C   UNL A   1      34.127  28.843  26.870  1.00  0.00     0.261 C 
BRANCH  25  26
ATOM     26  O   UNL A   1      33.637  29.982  27.603  1.00  0.00    -0.460 OA
BRANCH  26  27
ATOM     27  C   UNL A   1      34.622  30.719  28.173  1.00  0.00     0.338 C 
ATOM     28  O   UNL A   1      34.500  31.844  28.649  1.00  0.00    -0.246 OA
BRANCH  27  29
ATOM     29  C   UNL A   1      35.907  29.999  28.255  1.00  0.00     0.060 A 
ATOM     30  C   UNL A   1      36.278  29.520  29.516  1.00  0.00     0.016 A 
ATOM     31  C   UNL A   1      36.813  29.947  27.191  1.00  0.00     0.016 A 
ATOM     32  C   UNL A   1      37.577  29.067  29.738  1.00  0.00     0.010 A 
ATOM     33  C   UNL A   1      38.119  29.475  27.416  1.00  0.00     0.010 A 
ATOM     34  C   UNL A   1      38.526  29.082  28.704  1.00  0.00    -0.014 A 
BRANCH  34  35
ATOM     35  C   UNL A   1      39.952  28.814  29.050  1.00  0.00     0.031 A 
ATOM     36  C   UNL A   1      40.569  27.477  28.712  1.00  0.00     0.074 A 
ATOM     37  C   UNL A   1      40.732  29.799  29.539  1.00  0.00     0.049 A 
ATOM     38  N   UNL A   1      41.821  27.096  28.796  1.00  0.00    -0.248 NA
ATOM     39  C   UNL A   1      39.663  26.433  28.208  1.00  0.00     0.031 C 
ATOM     40  C   UNL A   1      40.270  31.141  29.897  1.00  0.00     0.029 A 
ATOM     41  N   UNL A   1      42.082  29.831  29.791  1.00  0.00    -0.354 N 
ATOM     42  C   UNL A   1      41.853  25.782  28.339  1.00  0.00     0.074 A 
ATOM     43  C   UNL A   1      40.489  25.412  28.032  1.00  0.00     0.031 C 
ATOM     44  C   UNL A   1      41.325  31.874  30.297  1.00  0.00     0.029 A 
ATOM     45  C   UNL A   1      42.532  31.051  30.242  1.00  0.00     0.049 A 
ATOM     46  H   UNL A   1      42.673  29.055  29.661  1.00  0.00     0.167 HD
ATOM     47  C   UNL A   1      42.920  24.964  28.167  1.00  0.00     0.037 A 
ATOM     48  C   UNL A   1      43.774  31.461  30.570  1.00  0.00     0.037 A 
ATOM     49  C   UNL A   1      44.284  25.324  28.465  1.00  0.00     0.049 A 
ATOM     50  C   UNL A   1      44.937  30.514  30.409  1.00  0.00     0.074 A 
ATOM     51  C   UNL A   1      45.428  24.558  28.325  1.00  0.00     0.029 A 
ATOM     52  N   UNL A   1      44.690  26.555  28.958  1.00  0.00    -0.354 N 
ATOM     53  N   UNL A   1      44.948  29.284  29.952  1.00  0.00    -0.248 NA
ATOM     54  C   UNL A   1      46.263  31.020  30.797  1.00  0.00     0.031 C 
ATOM     55  C   UNL A   1      46.521  25.311  28.767  1.00  0.00     0.029 A 
ATOM     56  C   UNL A   1      46.065  26.563  29.139  1.00  0.00     0.049 A 
ATOM     57  H   UNL A   1      44.091  27.311  29.152  1.00  0.00     0.167 HD
ATOM     58  C   UNL A   1      46.282  28.884  29.970  1.00  0.00     0.074 A 
ATOM     59  C   UNL A   1      47.049  30.009  30.459  1.00  0.00     0.031 C 
ATOM     60  C   UNL A   1      46.823  27.691  29.618  1.00  0.00     0.037 A 
BRANCH  47  61
ATOM     61  C   UNL A   1      42.667  23.587  27.614  1.00  0.00     0.058 A 
ATOM     62  C   UNL A   1      42.733  23.329  26.235  1.00  0.00     0.135 A 
ATOM     63  C   UNL A   1      42.429  22.501  28.472  1.00  0.00     0.135 A 
ATOM     64  F   UNL A   1      42.942  24.333  25.369  1.00  0.00    -0.206 F 
ATOM     65  C   UNL A   1      42.565  22.045  25.727  1.00  0.00     0.059 A 
ATOM     66  C   UNL A   1      42.281  21.204  27.987  1.00  0.00     0.059 A 
ATOM     67  F   UNL A   1      42.354  22.692  29.799  1.00  0.00    -0.206 F 
ATOM     68  C   UNL A   1      42.344  20.987  26.610  1.00  0.00     0.060 A 
BRANCH  68  69
ATOM     69  S   UNL A   1      42.163  19.322  25.936  1.00  0.00     0.124 S 
ATOM     70  O   UNL A   1      42.659  18.506  27.039  1.00  0.00    -0.237 OA
ATOM     71  O   UNL A   1      40.728  19.242  25.684  1.00  0.00    -0.237 OA
ATOM     72  O   UNL A   1      43.006  19.344  24.744  1.00  0.00    -0.744 OA
ENDBRANCH  68  69
ENDBRANCH  47  61
BRANCH  48  73
ATOM     73  C   UNL A   1      44.002  32.836  31.093  1.00  0.00     0.058 A 
ATOM     74  C   UNL A   1      44.314  33.903  30.236  1.00  0.00     0.135 A 
ATOM     75  C   UNL A   1      43.975  33.095  32.472  1.00  0.00     0.135 A 
ATOM     76  F   UNL A   1      44.362  33.706  28.910  1.00  0.00    -0.206 F 
ATOM     77  C   UNL A   1      44.635  35.164  30.728  1.00  0.00     0.059 A 
ATOM     78  C   UNL A   1      44.261  34.356  32.987  1.00  0.00     0.059 A 
ATOM     79  F   UNL A   1      43.670  32.114  33.336  1.00  0.00    -0.206 F 
ATOM     80  C   UNL A   1      44.613  35.379  32.107  1.00  0.00     0.060 A 
BRANCH  80  81
ATOM     81  S   UNL A   1      45.036  37.015  32.743  1.00  0.00     0.124 S 
ATOM     82  O   UNL A   1      45.936  37.508  31.708  1.00  0.00    -0.237 OA
ATOM     83  O   UNL A   1      43.730  37.665  32.816  1.00  0.00    -0.237 OA
ATOM     84  O   UNL A   1      45.653  36.722  34.033  1.00  0.00    -0.744 OA
ENDBRANCH  80  81
ENDBRANCH  48  73
BRANCH  60  85
ATOM     85  C   UNL A   1      48.321  27.558  29.711  1.00  0.00     0.058 A 
ATOM     86  C   UNL A   1      49.163  27.897  28.640  1.00  0.00     0.135 A 
ATOM     87  C   UNL A   1      48.923  27.082  30.888  1.00  0.00     0.135 A 
ATOM     88  F   UNL A   1      48.641  28.358  27.492  1.00  0.00    -0.206 F 
ATOM     89  C   UNL A   1      50.540  27.717  28.710  1.00  0.00     0.059 A 
ATOM     90  C   UNL A   1      50.302  26.923  30.992  1.00  0.00     0.059 A 
ATOM     91  F   UNL A   1      48.169  26.759  31.951  1.00  0.00    -0.206 F 
ATOM     92  C   UNL A   1      51.100  27.220  29.888  1.00  0.00     0.060 A 
BRANCH  92  93
ATOM     93  S   UNL A   1      52.887  26.969  29.963  1.00  0.00     0.124 S 
ATOM     94  O   UNL A   1      53.011  26.087  31.118  1.00  0.00    -0.237 OA
ATOM     95  O   UNL A   1      53.175  26.362  28.667  1.00  0.00    -0.237 OA
ATOM     96  O   UNL A   1      53.411  28.320  30.145  1.00  0.00    -0.744 OA
ENDBRANCH  92  93
ENDBRANCH  60  85
ENDBRANCH  34  35
ENDBRANCH  27  29
ENDBRANCH  26  27
ENDBRANCH  25  26
ENDBRANCH  24  25
ENDBRANCH   1  24
TORSDOF 21
ENDMDL
MODEL 3
REMARK VINA RESULT:     -10.5      1.309      3.217
REMARK SMILES CC[C@@H]1CCC[C@@](CC[NH+]2CCOCC2)(C(=O)OCCOCCOC(=O)c2ccc(-c3c4nc(c(-c5c(F)cc(S(=O)(=O)[O-])cc5F)c5ccc([nH]5)c(-c5c(F)cc(S(=O)(=O)[O-])cc5F)c5nc(c(-c6c(F)cc(S(=O)(=O)[O-])cc6F)c6ccc3[nH]6)C=C5)C=C4)cc2)C1
REMARK SMILES IDX 21 1 20 2 19 3 18 4 16 5 17 6 7 7 3 8 4 9 93 10 5 11 6 12
REMARK SMILES IDX 2 13 1 14 8 15 9 16 10 17 11 18 15 19 12 21 14 22 13 23
REMARK SMILES IDX 22 24 23 25 24 26 25 27 26 28 27 29 28 30 92 31 29 32 91 33
REMARK SMILES IDX 30 34 31 35 32 36 85 37 33 38 90 39 84 40 86 41 34 42 89 43
REMARK SMILES IDX 83 44 82 45 35 47 69 48 48 49 68 50 49 51 52 52 67 53 87 54
REMARK SMILES IDX 50 55 51 56 66 58 88 59 53 60 36 61 37 62 46 63 38 64 39 65
REMARK SMILES IDX 45 66 47 67 40 68 41 69 42 70 43 71 44 72 70 73 71 74 80 75
REMARK SMILES IDX 72 76 73 77 79 78 81 79 74 80 75 81 76 82 77 83 78 84 54 85
REMARK SMILES IDX 55 86 64 87 56 88 57 89 63 90 65 91 58 92 59 93 60 94 61 95
REMARK SMILES IDX 62 96
REMARK H PARENT 10 20 86 46 52 57
REMARK Flexibility Score: inf
ROOT
ATOM      1  O   UNL A   1      39.797  22.296  26.791  1.00  0.00    -0.374 OA
ENDROOT
BRANCH   1   2
ATOM      2  C   UNL A   1      38.924  21.665  25.852  1.00  0.00     0.202 C 
BRANCH   2   3
ATOM      3  C   UNL A   1      37.842  22.584  25.290  1.00  0.00     0.261 C 
BRANCH   3   4
ATOM      4  O   UNL A   1      36.765  21.816  24.696  1.00  0.00    -0.463 OA
BRANCH   4   5
ATOM      5  C   UNL A   1      35.912  22.586  23.982  1.00  0.00     0.312 C 
ATOM      6  O   UNL A   1      36.101  22.861  22.797  1.00  0.00    -0.252 OA
BRANCH   5   7
ATOM      7  C   UNL A   1      34.673  23.092  24.741  1.00  0.00     0.074 C 
ATOM      8  C   UNL A   1      33.602  20.761  24.523  1.00  0.00    -0.010 C 
ATOM      9  C   UNL A   1      33.369  20.658  26.034  1.00  0.00     0.003 C 
ATOM     10  C   UNL A   1      33.519  22.253  24.075  1.00  0.00     0.022 C 
ATOM     11  C   UNL A   1      34.365  21.507  26.802  1.00  0.00     0.001 C 
ATOM     12  C   UNL A   1      34.467  22.920  26.264  1.00  0.00     0.019 C 
BRANCH   8  13
ATOM     13  C   UNL A   1      32.632  19.825  23.786  1.00  0.00     0.000 C 
ATOM     14  C   UNL A   1      32.457  18.495  24.503  1.00  0.00     0.004 C 
ENDBRANCH   8  13
BRANCH   7  15
ATOM     15  C   UNL A   1      34.618  24.634  24.420  1.00  0.00     0.080 C 
BRANCH  15  16
ATOM     16  C   UNL A   1      33.301  25.424  24.740  1.00  0.00     0.263 C 
BRANCH  16  17
ATOM     17  N   UNL A   1      32.499  26.136  23.734  1.00  0.00    -0.331 N 
ATOM     18  C   UNL A   1      31.538  27.168  24.120  1.00  0.00     0.291 C 
ATOM     19  C   UNL A   1      31.793  25.203  22.817  1.00  0.00     0.291 C 
ATOM     20  H   UNL A   1      33.260  26.663  23.305  1.00  0.00     0.348 HD
ATOM     21  C   UNL A   1      30.174  26.660  24.621  1.00  0.00     0.221 C 
ATOM     22  C   UNL A   1      30.457  24.678  23.381  1.00  0.00     0.221 C 
ATOM     23  O   UNL A   1      29.569  25.754  23.697  1.00  0.00    -0.370 OA
ENDBRANCH  16  17
ENDBRANCH  15  16
ENDBRANCH   7  15
ENDBRANCH   5   7
ENDBRANCH   4   5
ENDBRANCH   3   4
ENDBRANCH   2   3
ENDBRANCH   1   2
BRANCH   1  24
ATOM     24  C   UNL A   1      41.128  21.797  26.847  1.00  0.00     0.202 C 
BRANCH  24  25
ATOM     25  C   UNL A   1      42.211  22.693  26.231  1.00  0.00     0.261 C 
BRANCH  25  26
ATOM     26  O   UNL A   1      42.599  23.816  27.045  1.00  0.00    -0.460 OA
BRANCH  26  27
ATOM     27  C   UNL A   1      42.393  25.013  26.443  1.00  0.00     0.338 C 
ATOM     28  O   UNL A   1      42.689  25.302  25.287  1.00  0.00    -0.246 OA
BRANCH  27  29
ATOM     29  C   UNL A   1      41.677  25.975  27.302  1.00  0.00     0.060 A 
ATOM     30  C   UNL A   1      42.275  27.227  27.477  1.00  0.00     0.016 A 
ATOM     31  C   UNL A   1      40.558  25.621  28.062  1.00  0.00     0.016 A 
ATOM     32  C   UNL A   1      41.812  28.093  28.466  1.00  0.00     0.010 A 
ATOM     33  C   UNL A   1      40.084  26.503  29.050  1.00  0.00     0.010 A 
ATOM     34  C   UNL A   1      40.741  27.723  29.295  1.00  0.00    -0.014 A 
BRANCH  34  35
ATOM     35  C   UNL A   1      40.441  28.575  30.481  1.00  0.00     0.031 A 
ATOM     36  C   UNL A   1      41.303  28.472  31.718  1.00  0.00     0.074 A 
ATOM     37  C   UNL A   1      39.494  29.532  30.412  1.00  0.00     0.049 A 
ATOM     38  N   UNL A   1      41.301  29.219  32.796  1.00  0.00    -0.248 NA
ATOM     39  C   UNL A   1      42.300  27.390  31.746  1.00  0.00     0.031 C 
ATOM     40  C   UNL A   1      38.601  29.753  29.275  1.00  0.00     0.029 A 
ATOM     41  N   UNL A   1      39.147  30.515  31.307  1.00  0.00    -0.354 N 
ATOM     42  C   UNL A   1      42.304  28.712  33.615  1.00  0.00     0.074 A 
ATOM     43  C   UNL A   1      42.857  27.560  32.938  1.00  0.00     0.031 C 
ATOM     44  C   UNL A   1      37.825  30.822  29.529  1.00  0.00     0.029 A 
ATOM     45  C   UNL A   1      38.152  31.351  30.852  1.00  0.00     0.049 A 
ATOM     46  H   UNL A   1      39.569  30.613  32.190  1.00  0.00     0.167 HD
ATOM     47  C   UNL A   1      42.745  29.174  34.811  1.00  0.00     0.037 A 
ATOM     48  C   UNL A   1      37.574  32.422  31.432  1.00  0.00     0.037 A 
ATOM     49  C   UNL A   1      42.205  30.324  35.493  1.00  0.00     0.049 A 
ATOM     50  C   UNL A   1      38.055  32.887  32.784  1.00  0.00     0.074 A 
ATOM     51  C   UNL A   1      42.588  30.863  36.710  1.00  0.00     0.029 A 
ATOM     52  N   UNL A   1      41.172  31.117  35.016  1.00  0.00    -0.354 N 
ATOM     53  N   UNL A   1      39.022  32.407  33.530  1.00  0.00    -0.248 NA
ATOM     54  C   UNL A   1      37.372  34.053  33.365  1.00  0.00     0.031 C 
ATOM     55  C   UNL A   1      41.763  31.958  36.987  1.00  0.00     0.029 A 
ATOM     56  C   UNL A   1      40.897  32.131  35.921  1.00  0.00     0.049 A 
ATOM     57  H   UNL A   1      40.703  30.979  34.163  1.00  0.00     0.167 HD
ATOM     58  C   UNL A   1      39.081  33.232  34.652  1.00  0.00     0.074 A 
ATOM     59  C   UNL A   1      38.070  34.252  34.474  1.00  0.00     0.031 C 
ATOM     60  C   UNL A   1      39.895  33.149  35.733  1.00  0.00     0.037 A 
BRANCH  47  61
ATOM     61  C   UNL A   1      43.886  28.444  35.468  1.00  0.00     0.058 A 
ATOM     62  C   UNL A   1      43.657  27.399  36.378  1.00  0.00     0.135 A 
ATOM     63  C   UNL A   1      45.217  28.739  35.133  1.00  0.00     0.135 A 
ATOM     64  F   UNL A   1      42.405  27.085  36.746  1.00  0.00    -0.206 F 
ATOM     65  C   UNL A   1      44.708  26.678  36.937  1.00  0.00     0.059 A 
ATOM     66  C   UNL A   1      46.282  28.016  35.662  1.00  0.00     0.059 A 
ATOM     67  F   UNL A   1      45.492  29.730  34.270  1.00  0.00    -0.206 F 
ATOM     68  C   UNL A   1      46.017  26.990  36.570  1.00  0.00     0.060 A 
BRANCH  68  69
ATOM     69  S   UNL A   1      47.367  26.021  37.277  1.00  0.00     0.124 S 
ATOM     70  O   UNL A   1      46.732  25.462  38.466  1.00  0.00    -0.237 OA
ATOM     71  O   UNL A   1      47.661  25.071  36.209  1.00  0.00    -0.237 OA
ATOM     72  O   UNL A   1      48.405  27.016  37.529  1.00  0.00    -0.744 OA
ENDBRANCH  68  69
ENDBRANCH  47  61
BRANCH  48  73
ATOM     73  C   UNL A   1      36.462  33.141  30.751  1.00  0.00     0.058 A 
ATOM     74  C   UNL A   1      36.707  34.041  29.702  1.00  0.00     0.135 A 
ATOM     75  C   UNL A   1      35.135  32.989  31.182  1.00  0.00     0.135 A 
ATOM     76  F   UNL A   1      37.959  34.230  29.259  1.00  0.00    -0.206 F 
ATOM     77  C   UNL A   1      35.685  34.797  29.135  1.00  0.00     0.059 A 
ATOM     78  C   UNL A   1      34.091  33.709  30.609  1.00  0.00     0.059 A 
ATOM     79  F   UNL A   1      34.843  32.132  32.173  1.00  0.00    -0.206 F 
ATOM     80  C   UNL A   1      34.380  34.629  29.602  1.00  0.00     0.060 A 
BRANCH  80  81
ATOM     81  S   UNL A   1      33.057  35.616  28.869  1.00  0.00     0.124 S 
ATOM     82  O   UNL A   1      32.353  36.087  30.055  1.00  0.00    -0.237 OA
ATOM     83  O   UNL A   1      33.802  36.626  28.124  1.00  0.00    -0.237 OA
ATOM     84  O   UNL A   1      32.335  34.648  28.047  1.00  0.00    -0.744 OA
ENDBRANCH  80  81
ENDBRANCH  48  73
BRANCH  60  85
ATOM     85  C   UNL A   1      39.751  34.215  36.788  1.00  0.00     0.058 A 
ATOM     86  C   UNL A   1      40.369  35.470  36.661  1.00  0.00     0.135 A 
ATOM     87  C   UNL A   1      38.988  33.977  37.943  1.00  0.00     0.135 A 
ATOM     88  F   UNL A   1      41.110  35.751  35.577  1.00  0.00    -0.206 F 
ATOM     89  C   UNL A   1      40.282  36.429  37.665  1.00  0.00     0.059 A 
ATOM     90  C   UNL A   1      38.862  34.935  38.946  1.00  0.00     0.059 A 
ATOM     91  F   UNL A   1      38.360  32.803  38.110  1.00  0.00    -0.206 F 
ATOM     92  C   UNL A   1      39.533  36.148  38.809  1.00  0.00     0.060 A 
BRANCH  92  93
ATOM     93  S   UNL A   1      39.444  37.392  40.116  1.00  0.00     0.124 S 
ATOM     94  O   UNL A   1      38.908  36.611  41.226  1.00  0.00    -0.237 OA
ATOM     95  O   UNL A   1      40.835  37.811  40.248  1.00  0.00    -0.237 OA
ATOM     96  O   UNL A   1      38.542  38.399  39.564  1.00  0.00    -0.744 OA
ENDBRANCH  92  93
ENDBRANCH  60  85
ENDBRANCH  34  35
ENDBRANCH  27  29
ENDBRANCH  26  27
ENDBRANCH  25  26
ENDBRANCH  24  25
ENDBRANCH   1  24
TORSDOF 21
ENDMDL
