MODEL 1
REMARK VINA RESULT:     -11.1      0.000      0.000
REMARK SMILES Cc1oc2ccc(OCc3ccc(Br)cc3)cc2c1C(=O)OCCOCCOC(=O)c1ccc(-c2c3nc(c(-c4c(F)cc(S(=O)(=O)[O-])cc4F)c4ccc([nH]4)c(-c4c(F)cc(S(=O)(=O)[O-])cc4F)c4nc(c(-c5c(F)cc(S(=O)(=O)[O-])cc5F)c5ccc2[nH]5)C=C4)C=C3)cc1
REMARK SMILES IDX 25 1 24 2 23 3 22 4 20 5 21 6 19 7 1 8 2 9 3 10 4 11 18 12
REMARK SMILES IDX 5 13 17 14 6 15 7 16 8 17 9 18 10 19 11 20 16 21 12 22 15 23
REMARK SMILES IDX 13 24 14 25 26 26 27 27 28 28 29 29 30 30 31 31 32 32 96 33
REMARK SMILES IDX 33 34 95 35 34 36 35 37 36 38 89 39 37 40 94 41 88 42 90 43
REMARK SMILES IDX 38 44 93 45 87 46 86 47 39 49 73 50 52 51 72 52 53 53 56 54
REMARK SMILES IDX 71 55 91 56 54 57 55 58 70 60 92 61 57 62 40 63 41 64 50 65
REMARK SMILES IDX 42 66 43 67 49 68 51 69 44 70 45 71 46 72 47 73 48 74 74 75
REMARK SMILES IDX 75 76 84 77 76 78 77 79 83 80 85 81 78 82 79 83 80 84 81 85
REMARK SMILES IDX 82 86 58 87 59 88 68 89 60 90 61 91 67 92 69 93 62 94 63 95
REMARK SMILES IDX 64 96 65 97 66 98
REMARK H PARENT 90 48 56 59
REMARK Flexibility Score: inf
ROOT
ATOM      1  O   UNL A   1      39.591  22.564  26.158  1.00  0.00    -0.374 OA
ENDROOT
BRANCH   1   2
ATOM      2  C   UNL A   1      38.547  21.700  25.703  1.00  0.00     0.202 C 
BRANCH   2   3
ATOM      3  C   UNL A   1      37.129  22.237  25.916  1.00  0.00     0.261 C 
BRANCH   3   4
ATOM      4  O   UNL A   1      36.159  21.303  25.415  1.00  0.00    -0.460 OA
BRANCH   4   5
ATOM      5  C   UNL A   1      35.298  21.805  24.488  1.00  0.00     0.342 C 
ATOM      6  O   UNL A   1      35.646  22.379  23.462  1.00  0.00    -0.246 OA
BRANCH   5   7
ATOM      7  C   UNL A   1      33.906  21.519  24.776  1.00  0.00     0.109 A 
ATOM      8  C   UNL A   1      33.587  18.894  24.488  1.00  0.00     0.088 C 
ATOM      9  C   UNL A   1      33.244  20.298  24.807  1.00  0.00     0.116 A 
ATOM     10  O   UNL A   1      31.969  20.471  25.269  1.00  0.00    -0.460 OA
ATOM     11  C   UNL A   1      31.776  21.803  25.431  1.00  0.00     0.135 A 
ATOM     12  C   UNL A   1      32.903  22.505  25.045  1.00  0.00     0.039 A 
ATOM     13  C   UNL A   1      30.617  22.401  25.907  1.00  0.00     0.051 A 
ATOM     14  C   UNL A   1      32.828  23.914  24.996  1.00  0.00     0.059 A 
ATOM     15  C   UNL A   1      30.592  23.802  25.903  1.00  0.00     0.050 A 
ATOM     16  C   UNL A   1      31.644  24.559  25.384  1.00  0.00     0.120 A 
BRANCH  16  17
ATOM     17  O   UNL A   1      31.635  25.911  25.169  1.00  0.00    -0.489 OA
BRANCH  17  18
ATOM     18  C   UNL A   1      31.190  26.793  26.205  1.00  0.00     0.265 C 
BRANCH  18  19
ATOM     19  C   UNL A   1      32.163  27.907  26.541  1.00  0.00    -0.011 A 
ATOM     20  C   UNL A   1      33.548  27.692  26.456  1.00  0.00     0.008 A 
ATOM     21  C   UNL A   1      31.704  29.172  26.940  1.00  0.00     0.008 A 
ATOM     22  C   UNL A   1      34.454  28.686  26.827  1.00  0.00     0.016 A 
ATOM     23  C   UNL A   1      32.612  30.183  27.273  1.00  0.00     0.016 A 
ATOM     24  C   UNL A   1      33.982  29.930  27.232  1.00  0.00     0.017 A 
ATOM     25  Br  UNL A   1      35.212  31.278  27.723  1.00  0.00    -0.051 Br
ENDBRANCH  18  19
ENDBRANCH  17  18
ENDBRANCH  16  17
ENDBRANCH   5   7
ENDBRANCH   4   5
ENDBRANCH   3   4
ENDBRANCH   2   3
ENDBRANCH   1   2
BRANCH   1  26
ATOM     26  C   UNL A   1      40.571  21.982  27.022  1.00  0.00     0.202 C 
BRANCH  26  27
ATOM     27  C   UNL A   1      42.027  22.325  26.692  1.00  0.00     0.261 C 
BRANCH  27  28
ATOM     28  O   UNL A   1      42.446  23.510  27.392  1.00  0.00    -0.460 OA
BRANCH  28  29
ATOM     29  C   UNL A   1      42.299  24.664  26.698  1.00  0.00     0.338 C 
ATOM     30  O   UNL A   1      42.383  24.809  25.490  1.00  0.00    -0.246 OA
BRANCH  29  31
ATOM     31  C   UNL A   1      41.826  25.734  27.600  1.00  0.00     0.060 A 
ATOM     32  C   UNL A   1      42.607  26.893  27.682  1.00  0.00     0.016 A 
ATOM     33  C   UNL A   1      40.677  25.598  28.385  1.00  0.00     0.016 A 
ATOM     34  C   UNL A   1      42.275  27.897  28.589  1.00  0.00     0.010 A 
ATOM     35  C   UNL A   1      40.350  26.604  29.301  1.00  0.00     0.010 A 
ATOM     36  C   UNL A   1      41.169  27.740  29.432  1.00  0.00    -0.014 A 
BRANCH  36  37
ATOM     37  C   UNL A   1      40.965  28.694  30.548  1.00  0.00     0.031 A 
ATOM     38  C   UNL A   1      41.857  28.601  31.756  1.00  0.00     0.074 A 
ATOM     39  C   UNL A   1      40.024  29.652  30.473  1.00  0.00     0.049 A 
ATOM     40  N   UNL A   1      41.851  29.320  32.848  1.00  0.00    -0.248 NA
ATOM     41  C   UNL A   1      42.895  27.558  31.727  1.00  0.00     0.031 C 
ATOM     42  C   UNL A   1      39.123  29.864  29.341  1.00  0.00     0.029 A 
ATOM     43  N   UNL A   1      39.670  30.626  31.372  1.00  0.00    -0.354 N 
ATOM     44  C   UNL A   1      42.879  28.817  33.638  1.00  0.00     0.074 A 
ATOM     45  C   UNL A   1      43.469  27.713  32.911  1.00  0.00     0.031 C 
ATOM     46  C   UNL A   1      38.309  30.898  29.620  1.00  0.00     0.029 A 
ATOM     47  C   UNL A   1      38.616  31.404  30.956  1.00  0.00     0.049 A 
ATOM     48  H   UNL A   1      40.129  30.756  32.234  1.00  0.00     0.167 HD
ATOM     49  C   UNL A   1      43.300  29.243  34.852  1.00  0.00     0.037 A 
ATOM     50  C   UNL A   1      37.963  32.397  31.591  1.00  0.00     0.037 A 
ATOM     51  C   UNL A   1      42.710  30.340  35.572  1.00  0.00     0.049 A 
ATOM     52  C   UNL A   1      38.412  32.817  32.966  1.00  0.00     0.074 A 
ATOM     53  C   UNL A   1      43.074  30.857  36.804  1.00  0.00     0.029 A 
ATOM     54  N   UNL A   1      41.629  31.087  35.129  1.00  0.00    -0.354 N 
ATOM     55  N   UNL A   1      39.399  32.347  33.691  1.00  0.00    -0.248 NA
ATOM     56  C   UNL A   1      37.661  33.905  33.609  1.00  0.00     0.031 C 
ATOM     57  C   UNL A   1      42.188  31.891  37.122  1.00  0.00     0.029 A 
ATOM     58  C   UNL A   1      41.298  32.047  36.070  1.00  0.00     0.049 A 
ATOM     59  H   UNL A   1      41.165  30.955  34.271  1.00  0.00     0.167 HD
ATOM     60  C   UNL A   1      39.402  33.096  34.864  1.00  0.00     0.074 A 
ATOM     61  C   UNL A   1      38.324  34.057  34.747  1.00  0.00     0.031 C 
ATOM     62  C   UNL A   1      40.225  33.000  35.937  1.00  0.00     0.037 A 
BRANCH  49  63
ATOM     63  C   UNL A   1      44.443  28.501  35.487  1.00  0.00     0.058 A 
ATOM     64  C   UNL A   1      45.775  28.903  35.303  1.00  0.00     0.135 A 
ATOM     65  C   UNL A   1      44.200  27.388  36.308  1.00  0.00     0.135 A 
ATOM     66  F   UNL A   1      46.061  29.949  34.512  1.00  0.00    -0.206 F 
ATOM     67  C   UNL A   1      46.829  28.212  35.889  1.00  0.00     0.059 A 
ATOM     68  C   UNL A   1      45.238  26.695  36.924  1.00  0.00     0.059 A 
ATOM     69  F   UNL A   1      42.944  26.961  36.514  1.00  0.00    -0.206 F 
ATOM     70  C   UNL A   1      46.551  27.106  36.696  1.00  0.00     0.060 A 
BRANCH  70  71
ATOM     71  S   UNL A   1      47.929  26.217  37.449  1.00  0.00     0.124 S 
ATOM     72  O   UNL A   1      48.429  25.445  36.316  1.00  0.00    -0.237 OA
ATOM     73  O   UNL A   1      48.791  27.302  37.907  1.00  0.00    -0.237 OA
ATOM     74  O   UNL A   1      47.293  25.438  38.507  1.00  0.00    -0.744 OA
ENDBRANCH  70  71
ENDBRANCH  49  63
BRANCH  50  75
ATOM     75  C   UNL A   1      36.805  33.058  30.935  1.00  0.00     0.058 A 
ATOM     76  C   UNL A   1      35.489  32.783  31.336  1.00  0.00     0.135 A 
ATOM     77  C   UNL A   1      36.994  33.984  29.898  1.00  0.00     0.135 A 
ATOM     78  F   UNL A   1      35.258  31.897  32.316  1.00  0.00    -0.206 F 
ATOM     79  C   UNL A   1      34.399  33.395  30.725  1.00  0.00     0.059 A 
ATOM     80  C   UNL A   1      35.921  34.626  29.286  1.00  0.00     0.059 A 
ATOM     81  F   UNL A   1      38.233  34.289  29.486  1.00  0.00    -0.206 F 
ATOM     82  C   UNL A   1      34.626  34.318  29.702  1.00  0.00     0.060 A 
BRANCH  82  83
ATOM     83  S   UNL A   1      33.209  35.152  28.954  1.00  0.00     0.124 S 
ATOM     84  O   UNL A   1      32.686  34.110  28.076  1.00  0.00    -0.237 OA
ATOM     85  O   UNL A   1      32.393  35.477  30.118  1.00  0.00    -0.237 OA
ATOM     86  O   UNL A   1      33.814  36.299  28.283  1.00  0.00    -0.744 OA
ENDBRANCH  82  83
ENDBRANCH  50  75
BRANCH  62  87
ATOM     87  C   UNL A   1      40.014  33.974  37.063  1.00  0.00     0.058 A 
ATOM     88  C   UNL A   1      40.629  35.235  37.069  1.00  0.00     0.135 A 
ATOM     89  C   UNL A   1      39.144  33.661  38.119  1.00  0.00     0.135 A 
ATOM     90  F   UNL A   1      41.473  35.581  36.084  1.00  0.00    -0.206 F 
ATOM     91  C   UNL A   1      40.402  36.147  38.095  1.00  0.00     0.059 A 
ATOM     92  C   UNL A   1      38.885  34.566  39.144  1.00  0.00     0.059 A 
ATOM     93  F   UNL A   1      38.523  32.471  38.154  1.00  0.00    -0.206 F 
ATOM     94  C   UNL A   1      39.529  35.803  39.129  1.00  0.00     0.060 A 
BRANCH  94  95
ATOM     95  S   UNL A   1      39.214  37.008  40.437  1.00  0.00     0.124 S 
ATOM     96  O   UNL A   1      38.419  38.007  39.731  1.00  0.00    -0.237 OA
ATOM     97  O   UNL A   1      38.500  36.213  41.431  1.00  0.00    -0.237 OA
ATOM     98  O   UNL A   1      40.553  37.435  40.833  1.00  0.00    -0.744 OA
ENDBRANCH  94  95
ENDBRANCH  62  87
ENDBRANCH  36  37
ENDBRANCH  29  31
ENDBRANCH  28  29
ENDBRANCH  27  28
ENDBRANCH  26  27
ENDBRANCH   1  26
TORSDOF 20
ENDMDL
MODEL 2
REMARK VINA RESULT:     -10.9      6.732     13.498
REMARK SMILES Cc1oc2ccc(OCc3ccc(Br)cc3)cc2c1C(=O)OCCOCCOC(=O)c1ccc(-c2c3nc(c(-c4c(F)cc(S(=O)(=O)[O-])cc4F)c4ccc([nH]4)c(-c4c(F)cc(S(=O)(=O)[O-])cc4F)c4nc(c(-c5c(F)cc(S(=O)(=O)[O-])cc5F)c5ccc2[nH]5)C=C4)C=C3)cc1
REMARK SMILES IDX 25 1 24 2 23 3 22 4 20 5 21 6 19 7 1 8 2 9 3 10 4 11 18 12
REMARK SMILES IDX 5 13 17 14 6 15 7 16 8 17 9 18 10 19 11 20 16 21 12 22 15 23
REMARK SMILES IDX 13 24 14 25 26 26 27 27 28 28 29 29 30 30 31 31 32 32 96 33
REMARK SMILES IDX 33 34 95 35 34 36 35 37 36 38 89 39 37 40 94 41 88 42 90 43
REMARK SMILES IDX 38 44 93 45 87 46 86 47 39 49 73 50 52 51 72 52 53 53 56 54
REMARK SMILES IDX 71 55 91 56 54 57 55 58 70 60 92 61 57 62 40 63 41 64 50 65
REMARK SMILES IDX 42 66 43 67 49 68 51 69 44 70 45 71 46 72 47 73 48 74 74 75
REMARK SMILES IDX 75 76 84 77 76 78 77 79 83 80 85 81 78 82 79 83 80 84 81 85
REMARK SMILES IDX 82 86 58 87 59 88 68 89 60 90 61 91 67 92 69 93 62 94 63 95
REMARK SMILES IDX 64 96 65 97 66 98
REMARK H PARENT 90 48 56 59
REMARK Flexibility Score: inf
ROOT
ATOM      1  O   UNL A   1      34.489  35.118  28.075  1.00  0.00    -0.374 OA
ENDROOT
BRANCH   1   2
ATOM      2  C   UNL A   1      33.800  36.324  28.412  1.00  0.00     0.202 C 
BRANCH   2   3
ATOM      3  C   UNL A   1      33.108  36.311  29.777  1.00  0.00     0.261 C 
BRANCH   3   4
ATOM      4  O   UNL A   1      33.211  37.600  30.404  1.00  0.00    -0.460 OA
BRANCH   4   5
ATOM      5  C   UNL A   1      33.370  37.574  31.755  1.00  0.00     0.342 C 
ATOM      6  O   UNL A   1      33.508  38.573  32.453  1.00  0.00    -0.246 OA
BRANCH   5   7
ATOM      7  C   UNL A   1      33.271  36.244  32.325  1.00  0.00     0.109 A 
ATOM      8  C   UNL A   1      30.692  35.809  32.812  1.00  0.00     0.088 C 
ATOM      9  C   UNL A   1      32.143  35.532  32.711  1.00  0.00     0.116 A 
ATOM     10  O   UNL A   1      32.494  34.257  33.058  1.00  0.00    -0.460 OA
ATOM     11  C   UNL A   1      33.846  34.181  33.002  1.00  0.00     0.135 A 
ATOM     12  C   UNL A   1      34.385  35.406  32.654  1.00  0.00     0.039 A 
ATOM     13  C   UNL A   1      34.605  33.048  33.261  1.00  0.00     0.051 A 
ATOM     14  C   UNL A   1      35.788  35.557  32.701  1.00  0.00     0.059 A 
ATOM     15  C   UNL A   1      35.996  33.212  33.243  1.00  0.00     0.050 A 
ATOM     16  C   UNL A   1      36.592  34.460  33.046  1.00  0.00     0.120 A 
BRANCH  16  17
ATOM     17  O   UNL A   1      37.921  34.751  33.192  1.00  0.00    -0.489 OA
BRANCH  17  18
ATOM     18  C   UNL A   1      38.908  33.798  32.783  1.00  0.00     0.265 C 
BRANCH  18  19
ATOM     19  C   UNL A   1      39.801  34.267  31.651  1.00  0.00    -0.011 A 
ATOM     20  C   UNL A   1      39.246  34.668  30.425  1.00  0.00     0.008 A 
ATOM     21  C   UNL A   1      41.196  34.312  31.801  1.00  0.00     0.008 A 
ATOM     22  C   UNL A   1      40.059  35.037  29.353  1.00  0.00     0.016 A 
ATOM     23  C   UNL A   1      42.011  34.720  30.740  1.00  0.00     0.016 A 
ATOM     24  C   UNL A   1      41.439  35.064  29.515  1.00  0.00     0.017 A 
ATOM     25  Br  UNL A   1      42.538  35.575  28.065  1.00  0.00    -0.051 Br
ENDBRANCH  18  19
ENDBRANCH  17  18
ENDBRANCH  16  17
ENDBRANCH   5   7
ENDBRANCH   4   5
ENDBRANCH   3   4
ENDBRANCH   2   3
ENDBRANCH   1   2
BRANCH   1  26
ATOM     26  C   UNL A   1      35.181  34.459  29.140  1.00  0.00     0.202 C 
BRANCH  26  27
ATOM     27  C   UNL A   1      36.295  33.501  28.708  1.00  0.00     0.261 C 
BRANCH  27  28
ATOM     28  O   UNL A   1      36.955  32.934  29.854  1.00  0.00    -0.460 OA
BRANCH  28  29
ATOM     29  C   UNL A   1      36.716  31.615  30.056  1.00  0.00     0.338 C 
ATOM     30  O   UNL A   1      35.645  31.097  30.325  1.00  0.00    -0.246 OA
BRANCH  29  31
ATOM     31  C   UNL A   1      37.920  30.830  29.715  1.00  0.00     0.060 A 
ATOM     32  C   UNL A   1      38.963  30.822  30.650  1.00  0.00     0.016 A 
ATOM     33  C   UNL A   1      38.055  30.156  28.497  1.00  0.00     0.016 A 
ATOM     34  C   UNL A   1      40.166  30.187  30.348  1.00  0.00     0.010 A 
ATOM     35  C   UNL A   1      39.267  29.527  28.193  1.00  0.00     0.010 A 
ATOM     36  C   UNL A   1      40.340  29.572  29.103  1.00  0.00    -0.014 A 
BRANCH  36  37
ATOM     37  C   UNL A   1      41.690  29.112  28.701  1.00  0.00     0.031 A 
ATOM     38  C   UNL A   1      42.820  30.107  28.681  1.00  0.00     0.074 A 
ATOM     39  C   UNL A   1      41.918  27.823  28.395  1.00  0.00     0.049 A 
ATOM     40  N   UNL A   1      44.073  29.931  28.354  1.00  0.00    -0.248 NA
ATOM     41  C   UNL A   1      42.491  31.483  29.086  1.00  0.00     0.031 C 
ATOM     42  C   UNL A   1      40.912  26.761  28.411  1.00  0.00     0.029 A 
ATOM     43  N   UNL A   1      43.071  27.189  28.006  1.00  0.00    -0.354 N 
ATOM     44  C   UNL A   1      44.683  31.170  28.509  1.00  0.00     0.074 A 
ATOM     45  C   UNL A   1      43.655  32.097  28.934  1.00  0.00     0.031 C 
ATOM     46  C   UNL A   1      41.492  25.607  28.035  1.00  0.00     0.029 A 
ATOM     47  C   UNL A   1      42.900  25.854  27.731  1.00  0.00     0.049 A 
ATOM     48  H   UNL A   1      43.939  27.649  27.931  1.00  0.00     0.167 HD
ATOM     49  C   UNL A   1      45.981  31.505  28.326  1.00  0.00     0.037 A 
ATOM     50  C   UNL A   1      43.777  24.941  27.268  1.00  0.00     0.037 A 
ATOM     51  C   UNL A   1      47.001  30.581  27.903  1.00  0.00     0.049 A 
ATOM     52  C   UNL A   1      45.205  25.348  27.016  1.00  0.00     0.074 A 
ATOM     53  C   UNL A   1      48.350  30.821  27.702  1.00  0.00     0.029 A 
ATOM     54  N   UNL A   1      46.785  29.243  27.611  1.00  0.00    -0.354 N 
ATOM     55  N   UNL A   1      45.772  26.519  27.189  1.00  0.00    -0.248 NA
ATOM     56  C   UNL A   1      46.114  24.309  26.511  1.00  0.00     0.031 C 
ATOM     57  C   UNL A   1      48.940  29.635  27.251  1.00  0.00     0.029 A 
ATOM     58  C   UNL A   1      47.968  28.647  27.212  1.00  0.00     0.049 A 
ATOM     59  H   UNL A   1      45.916  28.784  27.679  1.00  0.00     0.167 HD
ATOM     60  C   UNL A   1      47.107  26.352  26.835  1.00  0.00     0.074 A 
ATOM     61  C   UNL A   1      47.266  24.965  26.448  1.00  0.00     0.031 C 
ATOM     62  C   UNL A   1      48.111  27.263  26.835  1.00  0.00     0.037 A 
BRANCH  49  63
ATOM     63  C   UNL A   1      46.367  32.938  28.562  1.00  0.00     0.058 A 
ATOM     64  C   UNL A   1      46.257  33.906  27.551  1.00  0.00     0.135 A 
ATOM     65  C   UNL A   1      46.830  33.353  29.821  1.00  0.00     0.135 A 
ATOM     66  F   UNL A   1      45.837  33.557  26.325  1.00  0.00    -0.206 F 
ATOM     67  C   UNL A   1      46.619  35.231  27.771  1.00  0.00     0.059 A 
ATOM     68  C   UNL A   1      47.176  34.678  30.070  1.00  0.00     0.059 A 
ATOM     69  F   UNL A   1      46.958  32.466  30.820  1.00  0.00    -0.206 F 
ATOM     70  C   UNL A   1      47.080  35.607  29.035  1.00  0.00     0.060 A 
BRANCH  70  71
ATOM     71  S   UNL A   1      47.548  37.329  29.306  1.00  0.00     0.124 S 
ATOM     72  O   UNL A   1      46.482  37.782  30.194  1.00  0.00    -0.237 OA
ATOM     73  O   UNL A   1      48.869  37.203  29.914  1.00  0.00    -0.237 OA
ATOM     74  O   UNL A   1      47.531  37.901  27.964  1.00  0.00    -0.744 OA
ENDBRANCH  70  71
ENDBRANCH  49  63
BRANCH  50  75
ATOM     75  C   UNL A   1      43.324  23.551  27.001  1.00  0.00     0.058 A 
ATOM     76  C   UNL A   1      43.025  23.121  25.700  1.00  0.00     0.135 A 
ATOM     77  C   UNL A   1      43.190  22.622  28.045  1.00  0.00     0.135 A 
ATOM     78  F   UNL A   1      43.128  23.977  24.671  1.00  0.00    -0.206 F 
ATOM     79  C   UNL A   1      42.599  21.823  25.442  1.00  0.00     0.059 A 
ATOM     80  C   UNL A   1      42.787  21.311  27.809  1.00  0.00     0.059 A 
ATOM     81  F   UNL A   1      43.475  22.981  29.305  1.00  0.00    -0.206 F 
ATOM     82  C   UNL A   1      42.485  20.923  26.504  1.00  0.00     0.060 A 
BRANCH  82  83
ATOM     83  S   UNL A   1      41.987  19.223  26.154  1.00  0.00     0.124 S 
ATOM     84  O   UNL A   1      42.843  18.894  25.019  1.00  0.00    -0.237 OA
ATOM     85  O   UNL A   1      42.299  18.546  27.409  1.00  0.00    -0.237 OA
ATOM     86  O   UNL A   1      40.563  19.348  25.857  1.00  0.00    -0.744 OA
ENDBRANCH  82  83
ENDBRANCH  50  75
BRANCH  62  87
ATOM     87  C   UNL A   1      49.479  26.788  26.430  1.00  0.00     0.058 A 
ATOM     88  C   UNL A   1      50.335  26.150  27.341  1.00  0.00     0.135 A 
ATOM     89  C   UNL A   1      49.915  26.927  25.103  1.00  0.00     0.135 A 
ATOM     90  F   UNL A   1      49.966  25.998  28.623  1.00  0.00    -0.206 F 
ATOM     91  C   UNL A   1      51.586  25.680  26.952  1.00  0.00     0.059 A 
ATOM     92  C   UNL A   1      51.152  26.444  24.688  1.00  0.00     0.059 A 
ATOM     93  F   UNL A   1      49.129  27.521  24.192  1.00  0.00    -0.206 F 
ATOM     94  C   UNL A   1      51.986  25.832  25.624  1.00  0.00     0.060 A 
BRANCH  94  95
ATOM     95  S   UNL A   1      53.597  25.188  25.123  1.00  0.00     0.124 S 
ATOM     96  O   UNL A   1      53.423  23.756  25.349  1.00  0.00    -0.237 OA
ATOM     97  O   UNL A   1      53.682  25.604  23.727  1.00  0.00    -0.237 OA
ATOM     98  O   UNL A   1      54.526  25.858  26.027  1.00  0.00    -0.744 OA
ENDBRANCH  94  95
ENDBRANCH  62  87
ENDBRANCH  36  37
ENDBRANCH  29  31
ENDBRANCH  28  29
ENDBRANCH  27  28
ENDBRANCH  26  27
ENDBRANCH   1  26
TORSDOF 20
ENDMDL
MODEL 3
REMARK VINA RESULT:     -10.9      1.412      1.952
REMARK SMILES Cc1oc2ccc(OCc3ccc(Br)cc3)cc2c1C(=O)OCCOCCOC(=O)c1ccc(-c2c3nc(c(-c4c(F)cc(S(=O)(=O)[O-])cc4F)c4ccc([nH]4)c(-c4c(F)cc(S(=O)(=O)[O-])cc4F)c4nc(c(-c5c(F)cc(S(=O)(=O)[O-])cc5F)c5ccc2[nH]5)C=C4)C=C3)cc1
REMARK SMILES IDX 25 1 24 2 23 3 22 4 20 5 21 6 19 7 1 8 2 9 3 10 4 11 18 12
REMARK SMILES IDX 5 13 17 14 6 15 7 16 8 17 9 18 10 19 11 20 16 21 12 22 15 23
REMARK SMILES IDX 13 24 14 25 26 26 27 27 28 28 29 29 30 30 31 31 32 32 96 33
REMARK SMILES IDX 33 34 95 35 34 36 35 37 36 38 89 39 37 40 94 41 88 42 90 43
REMARK SMILES IDX 38 44 93 45 87 46 86 47 39 49 73 50 52 51 72 52 53 53 56 54
REMARK SMILES IDX 71 55 91 56 54 57 55 58 70 60 92 61 57 62 40 63 41 64 50 65
REMARK SMILES IDX 42 66 43 67 49 68 51 69 44 70 45 71 46 72 47 73 48 74 74 75
REMARK SMILES IDX 75 76 84 77 76 78 77 79 83 80 85 81 78 82 79 83 80 84 81 85
REMARK SMILES IDX 82 86 58 87 59 88 68 89 60 90 61 91 67 92 69 93 62 94 63 95
REMARK SMILES IDX 64 96 65 97 66 98
REMARK H PARENT 90 48 56 59
REMARK Flexibility Score: inf
ROOT
ATOM      1  O   UNL A   1      39.820  22.148  25.915  1.00  0.00    -0.374 OA
ENDROOT
BRANCH   1   2
ATOM      2  C   UNL A   1      38.575  21.500  25.643  1.00  0.00     0.202 C 
BRANCH   2   3
ATOM      3  C   UNL A   1      37.386  22.444  25.449  1.00  0.00     0.261 C 
BRANCH   3   4
ATOM      4  O   UNL A   1      36.288  21.749  24.837  1.00  0.00    -0.460 OA
BRANCH   4   5
ATOM      5  C   UNL A   1      35.523  22.501  23.999  1.00  0.00     0.342 C 
ATOM      6  O   UNL A   1      35.903  22.927  22.914  1.00  0.00    -0.246 OA
BRANCH   5   7
ATOM      7  C   UNL A   1      34.161  22.683  24.465  1.00  0.00     0.109 A 
ATOM      8  C   UNL A   1      32.854  20.434  23.909  1.00  0.00     0.088 C 
ATOM      9  C   UNL A   1      33.097  21.790  24.449  1.00  0.00     0.116 A 
ATOM     10  O   UNL A   1      32.034  22.323  25.123  1.00  0.00    -0.460 OA
ATOM     11  C   UNL A   1      32.371  23.587  25.476  1.00  0.00     0.135 A 
ATOM     12  C   UNL A   1      33.635  23.898  25.007  1.00  0.00     0.039 A 
ATOM     13  C   UNL A   1      31.576  24.466  26.198  1.00  0.00     0.051 A 
ATOM     14  C   UNL A   1      34.089  25.228  25.144  1.00  0.00     0.059 A 
ATOM     15  C   UNL A   1      32.078  25.763  26.370  1.00  0.00     0.050 A 
ATOM     16  C   UNL A   1      33.278  26.175  25.789  1.00  0.00     0.120 A 
BRANCH  16  17
ATOM     17  O   UNL A   1      33.756  27.457  25.747  1.00  0.00    -0.489 OA
BRANCH  17  18
ATOM     18  C   UNL A   1      33.776  28.169  24.505  1.00  0.00     0.265 C 
BRANCH  18  19
ATOM     19  C   UNL A   1      32.405  28.549  23.979  1.00  0.00    -0.011 A 
ATOM     20  C   UNL A   1      31.620  29.497  24.656  1.00  0.00     0.008 A 
ATOM     21  C   UNL A   1      31.892  27.966  22.810  1.00  0.00     0.008 A 
ATOM     22  C   UNL A   1      30.331  29.806  24.222  1.00  0.00     0.016 A 
ATOM     23  C   UNL A   1      30.615  28.305  22.350  1.00  0.00     0.016 A 
ATOM     24  C   UNL A   1      29.833  29.210  23.068  1.00  0.00     0.017 A 
ATOM     25  Br  UNL A   1      28.091  29.638  22.475  1.00  0.00    -0.051 Br
ENDBRANCH  18  19
ENDBRANCH  17  18
ENDBRANCH  16  17
ENDBRANCH   5   7
ENDBRANCH   4   5
ENDBRANCH   3   4
ENDBRANCH   2   3
ENDBRANCH   1   2
BRANCH   1  26
ATOM     26  C   UNL A   1      40.635  21.566  26.936  1.00  0.00     0.202 C 
BRANCH  26  27
ATOM     27  C   UNL A   1      42.134  21.864  26.832  1.00  0.00     0.261 C 
BRANCH  27  28
ATOM     28  O   UNL A   1      42.470  23.058  27.560  1.00  0.00    -0.460 OA
BRANCH  28  29
ATOM     29  C   UNL A   1      42.425  24.201  26.833  1.00  0.00     0.338 C 
ATOM     30  O   UNL A   1      42.578  24.309  25.628  1.00  0.00    -0.246 OA
BRANCH  29  31
ATOM     31  C   UNL A   1      41.969  25.318  27.684  1.00  0.00     0.060 A 
ATOM     32  C   UNL A   1      42.837  26.408  27.828  1.00  0.00     0.016 A 
ATOM     33  C   UNL A   1      40.748  25.292  28.365  1.00  0.00     0.016 A 
ATOM     34  C   UNL A   1      42.515  27.448  28.697  1.00  0.00     0.010 A 
ATOM     35  C   UNL A   1      40.430  26.333  29.244  1.00  0.00     0.010 A 
ATOM     36  C   UNL A   1      41.330  27.397  29.441  1.00  0.00    -0.014 A 
BRANCH  36  37
ATOM     37  C   UNL A   1      41.112  28.379  30.529  1.00  0.00     0.031 A 
ATOM     38  C   UNL A   1      41.987  28.314  31.752  1.00  0.00     0.074 A 
ATOM     39  C   UNL A   1      40.175  29.336  30.417  1.00  0.00     0.049 A 
ATOM     40  N   UNL A   1      41.967  29.061  32.826  1.00  0.00    -0.248 NA
ATOM     41  C   UNL A   1      43.023  27.269  31.764  1.00  0.00     0.031 C 
ATOM     42  C   UNL A   1      39.289  29.521  29.267  1.00  0.00     0.029 A 
ATOM     43  N   UNL A   1      39.810  30.333  31.286  1.00  0.00    -0.354 N 
ATOM     44  C   UNL A   1      42.982  28.576  33.641  1.00  0.00     0.074 A 
ATOM     45  C   UNL A   1      43.581  27.454  32.951  1.00  0.00     0.031 C 
ATOM     46  C   UNL A   1      38.473  30.563  29.509  1.00  0.00     0.029 A 
ATOM     47  C   UNL A   1      38.763  31.102  30.836  1.00  0.00     0.049 A 
ATOM     48  H   UNL A   1      40.257  30.484  32.151  1.00  0.00     0.167 HD
ATOM     49  C   UNL A   1      43.387  29.031  34.850  1.00  0.00     0.037 A 
ATOM     50  C   UNL A   1      38.103  32.112  31.437  1.00  0.00     0.037 A 
ATOM     51  C   UNL A   1      42.790  30.147  35.534  1.00  0.00     0.049 A 
ATOM     52  C   UNL A   1      38.534  32.565  32.807  1.00  0.00     0.074 A 
ATOM     53  C   UNL A   1      43.138  30.694  36.758  1.00  0.00     0.029 A 
ATOM     54  N   UNL A   1      41.716  30.885  35.058  1.00  0.00    -0.354 N 
ATOM     55  N   UNL A   1      39.510  32.112  33.557  1.00  0.00    -0.248 NA
ATOM     56  C   UNL A   1      37.775  33.671  33.411  1.00  0.00     0.031 C 
ATOM     57  C   UNL A   1      42.249  31.738  37.038  1.00  0.00     0.029 A 
ATOM     58  C   UNL A   1      41.375  31.869  35.970  1.00  0.00     0.049 A 
ATOM     59  H   UNL A   1      41.264  30.732  34.197  1.00  0.00     0.167 HD
ATOM     60  C   UNL A   1      39.498  32.890  34.710  1.00  0.00     0.074 A 
ATOM     61  C   UNL A   1      38.423  33.850  34.555  1.00  0.00     0.031 C 
ATOM     62  C   UNL A   1      40.305  32.820  35.797  1.00  0.00     0.037 A 
BRANCH  49  63
ATOM     63  C   UNL A   1      44.519  28.304  35.520  1.00  0.00     0.058 A 
ATOM     64  C   UNL A   1      44.290  27.227  36.391  1.00  0.00     0.135 A 
ATOM     65  C   UNL A   1      45.850  28.673  35.269  1.00  0.00     0.135 A 
ATOM     66  F   UNL A   1      43.035  26.847  36.679  1.00  0.00    -0.206 F 
ATOM     67  C   UNL A   1      45.339  26.559  37.012  1.00  0.00     0.059 A 
ATOM     68  C   UNL A   1      46.917  28.004  35.862  1.00  0.00     0.059 A 
ATOM     69  F   UNL A   1      46.124  29.698  34.447  1.00  0.00    -0.206 F 
ATOM     70  C   UNL A   1      46.650  26.957  36.744  1.00  0.00     0.060 A 
BRANCH  70  71
ATOM     71  S   UNL A   1      48.003  26.083  37.558  1.00  0.00     0.124 S 
ATOM     72  O   UNL A   1      48.473  27.092  38.503  1.00  0.00    -0.237 OA
ATOM     73  O   UNL A   1      47.326  24.932  38.145  1.00  0.00    -0.237 OA
ATOM     74  O   UNL A   1      48.918  25.777  36.462  1.00  0.00    -0.744 OA
ENDBRANCH  70  71
ENDBRANCH  49  63
BRANCH  50  75
ATOM     75  C   UNL A   1      36.956  32.758  30.748  1.00  0.00     0.058 A 
ATOM     76  C   UNL A   1      35.633  32.424  31.073  1.00  0.00     0.135 A 
ATOM     77  C   UNL A   1      37.162  33.729  29.755  1.00  0.00     0.135 A 
ATOM     78  F   UNL A   1      35.386  31.494  32.007  1.00  0.00    -0.206 F 
ATOM     79  C   UNL A   1      34.553  33.022  30.431  1.00  0.00     0.059 A 
ATOM     80  C   UNL A   1      36.098  34.357  29.115  1.00  0.00     0.059 A 
ATOM     81  F   UNL A   1      38.408  34.090  29.417  1.00  0.00    -0.206 F 
ATOM     82  C   UNL A   1      34.796  33.990  29.455  1.00  0.00     0.060 A 
BRANCH  82  83
ATOM     83  S   UNL A   1      33.389  34.804  28.667  1.00  0.00     0.124 S 
ATOM     84  O   UNL A   1      32.985  33.804  27.684  1.00  0.00    -0.237 OA
ATOM     85  O   UNL A   1      32.479  35.001  29.790  1.00  0.00    -0.237 OA
ATOM     86  O   UNL A   1      33.973  36.026  28.122  1.00  0.00    -0.744 OA
ENDBRANCH  82  83
ENDBRANCH  50  75
BRANCH  62  87
ATOM     87  C   UNL A   1      40.080  33.822  36.895  1.00  0.00     0.058 A 
ATOM     88  C   UNL A   1      40.709  35.077  36.886  1.00  0.00     0.135 A 
ATOM     89  C   UNL A   1      39.184  33.544  37.939  1.00  0.00     0.135 A 
ATOM     90  F   UNL A   1      41.579  35.390  35.913  1.00  0.00    -0.206 F 
ATOM     91  C   UNL A   1      40.470  36.015  37.886  1.00  0.00     0.059 A 
ATOM     92  C   UNL A   1      38.913  34.475  38.936  1.00  0.00     0.059 A 
ATOM     93  F   UNL A   1      38.549  32.361  37.987  1.00  0.00    -0.206 F 
ATOM     94  C   UNL A   1      39.570  35.705  38.907  1.00  0.00     0.060 A 
BRANCH  94  95
ATOM     95  S   UNL A   1      39.241  36.943  40.180  1.00  0.00     0.124 S 
ATOM     96  O   UNL A   1      38.559  37.979  39.411  1.00  0.00    -0.237 OA
ATOM     97  O   UNL A   1      38.411  36.206  41.128  1.00  0.00    -0.237 OA
ATOM     98  O   UNL A   1      40.573  37.293  40.665  1.00  0.00    -0.744 OA
ENDBRANCH  94  95
ENDBRANCH  62  87
ENDBRANCH  36  37
ENDBRANCH  29  31
ENDBRANCH  28  29
ENDBRANCH  27  28
ENDBRANCH  26  27
ENDBRANCH   1  26
TORSDOF 20
ENDMDL
