MODEL 1
REMARK VINA RESULT:      -8.6      0.000      0.000
REMARK SMILES CCCCCCNC(=O)Oc1cccc(-c2ccc([C@H](C)C(=O)OCCOCCOC(=O)c3ccc(-c4c5nc(c(-c6c(F)cc(S(=O)(=O)[O-])cc6F)c6ccc([nH]6)c(-c6c(F)cc(S(=O)(=O)[O-])cc6F)c6nc(c(-c7c(F)cc(S(=O)(=O)[O-])cc7F)c7ccc4[nH]7)C=C6)C=C5)cc3)cc2F)c1
REMARK SMILES IDX 24 1 22 2 23 3 20 4 21 5 19 6 16 7 17 8 100 9 18 10 99 11
REMARK SMILES IDX 101 12 15 13 11 14 12 15 102 16 13 17 14 18 10 19 8 20 7 21
REMARK SMILES IDX 9 23 6 24 5 25 4 26 3 27 2 28 1 29 25 30 26 31 27 32 28 33
REMARK SMILES IDX 29 34 30 35 31 36 32 37 33 38 34 39 98 40 35 41 97 42 36 43
REMARK SMILES IDX 37 44 38 45 91 46 39 47 96 48 90 49 92 50 40 51 95 52 89 53
REMARK SMILES IDX 88 54 41 56 75 57 54 58 74 59 55 60 58 61 73 62 93 63 56 64
REMARK SMILES IDX 57 65 72 67 94 68 59 69 42 70 43 71 52 72 44 73 45 74 51 75
REMARK SMILES IDX 53 76 46 77 47 78 48 79 49 80 50 81 76 82 77 83 86 84 78 85
REMARK SMILES IDX 79 86 85 87 87 88 80 89 81 90 82 91 83 92 84 93 60 94 61 95
REMARK SMILES IDX 70 96 62 97 63 98 69 99 71 100 64 101 65 102 66 103 67 104
REMARK SMILES IDX 68 105
REMARK H PARENT 7 22 92 55 58 66
REMARK Flexibility Score: inf
ROOT
ATOM      1  O   UNL A   1      42.123  21.681  25.365  1.00  0.00    -0.463 OA
ENDROOT
BRANCH   1   2
ATOM      2  C   UNL A   1      43.083  22.648  25.362  1.00  0.00     0.313 C 
ATOM      3  O   UNL A   1      43.026  23.695  24.728  1.00  0.00    -0.252 OA
BRANCH   2   4
ATOM      4  C   UNL A   1      44.286  22.260  26.213  1.00  0.00     0.126 C 
ATOM      5  C   UNL A   1      45.647  22.393  25.531  1.00  0.00     0.025 C 
BRANCH   4   6
ATOM      6  C   UNL A   1      44.274  23.017  27.520  1.00  0.00    -0.031 A 
ATOM      7  C   UNL A   1      44.257  24.402  29.966  1.00  0.00     0.018 A 
ATOM      8  C   UNL A   1      43.100  23.764  29.504  1.00  0.00     0.012 A 
ATOM      9  C   UNL A   1      45.410  24.355  29.174  1.00  0.00     0.131 A 
ATOM     10  C   UNL A   1      43.103  23.091  28.289  1.00  0.00     0.005 A 
ATOM     11  C   UNL A   1      45.429  23.669  27.965  1.00  0.00     0.044 A 
ATOM     12  F   UNL A   1      46.530  24.983  29.564  1.00  0.00    -0.206 F 
BRANCH   7  13
ATOM     13  C   UNL A   1      44.200  25.153  31.214  1.00  0.00    -0.012 A 
ATOM     14  C   UNL A   1      44.624  25.260  33.586  1.00  0.00     0.133 A 
ATOM     15  C   UNL A   1      44.315  26.617  33.605  1.00  0.00     0.047 A 
ATOM     16  C   UNL A   1      44.538  24.519  32.413  1.00  0.00     0.056 A 
ATOM     17  C   UNL A   1      43.951  27.252  32.420  1.00  0.00     0.004 A 
ATOM     18  C   UNL A   1      43.901  26.524  31.229  1.00  0.00     0.009 A 
BRANCH  14  19
ATOM     19  O   UNL A   1      44.938  24.647  34.803  1.00  0.00    -0.410 OA
BRANCH  19  20
ATOM     20  C   UNL A   1      43.923  23.978  35.470  1.00  0.00     0.412 C 
ATOM     21  N   UNL A   1      44.090  22.625  35.462  1.00  0.00    -0.321 N 
ATOM     22  H   UNL A   1      43.375  22.085  35.872  1.00  0.00     0.167 HD
ATOM     23  O   UNL A   1      42.959  24.487  36.036  1.00  0.00    -0.224 OA
BRANCH  21  24
ATOM     24  C   UNL A   1      45.217  21.908  34.909  1.00  0.00     0.119 C 
BRANCH  24  25
ATOM     25  C   UNL A   1      46.443  22.011  35.812  1.00  0.00     0.021 C 
BRANCH  25  26
ATOM     26  C   UNL A   1      47.072  20.663  36.182  1.00  0.00     0.002 C 
BRANCH  26  27
ATOM     27  C   UNL A   1      46.090  19.491  36.280  1.00  0.00    -0.000 C 
BRANCH  27  28
ATOM     28  C   UNL A   1      45.998  18.832  37.658  1.00  0.00    -0.003 C 
ATOM     29  C   UNL A   1      46.447  19.746  38.786  1.00  0.00     0.004 C 
ENDBRANCH  27  28
ENDBRANCH  26  27
ENDBRANCH  25  26
ENDBRANCH  24  25
ENDBRANCH  21  24
ENDBRANCH  19  20
ENDBRANCH  14  19
ENDBRANCH   7  13
ENDBRANCH   4   6
ENDBRANCH   2   4
ENDBRANCH   1   2
BRANCH   1  30
ATOM     30  C   UNL A   1      42.496  20.448  25.994  1.00  0.00     0.261 C 
BRANCH  30  31
ATOM     31  C   UNL A   1      41.284  19.625  26.432  1.00  0.00     0.202 C 
BRANCH  31  32
ATOM     32  O   UNL A   1      40.308  19.292  25.449  1.00  0.00    -0.374 OA
BRANCH  32  33
ATOM     33  C   UNL A   1      38.957  19.691  25.659  1.00  0.00     0.202 C 
BRANCH  33  34
ATOM     34  C   UNL A   1      38.561  21.146  25.371  1.00  0.00     0.261 C 
BRANCH  34  35
ATOM     35  O   UNL A   1      38.865  22.055  26.445  1.00  0.00    -0.460 OA
BRANCH  35  36
ATOM     36  C   UNL A   1      38.351  23.301  26.278  1.00  0.00     0.338 C 
ATOM     37  O   UNL A   1      37.219  23.587  25.923  1.00  0.00    -0.246 OA
BRANCH  36  38
ATOM     38  C   UNL A   1      39.296  24.325  26.756  1.00  0.00     0.060 A 
ATOM     39  C   UNL A   1      39.275  24.639  28.122  1.00  0.00     0.016 A 
ATOM     40  C   UNL A   1      40.081  25.064  25.870  1.00  0.00     0.016 A 
ATOM     41  C   UNL A   1      39.997  25.731  28.598  1.00  0.00     0.010 A 
ATOM     42  C   UNL A   1      40.801  26.163  26.350  1.00  0.00     0.010 A 
ATOM     43  C   UNL A   1      40.729  26.526  27.709  1.00  0.00    -0.014 A 
BRANCH  43  44
ATOM     44  C   UNL A   1      41.299  27.815  28.176  1.00  0.00     0.031 A 
ATOM     45  C   UNL A   1      42.788  28.028  28.107  1.00  0.00     0.074 A 
ATOM     46  C   UNL A   1      40.496  28.796  28.627  1.00  0.00     0.049 A 
ATOM     47  N   UNL A   1      43.499  29.050  28.505  1.00  0.00    -0.248 NA
ATOM     48  C   UNL A   1      43.581  26.940  27.510  1.00  0.00     0.031 C 
ATOM     49  C   UNL A   1      39.037  28.724  28.698  1.00  0.00     0.029 A 
ATOM     50  N   UNL A   1      40.797  30.041  29.118  1.00  0.00    -0.354 N 
ATOM     51  C   UNL A   1      44.822  28.727  28.222  1.00  0.00     0.074 A 
ATOM     52  C   UNL A   1      44.817  27.400  27.645  1.00  0.00     0.031 C 
ATOM     53  C   UNL A   1      38.570  29.872  29.218  1.00  0.00     0.029 A 
ATOM     54  C   UNL A   1      39.696  30.743  29.551  1.00  0.00     0.049 A 
ATOM     55  H   UNL A   1      41.713  30.398  29.160  1.00  0.00     0.167 HD
ATOM     56  C   UNL A   1      45.936  29.471  28.419  1.00  0.00     0.037 A 
ATOM     57  C   UNL A   1      39.609  31.938  30.168  1.00  0.00     0.037 A 
ATOM     58  C   UNL A   1      45.930  30.795  28.990  1.00  0.00     0.049 A 
ATOM     59  C   UNL A   1      40.869  32.720  30.440  1.00  0.00     0.074 A 
ATOM     60  C   UNL A   1      47.003  31.640  29.214  1.00  0.00     0.029 A 
ATOM     61  N   UNL A   1      44.798  31.461  29.438  1.00  0.00    -0.354 N 
ATOM     62  N   UNL A   1      42.111  32.411  30.150  1.00  0.00    -0.248 NA
ATOM     63  C   UNL A   1      40.715  34.015  31.119  1.00  0.00     0.031 C 
ATOM     64  C   UNL A   1      46.528  32.791  29.848  1.00  0.00     0.029 A 
ATOM     65  C   UNL A   1      45.149  32.695  29.960  1.00  0.00     0.049 A 
ATOM     66  H   UNL A   1      43.879  31.109  29.390  1.00  0.00     0.167 HD
ATOM     67  C   UNL A   1      42.882  33.487  30.579  1.00  0.00     0.074 A 
ATOM     68  C   UNL A   1      41.966  34.457  31.144  1.00  0.00     0.031 C 
ATOM     69  C   UNL A   1      44.225  33.659  30.505  1.00  0.00     0.037 A 
BRANCH  56  70
ATOM     70  C   UNL A   1      47.261  28.865  28.043  1.00  0.00     0.058 A 
ATOM     71  C   UNL A   1      47.770  28.937  26.737  1.00  0.00     0.135 A 
ATOM     72  C   UNL A   1      48.055  28.235  29.017  1.00  0.00     0.135 A 
ATOM     73  F   UNL A   1      47.049  29.514  25.762  1.00  0.00    -0.206 F 
ATOM     74  C   UNL A   1      49.002  28.385  26.403  1.00  0.00     0.059 A 
ATOM     75  C   UNL A   1      49.304  27.702  28.713  1.00  0.00     0.059 A 
ATOM     76  F   UNL A   1      47.620  28.136  30.283  1.00  0.00    -0.206 F 
ATOM     77  C   UNL A   1      49.763  27.769  27.398  1.00  0.00     0.060 A 
BRANCH  77  78
ATOM     78  S   UNL A   1      51.361  27.060  26.949  1.00  0.00     0.124 S 
ATOM     79  O   UNL A   1      52.073  28.236  26.456  1.00  0.00    -0.237 OA
ATOM     80  O   UNL A   1      51.832  26.522  28.221  1.00  0.00    -0.237 OA
ATOM     81  O   UNL A   1      51.021  26.065  25.938  1.00  0.00    -0.744 OA
ENDBRANCH  77  78
ENDBRANCH  56  70
BRANCH  57  82
ATOM     82  C   UNL A   1      38.280  32.463  30.581  1.00  0.00     0.058 A 
ATOM     83  C   UNL A   1      37.733  32.149  31.834  1.00  0.00     0.135 A 
ATOM     84  C   UNL A   1      37.534  33.299  29.734  1.00  0.00     0.135 A 
ATOM     85  F   UNL A   1      38.401  31.345  32.675  1.00  0.00    -0.206 F 
ATOM     86  C   UNL A   1      36.489  32.631  32.227  1.00  0.00     0.059 A 
ATOM     87  C   UNL A   1      36.302  33.818  30.117  1.00  0.00     0.059 A 
ATOM     88  F   UNL A   1      38.018  33.639  28.530  1.00  0.00    -0.206 F 
ATOM     89  C   UNL A   1      35.782  33.471  31.363  1.00  0.00     0.060 A 
BRANCH  89  90
ATOM     90  S   UNL A   1      34.193  34.132  31.907  1.00  0.00     0.124 S 
ATOM     91  O   UNL A   1      33.531  34.393  30.633  1.00  0.00    -0.237 OA
ATOM     92  O   UNL A   1      33.656  33.024  32.691  1.00  0.00    -0.237 OA
ATOM     93  O   UNL A   1      34.565  35.313  32.678  1.00  0.00    -0.744 OA
ENDBRANCH  89  90
ENDBRANCH  57  82
BRANCH  69  94
ATOM     94  C   UNL A   1      44.794  34.964  30.997  1.00  0.00     0.058 A 
ATOM     95  C   UNL A   1      44.960  36.071  30.151  1.00  0.00     0.135 A 
ATOM     96  C   UNL A   1      45.109  35.128  32.357  1.00  0.00     0.135 A 
ATOM     97  F   UNL A   1      44.681  35.968  28.841  1.00  0.00    -0.206 F 
ATOM     98  C   UNL A   1      45.435  37.288  30.630  1.00  0.00     0.059 A 
ATOM     99  C   UNL A   1      45.556  36.345  32.864  1.00  0.00     0.059 A 
ATOM    100  F   UNL A   1      44.959  34.105  33.214  1.00  0.00    -0.206 F 
ATOM    101  C   UNL A   1      45.724  37.417  31.991  1.00  0.00     0.060 A 
BRANCH 101 102
ATOM    102  S   UNL A   1      46.292  39.016  32.607  1.00  0.00     0.124 S 
ATOM    103  O   UNL A   1      45.581  39.112  33.877  1.00  0.00    -0.237 OA
ATOM    104  O   UNL A   1      47.735  38.818  32.702  1.00  0.00    -0.237 OA
ATOM    105  O   UNL A   1      45.861  39.952  31.573  1.00  0.00    -0.744 OA
ENDBRANCH 101 102
ENDBRANCH  69  94
ENDBRANCH  43  44
ENDBRANCH  36  38
ENDBRANCH  35  36
ENDBRANCH  34  35
ENDBRANCH  33  34
ENDBRANCH  32  33
ENDBRANCH  31  32
ENDBRANCH  30  31
ENDBRANCH   1  30
TORSDOF 26
ENDMDL
MODEL 2
REMARK VINA RESULT:      -8.0      1.425      2.019
REMARK SMILES CCCCCCNC(=O)Oc1cccc(-c2ccc([C@H](C)C(=O)OCCOCCOC(=O)c3ccc(-c4c5nc(c(-c6c(F)cc(S(=O)(=O)[O-])cc6F)c6ccc([nH]6)c(-c6c(F)cc(S(=O)(=O)[O-])cc6F)c6nc(c(-c7c(F)cc(S(=O)(=O)[O-])cc7F)c7ccc4[nH]7)C=C6)C=C5)cc3)cc2F)c1
REMARK SMILES IDX 24 1 22 2 23 3 20 4 21 5 19 6 16 7 17 8 100 9 18 10 99 11
REMARK SMILES IDX 101 12 15 13 11 14 12 15 102 16 13 17 14 18 10 19 8 20 7 21
REMARK SMILES IDX 9 23 6 24 5 25 4 26 3 27 2 28 1 29 25 30 26 31 27 32 28 33
REMARK SMILES IDX 29 34 30 35 31 36 32 37 33 38 34 39 98 40 35 41 97 42 36 43
REMARK SMILES IDX 37 44 38 45 91 46 39 47 96 48 90 49 92 50 40 51 95 52 89 53
REMARK SMILES IDX 88 54 41 56 75 57 54 58 74 59 55 60 58 61 73 62 93 63 56 64
REMARK SMILES IDX 57 65 72 67 94 68 59 69 42 70 43 71 52 72 44 73 45 74 51 75
REMARK SMILES IDX 53 76 46 77 47 78 48 79 49 80 50 81 76 82 77 83 86 84 78 85
REMARK SMILES IDX 79 86 85 87 87 88 80 89 81 90 82 91 83 92 84 93 60 94 61 95
REMARK SMILES IDX 70 96 62 97 63 98 69 99 71 100 64 101 65 102 66 103 67 104
REMARK SMILES IDX 68 105
REMARK H PARENT 7 22 92 55 58 66
REMARK Flexibility Score: inf
ROOT
ATOM      1  O   UNL A   1      43.179  21.593  24.822  1.00  0.00    -0.463 OA
ENDROOT
BRANCH   1   2
ATOM      2  C   UNL A   1      43.769  22.779  25.142  1.00  0.00     0.313 C 
ATOM      3  O   UNL A   1      43.355  23.884  24.811  1.00  0.00    -0.252 OA
BRANCH   2   4
ATOM      4  C   UNL A   1      45.057  22.579  25.932  1.00  0.00     0.126 C 
ATOM      5  C   UNL A   1      46.330  23.096  25.261  1.00  0.00     0.025 C 
BRANCH   4   6
ATOM      6  C   UNL A   1      44.919  23.159  27.320  1.00  0.00    -0.031 A 
ATOM      7  C   UNL A   1      44.649  24.262  29.892  1.00  0.00     0.018 A 
ATOM      8  C   UNL A   1      45.725  24.627  29.072  1.00  0.00     0.012 A 
ATOM      9  C   UNL A   1      43.731  23.321  29.413  1.00  0.00     0.131 A 
ATOM     10  C   UNL A   1      45.866  24.073  27.807  1.00  0.00     0.005 A 
ATOM     11  C   UNL A   1      43.854  22.774  28.140  1.00  0.00     0.044 A 
ATOM     12  F   UNL A   1      42.707  22.918  30.179  1.00  0.00    -0.206 F 
BRANCH   7  13
ATOM     13  C   UNL A   1      44.567  24.814  31.238  1.00  0.00    -0.012 A 
ATOM     14  C   UNL A   1      44.988  24.578  33.601  1.00  0.00     0.133 A 
ATOM     15  C   UNL A   1      44.632  25.906  33.823  1.00  0.00     0.047 A 
ATOM     16  C   UNL A   1      44.928  24.020  32.330  1.00  0.00     0.056 A 
ATOM     17  C   UNL A   1      44.246  26.699  32.745  1.00  0.00     0.004 A 
ATOM     18  C   UNL A   1      44.220  26.157  31.458  1.00  0.00     0.009 A 
BRANCH  14  19
ATOM     19  O   UNL A   1      45.324  23.800  34.714  1.00  0.00    -0.410 OA
BRANCH  19  20
ATOM     20  C   UNL A   1      44.293  23.360  35.529  1.00  0.00     0.412 C 
ATOM     21  N   UNL A   1      44.727  22.947  36.753  1.00  0.00    -0.321 N 
ATOM     22  H   UNL A   1      44.052  22.570  37.362  1.00  0.00     0.167 HD
ATOM     23  O   UNL A   1      43.097  23.329  35.245  1.00  0.00    -0.224 OA
BRANCH  21  24
ATOM     24  C   UNL A   1      46.087  23.011  37.240  1.00  0.00     0.119 C 
BRANCH  24  25
ATOM     25  C   UNL A   1      46.131  23.145  38.760  1.00  0.00     0.021 C 
BRANCH  25  26
ATOM     26  C   UNL A   1      45.217  24.237  39.327  1.00  0.00     0.002 C 
BRANCH  26  27
ATOM     27  C   UNL A   1      45.791  25.657  39.279  1.00  0.00    -0.000 C 
BRANCH  27  28
ATOM     28  C   UNL A   1      44.858  26.717  38.689  1.00  0.00    -0.003 C 
ATOM     29  C   UNL A   1      43.706  26.121  37.897  1.00  0.00     0.004 C 
ENDBRANCH  27  28
ENDBRANCH  26  27
ENDBRANCH  25  26
ENDBRANCH  24  25
ENDBRANCH  21  24
ENDBRANCH  19  20
ENDBRANCH  14  19
ENDBRANCH   7  13
ENDBRANCH   4   6
ENDBRANCH   2   4
ENDBRANCH   1   2
BRANCH   1  30
ATOM     30  C   UNL A   1      43.848  20.423  25.311  1.00  0.00     0.261 C 
BRANCH  30  31
ATOM     31  C   UNL A   1      42.870  19.329  25.746  1.00  0.00     0.202 C 
BRANCH  31  32
ATOM     32  O   UNL A   1      41.478  19.560  25.555  1.00  0.00    -0.374 OA
BRANCH  32  33
ATOM     33  C   UNL A   1      40.729  20.154  26.611  1.00  0.00     0.202 C 
BRANCH  33  34
ATOM     34  C   UNL A   1      39.747  21.286  26.277  1.00  0.00     0.261 C 
BRANCH  34  35
ATOM     35  O   UNL A   1      40.376  22.569  26.104  1.00  0.00    -0.460 OA
BRANCH  35  36
ATOM     36  C   UNL A   1      39.611  23.620  26.500  1.00  0.00     0.338 C 
ATOM     37  O   UNL A   1      38.400  23.630  26.649  1.00  0.00    -0.246 OA
BRANCH  36  38
ATOM     38  C   UNL A   1      40.454  24.754  26.915  1.00  0.00     0.060 A 
ATOM     39  C   UNL A   1      40.852  24.809  28.258  1.00  0.00     0.016 A 
ATOM     40  C   UNL A   1      40.727  25.814  26.050  1.00  0.00     0.016 A 
ATOM     41  C   UNL A   1      41.476  25.950  28.755  1.00  0.00     0.010 A 
ATOM     42  C   UNL A   1      41.350  26.962  26.553  1.00  0.00     0.010 A 
ATOM     43  C   UNL A   1      41.690  27.051  27.917  1.00  0.00    -0.014 A 
BRANCH  43  44
ATOM     44  C   UNL A   1      42.135  28.342  28.500  1.00  0.00     0.031 A 
ATOM     45  C   UNL A   1      43.608  28.637  28.592  1.00  0.00     0.074 A 
ATOM     46  C   UNL A   1      41.235  29.252  28.915  1.00  0.00     0.049 A 
ATOM     47  N   UNL A   1      44.215  29.673  29.109  1.00  0.00    -0.248 NA
ATOM     48  C   UNL A   1      44.518  27.627  28.027  1.00  0.00     0.031 C 
ATOM     49  C   UNL A   1      39.783  29.099  28.834  1.00  0.00     0.029 A 
ATOM     50  N   UNL A   1      41.412  30.483  29.493  1.00  0.00    -0.354 N 
ATOM     51  C   UNL A   1      45.576  29.437  28.946  1.00  0.00     0.074 A 
ATOM     52  C   UNL A   1      45.706  28.144  28.308  1.00  0.00     0.031 C 
ATOM     53  C   UNL A   1      39.200  30.191  29.358  1.00  0.00     0.029 A 
ATOM     54  C   UNL A   1      40.236  31.101  29.845  1.00  0.00     0.049 A 
ATOM     55  H   UNL A   1      42.298  30.886  29.643  1.00  0.00     0.167 HD
ATOM     56  C   UNL A   1      46.620  30.228  29.290  1.00  0.00     0.037 A 
ATOM     57  C   UNL A   1      40.018  32.255  30.507  1.00  0.00     0.037 A 
ATOM     58  C   UNL A   1      46.480  31.517  29.920  1.00  0.00     0.049 A 
ATOM     59  C   UNL A   1      41.197  33.088  30.942  1.00  0.00     0.074 A 
ATOM     60  C   UNL A   1      47.475  32.405  30.291  1.00  0.00     0.029 A 
ATOM     61  N   UNL A   1      45.273  32.097  30.282  1.00  0.00    -0.354 N 
ATOM     62  N   UNL A   1      42.477  32.862  30.765  1.00  0.00    -0.248 NA
ATOM     63  C   UNL A   1      40.902  34.334  31.663  1.00  0.00     0.031 C 
ATOM     64  C   UNL A   1      46.873  33.494  30.928  1.00  0.00     0.029 A 
ATOM     65  C   UNL A   1      45.498  33.318  30.896  1.00  0.00     0.049 A 
ATOM     66  H   UNL A   1      44.385  31.699  30.126  1.00  0.00     0.167 HD
ATOM     67  C   UNL A   1      43.139  33.954  31.320  1.00  0.00     0.074 A 
ATOM     68  C   UNL A   1      42.116  34.841  31.835  1.00  0.00     0.031 C 
ATOM     69  C   UNL A   1      44.470  34.201  31.391  1.00  0.00     0.037 A 
BRANCH  56  70
ATOM     70  C   UNL A   1      48.009  29.714  29.021  1.00  0.00     0.058 A 
ATOM     71  C   UNL A   1      48.700  30.020  27.838  1.00  0.00     0.135 A 
ATOM     72  C   UNL A   1      48.676  28.936  29.983  1.00  0.00     0.135 A 
ATOM     73  F   UNL A   1      48.108  30.747  26.878  1.00  0.00    -0.206 F 
ATOM     74  C   UNL A   1      49.989  29.551  27.606  1.00  0.00     0.059 A 
ATOM     75  C   UNL A   1      49.976  28.481  29.785  1.00  0.00     0.059 A 
ATOM     76  F   UNL A   1      48.064  28.613  31.133  1.00  0.00    -0.206 F 
ATOM     77  C   UNL A   1      50.620  28.782  28.586  1.00  0.00     0.060 A 
BRANCH  77  78
ATOM     78  S   UNL A   1      52.293  28.184  28.269  1.00  0.00     0.124 S 
ATOM     79  O   UNL A   1      53.070  28.975  29.220  1.00  0.00    -0.237 OA
ATOM     80  O   UNL A   1      52.178  26.761  28.574  1.00  0.00    -0.237 OA
ATOM     81  O   UNL A   1      52.510  28.505  26.863  1.00  0.00    -0.744 OA
ENDBRANCH  77  78
ENDBRANCH  56  70
BRANCH  57  82
ATOM     82  C   UNL A   1      38.627  32.686  30.808  1.00  0.00     0.058 A 
ATOM     83  C   UNL A   1      37.965  32.246  31.964  1.00  0.00     0.135 A 
ATOM     84  C   UNL A   1      37.933  33.554  29.950  1.00  0.00     0.135 A 
ATOM     85  F   UNL A   1      38.580  31.406  32.810  1.00  0.00    -0.206 F 
ATOM     86  C   UNL A   1      36.662  32.639  32.252  1.00  0.00     0.059 A 
ATOM     87  C   UNL A   1      36.641  33.985  30.231  1.00  0.00     0.059 A 
ATOM     88  F   UNL A   1      38.525  34.013  28.836  1.00  0.00    -0.206 F 
ATOM     89  C   UNL A   1      36.009  33.515  31.381  1.00  0.00     0.060 A 
BRANCH  89  90
ATOM     90  S   UNL A   1      34.338  34.058  31.794  1.00  0.00     0.124 S 
ATOM     91  O   UNL A   1      33.912  33.019  32.725  1.00  0.00    -0.237 OA
ATOM     92  O   UNL A   1      34.582  35.376  32.374  1.00  0.00    -0.237 OA
ATOM     93  O   UNL A   1      33.658  34.067  30.503  1.00  0.00    -0.744 OA
ENDBRANCH  89  90
ENDBRANCH  57  82
BRANCH  69  94
ATOM     94  C   UNL A   1      44.910  35.506  31.999  1.00  0.00     0.058 A 
ATOM     95  C   UNL A   1      45.054  36.674  31.235  1.00  0.00     0.135 A 
ATOM     96  C   UNL A   1      45.120  35.602  33.386  1.00  0.00     0.135 A 
ATOM     97  F   UNL A   1      44.872  36.638  29.905  1.00  0.00    -0.206 F 
ATOM     98  C   UNL A   1      45.408  37.887  31.819  1.00  0.00     0.059 A 
ATOM     99  C   UNL A   1      45.444  36.811  33.995  1.00  0.00     0.059 A 
ATOM    100  F   UNL A   1      44.986  34.519  34.167  1.00  0.00    -0.206 F 
ATOM    101  C   UNL A   1      45.595  37.946  33.202  1.00  0.00     0.060 A 
BRANCH 101 102
ATOM    102  S   UNL A   1      46.005  39.536  33.953  1.00  0.00     0.124 S 
ATOM    103  O   UNL A   1      47.271  39.234  34.610  1.00  0.00    -0.237 OA
ATOM    104  O   UNL A   1      46.087  40.416  32.791  1.00  0.00    -0.237 OA
ATOM    105  O   UNL A   1      44.879  39.791  34.846  1.00  0.00    -0.744 OA
ENDBRANCH 101 102
ENDBRANCH  69  94
ENDBRANCH  43  44
ENDBRANCH  36  38
ENDBRANCH  35  36
ENDBRANCH  34  35
ENDBRANCH  33  34
ENDBRANCH  32  33
ENDBRANCH  31  32
ENDBRANCH  30  31
ENDBRANCH   1  30
TORSDOF 26
ENDMDL
MODEL 3
REMARK VINA RESULT:      -7.8      1.710      8.232
REMARK SMILES CCCCCCNC(=O)Oc1cccc(-c2ccc([C@H](C)C(=O)OCCOCCOC(=O)c3ccc(-c4c5nc(c(-c6c(F)cc(S(=O)(=O)[O-])cc6F)c6ccc([nH]6)c(-c6c(F)cc(S(=O)(=O)[O-])cc6F)c6nc(c(-c7c(F)cc(S(=O)(=O)[O-])cc7F)c7ccc4[nH]7)C=C6)C=C5)cc3)cc2F)c1
REMARK SMILES IDX 24 1 22 2 23 3 20 4 21 5 19 6 16 7 17 8 100 9 18 10 99 11
REMARK SMILES IDX 101 12 15 13 11 14 12 15 102 16 13 17 14 18 10 19 8 20 7 21
REMARK SMILES IDX 9 23 6 24 5 25 4 26 3 27 2 28 1 29 25 30 26 31 27 32 28 33
REMARK SMILES IDX 29 34 30 35 31 36 32 37 33 38 34 39 98 40 35 41 97 42 36 43
REMARK SMILES IDX 37 44 38 45 91 46 39 47 96 48 90 49 92 50 40 51 95 52 89 53
REMARK SMILES IDX 88 54 41 56 75 57 54 58 74 59 55 60 58 61 73 62 93 63 56 64
REMARK SMILES IDX 57 65 72 67 94 68 59 69 42 70 43 71 52 72 44 73 45 74 51 75
REMARK SMILES IDX 53 76 46 77 47 78 48 79 49 80 50 81 76 82 77 83 86 84 78 85
REMARK SMILES IDX 79 86 85 87 87 88 80 89 81 90 82 91 83 92 84 93 60 94 61 95
REMARK SMILES IDX 70 96 62 97 63 98 69 99 71 100 64 101 65 102 66 103 67 104
REMARK SMILES IDX 68 105
REMARK H PARENT 7 22 92 55 58 66
REMARK Flexibility Score: inf
ROOT
ATOM      1  O   UNL A   1      42.906  21.797  24.954  1.00  0.00    -0.463 OA
ENDROOT
BRANCH   1   2
ATOM      2  C   UNL A   1      43.546  22.961  25.258  1.00  0.00     0.313 C 
ATOM      3  O   UNL A   1      43.135  24.083  24.987  1.00  0.00    -0.252 OA
BRANCH   2   4
ATOM      4  C   UNL A   1      44.884  22.714  25.946  1.00  0.00     0.126 C 
ATOM      5  C   UNL A   1      46.116  23.206  25.189  1.00  0.00     0.025 C 
BRANCH   4   6
ATOM      6  C   UNL A   1      44.867  23.273  27.349  1.00  0.00    -0.031 A 
ATOM      7  C   UNL A   1      44.823  24.339  29.950  1.00  0.00     0.018 A 
ATOM      8  C   UNL A   1      45.845  24.686  29.058  1.00  0.00     0.012 A 
ATOM      9  C   UNL A   1      43.843  23.435  29.526  1.00  0.00     0.131 A 
ATOM     10  C   UNL A   1      45.875  24.150  27.778  1.00  0.00     0.005 A 
ATOM     11  C   UNL A   1      43.854  22.906  28.241  1.00  0.00     0.044 A 
ATOM     12  F   UNL A   1      42.866  23.048  30.361  1.00  0.00    -0.206 F 
BRANCH   7  13
ATOM     13  C   UNL A   1      44.858  24.870  31.307  1.00  0.00    -0.012 A 
ATOM     14  C   UNL A   1      44.836  24.474  33.685  1.00  0.00     0.133 A 
ATOM     15  C   UNL A   1      45.134  25.810  33.936  1.00  0.00     0.047 A 
ATOM     16  C   UNL A   1      44.665  24.006  32.388  1.00  0.00     0.056 A 
ATOM     17  C   UNL A   1      45.301  26.686  32.866  1.00  0.00     0.004 A 
ATOM     18  C   UNL A   1      45.171  26.216  31.558  1.00  0.00     0.009 A 
BRANCH  14  19
ATOM     19  O   UNL A   1      44.627  23.636  34.786  1.00  0.00    -0.410 OA
BRANCH  19  20
ATOM     20  C   UNL A   1      44.540  24.223  36.038  1.00  0.00     0.412 C 
ATOM     21  N   UNL A   1      43.265  24.569  36.371  1.00  0.00    -0.321 N 
ATOM     22  H   UNL A   1      43.140  25.042  37.226  1.00  0.00     0.167 HD
ATOM     23  O   UNL A   1      45.469  24.429  36.816  1.00  0.00    -0.224 OA
BRANCH  21  24
ATOM     24  C   UNL A   1      42.079  24.308  35.587  1.00  0.00     0.119 C 
BRANCH  24  25
ATOM     25  C   UNL A   1      41.148  25.518  35.559  1.00  0.00     0.021 C 
BRANCH  25  26
ATOM     26  C   UNL A   1      41.834  26.836  35.185  1.00  0.00     0.002 C 
BRANCH  26  27
ATOM     27  C   UNL A   1      41.619  27.295  33.738  1.00  0.00    -0.000 C 
BRANCH  27  28
ATOM     28  C   UNL A   1      41.147  28.742  33.578  1.00  0.00    -0.003 C 
ATOM     29  C   UNL A   1      42.279  29.752  33.680  1.00  0.00     0.004 C 
ENDBRANCH  27  28
ENDBRANCH  26  27
ENDBRANCH  25  26
ENDBRANCH  24  25
ENDBRANCH  21  24
ENDBRANCH  19  20
ENDBRANCH  14  19
ENDBRANCH   7  13
ENDBRANCH   4   6
ENDBRANCH   2   4
ENDBRANCH   1   2
BRANCH   1  30
ATOM     30  C   UNL A   1      43.565  20.602  25.393  1.00  0.00     0.261 C 
BRANCH  30  31
ATOM     31  C   UNL A   1      42.660  19.716  26.250  1.00  0.00     0.202 C 
BRANCH  31  32
ATOM     32  O   UNL A   1      41.251  19.902  26.150  1.00  0.00    -0.374 OA
BRANCH  32  33
ATOM     33  C   UNL A   1      40.620  20.844  27.012  1.00  0.00     0.202 C 
BRANCH  33  34
ATOM     34  C   UNL A   1      39.552  21.781  26.430  1.00  0.00     0.261 C 
BRANCH  34  35
ATOM     35  O   UNL A   1      40.064  23.059  26.010  1.00  0.00    -0.460 OA
BRANCH  35  36
ATOM     36  C   UNL A   1      39.406  24.122  26.541  1.00  0.00     0.338 C 
ATOM     37  O   UNL A   1      38.212  24.200  26.780  1.00  0.00    -0.246 OA
BRANCH  36  38
ATOM     38  C   UNL A   1      40.355  25.160  26.977  1.00  0.00     0.060 A 
ATOM     39  C   UNL A   1      40.833  25.090  28.293  1.00  0.00     0.016 A 
ATOM     40  C   UNL A   1      40.656  26.257  26.169  1.00  0.00     0.016 A 
ATOM     41  C   UNL A   1      41.570  26.146  28.825  1.00  0.00     0.010 A 
ATOM     42  C   UNL A   1      41.393  27.319  26.708  1.00  0.00     0.010 A 
ATOM     43  C   UNL A   1      41.817  27.285  28.050  1.00  0.00    -0.014 A 
BRANCH  43  44
ATOM     44  C   UNL A   1      42.392  28.496  28.690  1.00  0.00     0.031 A 
ATOM     45  C   UNL A   1      41.467  29.505  29.317  1.00  0.00     0.074 A 
ATOM     46  C   UNL A   1      43.724  28.679  28.737  1.00  0.00     0.049 A 
ATOM     47  N   UNL A   1      41.748  30.650  29.881  1.00  0.00    -0.248 NA
ATOM     48  C   UNL A   1      40.031  29.178  29.304  1.00  0.00     0.031 C 
ATOM     49  C   UNL A   1      44.721  27.751  28.205  1.00  0.00     0.029 A 
ATOM     50  N   UNL A   1      44.465  29.712  29.250  1.00  0.00    -0.354 N 
ATOM     51  C   UNL A   1      40.529  31.189  30.278  1.00  0.00     0.074 A 
ATOM     52  C   UNL A   1      39.502  30.257  29.864  1.00  0.00     0.031 C 
ATOM     53  C   UNL A   1      45.946  28.265  28.408  1.00  0.00     0.029 A 
ATOM     54  C   UNL A   1      45.818  29.573  29.048  1.00  0.00     0.049 A 
ATOM     55  H   UNL A   1      44.067  30.482  29.718  1.00  0.00     0.167 HD
ATOM     56  C   UNL A   1      40.289  32.349  30.934  1.00  0.00     0.037 A 
ATOM     57  C   UNL A   1      46.834  30.415  29.324  1.00  0.00     0.037 A 
ATOM     58  C   UNL A   1      41.320  33.268  31.347  1.00  0.00     0.049 A 
ATOM     59  C   UNL A   1      46.538  31.733  29.993  1.00  0.00     0.074 A 
ATOM     60  C   UNL A   1      41.182  34.461  32.035  1.00  0.00     0.029 A 
ATOM     61  N   UNL A   1      42.675  33.102  31.103  1.00  0.00    -0.354 N 
ATOM     62  N   UNL A   1      45.383  32.221  30.380  1.00  0.00    -0.248 NA
ATOM     63  C   UNL A   1      47.683  32.614  30.266  1.00  0.00     0.031 C 
ATOM     64  C   UNL A   1      42.447  35.044  32.155  1.00  0.00     0.029 A 
ATOM     65  C   UNL A   1      43.383  34.183  31.602  1.00  0.00     0.049 A 
ATOM     66  H   UNL A   1      43.076  32.330  30.642  1.00  0.00     0.167 HD
ATOM     67  C   UNL A   1      45.666  33.448  30.974  1.00  0.00     0.074 A 
ATOM     68  C   UNL A   1      47.101  33.625  30.898  1.00  0.00     0.031 C 
ATOM     69  C   UNL A   1      44.815  34.341  31.536  1.00  0.00     0.037 A 
BRANCH  56  70
ATOM     70  C   UNL A   1      38.856  32.710  31.222  1.00  0.00     0.058 A 
ATOM     71  C   UNL A   1      38.239  32.393  32.443  1.00  0.00     0.135 A 
ATOM     72  C   UNL A   1      38.100  33.421  30.275  1.00  0.00     0.135 A 
ATOM     73  F   UNL A   1      38.909  31.702  33.379  1.00  0.00    -0.206 F 
ATOM     74  C   UNL A   1      36.919  32.743  32.704  1.00  0.00     0.059 A 
ATOM     75  C   UNL A   1      36.786  33.808  30.526  1.00  0.00     0.059 A 
ATOM     76  F   UNL A   1      38.638  33.750  29.090  1.00  0.00    -0.206 F 
ATOM     77  C   UNL A   1      36.200  33.451  31.739  1.00  0.00     0.060 A 
BRANCH  77  78
ATOM     78  S   UNL A   1      34.488  33.900  32.095  1.00  0.00     0.124 S 
ATOM     79  O   UNL A   1      33.964  32.648  32.633  1.00  0.00    -0.237 OA
ATOM     80  O   UNL A   1      34.644  34.987  33.057  1.00  0.00    -0.237 OA
ATOM     81  O   UNL A   1      33.959  34.291  30.792  1.00  0.00    -0.744 OA
ENDBRANCH  77  78
ENDBRANCH  56  70
BRANCH  57  82
ATOM     82  C   UNL A   1      48.226  30.041  28.957  1.00  0.00     0.058 A 
ATOM     83  C   UNL A   1      49.026  29.281  29.822  1.00  0.00     0.135 A 
ATOM     84  C   UNL A   1      48.783  30.430  27.727  1.00  0.00     0.135 A 
ATOM     85  F   UNL A   1      48.545  28.894  31.013  1.00  0.00    -0.206 F 
ATOM     86  C   UNL A   1      50.331  28.931  29.490  1.00  0.00     0.059 A 
ATOM     87  C   UNL A   1      50.074  30.067  27.360  1.00  0.00     0.059 A 
ATOM     88  F   UNL A   1      48.055  31.150  26.858  1.00  0.00    -0.206 F 
ATOM     89  C   UNL A   1      50.845  29.324  28.252  1.00  0.00     0.060 A 
BRANCH  89  90
ATOM     90  S   UNL A   1      52.521  28.819  27.811  1.00  0.00     0.124 S 
ATOM     91  O   UNL A   1      52.599  27.496  28.422  1.00  0.00    -0.237 OA
ATOM     92  O   UNL A   1      52.473  28.848  26.353  1.00  0.00    -0.237 OA
ATOM     93  O   UNL A   1      53.355  29.846  28.424  1.00  0.00    -0.744 OA
ENDBRANCH  89  90
ENDBRANCH  57  82
BRANCH  69  94
ATOM     94  C   UNL A   1      45.407  35.574  32.166  1.00  0.00     0.058 A 
ATOM     95  C   UNL A   1      45.554  36.776  31.458  1.00  0.00     0.135 A 
ATOM     96  C   UNL A   1      45.766  35.568  33.525  1.00  0.00     0.135 A 
ATOM     97  F   UNL A   1      45.234  36.836  30.155  1.00  0.00    -0.206 F 
ATOM     98  C   UNL A   1      46.052  37.924  32.068  1.00  0.00     0.059 A 
ATOM     99  C   UNL A   1      46.236  36.712  34.164  1.00  0.00     0.059 A 
ATOM    100  F   UNL A   1      45.636  34.448  34.254  1.00  0.00    -0.206 F 
ATOM    101  C   UNL A   1      46.384  37.883  33.424  1.00  0.00     0.060 A 
BRANCH 101 102
ATOM    102  S   UNL A   1      46.981  39.392  34.214  1.00  0.00     0.124 S 
ATOM    103  O   UNL A   1      48.389  39.077  34.428  1.00  0.00    -0.237 OA
ATOM    104  O   UNL A   1      46.705  40.405  33.200  1.00  0.00    -0.237 OA
ATOM    105  O   UNL A   1      46.168  39.488  35.424  1.00  0.00    -0.744 OA
ENDBRANCH 101 102
ENDBRANCH  69  94
ENDBRANCH  43  44
ENDBRANCH  36  38
ENDBRANCH  35  36
ENDBRANCH  34  35
ENDBRANCH  33  34
ENDBRANCH  32  33
ENDBRANCH  31  32
ENDBRANCH  30  31
ENDBRANCH   1  30
TORSDOF 26
ENDMDL
