MODEL 1
REMARK VINA RESULT:      -9.7      0.000      0.000
REMARK SMILES O=C(/C=C/c1ccc(O)c(O)c1)OCCOCCOC(=O)c1ccc(-c2c3nc(c(-c4c(F)cc(S(=O)(=O)[O-])cc4F)c4ccc([nH]4)c(-c4c(F)cc(S(=O)(=O)[O-])cc4F)c4nc(c(-c5c(F)cc(S(=O)(=O)[O-])cc5F)c5ccc2[nH]5)C=C4)C=C3)cc1
REMARK SMILES IDX 17 1 16 2 15 3 14 4 13 5 2 6 1 7 3 8 4 9 5 10 6 11 12 12
REMARK SMILES IDX 7 13 10 14 8 15 11 16 9 18 18 20 19 21 20 22 21 23 22 24
REMARK SMILES IDX 23 25 87 26 24 27 86 28 25 29 26 30 27 31 80 32 28 33 85 34
REMARK SMILES IDX 79 35 81 36 29 37 84 38 78 39 77 40 30 42 64 43 43 44 63 45
REMARK SMILES IDX 44 46 47 47 62 48 82 49 45 50 46 51 61 53 83 54 48 55 31 56
REMARK SMILES IDX 32 57 41 58 33 59 34 60 40 61 42 62 35 63 36 64 37 65 38 66
REMARK SMILES IDX 39 67 65 68 66 69 75 70 67 71 68 72 74 73 76 74 69 75 70 76
REMARK SMILES IDX 71 77 72 78 73 79 49 80 50 81 59 82 51 83 52 84 58 85 60 86
REMARK SMILES IDX 53 87 54 88 55 89 56 90 57 91
REMARK H PARENT 11 17 9 19 81 41 47 52
REMARK Flexibility Score: inf
ROOT
ATOM      1  C   UNL A   1      33.438  34.270  28.676  1.00  0.00     0.202 C 
ENDROOT
BRANCH   1   2
ATOM      2  O   UNL A   1      32.509  34.952  29.527  1.00  0.00    -0.374 OA
BRANCH   2   3
ATOM      3  C   UNL A   1      32.940  36.236  29.971  1.00  0.00     0.202 C 
BRANCH   3   4
ATOM      4  C   UNL A   1      33.364  36.349  31.433  1.00  0.00     0.261 C 
BRANCH   4   5
ATOM      5  O   UNL A   1      33.896  35.142  32.012  1.00  0.00    -0.460 OA
BRANCH   5   6
ATOM      6  C   UNL A   1      34.688  35.018  33.097  1.00  0.00     0.330 C 
ATOM      7  O   UNL A   1      34.768  35.939  33.909  1.00  0.00    -0.247 OA
BRANCH   6   8
ATOM      8  C   UNL A   1      35.580  33.862  33.283  1.00  0.00     0.094 C 
ATOM      9  C   UNL A   1      36.530  33.418  32.452  1.00  0.00     0.016 C 
BRANCH   9  10
ATOM     10  C   UNL A   1      37.431  32.316  32.784  1.00  0.00    -0.021 A 
ATOM     11  C   UNL A   1      38.766  32.560  33.127  1.00  0.00     0.012 A 
ATOM     12  C   UNL A   1      36.916  31.015  32.853  1.00  0.00     0.058 A 
ATOM     13  C   UNL A   1      39.574  31.521  33.594  1.00  0.00     0.051 A 
ATOM     14  C   UNL A   1      37.724  29.991  33.321  1.00  0.00     0.157 A 
ATOM     15  C   UNL A   1      39.037  30.243  33.708  1.00  0.00     0.157 A 
BRANCH  14  16
ATOM     16  O   UNL A   1      37.208  28.732  33.433  1.00  0.00    -0.504 OA
ATOM     17  H   UNL A   1      36.513  28.563  34.036  1.00  0.00     0.293 HD
ENDBRANCH  14  16
BRANCH  15  18
ATOM     18  O   UNL A   1      39.761  29.205  34.224  1.00  0.00    -0.504 OA
ATOM     19  H   UNL A   1      39.929  29.163  35.145  1.00  0.00     0.293 HD
ENDBRANCH  15  18
ENDBRANCH   9  10
ENDBRANCH   6   8
ENDBRANCH   5   6
ENDBRANCH   4   5
ENDBRANCH   3   4
ENDBRANCH   2   3
ENDBRANCH   1   2
BRANCH   1  20
ATOM     20  C   UNL A   1      34.263  33.179  29.366  1.00  0.00     0.261 C 
BRANCH  20  21
ATOM     21  O   UNL A   1      35.142  32.526  28.439  1.00  0.00    -0.460 OA
BRANCH  21  22
ATOM     22  C   UNL A   1      34.838  31.228  28.201  1.00  0.00     0.338 C 
ATOM     23  O   UNL A   1      33.769  30.782  27.812  1.00  0.00    -0.246 OA
BRANCH  22  24
ATOM     24  C   UNL A   1      36.070  30.416  28.275  1.00  0.00     0.060 A 
ATOM     25  C   UNL A   1      36.439  29.925  29.535  1.00  0.00     0.016 A 
ATOM     26  C   UNL A   1      36.851  30.142  27.150  1.00  0.00     0.016 A 
ATOM     27  C   UNL A   1      37.635  29.235  29.690  1.00  0.00     0.010 A 
ATOM     28  C   UNL A   1      38.056  29.452  27.306  1.00  0.00     0.010 A 
ATOM     29  C   UNL A   1      38.478  29.054  28.588  1.00  0.00    -0.014 A 
BRANCH  29  30
ATOM     30  C   UNL A   1      39.894  28.695  28.830  1.00  0.00     0.031 A 
ATOM     31  C   UNL A   1      40.772  29.715  29.506  1.00  0.00     0.074 A 
ATOM     32  C   UNL A   1      40.365  27.474  28.526  1.00  0.00     0.049 A 
ATOM     33  N   UNL A   1      42.030  29.634  29.849  1.00  0.00    -0.248 NA
ATOM     34  C   UNL A   1      40.144  31.007  29.838  1.00  0.00     0.031 C 
ATOM     35  C   UNL A   1      39.590  26.397  27.909  1.00  0.00     0.029 A 
ATOM     36  N   UNL A   1      41.613  26.934  28.701  1.00  0.00    -0.354 N 
ATOM     37  C   UNL A   1      42.346  30.861  30.420  1.00  0.00     0.074 A 
ATOM     38  C   UNL A   1      41.161  31.684  30.345  1.00  0.00     0.031 C 
ATOM     39  C   UNL A   1      40.383  25.322  27.761  1.00  0.00     0.029 A 
ATOM     40  C   UNL A   1      41.724  25.643  28.246  1.00  0.00     0.049 A 
ATOM     41  H   UNL A   1      42.359  27.426  29.115  1.00  0.00     0.167 HD
ATOM     42  C   UNL A   1      43.516  31.262  30.969  1.00  0.00     0.037 A 
ATOM     43  C   UNL A   1      42.793  24.823  28.218  1.00  0.00     0.037 A 
ATOM     44  C   UNL A   1      44.685  30.427  31.048  1.00  0.00     0.049 A 
ATOM     45  C   UNL A   1      44.100  25.309  28.793  1.00  0.00     0.074 A 
ATOM     46  C   UNL A   1      45.916  30.721  31.605  1.00  0.00     0.029 A 
ATOM     47  N   UNL A   1      44.769  29.135  30.549  1.00  0.00    -0.354 N 
ATOM     48  N   UNL A   1      44.381  26.464  29.352  1.00  0.00    -0.248 NA
ATOM     49  C   UNL A   1      45.233  24.376  28.743  1.00  0.00     0.031 C 
ATOM     50  C   UNL A   1      46.763  29.629  31.387  1.00  0.00     0.029 A 
ATOM     51  C   UNL A   1      46.039  28.628  30.760  1.00  0.00     0.049 A 
ATOM     52  H   UNL A   1      44.033  28.651  30.108  1.00  0.00     0.167 HD
ATOM     53  C   UNL A   1      45.709  26.378  29.758  1.00  0.00     0.074 A 
ATOM     54  C   UNL A   1      46.171  25.057  29.385  1.00  0.00     0.031 C 
ATOM     55  C   UNL A   1      46.476  27.304  30.389  1.00  0.00     0.037 A 
BRANCH  42  56
ATOM     56  C   UNL A   1      43.597  32.671  31.493  1.00  0.00     0.058 A 
ATOM     57  C   UNL A   1      43.995  33.748  30.685  1.00  0.00     0.135 A 
ATOM     58  C   UNL A   1      43.250  32.949  32.825  1.00  0.00     0.135 A 
ATOM     59  F   UNL A   1      44.362  33.540  29.410  1.00  0.00    -0.206 F 
ATOM     60  C   UNL A   1      44.075  35.045  31.187  1.00  0.00     0.059 A 
ATOM     61  C   UNL A   1      43.289  34.242  33.339  1.00  0.00     0.059 A 
ATOM     62  F   UNL A   1      42.869  31.957  33.645  1.00  0.00    -0.206 F 
ATOM     63  C   UNL A   1      43.716  35.281  32.515  1.00  0.00     0.060 A 
BRANCH  63  64
ATOM     64  S   UNL A   1      43.814  36.969  33.148  1.00  0.00     0.124 S 
ATOM     65  O   UNL A   1      45.072  36.931  33.887  1.00  0.00    -0.237 OA
ATOM     66  O   UNL A   1      43.821  37.761  31.922  1.00  0.00    -0.237 OA
ATOM     67  O   UNL A   1      42.611  37.096  33.966  1.00  0.00    -0.744 OA
ENDBRANCH  63  64
ENDBRANCH  42  56
BRANCH  43  68
ATOM     68  C   UNL A   1      42.673  23.457  27.640  1.00  0.00     0.058 A 
ATOM     69  C   UNL A   1      42.860  23.228  26.269  1.00  0.00     0.135 A 
ATOM     70  C   UNL A   1      42.365  22.351  28.449  1.00  0.00     0.135 A 
ATOM     71  F   UNL A   1      43.147  24.252  25.452  1.00  0.00    -0.206 F 
ATOM     72  C   UNL A   1      42.729  21.958  25.716  1.00  0.00     0.059 A 
ATOM     73  C   UNL A   1      42.257  21.066  27.924  1.00  0.00     0.059 A 
ATOM     74  F   UNL A   1      42.187  22.512  29.769  1.00  0.00    -0.206 F 
ATOM     75  C   UNL A   1      42.430  20.882  26.553  1.00  0.00     0.060 A 
BRANCH  75  76
ATOM     76  S   UNL A   1      42.307  19.232  25.831  1.00  0.00     0.124 S 
ATOM     77  O   UNL A   1      40.870  19.111  25.619  1.00  0.00    -0.237 OA
ATOM     78  O   UNL A   1      43.123  19.365  24.628  1.00  0.00    -0.237 OA
ATOM     79  O   UNL A   1      42.868  18.369  26.867  1.00  0.00    -0.744 OA
ENDBRANCH  75  76
ENDBRANCH  43  68
BRANCH  55  80
ATOM     80  C   UNL A   1      47.876  26.900  30.770  1.00  0.00     0.058 A 
ATOM     81  C   UNL A   1      48.960  27.037  29.889  1.00  0.00     0.135 A 
ATOM     82  C   UNL A   1      48.138  26.398  32.056  1.00  0.00     0.135 A 
ATOM     83  F   UNL A   1      48.767  27.512  28.648  1.00  0.00    -0.206 F 
ATOM     84  C   UNL A   1      50.245  26.648  30.253  1.00  0.00     0.059 A 
ATOM     85  C   UNL A   1      49.421  26.038  32.454  1.00  0.00     0.059 A 
ATOM     86  F   UNL A   1      47.142  26.263  32.946  1.00  0.00    -0.206 F 
ATOM     87  C   UNL A   1      50.465  26.146  31.537  1.00  0.00     0.060 A 
BRANCH  87  88
ATOM     88  S   UNL A   1      52.137  25.648  31.998  1.00  0.00     0.124 S 
ATOM     89  O   UNL A   1      51.969  24.213  32.200  1.00  0.00    -0.237 OA
ATOM     90  O   UNL A   1      52.914  26.036  30.825  1.00  0.00    -0.237 OA
ATOM     91  O   UNL A   1      52.404  26.426  33.204  1.00  0.00    -0.744 OA
ENDBRANCH  87  88
ENDBRANCH  55  80
ENDBRANCH  29  30
ENDBRANCH  22  24
ENDBRANCH  21  22
ENDBRANCH  20  21
ENDBRANCH   1  20
TORSDOF 20
ENDMDL
MODEL 2
REMARK VINA RESULT:      -9.4      3.253      4.329
REMARK SMILES O=C(/C=C/c1ccc(O)c(O)c1)OCCOCCOC(=O)c1ccc(-c2c3nc(c(-c4c(F)cc(S(=O)(=O)[O-])cc4F)c4ccc([nH]4)c(-c4c(F)cc(S(=O)(=O)[O-])cc4F)c4nc(c(-c5c(F)cc(S(=O)(=O)[O-])cc5F)c5ccc2[nH]5)C=C4)C=C3)cc1
REMARK SMILES IDX 17 1 16 2 15 3 14 4 13 5 2 6 1 7 3 8 4 9 5 10 6 11 12 12
REMARK SMILES IDX 7 13 10 14 8 15 11 16 9 18 18 20 19 21 20 22 21 23 22 24
REMARK SMILES IDX 23 25 87 26 24 27 86 28 25 29 26 30 27 31 80 32 28 33 85 34
REMARK SMILES IDX 79 35 81 36 29 37 84 38 78 39 77 40 30 42 64 43 43 44 63 45
REMARK SMILES IDX 44 46 47 47 62 48 82 49 45 50 46 51 61 53 83 54 48 55 31 56
REMARK SMILES IDX 32 57 41 58 33 59 34 60 40 61 42 62 35 63 36 64 37 65 38 66
REMARK SMILES IDX 39 67 65 68 66 69 75 70 67 71 68 72 74 73 76 74 69 75 70 76
REMARK SMILES IDX 71 77 72 78 73 79 49 80 50 81 59 82 51 83 52 84 58 85 60 86
REMARK SMILES IDX 53 87 54 88 55 89 56 90 57 91
REMARK H PARENT 11 17 9 19 81 41 47 52
REMARK Flexibility Score: inf
ROOT
ATOM      1  C   UNL A   1      33.642  34.905  28.920  1.00  0.00     0.202 C 
ENDROOT
BRANCH   1   2
ATOM      2  O   UNL A   1      32.484  35.384  29.616  1.00  0.00    -0.374 OA
BRANCH   2   3
ATOM      3  C   UNL A   1      32.740  36.439  30.539  1.00  0.00     0.202 C 
BRANCH   3   4
ATOM      4  C   UNL A   1      33.624  36.103  31.736  1.00  0.00     0.261 C 
BRANCH   4   5
ATOM      5  O   UNL A   1      33.424  34.791  32.298  1.00  0.00    -0.460 OA
BRANCH   5   6
ATOM      6  C   UNL A   1      34.296  33.764  32.347  1.00  0.00     0.330 C 
ATOM      7  O   UNL A   1      33.917  32.651  32.711  1.00  0.00    -0.247 OA
BRANCH   6   8
ATOM      8  C   UNL A   1      35.737  33.952  32.109  1.00  0.00     0.094 C 
ATOM      9  C   UNL A   1      36.625  34.565  32.900  1.00  0.00     0.016 C 
BRANCH   9  10
ATOM     10  C   UNL A   1      38.057  34.606  32.613  1.00  0.00    -0.021 A 
ATOM     11  C   UNL A   1      38.996  34.618  33.651  1.00  0.00     0.012 A 
ATOM     12  C   UNL A   1      38.485  34.531  31.281  1.00  0.00     0.058 A 
ATOM     13  C   UNL A   1      40.359  34.498  33.369  1.00  0.00     0.051 A 
ATOM     14  C   UNL A   1      39.840  34.408  31.011  1.00  0.00     0.157 A 
ATOM     15  C   UNL A   1      40.769  34.371  32.046  1.00  0.00     0.157 A 
BRANCH  14  16
ATOM     16  O   UNL A   1      40.253  34.288  29.716  1.00  0.00    -0.504 OA
ATOM     17  H   UNL A   1      40.811  34.939  29.340  1.00  0.00     0.293 HD
ENDBRANCH  14  16
BRANCH  15  18
ATOM     18  O   UNL A   1      42.082  34.180  31.718  1.00  0.00    -0.504 OA
ATOM     19  H   UNL A   1      42.599  34.901  31.416  1.00  0.00     0.293 HD
ENDBRANCH  15  18
ENDBRANCH   9  10
ENDBRANCH   6   8
ENDBRANCH   5   6
ENDBRANCH   4   5
ENDBRANCH   3   4
ENDBRANCH   2   3
ENDBRANCH   1   2
BRANCH   1  20
ATOM     20  C   UNL A   1      33.404  33.666  28.049  1.00  0.00     0.261 C 
BRANCH  20  21
ATOM     21  O   UNL A   1      34.641  33.021  27.712  1.00  0.00    -0.460 OA
BRANCH  21  22
ATOM     22  C   UNL A   1      34.603  31.669  27.787  1.00  0.00     0.338 C 
ATOM     23  O   UNL A   1      33.674  30.940  27.476  1.00  0.00    -0.246 OA
BRANCH  22  24
ATOM     24  C   UNL A   1      35.953  31.161  28.108  1.00  0.00     0.060 A 
ATOM     25  C   UNL A   1      36.144  29.773  28.061  1.00  0.00     0.016 A 
ATOM     26  C   UNL A   1      37.007  32.011  28.452  1.00  0.00     0.016 A 
ATOM     27  C   UNL A   1      37.362  29.224  28.442  1.00  0.00     0.010 A 
ATOM     28  C   UNL A   1      38.231  31.459  28.840  1.00  0.00     0.010 A 
ATOM     29  C   UNL A   1      38.387  30.062  28.896  1.00  0.00    -0.014 A 
BRANCH  29  30
ATOM     30  C   UNL A   1      39.501  29.466  29.668  1.00  0.00     0.031 A 
ATOM     31  C   UNL A   1      39.669  29.892  31.103  1.00  0.00     0.074 A 
ATOM     32  C   UNL A   1      40.292  28.521  29.132  1.00  0.00     0.049 A 
ATOM     33  N   UNL A   1      40.545  29.500  31.989  1.00  0.00    -0.248 NA
ATOM     34  C   UNL A   1      38.719  30.902  31.604  1.00  0.00     0.031 C 
ATOM     35  C   UNL A   1      40.189  28.004  27.768  1.00  0.00     0.029 A 
ATOM     36  N   UNL A   1      41.338  27.824  29.679  1.00  0.00    -0.354 N 
ATOM     37  C   UNL A   1      40.262  30.223  33.144  1.00  0.00     0.074 A 
ATOM     38  C   UNL A   1      39.160  31.104  32.836  1.00  0.00     0.031 C 
ATOM     39  C   UNL A   1      41.136  27.067  27.586  1.00  0.00     0.029 A 
ATOM     40  C   UNL A   1      41.925  26.938  28.809  1.00  0.00     0.049 A 
ATOM     41  H   UNL A   1      41.640  27.946  30.608  1.00  0.00     0.167 HD
ATOM     42  C   UNL A   1      40.861  30.149  34.355  1.00  0.00     0.037 A 
ATOM     43  C   UNL A   1      42.985  26.125  28.984  1.00  0.00     0.037 A 
ATOM     44  C   UNL A   1      41.951  29.258  34.650  1.00  0.00     0.049 A 
ATOM     45  C   UNL A   1      43.667  26.095  30.330  1.00  0.00     0.074 A 
ATOM     46  C   UNL A   1      42.617  29.082  35.850  1.00  0.00     0.029 A 
ATOM     47  N   UNL A   1      42.539  28.397  33.735  1.00  0.00    -0.354 N 
ATOM     48  N   UNL A   1      43.376  26.766  31.421  1.00  0.00    -0.248 NA
ATOM     49  C   UNL A   1      44.815  25.189  30.470  1.00  0.00     0.031 C 
ATOM     50  C   UNL A   1      43.648  28.160  35.642  1.00  0.00     0.029 A 
ATOM     51  C   UNL A   1      43.578  27.707  34.335  1.00  0.00     0.049 A 
ATOM     52  H   UNL A   1      42.258  28.293  32.797  1.00  0.00     0.167 HD
ATOM     53  C   UNL A   1      44.278  26.331  32.388  1.00  0.00     0.074 A 
ATOM     54  C   UNL A   1      45.117  25.336  31.752  1.00  0.00     0.031 C 
ATOM     55  C   UNL A   1      44.397  26.712  33.685  1.00  0.00     0.037 A 
BRANCH  42  56
ATOM     56  C   UNL A   1      40.373  31.079  35.434  1.00  0.00     0.058 A 
ATOM     57  C   UNL A   1      41.154  32.142  35.916  1.00  0.00     0.135 A 
ATOM     58  C   UNL A   1      39.091  30.912  35.981  1.00  0.00     0.135 A 
ATOM     59  F   UNL A   1      42.398  32.336  35.447  1.00  0.00    -0.206 F 
ATOM     60  C   UNL A   1      40.693  32.987  36.921  1.00  0.00     0.059 A 
ATOM     61  C   UNL A   1      38.596  31.765  36.963  1.00  0.00     0.059 A 
ATOM     62  F   UNL A   1      38.303  29.908  35.564  1.00  0.00    -0.206 F 
ATOM     63  C   UNL A   1      39.411  32.792  37.436  1.00  0.00     0.060 A 
BRANCH  63  64
ATOM     64  S   UNL A   1      38.822  33.902  38.733  1.00  0.00     0.124 S 
ATOM     65  O   UNL A   1      39.851  33.731  39.753  1.00  0.00    -0.237 OA
ATOM     66  O   UNL A   1      38.810  35.193  38.053  1.00  0.00    -0.237 OA
ATOM     67  O   UNL A   1      37.508  33.364  39.071  1.00  0.00    -0.744 OA
ENDBRANCH  63  64
ENDBRANCH  42  56
BRANCH  43  68
ATOM     68  C   UNL A   1      43.460  25.264  27.867  1.00  0.00     0.058 A 
ATOM     69  C   UNL A   1      44.332  25.760  26.887  1.00  0.00     0.135 A 
ATOM     70  C   UNL A   1      43.050  23.926  27.756  1.00  0.00     0.135 A 
ATOM     71  F   UNL A   1      44.748  27.035  26.943  1.00  0.00    -0.206 F 
ATOM     72  C   UNL A   1      44.766  24.970  25.827  1.00  0.00     0.059 A 
ATOM     73  C   UNL A   1      43.491  23.107  26.722  1.00  0.00     0.059 A 
ATOM     74  F   UNL A   1      42.224  23.397  28.673  1.00  0.00    -0.206 F 
ATOM     75  C   UNL A   1      44.341  23.642  25.754  1.00  0.00     0.060 A 
BRANCH  75  76
ATOM     76  S   UNL A   1      44.945  22.613  24.400  1.00  0.00     0.124 S 
ATOM     77  O   UNL A   1      45.327  21.394  25.104  1.00  0.00    -0.237 OA
ATOM     78  O   UNL A   1      43.766  22.514  23.544  1.00  0.00    -0.237 OA
ATOM     79  O   UNL A   1      46.047  23.396  23.848  1.00  0.00    -0.744 OA
ENDBRANCH  75  76
ENDBRANCH  43  68
BRANCH  55  80
ATOM     80  C   UNL A   1      45.433  26.009  34.521  1.00  0.00     0.058 A 
ATOM     81  C   UNL A   1      45.172  24.789  35.164  1.00  0.00     0.135 A 
ATOM     82  C   UNL A   1      46.721  26.554  34.651  1.00  0.00     0.135 A 
ATOM     83  F   UNL A   1      43.959  24.222  35.073  1.00  0.00    -0.206 F 
ATOM     84  C   UNL A   1      46.137  24.158  35.943  1.00  0.00     0.059 A 
ATOM     85  C   UNL A   1      47.713  25.922  35.394  1.00  0.00     0.059 A 
ATOM     86  F   UNL A   1      47.032  27.710  34.042  1.00  0.00    -0.206 F 
ATOM     87  C   UNL A   1      47.404  24.734  36.054  1.00  0.00     0.060 A 
BRANCH  87  88
ATOM     88  S   UNL A   1      48.647  23.905  37.065  1.00  0.00     0.124 S 
ATOM     89  O   UNL A   1      47.838  23.397  38.167  1.00  0.00    -0.237 OA
ATOM     90  O   UNL A   1      49.174  22.898  36.150  1.00  0.00    -0.237 OA
ATOM     91  O   UNL A   1      49.577  24.977  37.410  1.00  0.00    -0.744 OA
ENDBRANCH  87  88
ENDBRANCH  55  80
ENDBRANCH  29  30
ENDBRANCH  22  24
ENDBRANCH  21  22
ENDBRANCH  20  21
ENDBRANCH   1  20
TORSDOF 20
ENDMDL
MODEL 3
REMARK VINA RESULT:      -9.3      4.519      7.272
REMARK SMILES O=C(/C=C/c1ccc(O)c(O)c1)OCCOCCOC(=O)c1ccc(-c2c3nc(c(-c4c(F)cc(S(=O)(=O)[O-])cc4F)c4ccc([nH]4)c(-c4c(F)cc(S(=O)(=O)[O-])cc4F)c4nc(c(-c5c(F)cc(S(=O)(=O)[O-])cc5F)c5ccc2[nH]5)C=C4)C=C3)cc1
REMARK SMILES IDX 17 1 16 2 15 3 14 4 13 5 2 6 1 7 3 8 4 9 5 10 6 11 12 12
REMARK SMILES IDX 7 13 10 14 8 15 11 16 9 18 18 20 19 21 20 22 21 23 22 24
REMARK SMILES IDX 23 25 87 26 24 27 86 28 25 29 26 30 27 31 80 32 28 33 85 34
REMARK SMILES IDX 79 35 81 36 29 37 84 38 78 39 77 40 30 42 64 43 43 44 63 45
REMARK SMILES IDX 44 46 47 47 62 48 82 49 45 50 46 51 61 53 83 54 48 55 31 56
REMARK SMILES IDX 32 57 41 58 33 59 34 60 40 61 42 62 35 63 36 64 37 65 38 66
REMARK SMILES IDX 39 67 65 68 66 69 75 70 67 71 68 72 74 73 76 74 69 75 70 76
REMARK SMILES IDX 71 77 72 78 73 79 49 80 50 81 59 82 51 83 52 84 58 85 60 86
REMARK SMILES IDX 53 87 54 88 55 89 56 90 57 91
REMARK H PARENT 11 17 9 19 81 41 47 52
REMARK Flexibility Score: inf
ROOT
ATOM      1  C   UNL A   1      31.812  29.743  26.226  1.00  0.00     0.202 C 
ENDROOT
BRANCH   1   2
ATOM      2  O   UNL A   1      31.665  28.568  27.034  1.00  0.00    -0.374 OA
BRANCH   2   3
ATOM      3  C   UNL A   1      32.281  27.399  26.499  1.00  0.00     0.202 C 
BRANCH   3   4
ATOM      4  C   UNL A   1      31.356  26.376  25.845  1.00  0.00     0.261 C 
BRANCH   4   5
ATOM      5  O   UNL A   1      30.344  26.929  24.981  1.00  0.00    -0.460 OA
BRANCH   5   6
ATOM      6  C   UNL A   1      30.358  27.022  23.636  1.00  0.00     0.330 C 
ATOM      7  O   UNL A   1      30.949  26.176  22.966  1.00  0.00    -0.247 OA
BRANCH   6   8
ATOM      8  C   UNL A   1      29.801  28.187  22.929  1.00  0.00     0.094 C 
ATOM      9  C   UNL A   1      29.538  29.400  23.428  1.00  0.00     0.016 C 
BRANCH   9  10
ATOM     10  C   UNL A   1      29.079  30.520  22.610  1.00  0.00    -0.021 A 
ATOM     11  C   UNL A   1      28.568  30.307  21.325  1.00  0.00     0.012 A 
ATOM     12  C   UNL A   1      29.062  31.806  23.168  1.00  0.00     0.058 A 
ATOM     13  C   UNL A   1      27.987  31.360  20.614  1.00  0.00     0.051 A 
ATOM     14  C   UNL A   1      28.480  32.844  22.457  1.00  0.00     0.157 A 
ATOM     15  C   UNL A   1      27.928  32.621  21.199  1.00  0.00     0.157 A 
BRANCH  14  16
ATOM     16  O   UNL A   1      28.421  34.086  23.019  1.00  0.00    -0.504 OA
ATOM     17  H   UNL A   1      27.891  34.753  22.628  1.00  0.00     0.293 HD
ENDBRANCH  14  16
BRANCH  15  18
ATOM     18  O   UNL A   1      27.309  33.670  20.578  1.00  0.00    -0.504 OA
ATOM     19  H   UNL A   1      27.252  34.501  21.008  1.00  0.00     0.293 HD
ENDBRANCH  15  18
ENDBRANCH   9  10
ENDBRANCH   6   8
ENDBRANCH   5   6
ENDBRANCH   4   5
ENDBRANCH   3   4
ENDBRANCH   2   3
ENDBRANCH   1   2
BRANCH   1  20
ATOM     20  C   UNL A   1      32.418  30.951  26.951  1.00  0.00     0.261 C 
BRANCH  20  21
ATOM     21  O   UNL A   1      33.638  30.598  27.619  1.00  0.00    -0.460 OA
BRANCH  21  22
ATOM     22  C   UNL A   1      34.404  31.657  27.975  1.00  0.00     0.338 C 
ATOM     23  O   UNL A   1      34.026  32.796  28.203  1.00  0.00    -0.246 OA
BRANCH  22  24
ATOM     24  C   UNL A   1      35.776  31.190  28.265  1.00  0.00     0.060 A 
ATOM     25  C   UNL A   1      36.004  29.808  28.229  1.00  0.00     0.016 A 
ATOM     26  C   UNL A   1      36.815  32.073  28.571  1.00  0.00     0.016 A 
ATOM     27  C   UNL A   1      37.247  29.298  28.584  1.00  0.00     0.010 A 
ATOM     28  C   UNL A   1      38.063  31.561  28.932  1.00  0.00     0.010 A 
ATOM     29  C   UNL A   1      38.260  30.169  29.000  1.00  0.00    -0.014 A 
BRANCH  29  30
ATOM     30  C   UNL A   1      39.411  29.614  29.748  1.00  0.00     0.031 A 
ATOM     31  C   UNL A   1      39.615  30.075  31.168  1.00  0.00     0.074 A 
ATOM     32  C   UNL A   1      40.204  28.673  29.208  1.00  0.00     0.049 A 
ATOM     33  N   UNL A   1      40.527  29.722  32.034  1.00  0.00    -0.248 NA
ATOM     34  C   UNL A   1      38.660  31.076  31.677  1.00  0.00     0.031 C 
ATOM     35  C   UNL A   1      40.069  28.124  27.860  1.00  0.00     0.029 A 
ATOM     36  N   UNL A   1      41.281  28.010  29.736  1.00  0.00    -0.354 N 
ATOM     37  C   UNL A   1      40.266  30.465  33.180  1.00  0.00     0.074 A 
ATOM     38  C   UNL A   1      39.135  31.316  32.889  1.00  0.00     0.031 C 
ATOM     39  C   UNL A   1      41.029  27.202  27.668  1.00  0.00     0.029 A 
ATOM     40  C   UNL A   1      41.859  27.117  28.868  1.00  0.00     0.049 A 
ATOM     41  H   UNL A   1      41.610  28.160  30.652  1.00  0.00     0.167 HD
ATOM     42  C   UNL A   1      40.904  30.431  34.373  1.00  0.00     0.037 A 
ATOM     43  C   UNL A   1      42.942  26.331  29.026  1.00  0.00     0.037 A 
ATOM     44  C   UNL A   1      42.022  29.569  34.653  1.00  0.00     0.049 A 
ATOM     45  C   UNL A   1      43.667  26.346  30.349  1.00  0.00     0.074 A 
ATOM     46  C   UNL A   1      42.730  29.434  35.833  1.00  0.00     0.029 A 
ATOM     47  N   UNL A   1      42.598  28.699  33.737  1.00  0.00    -0.354 N 
ATOM     48  N   UNL A   1      43.396  27.034  31.434  1.00  0.00    -0.248 NA
ATOM     49  C   UNL A   1      44.837  25.467  30.472  1.00  0.00     0.031 C 
ATOM     50  C   UNL A   1      43.773  28.529  35.613  1.00  0.00     0.029 A 
ATOM     51  C   UNL A   1      43.671  28.045  34.318  1.00  0.00     0.049 A 
ATOM     52  H   UNL A   1      42.291  28.569  32.811  1.00  0.00     0.167 HD
ATOM     53  C   UNL A   1      44.337  26.640  32.381  1.00  0.00     0.074 A 
ATOM     54  C   UNL A   1      45.177  25.649  31.740  1.00  0.00     0.031 C 
ATOM     55  C   UNL A   1      44.489  27.053  33.664  1.00  0.00     0.037 A 
BRANCH  42  56
ATOM     56  C   UNL A   1      40.431  31.375  35.446  1.00  0.00     0.058 A 
ATOM     57  C   UNL A   1      39.207  31.200  36.111  1.00  0.00     0.135 A 
ATOM     58  C   UNL A   1      41.231  32.464  35.828  1.00  0.00     0.135 A 
ATOM     59  F   UNL A   1      38.389  30.190  35.771  1.00  0.00    -0.206 F 
ATOM     60  C   UNL A   1      38.779  32.088  37.094  1.00  0.00     0.059 A 
ATOM     61  C   UNL A   1      40.839  33.345  36.832  1.00  0.00     0.059 A 
ATOM     62  F   UNL A   1      42.408  32.684  35.222  1.00  0.00    -0.206 F 
ATOM     63  C   UNL A   1      39.604  33.155  37.450  1.00  0.00     0.060 A 
BRANCH  63  64
ATOM     64  S   UNL A   1      39.041  34.292  38.735  1.00  0.00     0.124 S 
ATOM     65  O   UNL A   1      37.874  33.587  39.256  1.00  0.00    -0.237 OA
ATOM     66  O   UNL A   1      40.196  34.353  39.623  1.00  0.00    -0.237 OA
ATOM     67  O   UNL A   1      38.754  35.520  38.000  1.00  0.00    -0.744 OA
ENDBRANCH  63  64
ENDBRANCH  42  56
BRANCH  43  68
ATOM     68  C   UNL A   1      43.399  25.455  27.913  1.00  0.00     0.058 A 
ATOM     69  C   UNL A   1      42.992  24.115  27.828  1.00  0.00     0.135 A 
ATOM     70  C   UNL A   1      44.257  25.940  26.913  1.00  0.00     0.135 A 
ATOM     71  F   UNL A   1      42.180  23.601  28.764  1.00  0.00    -0.206 F 
ATOM     72  C   UNL A   1      43.431  23.282  26.803  1.00  0.00     0.059 A 
ATOM     73  C   UNL A   1      44.687  25.135  25.862  1.00  0.00     0.059 A 
ATOM     74  F   UNL A   1      44.668  27.217  26.940  1.00  0.00    -0.206 F 
ATOM     75  C   UNL A   1      44.277  23.802  25.823  1.00  0.00     0.060 A 
BRANCH  75  76
ATOM     76  S   UNL A   1      44.804  22.725  24.473  1.00  0.00     0.124 S 
ATOM     77  O   UNL A   1      45.889  23.501  23.885  1.00  0.00    -0.237 OA
ATOM     78  O   UNL A   1      45.199  21.514  25.188  1.00  0.00    -0.237 OA
ATOM     79  O   UNL A   1      43.602  22.597  23.656  1.00  0.00    -0.744 OA
ENDBRANCH  75  76
ENDBRANCH  43  68
BRANCH  55  80
ATOM     80  C   UNL A   1      45.566  26.390  34.482  1.00  0.00     0.058 A 
ATOM     81  C   UNL A   1      45.341  25.200  35.191  1.00  0.00     0.135 A 
ATOM     82  C   UNL A   1      46.857  26.944  34.527  1.00  0.00     0.135 A 
ATOM     83  F   UNL A   1      44.127  24.627  35.183  1.00  0.00    -0.206 F 
ATOM     84  C   UNL A   1      46.344  24.607  35.951  1.00  0.00     0.059 A 
ATOM     85  C   UNL A   1      47.885  26.348  35.250  1.00  0.00     0.059 A 
ATOM     86  F   UNL A   1      47.134  28.071  33.852  1.00  0.00    -0.206 F 
ATOM     87  C   UNL A   1      47.612  25.190  35.977  1.00  0.00     0.060 A 
BRANCH  87  88
ATOM     88  S   UNL A   1      48.905  24.410  36.965  1.00  0.00     0.124 S 
ATOM     89  O   UNL A   1      48.141  23.422  37.718  1.00  0.00    -0.237 OA
ATOM     90  O   UNL A   1      49.800  23.875  35.944  1.00  0.00    -0.237 OA
ATOM     91  O   UNL A   1      49.449  25.515  37.749  1.00  0.00    -0.744 OA
ENDBRANCH  87  88
ENDBRANCH  55  80
ENDBRANCH  29  30
ENDBRANCH  22  24
ENDBRANCH  21  22
ENDBRANCH  20  21
ENDBRANCH   1  20
TORSDOF 20
ENDMDL
