MODEL 1
REMARK VINA RESULT:     -10.7      0.000      0.000
REMARK SMILES COc1ccc(C[N@@H+]2C[C@@H](C(=O)OCCOCCOC(=O)c3ccc(-c4c5nc(c(-c6c(F)cc(S(=O)(=O)[O-])cc6F)c6ccc([nH]6)c(-c6c(F)cc(S(=O)(=O)[O-])cc6F)c6nc(c(-c7c(F)cc(S(=O)(=O)[O-])cc7F)c7ccc4[nH]7)C=C6)C=C5)cc3)[C@H](c3ccccc3OC)C2)c(OC)c1
REMARK SMILES IDX 16 1 15 2 14 3 13 4 11 5 12 6 10 7 8 8 9 9 97 10 88 12 7 13
REMARK SMILES IDX 6 14 3 15 4 16 101 17 5 18 98 19 2 20 1 21 99 22 100 23
REMARK SMILES IDX 89 24 90 25 94 26 91 27 93 28 92 29 95 30 96 31 17 32 18 33
REMARK SMILES IDX 19 34 20 35 21 36 22 37 23 38 87 39 24 40 86 41 25 42 26 43
REMARK SMILES IDX 27 44 80 45 28 46 85 47 79 48 81 49 29 50 84 51 78 52 77 53
REMARK SMILES IDX 30 55 64 56 43 57 63 58 44 59 47 60 62 61 82 62 45 63 46 64
REMARK SMILES IDX 61 66 83 67 48 68 31 69 32 70 41 71 33 72 34 73 40 74 42 75
REMARK SMILES IDX 35 76 36 77 37 78 38 79 39 80 65 81 66 82 75 83 67 84 68 85
REMARK SMILES IDX 74 86 76 87 69 88 70 89 71 90 72 91 73 92 49 93 50 94 59 95
REMARK SMILES IDX 51 96 52 97 58 98 60 99 53 100 54 101 55 102 56 103 57 104
REMARK H PARENT 8 11 81 54 47 65
REMARK Flexibility Score: inf
ROOT
ATOM      1  O   UNL A   1      41.276  20.340  26.031  1.00  0.00    -0.374 OA
ENDROOT
BRANCH   1   2
ATOM      2  C   UNL A   1      40.264  21.156  26.589  1.00  0.00     0.202 C 
BRANCH   2   3
ATOM      3  C   UNL A   1      39.165  21.831  25.749  1.00  0.00     0.261 C 
BRANCH   3   4
ATOM      4  O   UNL A   1      37.815  21.550  26.130  1.00  0.00    -0.463 OA
BRANCH   4   5
ATOM      5  C   UNL A   1      37.171  20.815  25.185  1.00  0.00     0.315 C 
ATOM      6  O   UNL A   1      37.756  19.916  24.605  1.00  0.00    -0.252 OA
BRANCH   5   7
ATOM      7  C   UNL A   1      35.780  21.314  24.844  1.00  0.00     0.167 C 
ATOM      8  N   UNL A   1      34.169  23.040  25.224  1.00  0.00    -0.330 N 
ATOM      9  C   UNL A   1      35.553  22.684  25.506  1.00  0.00     0.278 C 
ATOM     10  C   UNL A   1      33.455  21.756  25.290  1.00  0.00     0.272 C 
ATOM     11  H   UNL A   1      33.805  23.709  25.901  1.00  0.00     0.348 HD
ATOM     12  C   UNL A   1      34.472  20.551  25.175  1.00  0.00     0.098 C 
BRANCH   8  13
ATOM     13  C   UNL A   1      33.967  23.810  23.963  1.00  0.00     0.303 C 
BRANCH  13  14
ATOM     14  C   UNL A   1      33.522  25.262  24.084  1.00  0.00     0.048 A 
ATOM     15  C   UNL A   1      33.343  28.028  24.500  1.00  0.00     0.122 A 
ATOM     16  C   UNL A   1      33.185  27.161  25.575  1.00  0.00     0.047 A 
ATOM     17  C   UNL A   1      33.485  27.527  23.205  1.00  0.00     0.093 A 
ATOM     18  C   UNL A   1      33.234  25.783  25.364  1.00  0.00     0.017 A 
ATOM     19  C   UNL A   1      33.534  26.143  22.988  1.00  0.00     0.131 A 
BRANCH  15  20
ATOM     20  O   UNL A   1      33.539  29.351  24.792  1.00  0.00    -0.497 OA
ATOM     21  C   UNL A   1      32.926  29.741  26.012  1.00  0.00     0.278 C 
ENDBRANCH  15  20
BRANCH  19  22
ATOM     22  O   UNL A   1      33.678  25.591  21.740  1.00  0.00    -0.496 OA
ATOM     23  C   UNL A   1      32.498  25.601  20.943  1.00  0.00     0.278 C 
ENDBRANCH  19  22
ENDBRANCH  13  14
ENDBRANCH   8  13
BRANCH  12  24
ATOM     24  C   UNL A   1      33.919  19.402  24.291  1.00  0.00     0.004 A 
ATOM     25  C   UNL A   1      32.753  19.599  23.509  1.00  0.00     0.008 A 
ATOM     26  C   UNL A   1      34.407  18.085  24.265  1.00  0.00     0.122 A 
ATOM     27  C   UNL A   1      32.164  18.586  22.733  1.00  0.00     0.001 A 
ATOM     28  C   UNL A   1      33.763  17.045  23.567  1.00  0.00     0.047 A 
ATOM     29  C   UNL A   1      32.661  17.298  22.774  1.00  0.00     0.004 A 
BRANCH  26  30
ATOM     30  O   UNL A   1      35.493  17.683  24.975  1.00  0.00    -0.496 OA
ATOM     31  C   UNL A   1      35.347  16.311  25.373  1.00  0.00     0.278 C 
ENDBRANCH  26  30
ENDBRANCH  12  24
ENDBRANCH   5   7
ENDBRANCH   4   5
ENDBRANCH   3   4
ENDBRANCH   2   3
ENDBRANCH   1   2
BRANCH   1  32
ATOM     32  C   UNL A   1      42.658  20.564  26.256  1.00  0.00     0.202 C 
BRANCH  32  33
ATOM     33  C   UNL A   1      43.438  21.772  25.705  1.00  0.00     0.261 C 
BRANCH  33  34
ATOM     34  O   UNL A   1      42.681  22.943  25.397  1.00  0.00    -0.460 OA
BRANCH  34  35
ATOM     35  C   UNL A   1      43.397  24.089  25.414  1.00  0.00     0.338 C 
ATOM     36  O   UNL A   1      44.333  24.389  24.682  1.00  0.00    -0.246 OA
BRANCH  35  37
ATOM     37  C   UNL A   1      42.760  25.039  26.336  1.00  0.00     0.060 A 
ATOM     38  C   UNL A   1      43.200  26.370  26.325  1.00  0.00     0.016 A 
ATOM     39  C   UNL A   1      41.790  24.611  27.244  1.00  0.00     0.016 A 
ATOM     40  C   UNL A   1      42.684  27.279  27.235  1.00  0.00     0.010 A 
ATOM     41  C   UNL A   1      41.302  25.518  28.186  1.00  0.00     0.010 A 
ATOM     42  C   UNL A   1      41.775  26.843  28.203  1.00  0.00    -0.014 A 
BRANCH  42  43
ATOM     43  C   UNL A   1      41.502  27.717  29.363  1.00  0.00     0.031 A 
ATOM     44  C   UNL A   1      42.376  27.567  30.577  1.00  0.00     0.074 A 
ATOM     45  C   UNL A   1      40.545  28.658  29.305  1.00  0.00     0.049 A 
ATOM     46  N   UNL A   1      42.301  28.173  31.730  1.00  0.00    -0.248 NA
ATOM     47  C   UNL A   1      43.487  26.605  30.472  1.00  0.00     0.031 C 
ATOM     48  C   UNL A   1      39.697  28.934  28.145  1.00  0.00     0.029 A 
ATOM     49  N   UNL A   1      40.126  29.558  30.250  1.00  0.00    -0.354 N 
ATOM     50  C   UNL A   1      43.354  27.671  32.487  1.00  0.00     0.074 A 
ATOM     51  C   UNL A   1      44.029  26.682  31.677  1.00  0.00     0.031 C 
ATOM     52  C   UNL A   1      38.847  29.928  28.454  1.00  0.00     0.029 A 
ATOM     53  C   UNL A   1      39.064  30.328  29.843  1.00  0.00     0.049 A 
ATOM     54  H   UNL A   1      40.546  29.643  31.136  1.00  0.00     0.167 HD
ATOM     55  C   UNL A   1      43.730  28.018  33.738  1.00  0.00     0.037 A 
ATOM     56  C   UNL A   1      38.338  31.230  30.531  1.00  0.00     0.037 A 
ATOM     57  C   UNL A   1      43.040  28.999  34.533  1.00  0.00     0.049 A 
ATOM     58  C   UNL A   1      38.706  31.514  31.967  1.00  0.00     0.074 A 
ATOM     59  C   UNL A   1      43.313  29.407  35.826  1.00  0.00     0.029 A 
ATOM     60  N   UNL A   1      41.939  29.727  34.106  1.00  0.00    -0.354 N 
ATOM     61  N   UNL A   1      39.695  31.024  32.680  1.00  0.00    -0.248 NA
ATOM     62  C   UNL A   1      37.864  32.474  32.693  1.00  0.00     0.031 C 
ATOM     63  C   UNL A   1      42.347  30.349  36.196  1.00  0.00     0.029 A 
ATOM     64  C   UNL A   1      41.510  30.572  35.114  1.00  0.00     0.049 A 
ATOM     65  H   UNL A   1      41.523  29.654  33.216  1.00  0.00     0.167 HD
ATOM     66  C   UNL A   1      39.616  31.648  33.922  1.00  0.00     0.074 A 
ATOM     67  C   UNL A   1      38.490  32.557  33.858  1.00  0.00     0.031 C 
ATOM     68  C   UNL A   1      40.401  31.489  35.015  1.00  0.00     0.037 A 
BRANCH  55  69
ATOM     69  C   UNL A   1      44.926  27.324  34.328  1.00  0.00     0.058 A 
ATOM     70  C   UNL A   1      44.802  26.118  35.037  1.00  0.00     0.135 A 
ATOM     71  C   UNL A   1      46.217  27.845  34.147  1.00  0.00     0.135 A 
ATOM     72  F   UNL A   1      43.589  25.588  35.263  1.00  0.00    -0.206 F 
ATOM     73  C   UNL A   1      45.912  25.461  35.556  1.00  0.00     0.059 A 
ATOM     74  C   UNL A   1      47.345  27.191  34.632  1.00  0.00     0.059 A 
ATOM     75  F   UNL A   1      46.393  29.000  33.485  1.00  0.00    -0.206 F 
ATOM     76  C   UNL A   1      47.182  26.002  35.341  1.00  0.00     0.060 A 
BRANCH  76  77
ATOM     77  S   UNL A   1      48.614  25.119  35.994  1.00  0.00     0.124 S 
ATOM     78  O   UNL A   1      49.145  26.086  36.950  1.00  0.00    -0.237 OA
ATOM     79  O   UNL A   1      48.005  23.926  36.572  1.00  0.00    -0.237 OA
ATOM     80  O   UNL A   1      49.440  24.888  34.813  1.00  0.00    -0.744 OA
ENDBRANCH  76  77
ENDBRANCH  55  69
BRANCH  56  81
ATOM     81  C   UNL A   1      37.177  31.913  29.897  1.00  0.00     0.058 A 
ATOM     82  C   UNL A   1      37.317  33.170  29.290  1.00  0.00     0.135 A 
ATOM     83  C   UNL A   1      35.893  31.346  29.929  1.00  0.00     0.135 A 
ATOM     84  F   UNL A   1      38.522  33.758  29.238  1.00  0.00    -0.206 F 
ATOM     85  C   UNL A   1      36.223  33.857  28.772  1.00  0.00     0.059 A 
ATOM     86  C   UNL A   1      34.789  31.998  29.390  1.00  0.00     0.059 A 
ATOM     87  F   UNL A   1      35.702  30.139  30.485  1.00  0.00    -0.206 F 
ATOM     88  C   UNL A   1      34.962  33.265  28.833  1.00  0.00     0.060 A 
BRANCH  88  89
ATOM     89  S   UNL A   1      33.548  34.166  28.164  1.00  0.00     0.124 S 
ATOM     90  O   UNL A   1      32.855  34.570  29.381  1.00  0.00    -0.237 OA
ATOM     91  O   UNL A   1      34.195  35.235  27.410  1.00  0.00    -0.237 OA
ATOM     92  O   UNL A   1      32.864  33.162  27.352  1.00  0.00    -0.744 OA
ENDBRANCH  88  89
ENDBRANCH  56  81
BRANCH  68  93
ATOM     93  C   UNL A   1      40.114  32.356  36.210  1.00  0.00     0.058 A 
ATOM     94  C   UNL A   1      39.129  32.022  37.152  1.00  0.00     0.135 A 
ATOM     95  C   UNL A   1      40.879  33.512  36.443  1.00  0.00     0.135 A 
ATOM     96  F   UNL A   1      38.366  30.932  36.974  1.00  0.00    -0.206 F 
ATOM     97  C   UNL A   1      38.895  32.816  38.269  1.00  0.00     0.059 A 
ATOM     98  C   UNL A   1      40.685  34.302  37.570  1.00  0.00     0.059 A 
ATOM     99  F   UNL A   1      41.843  33.871  35.580  1.00  0.00    -0.206 F 
ATOM    100  C   UNL A   1      39.681  33.953  38.472  1.00  0.00     0.060 A 
BRANCH 100 101
ATOM    101  S   UNL A   1      39.391  34.952  39.947  1.00  0.00     0.124 S 
ATOM    102  O   UNL A   1      39.263  36.288  39.376  1.00  0.00    -0.237 OA
ATOM    103  O   UNL A   1      38.163  34.369  40.480  1.00  0.00    -0.237 OA
ATOM    104  O   UNL A   1      40.587  34.726  40.752  1.00  0.00    -0.744 OA
ENDBRANCH 100 101
ENDBRANCH  68  93
ENDBRANCH  42  43
ENDBRANCH  35  37
ENDBRANCH  34  35
ENDBRANCH  33  34
ENDBRANCH  32  33
ENDBRANCH   1  32
TORSDOF 23
ENDMDL
MODEL 2
REMARK VINA RESULT:     -10.5      1.592      2.347
REMARK SMILES COc1ccc(C[N@@H+]2C[C@@H](C(=O)OCCOCCOC(=O)c3ccc(-c4c5nc(c(-c6c(F)cc(S(=O)(=O)[O-])cc6F)c6ccc([nH]6)c(-c6c(F)cc(S(=O)(=O)[O-])cc6F)c6nc(c(-c7c(F)cc(S(=O)(=O)[O-])cc7F)c7ccc4[nH]7)C=C6)C=C5)cc3)[C@H](c3ccccc3OC)C2)c(OC)c1
REMARK SMILES IDX 16 1 15 2 14 3 13 4 11 5 12 6 10 7 8 8 9 9 97 10 88 12 7 13
REMARK SMILES IDX 6 14 3 15 4 16 101 17 5 18 98 19 2 20 1 21 99 22 100 23
REMARK SMILES IDX 89 24 90 25 94 26 91 27 93 28 92 29 95 30 96 31 17 32 18 33
REMARK SMILES IDX 19 34 20 35 21 36 22 37 23 38 87 39 24 40 86 41 25 42 26 43
REMARK SMILES IDX 27 44 80 45 28 46 85 47 79 48 81 49 29 50 84 51 78 52 77 53
REMARK SMILES IDX 30 55 64 56 43 57 63 58 44 59 47 60 62 61 82 62 45 63 46 64
REMARK SMILES IDX 61 66 83 67 48 68 31 69 32 70 41 71 33 72 34 73 40 74 42 75
REMARK SMILES IDX 35 76 36 77 37 78 38 79 39 80 65 81 66 82 75 83 67 84 68 85
REMARK SMILES IDX 74 86 76 87 69 88 70 89 71 90 72 91 73 92 49 93 50 94 59 95
REMARK SMILES IDX 51 96 52 97 58 98 60 99 53 100 54 101 55 102 56 103 57 104
REMARK H PARENT 8 11 81 54 47 65
REMARK Flexibility Score: inf
ROOT
ATOM      1  O   UNL A   1      40.015  21.979  27.144  1.00  0.00    -0.374 OA
ENDROOT
BRANCH   1   2
ATOM      2  C   UNL A   1      38.962  22.597  26.429  1.00  0.00     0.202 C 
BRANCH   2   3
ATOM      3  C   UNL A   1      38.117  21.865  25.371  1.00  0.00     0.261 C 
BRANCH   3   4
ATOM      4  O   UNL A   1      36.699  22.032  25.468  1.00  0.00    -0.463 OA
BRANCH   4   5
ATOM      5  C   UNL A   1      36.206  22.736  24.414  1.00  0.00     0.315 C 
ATOM      6  O   UNL A   1      36.964  23.210  23.585  1.00  0.00    -0.252 OA
BRANCH   5   7
ATOM      7  C   UNL A   1      34.711  22.983  24.472  1.00  0.00     0.167 C 
ATOM      8  N   UNL A   1      33.006  24.561  25.038  1.00  0.00    -0.330 N 
ATOM      9  C   UNL A   1      34.451  24.437  24.901  1.00  0.00     0.278 C 
ATOM     10  C   UNL A   1      32.591  23.259  25.580  1.00  0.00     0.272 C 
ATOM     11  H   UNL A   1      32.748  25.327  25.659  1.00  0.00     0.348 HD
ATOM     12  C   UNL A   1      33.725  22.181  25.360  1.00  0.00     0.098 C 
BRANCH   8  13
ATOM     13  C   UNL A   1      32.295  24.983  23.797  1.00  0.00     0.303 C 
BRANCH  13  14
ATOM     14  C   UNL A   1      31.868  26.441  23.686  1.00  0.00     0.048 A 
ATOM     15  C   UNL A   1      30.460  28.858  23.510  1.00  0.00     0.122 A 
ATOM     16  C   UNL A   1      30.688  28.113  22.360  1.00  0.00     0.047 A 
ATOM     17  C   UNL A   1      31.015  28.464  24.729  1.00  0.00     0.093 A 
ATOM     18  C   UNL A   1      31.423  26.930  22.438  1.00  0.00     0.017 A 
ATOM     19  C   UNL A   1      31.753  27.276  24.812  1.00  0.00     0.131 A 
BRANCH  15  20
ATOM     20  O   UNL A   1      29.532  29.862  23.426  1.00  0.00    -0.497 OA
ATOM     21  C   UNL A   1      28.616  29.676  22.357  1.00  0.00     0.278 C 
ENDBRANCH  15  20
BRANCH  19  22
ATOM     22  O   UNL A   1      32.318  26.832  25.982  1.00  0.00    -0.496 OA
ATOM     23  C   UNL A   1      32.031  27.633  27.125  1.00  0.00     0.278 C 
ENDBRANCH  19  22
ENDBRANCH  13  14
ENDBRANCH   8  13
BRANCH  12  24
ATOM     24  C   UNL A   1      33.149  20.801  24.946  1.00  0.00     0.004 A 
ATOM     25  C   UNL A   1      33.396  19.654  25.740  1.00  0.00     0.008 A 
ATOM     26  C   UNL A   1      32.468  20.528  23.747  1.00  0.00     0.122 A 
ATOM     27  C   UNL A   1      32.956  18.366  25.394  1.00  0.00     0.001 A 
ATOM     28  C   UNL A   1      32.113  19.225  23.351  1.00  0.00     0.047 A 
ATOM     29  C   UNL A   1      32.325  18.146  24.185  1.00  0.00     0.004 A 
BRANCH  26  30
ATOM     30  O   UNL A   1      32.167  21.485  22.831  1.00  0.00    -0.496 OA
ATOM     31  C   UNL A   1      31.886  20.883  21.558  1.00  0.00     0.278 C 
ENDBRANCH  26  30
ENDBRANCH  12  24
ENDBRANCH   5   7
ENDBRANCH   4   5
ENDBRANCH   3   4
ENDBRANCH   2   3
ENDBRANCH   1   2
BRANCH   1  32
ATOM     32  C   UNL A   1      41.114  21.350  26.506  1.00  0.00     0.202 C 
BRANCH  32  33
ATOM     33  C   UNL A   1      42.499  22.001  26.331  1.00  0.00     0.261 C 
BRANCH  33  34
ATOM     34  O   UNL A   1      42.743  23.204  27.060  1.00  0.00    -0.460 OA
BRANCH  34  35
ATOM     35  C   UNL A   1      42.662  24.331  26.318  1.00  0.00     0.338 C 
ATOM     36  O   UNL A   1      42.829  24.436  25.108  1.00  0.00    -0.246 OA
BRANCH  35  37
ATOM     37  C   UNL A   1      42.144  25.420  27.157  1.00  0.00     0.060 A 
ATOM     38  C   UNL A   1      42.799  26.658  27.114  1.00  0.00     0.016 A 
ATOM     39  C   UNL A   1      41.069  25.207  28.021  1.00  0.00     0.016 A 
ATOM     40  C   UNL A   1      42.395  27.688  27.950  1.00  0.00     0.010 A 
ATOM     41  C   UNL A   1      40.690  26.230  28.891  1.00  0.00     0.010 A 
ATOM     42  C   UNL A   1      41.376  27.459  28.879  1.00  0.00    -0.014 A 
BRANCH  42  43
ATOM     43  C   UNL A   1      41.192  28.427  29.980  1.00  0.00     0.031 A 
ATOM     44  C   UNL A   1      42.149  28.365  31.137  1.00  0.00     0.074 A 
ATOM     45  C   UNL A   1      40.239  29.372  29.914  1.00  0.00     0.049 A 
ATOM     46  N   UNL A   1      42.160  29.063  32.240  1.00  0.00    -0.248 NA
ATOM     47  C   UNL A   1      43.245  27.384  31.033  1.00  0.00     0.031 C 
ATOM     48  C   UNL A   1      39.313  29.563  28.797  1.00  0.00     0.029 A 
ATOM     49  N   UNL A   1      39.894  30.349  30.810  1.00  0.00    -0.354 N 
ATOM     50  C   UNL A   1      43.262  28.610  32.959  1.00  0.00     0.074 A 
ATOM     51  C   UNL A   1      43.871  27.552  32.187  1.00  0.00     0.031 C 
ATOM     52  C   UNL A   1      38.492  30.588  29.085  1.00  0.00     0.029 A 
ATOM     53  C   UNL A   1      38.811  31.097  30.417  1.00  0.00     0.049 A 
ATOM     54  H   UNL A   1      40.376  30.500  31.654  1.00  0.00     0.167 HD
ATOM     55  C   UNL A   1      43.728  29.052  34.149  1.00  0.00     0.037 A 
ATOM     56  C   UNL A   1      38.141  32.060  31.079  1.00  0.00     0.037 A 
ATOM     57  C   UNL A   1      43.102  30.102  34.908  1.00  0.00     0.049 A 
ATOM     58  C   UNL A   1      38.612  32.454  32.458  1.00  0.00     0.074 A 
ATOM     59  C   UNL A   1      43.469  30.610  36.141  1.00  0.00     0.029 A 
ATOM     60  N   UNL A   1      41.978  30.807  34.501  1.00  0.00    -0.354 N 
ATOM     61  N   UNL A   1      39.646  32.011  33.137  1.00  0.00    -0.248 NA
ATOM     62  C   UNL A   1      37.829  33.479  33.161  1.00  0.00     0.031 C 
ATOM     63  C   UNL A   1      42.538  31.590  36.501  1.00  0.00     0.029 A 
ATOM     64  C   UNL A   1      41.627  31.735  35.466  1.00  0.00     0.049 A 
ATOM     65  H   UNL A   1      41.500  30.667  33.652  1.00  0.00     0.167 HD
ATOM     66  C   UNL A   1      39.660  32.734  34.326  1.00  0.00     0.074 A 
ATOM     67  C   UNL A   1      38.538  33.648  34.269  1.00  0.00     0.031 C 
ATOM     68  C   UNL A   1      40.520  32.654  35.371  1.00  0.00     0.037 A 
BRANCH  55  69
ATOM     69  C   UNL A   1      44.959  28.394  34.707  1.00  0.00     0.058 A 
ATOM     70  C   UNL A   1      44.878  27.247  35.513  1.00  0.00     0.135 A 
ATOM     71  C   UNL A   1      46.236  28.887  34.398  1.00  0.00     0.135 A 
ATOM     72  F   UNL A   1      43.682  26.748  35.861  1.00  0.00    -0.206 F 
ATOM     73  C   UNL A   1      46.019  26.621  36.004  1.00  0.00     0.059 A 
ATOM     74  C   UNL A   1      47.392  28.261  34.854  1.00  0.00     0.059 A 
ATOM     75  F   UNL A   1      46.371  29.987  33.640  1.00  0.00    -0.206 F 
ATOM     76  C   UNL A   1      47.273  27.132  35.662  1.00  0.00     0.060 A 
BRANCH  76  77
ATOM     77  S   UNL A   1      48.743  26.287  36.281  1.00  0.00     0.124 S 
ATOM     78  O   UNL A   1      48.266  24.911  36.391  1.00  0.00    -0.237 OA
ATOM     79  O   UNL A   1      49.714  26.538  35.221  1.00  0.00    -0.237 OA
ATOM     80  O   UNL A   1      49.015  26.958  37.548  1.00  0.00    -0.744 OA
ENDBRANCH  76  77
ENDBRANCH  55  69
BRANCH  56  81
ATOM     81  C   UNL A   1      36.942  32.704  30.476  1.00  0.00     0.058 A 
ATOM     82  C   UNL A   1      37.066  33.794  29.602  1.00  0.00     0.135 A 
ATOM     83  C   UNL A   1      35.645  32.273  30.798  1.00  0.00     0.135 A 
ATOM     84  F   UNL A   1      38.282  34.249  29.267  1.00  0.00    -0.206 F 
ATOM     85  C   UNL A   1      35.951  34.459  29.102  1.00  0.00     0.059 A 
ATOM     86  C   UNL A   1      34.515  32.900  30.285  1.00  0.00     0.059 A 
ATOM     87  F   UNL A   1      35.467  31.224  31.618  1.00  0.00    -0.206 F 
ATOM     88  C   UNL A   1      34.678  34.008  29.455  1.00  0.00     0.060 A 
BRANCH  88  89
ATOM     89  S   UNL A   1      33.237  34.879  28.804  1.00  0.00     0.124 S 
ATOM     90  O   UNL A   1      32.449  35.085  30.013  1.00  0.00    -0.237 OA
ATOM     91  O   UNL A   1      33.840  36.075  28.222  1.00  0.00    -0.237 OA
ATOM     92  O   UNL A   1      32.681  33.934  27.840  1.00  0.00    -0.744 OA
ENDBRANCH  88  89
ENDBRANCH  56  81
BRANCH  68  93
ATOM     93  C   UNL A   1      40.324  33.619  36.509  1.00  0.00     0.058 A 
ATOM     94  C   UNL A   1      40.921  34.889  36.517  1.00  0.00     0.135 A 
ATOM     95  C   UNL A   1      39.478  33.285  37.580  1.00  0.00     0.135 A 
ATOM     96  F   UNL A   1      41.743  35.256  35.520  1.00  0.00    -0.206 F 
ATOM     97  C   UNL A   1      40.707  35.785  37.559  1.00  0.00     0.059 A 
ATOM     98  C   UNL A   1      39.223  34.176  38.615  1.00  0.00     0.059 A 
ATOM     99  F   UNL A   1      38.872  32.087  37.615  1.00  0.00    -0.206 F 
ATOM    100  C   UNL A   1      39.852  35.420  38.602  1.00  0.00     0.060 A 
BRANCH 100 101
ATOM    101  S   UNL A   1      39.553  36.608  39.928  1.00  0.00     0.124 S 
ATOM    102  O   UNL A   1      38.507  35.937  40.694  1.00  0.00    -0.237 OA
ATOM    103  O   UNL A   1      40.860  36.687  40.575  1.00  0.00    -0.237 OA
ATOM    104  O   UNL A   1      39.137  37.813  39.219  1.00  0.00    -0.744 OA
ENDBRANCH 100 101
ENDBRANCH  68  93
ENDBRANCH  42  43
ENDBRANCH  35  37
ENDBRANCH  34  35
ENDBRANCH  33  34
ENDBRANCH  32  33
ENDBRANCH   1  32
TORSDOF 23
ENDMDL
MODEL 3
REMARK VINA RESULT:     -10.4      1.898      8.235
REMARK SMILES COc1ccc(C[N@@H+]2C[C@@H](C(=O)OCCOCCOC(=O)c3ccc(-c4c5nc(c(-c6c(F)cc(S(=O)(=O)[O-])cc6F)c6ccc([nH]6)c(-c6c(F)cc(S(=O)(=O)[O-])cc6F)c6nc(c(-c7c(F)cc(S(=O)(=O)[O-])cc7F)c7ccc4[nH]7)C=C6)C=C5)cc3)[C@H](c3ccccc3OC)C2)c(OC)c1
REMARK SMILES IDX 16 1 15 2 14 3 13 4 11 5 12 6 10 7 8 8 9 9 97 10 88 12 7 13
REMARK SMILES IDX 6 14 3 15 4 16 101 17 5 18 98 19 2 20 1 21 99 22 100 23
REMARK SMILES IDX 89 24 90 25 94 26 91 27 93 28 92 29 95 30 96 31 17 32 18 33
REMARK SMILES IDX 19 34 20 35 21 36 22 37 23 38 87 39 24 40 86 41 25 42 26 43
REMARK SMILES IDX 27 44 80 45 28 46 85 47 79 48 81 49 29 50 84 51 78 52 77 53
REMARK SMILES IDX 30 55 64 56 43 57 63 58 44 59 47 60 62 61 82 62 45 63 46 64
REMARK SMILES IDX 61 66 83 67 48 68 31 69 32 70 41 71 33 72 34 73 40 74 42 75
REMARK SMILES IDX 35 76 36 77 37 78 38 79 39 80 65 81 66 82 75 83 67 84 68 85
REMARK SMILES IDX 74 86 76 87 69 88 70 89 71 90 72 91 73 92 49 93 50 94 59 95
REMARK SMILES IDX 51 96 52 97 58 98 60 99 53 100 54 101 55 102 56 103 57 104
REMARK H PARENT 8 11 81 54 47 65
REMARK Flexibility Score: inf
ROOT
ATOM      1  O   UNL A   1      38.828  21.541  25.332  1.00  0.00    -0.374 OA
ENDROOT
BRANCH   1   2
ATOM      2  C   UNL A   1      37.770  20.640  25.066  1.00  0.00     0.202 C 
BRANCH   2   3
ATOM      3  C   UNL A   1      36.309  21.086  24.879  1.00  0.00     0.261 C 
BRANCH   3   4
ATOM      4  O   UNL A   1      36.105  22.460  24.535  1.00  0.00    -0.463 OA
BRANCH   4   5
ATOM      5  C   UNL A   1      35.527  23.150  25.554  1.00  0.00     0.315 C 
ATOM      6  O   UNL A   1      36.185  23.466  26.530  1.00  0.00    -0.252 OA
BRANCH   5   7
ATOM      7  C   UNL A   1      34.028  23.330  25.416  1.00  0.00     0.167 C 
ATOM      8  N   UNL A   1      32.109  24.491  26.245  1.00  0.00    -0.330 N 
ATOM      9  C   UNL A   1      33.561  24.456  26.354  1.00  0.00     0.278 C 
ATOM     10  C   UNL A   1      31.732  23.078  26.100  1.00  0.00     0.272 C 
ATOM     11  H   UNL A   1      31.678  24.914  27.066  1.00  0.00     0.348 HD
ATOM     12  C   UNL A   1      32.985  22.212  25.675  1.00  0.00     0.098 C 
BRANCH   8  13
ATOM     13  C   UNL A   1      31.585  25.396  25.182  1.00  0.00     0.303 C 
BRANCH  13  14
ATOM     14  C   UNL A   1      31.439  26.875  25.519  1.00  0.00     0.048 A 
ATOM     15  C   UNL A   1      31.847  29.572  26.161  1.00  0.00     0.122 A 
ATOM     16  C   UNL A   1      31.818  28.623  27.176  1.00  0.00     0.047 A 
ATOM     17  C   UNL A   1      31.572  29.206  24.843  1.00  0.00     0.093 A 
ATOM     18  C   UNL A   1      31.575  27.285  26.863  1.00  0.00     0.017 A 
ATOM     19  C   UNL A   1      31.328  27.862  24.524  1.00  0.00     0.131 A 
BRANCH  15  20
ATOM     20  O   UNL A   1      32.334  30.811  26.484  1.00  0.00    -0.497 OA
ATOM     21  C   UNL A   1      33.406  30.755  27.413  1.00  0.00     0.278 C 
ENDBRANCH  15  20
BRANCH  19  22
ATOM     22  O   UNL A   1      31.059  27.439  23.247  1.00  0.00    -0.496 OA
ATOM     23  C   UNL A   1      29.977  28.113  22.610  1.00  0.00     0.278 C 
ENDBRANCH  19  22
ENDBRANCH  13  14
ENDBRANCH   8  13
BRANCH  12  24
ATOM     24  C   UNL A   1      32.621  21.137  24.618  1.00  0.00     0.004 A 
ATOM     25  C   UNL A   1      32.813  19.762  24.901  1.00  0.00     0.008 A 
ATOM     26  C   UNL A   1      32.208  21.395  23.300  1.00  0.00     0.122 A 
ATOM     27  C   UNL A   1      32.562  18.739  23.970  1.00  0.00     0.001 A 
ATOM     28  C   UNL A   1      32.050  20.381  22.336  1.00  0.00     0.047 A 
ATOM     29  C   UNL A   1      32.194  19.050  22.675  1.00  0.00     0.004 A 
BRANCH  26  30
ATOM     30  O   UNL A   1      32.004  22.649  22.820  1.00  0.00    -0.496 OA
ATOM     31  C   UNL A   1      33.128  23.069  22.031  1.00  0.00     0.278 C 
ENDBRANCH  26  30
ENDBRANCH  12  24
ENDBRANCH   5   7
ENDBRANCH   4   5
ENDBRANCH   3   4
ENDBRANCH   2   3
ENDBRANCH   1   2
BRANCH   1  32
ATOM     32  C   UNL A   1      39.835  21.283  26.296  1.00  0.00     0.202 C 
BRANCH  32  33
ATOM     33  C   UNL A   1      40.282  22.293  27.369  1.00  0.00     0.261 C 
BRANCH  33  34
ATOM     34  O   UNL A   1      40.240  23.674  27.012  1.00  0.00    -0.460 OA
BRANCH  34  35
ATOM     35  C   UNL A   1      41.404  24.335  27.207  1.00  0.00     0.338 C 
ATOM     36  O   UNL A   1      42.483  24.110  26.673  1.00  0.00    -0.246 OA
BRANCH  35  37
ATOM     37  C   UNL A   1      41.147  25.521  28.035  1.00  0.00     0.060 A 
ATOM     38  C   UNL A   1      42.228  26.355  28.353  1.00  0.00     0.016 A 
ATOM     39  C   UNL A   1      39.872  25.774  28.546  1.00  0.00     0.016 A 
ATOM     40  C   UNL A   1      42.046  27.438  29.200  1.00  0.00     0.010 A 
ATOM     41  C   UNL A   1      39.700  26.840  29.430  1.00  0.00     0.010 A 
ATOM     42  C   UNL A   1      40.794  27.650  29.783  1.00  0.00    -0.014 A 
BRANCH  42  43
ATOM     43  C   UNL A   1      40.697  28.576  30.930  1.00  0.00     0.031 A 
ATOM     44  C   UNL A   1      39.708  29.706  30.841  1.00  0.00     0.074 A 
ATOM     45  C   UNL A   1      41.423  28.374  32.042  1.00  0.00     0.049 A 
ATOM     46  N   UNL A   1      39.479  30.674  31.685  1.00  0.00    -0.248 NA
ATOM     47  C   UNL A   1      38.860  29.743  29.636  1.00  0.00     0.031 C 
ATOM     48  C   UNL A   1      42.351  27.262  32.256  1.00  0.00     0.029 A 
ATOM     49  N   UNL A   1      41.493  29.100  33.202  1.00  0.00    -0.354 N 
ATOM     50  C   UNL A   1      38.462  31.433  31.118  1.00  0.00     0.074 A 
ATOM     51  C   UNL A   1      38.144  30.838  29.840  1.00  0.00     0.031 C 
ATOM     52  C   UNL A   1      42.910  27.392  33.472  1.00  0.00     0.029 A 
ATOM     53  C   UNL A   1      42.410  28.611  34.102  1.00  0.00     0.049 A 
ATOM     54  H   UNL A   1      40.940  29.895  33.374  1.00  0.00     0.167 HD
ATOM     55  C   UNL A   1      37.840  32.521  31.627  1.00  0.00     0.037 A 
ATOM     56  C   UNL A   1      42.813  29.117  35.283  1.00  0.00     0.037 A 
ATOM     57  C   UNL A   1      38.176  33.106  32.898  1.00  0.00     0.049 A 
ATOM     58  C   UNL A   1      42.186  30.398  35.776  1.00  0.00     0.074 A 
ATOM     59  C   UNL A   1      37.635  34.227  33.500  1.00  0.00     0.029 A 
ATOM     60  N   UNL A   1      39.143  32.613  33.763  1.00  0.00    -0.354 N 
ATOM     61  N   UNL A   1      41.235  31.118  35.226  1.00  0.00    -0.248 NA
ATOM     62  C   UNL A   1      42.684  30.937  37.049  1.00  0.00     0.031 C 
ATOM     63  C   UNL A   1      38.307  34.438  34.709  1.00  0.00     0.029 A 
ATOM     64  C   UNL A   1      39.225  33.414  34.888  1.00  0.00     0.049 A 
ATOM     65  H   UNL A   1      39.690  31.810  33.601  1.00  0.00     0.167 HD
ATOM     66  C   UNL A   1      40.993  32.168  36.108  1.00  0.00     0.074 A 
ATOM     67  C   UNL A   1      41.891  31.983  37.229  1.00  0.00     0.031 C 
ATOM     68  C   UNL A   1      40.110  33.192  36.004  1.00  0.00     0.037 A 
BRANCH  55  69
ATOM     69  C   UNL A   1      36.751  33.154  30.808  1.00  0.00     0.058 A 
ATOM     70  C   UNL A   1      37.042  34.004  29.728  1.00  0.00     0.135 A 
ATOM     71  C   UNL A   1      35.401  32.875  31.074  1.00  0.00     0.135 A 
ATOM     72  F   UNL A   1      38.314  34.326  29.445  1.00  0.00    -0.206 F 
ATOM     73  C   UNL A   1      36.034  34.564  28.951  1.00  0.00     0.059 A 
ATOM     74  C   UNL A   1      34.377  33.401  30.292  1.00  0.00     0.059 A 
ATOM     75  F   UNL A   1      35.066  32.076  32.100  1.00  0.00    -0.206 F 
ATOM     76  C   UNL A   1      34.704  34.251  29.237  1.00  0.00     0.060 A 
BRANCH  76  77
ATOM     77  S   UNL A   1      33.410  34.962  28.198  1.00  0.00     0.124 S 
ATOM     78  O   UNL A   1      32.966  36.089  29.012  1.00  0.00    -0.237 OA
ATOM     79  O   UNL A   1      34.143  35.307  26.984  1.00  0.00    -0.237 OA
ATOM     80  O   UNL A   1      32.448  33.874  28.057  1.00  0.00    -0.744 OA
ENDBRANCH  76  77
ENDBRANCH  55  69
BRANCH  56  81
ATOM     81  C   UNL A   1      43.878  28.441  36.075  1.00  0.00     0.058 A 
ATOM     82  C   UNL A   1      45.226  28.806  35.940  1.00  0.00     0.135 A 
ATOM     83  C   UNL A   1      43.574  27.384  36.948  1.00  0.00     0.135 A 
ATOM     84  F   UNL A   1      45.569  29.806  35.114  1.00  0.00    -0.206 F 
ATOM     85  C   UNL A   1      46.237  28.124  36.609  1.00  0.00     0.059 A 
ATOM     86  C   UNL A   1      44.564  26.708  37.653  1.00  0.00     0.059 A 
ATOM     87  F   UNL A   1      42.299  27.002  37.128  1.00  0.00    -0.206 F 
ATOM     88  C   UNL A   1      45.896  27.071  37.459  1.00  0.00     0.060 A 
BRANCH  88  89
ATOM     89  S   UNL A   1      47.216  26.189  38.319  1.00  0.00     0.124 S 
ATOM     90  O   UNL A   1      47.966  25.625  37.204  1.00  0.00    -0.237 OA
ATOM     91  O   UNL A   1      47.874  27.264  39.055  1.00  0.00    -0.237 OA
ATOM     92  O   UNL A   1      46.492  25.226  39.145  1.00  0.00    -0.744 OA
ENDBRANCH  88  89
ENDBRANCH  56  81
BRANCH  68  93
ATOM     93  C   UNL A   1      40.023  34.154  37.157  1.00  0.00     0.058 A 
ATOM     94  C   UNL A   1      39.129  33.960  38.221  1.00  0.00     0.135 A 
ATOM     95  C   UNL A   1      40.891  35.257  37.223  1.00  0.00     0.135 A 
ATOM     96  F   UNL A   1      38.273  32.926  38.205  1.00  0.00    -0.206 F 
ATOM     97  C   UNL A   1      39.080  34.840  39.297  1.00  0.00     0.059 A 
ATOM     98  C   UNL A   1      40.883  36.131  38.304  1.00  0.00     0.059 A 
ATOM     99  F   UNL A   1      41.775  35.482  36.237  1.00  0.00    -0.206 F 
ATOM    100  C   UNL A   1      39.964  35.921  39.331  1.00  0.00     0.060 A 
BRANCH 100 101
ATOM    101  S   UNL A   1      39.916  37.032  40.753  1.00  0.00     0.124 S 
ATOM    102  O   UNL A   1      39.561  38.300  40.124  1.00  0.00    -0.237 OA
ATOM    103  O   UNL A   1      38.881  36.426  41.586  1.00  0.00    -0.237 OA
ATOM    104  O   UNL A   1      41.270  36.956  41.291  1.00  0.00    -0.744 OA
ENDBRANCH 100 101
ENDBRANCH  68  93
ENDBRANCH  42  43
ENDBRANCH  35  37
ENDBRANCH  34  35
ENDBRANCH  33  34
ENDBRANCH  32  33
ENDBRANCH   1  32
TORSDOF 23
ENDMDL
