MODEL 1
REMARK VINA RESULT:      -9.4      0.000      0.000
REMARK SMILES O=C(OCCOCCOC(=O)c1ccc(-c2c3nc(c(-c4c(F)cc(S(=O)(=O)[O-])cc4F)c4ccc([nH]4)c(-c4c(F)cc(S(=O)(=O)[O-])cc4F)c4nc(c(-c5c(F)cc(S(=O)(=O)[O-])cc5F)c5ccc2[nH]5)C=C4)C=C3)cc1)C1=Cc2cc(Cl)cc(C#Cc3ccccc3)c2O[C@@H]1C(F)(F)F
REMARK SMILES IDX 7 1 6 2 5 3 4 4 3 5 2 6 1 7 78 8 79 9 96 10 80 11 95 12
REMARK SMILES IDX 81 13 94 14 82 15 85 16 83 17 84 18 97 19 98 20 99 21 100 22
REMARK SMILES IDX 86 23 87 24 88 25 89 26 93 27 90 28 92 29 91 30 8 31 9 32
REMARK SMILES IDX 10 33 11 34 12 35 13 36 77 37 14 38 76 39 15 40 16 41 17 42
REMARK SMILES IDX 70 43 18 44 75 45 69 46 71 47 19 48 74 49 68 50 67 51 20 53
REMARK SMILES IDX 54 54 33 55 53 56 34 57 37 58 52 59 72 60 35 61 36 62 51 64
REMARK SMILES IDX 73 65 38 66 21 67 22 68 31 69 23 70 24 71 30 72 32 73 25 74
REMARK SMILES IDX 26 75 27 76 28 77 29 78 55 79 56 80 65 81 57 82 58 83 64 84
REMARK SMILES IDX 66 85 59 86 60 87 61 88 62 89 63 90 39 91 40 92 49 93 41 94
REMARK SMILES IDX 42 95 48 96 50 97 43 98 44 99 45 100 46 101 47 102
REMARK H PARENT 71 52 37 63
REMARK Flexibility Score: inf
ROOT
ATOM      1  C   UNL A   1      33.470  34.696  29.109  1.00  0.00     0.202 C 
ENDROOT
BRANCH   1   2
ATOM      2  O   UNL A   1      33.340  34.515  30.518  1.00  0.00    -0.374 OA
BRANCH   2   3
ATOM      3  C   UNL A   1      34.412  34.122  31.535  1.00  0.00     0.202 C 
BRANCH   3   4
ATOM      4  C   UNL A   1      35.674  35.332  32.840  1.00  0.00     0.261 C 
BRANCH   4   5
ATOM      5  O   UNL A   1      36.770  34.827  33.796  1.00  0.00    -0.460 OA
BRANCH   5   6
ATOM      6  C   UNL A   1      37.583  33.928  33.235  1.00  0.00     0.338 C 
ATOM      7  O   UNL A   1      38.193  33.977  32.199  1.00  0.00    -0.246 OA
BRANCH   6   8
ATOM      8  C   UNL A   1      37.199  32.829  34.092  1.00  0.00     0.087 C 
ATOM      9  C   UNL A   1      36.862  31.634  33.238  1.00  0.00     0.027 C 
ATOM     10  C   UNL A   1      38.735  32.923  35.271  1.00  0.00     0.316 C 
ATOM     11  C   UNL A   1      37.952  30.159  33.107  1.00  0.00     0.020 A 
ATOM     12  O   UNL A   1      39.886  31.404  35.128  1.00  0.00    -0.474 OA
ATOM     13  C   UNL A   1      37.638  29.199  32.199  1.00  0.00     0.032 A 
ATOM     14  C   UNL A   1      39.508  30.075  33.955  1.00  0.00     0.143 A 
ATOM     15  C   UNL A   1      38.671  28.274  32.013  1.00  0.00     0.043 A 
ATOM     16  C   UNL A   1      40.471  29.128  33.723  1.00  0.00     0.069 A 
ATOM     17  Cl  UNL A   1      38.354  27.024  30.845  1.00  0.00    -0.084 Cl
ATOM     18  C   UNL A   1      39.983  28.260  32.712  1.00  0.00     0.041 A 
BRANCH  10  19
ATOM     19  C   UNL A   1      38.167  33.553  36.589  1.00  0.00     0.430 C 
ATOM     20  F   UNL A   1      36.863  33.321  36.816  1.00  0.00    -0.167 F 
ATOM     21  F   UNL A   1      38.838  32.982  37.635  1.00  0.00    -0.167 F 
ATOM     22  F   UNL A   1      38.418  34.880  36.721  1.00  0.00    -0.167 F 
ENDBRANCH  10  19
BRANCH  16  23
ATOM     23  C   UNL A   1      41.721  28.886  34.447  1.00  0.00    -0.058 C 
ATOM     24  C   UNL A   1      42.818  28.590  34.885  1.00  0.00    -0.062 C 
BRANCH  24  25
ATOM     25  C   UNL A   1      44.181  28.210  35.312  1.00  0.00     0.025 A 
ATOM     26  C   UNL A   1      45.334  28.999  35.102  1.00  0.00     0.017 A 
ATOM     27  C   UNL A   1      44.395  27.018  35.996  1.00  0.00     0.017 A 
ATOM     28  C   UNL A   1      46.596  28.707  35.631  1.00  0.00     0.001 A 
ATOM     29  C   UNL A   1      45.678  26.676  36.478  1.00  0.00     0.001 A 
ATOM     30  C   UNL A   1      46.770  27.532  36.322  1.00  0.00     0.000 A 
ENDBRANCH  24  25
ENDBRANCH  16  23
ENDBRANCH   6   8
ENDBRANCH   5   6
ENDBRANCH   4   5
ENDBRANCH   3   4
ENDBRANCH   2   3
ENDBRANCH   1   2
BRANCH   1  31
ATOM     31  C   UNL A   1      33.642  33.534  28.137  1.00  0.00     0.261 C 
BRANCH  31  32
ATOM     32  O   UNL A   1      34.560  32.505  28.506  1.00  0.00    -0.460 OA
BRANCH  32  33
ATOM     33  C   UNL A   1      34.513  31.258  27.960  1.00  0.00     0.338 C 
ATOM     34  O   UNL A   1      33.569  30.749  27.393  1.00  0.00    -0.246 OA
BRANCH  33  35
ATOM     35  C   UNL A   1      35.841  30.621  28.278  1.00  0.00     0.060 A 
ATOM     36  C   UNL A   1      36.279  29.326  27.989  1.00  0.00     0.016 A 
ATOM     37  C   UNL A   1      36.772  31.479  28.822  1.00  0.00     0.016 A 
ATOM     38  C   UNL A   1      37.666  28.959  28.165  1.00  0.00     0.010 A 
ATOM     39  C   UNL A   1      38.134  31.162  28.854  1.00  0.00     0.010 A 
ATOM     40  C   UNL A   1      38.630  29.899  28.569  1.00  0.00    -0.014 A 
BRANCH  40  41
ATOM     41  C   UNL A   1      40.099  29.764  28.929  1.00  0.00     0.031 A 
ATOM     42  C   UNL A   1      40.742  28.399  28.658  1.00  0.00     0.074 A 
ATOM     43  C   UNL A   1      40.745  30.547  29.832  1.00  0.00     0.049 A 
ATOM     44  N   UNL A   1      41.908  27.925  29.028  1.00  0.00    -0.248 NA
ATOM     45  C   UNL A   1      39.887  27.399  27.990  1.00  0.00     0.031 C 
ATOM     46  C   UNL A   1      40.209  31.731  30.496  1.00  0.00     0.029 A 
ATOM     47  N   UNL A   1      41.997  30.415  30.416  1.00  0.00    -0.354 N 
ATOM     48  C   UNL A   1      41.905  26.582  28.657  1.00  0.00     0.074 A 
ATOM     49  C   UNL A   1      40.577  26.287  28.172  1.00  0.00     0.031 C 
ATOM     50  C   UNL A   1      41.104  32.215  31.375  1.00  0.00     0.029 A 
ATOM     51  C   UNL A   1      42.310  31.398  31.336  1.00  0.00     0.049 A 
ATOM     52  H   UNL A   1      42.613  29.680  30.191  1.00  0.00     0.167 HD
ATOM     53  C   UNL A   1      42.919  25.680  28.654  1.00  0.00     0.037 A 
ATOM     54  C   UNL A   1      43.434  31.648  32.049  1.00  0.00     0.037 A 
ATOM     55  C   UNL A   1      44.243  25.969  29.128  1.00  0.00     0.049 A 
ATOM     56  C   UNL A   1      44.633  30.743  31.906  1.00  0.00     0.074 A 
ATOM     57  C   UNL A   1      45.394  25.212  28.986  1.00  0.00     0.029 A 
ATOM     58  N   UNL A   1      44.590  27.091  29.864  1.00  0.00    -0.354 N 
ATOM     59  N   UNL A   1      44.719  29.588  31.291  1.00  0.00    -0.248 NA
ATOM     60  C   UNL A   1      45.895  31.181  32.525  1.00  0.00     0.031 C 
ATOM     61  C   UNL A   1      46.424  25.849  29.685  1.00  0.00     0.029 A 
ATOM     62  C   UNL A   1      45.933  27.040  30.195  1.00  0.00     0.049 A 
ATOM     63  H   UNL A   1      43.973  27.815  30.115  1.00  0.00     0.167 HD
ATOM     64  C   UNL A   1      46.047  29.185  31.412  1.00  0.00     0.074 A 
ATOM     65  C   UNL A   1      46.731  30.214  32.164  1.00  0.00     0.031 C 
ATOM     66  C   UNL A   1      46.637  28.066  30.926  1.00  0.00     0.037 A 
BRANCH  53  67
ATOM     67  C   UNL A   1      42.645  24.320  28.052  1.00  0.00     0.058 A 
ATOM     68  C   UNL A   1      42.492  23.179  28.864  1.00  0.00     0.135 A 
ATOM     69  C   UNL A   1      42.510  24.145  26.665  1.00  0.00     0.135 A 
ATOM     70  F   UNL A   1      42.588  23.278  30.200  1.00  0.00    -0.206 F 
ATOM     71  C   UNL A   1      42.306  21.913  28.323  1.00  0.00     0.059 A 
ATOM     72  C   UNL A   1      42.269  22.891  26.104  1.00  0.00     0.059 A 
ATOM     73  F   UNL A   1      42.620  25.193  25.834  1.00  0.00    -0.206 F 
ATOM     74  C   UNL A   1      42.202  21.778  26.940  1.00  0.00     0.060 A 
BRANCH  74  75
ATOM     75  S   UNL A   1      41.993  20.120  26.260  1.00  0.00     0.124 S 
ATOM     76  O   UNL A   1      42.316  19.292  27.418  1.00  0.00    -0.237 OA
ATOM     77  O   UNL A   1      40.591  20.124  25.857  1.00  0.00    -0.237 OA
ATOM     78  O   UNL A   1      42.959  20.076  25.167  1.00  0.00    -0.744 OA
ENDBRANCH  74  75
ENDBRANCH  53  67
BRANCH  54  79
ATOM     79  C   UNL A   1      43.533  32.890  32.880  1.00  0.00     0.058 A 
ATOM     80  C   UNL A   1      43.838  34.126  32.282  1.00  0.00     0.135 A 
ATOM     81  C   UNL A   1      43.299  32.887  34.263  1.00  0.00     0.135 A 
ATOM     82  F   UNL A   1      44.098  34.185  30.966  1.00  0.00    -0.206 F 
ATOM     83  C   UNL A   1      43.899  35.308  33.016  1.00  0.00     0.059 A 
ATOM     84  C   UNL A   1      43.331  34.062  35.018  1.00  0.00     0.059 A 
ATOM     85  F   UNL A   1      43.001  31.739  34.891  1.00  0.00    -0.206 F 
ATOM     86  C   UNL A   1      43.627  35.269  34.383  1.00  0.00     0.060 A 
BRANCH  86  87
ATOM     87  S   UNL A   1      43.592  36.829  35.299  1.00  0.00     0.124 S 
ATOM     88  O   UNL A   1      44.933  36.872  35.870  1.00  0.00    -0.237 OA
ATOM     89  O   UNL A   1      43.320  37.795  34.238  1.00  0.00    -0.237 OA
ATOM     90  O   UNL A   1      42.505  36.636  36.253  1.00  0.00    -0.744 OA
ENDBRANCH  86  87
ENDBRANCH  54  79
BRANCH  66  91
ATOM     91  C   UNL A   1      48.121  27.887  31.107  1.00  0.00     0.058 A 
ATOM     92  C   UNL A   1      48.673  27.237  32.220  1.00  0.00     0.135 A 
ATOM     93  C   UNL A   1      48.999  28.271  30.076  1.00  0.00     0.135 A 
ATOM     94  F   UNL A   1      47.886  26.852  33.238  1.00  0.00    -0.206 F 
ATOM     95  C   UNL A   1      50.039  26.973  32.306  1.00  0.00     0.059 A 
ATOM     96  C   UNL A   1      50.359  27.991  30.126  1.00  0.00     0.059 A 
ATOM     97  F   UNL A   1      48.525  28.890  28.982  1.00  0.00    -0.206 F 
ATOM     98  C   UNL A   1      50.872  27.342  31.248  1.00  0.00     0.060 A 
BRANCH  98  99
ATOM     99  S   UNL A   1      52.627  26.924  31.337  1.00  0.00     0.124 S 
ATOM    100  O   UNL A   1      52.585  25.466  31.344  1.00  0.00    -0.237 OA
ATOM    101  O   UNL A   1      53.153  27.538  30.122  1.00  0.00    -0.237 OA
ATOM    102  O   UNL A   1      53.063  27.545  32.585  1.00  0.00    -0.744 OA
ENDBRANCH  98  99
ENDBRANCH  66  91
ENDBRANCH  40  41
ENDBRANCH  33  35
ENDBRANCH  32  33
ENDBRANCH  31  32
ENDBRANCH   1  31
TORSDOF 20
ENDMDL
MODEL 2
REMARK VINA RESULT:      -9.4      3.556      8.721
REMARK SMILES O=C(OCCOCCOC(=O)c1ccc(-c2c3nc(c(-c4c(F)cc(S(=O)(=O)[O-])cc4F)c4ccc([nH]4)c(-c4c(F)cc(S(=O)(=O)[O-])cc4F)c4nc(c(-c5c(F)cc(S(=O)(=O)[O-])cc5F)c5ccc2[nH]5)C=C4)C=C3)cc1)C1=Cc2cc(Cl)cc(C#Cc3ccccc3)c2O[C@@H]1C(F)(F)F
REMARK SMILES IDX 7 1 6 2 5 3 4 4 3 5 2 6 1 7 78 8 79 9 96 10 80 11 95 12
REMARK SMILES IDX 81 13 94 14 82 15 85 16 83 17 84 18 97 19 98 20 99 21 100 22
REMARK SMILES IDX 86 23 87 24 88 25 89 26 93 27 90 28 92 29 91 30 8 31 9 32
REMARK SMILES IDX 10 33 11 34 12 35 13 36 77 37 14 38 76 39 15 40 16 41 17 42
REMARK SMILES IDX 70 43 18 44 75 45 69 46 71 47 19 48 74 49 68 50 67 51 20 53
REMARK SMILES IDX 54 54 33 55 53 56 34 57 37 58 52 59 72 60 35 61 36 62 51 64
REMARK SMILES IDX 73 65 38 66 21 67 22 68 31 69 23 70 24 71 30 72 32 73 25 74
REMARK SMILES IDX 26 75 27 76 28 77 29 78 55 79 56 80 65 81 57 82 58 83 64 84
REMARK SMILES IDX 66 85 59 86 60 87 61 88 62 89 63 90 39 91 40 92 49 93 41 94
REMARK SMILES IDX 42 95 48 96 50 97 43 98 44 99 45 100 46 101 47 102
REMARK H PARENT 71 52 37 63
REMARK Flexibility Score: inf
ROOT
ATOM      1  C   UNL A   1      35.152  34.367  28.816  1.00  0.00     0.202 C 
ENDROOT
BRANCH   1   2
ATOM      2  O   UNL A   1      34.280  34.725  29.886  1.00  0.00    -0.374 OA
BRANCH   2   3
ATOM      3  C   UNL A   1      34.300  34.244  31.337  1.00  0.00     0.202 C 
BRANCH   3   4
ATOM      4  C   UNL A   1      35.498  34.872  33.049  1.00  0.00     0.261 C 
BRANCH   4   5
ATOM      5  O   UNL A   1      36.416  33.987  33.911  1.00  0.00    -0.460 OA
BRANCH   5   6
ATOM      6  C   UNL A   1      37.712  34.271  33.761  1.00  0.00     0.338 C 
ATOM      7  O   UNL A   1      38.346  35.220  34.144  1.00  0.00    -0.246 OA
BRANCH   6   8
ATOM      8  C   UNL A   1      37.964  33.274  32.744  1.00  0.00     0.087 C 
ATOM      9  C   UNL A   1      38.187  33.964  31.424  1.00  0.00     0.027 C 
ATOM     10  C   UNL A   1      39.341  32.315  33.715  1.00  0.00     0.316 C 
ATOM     11  C   UNL A   1      39.840  34.097  30.630  1.00  0.00     0.020 A 
ATOM     12  O   UNL A   1      41.069  32.463  32.910  1.00  0.00    -0.474 OA
ATOM     13  C   UNL A   1      39.966  34.864  29.517  1.00  0.00     0.032 A 
ATOM     14  C   UNL A   1      41.297  33.450  31.408  1.00  0.00     0.143 A 
ATOM     15  C   UNL A   1      41.301  35.094  29.168  1.00  0.00     0.043 A 
ATOM     16  C   UNL A   1      42.579  33.714  31.001  1.00  0.00     0.069 A 
ATOM     17  Cl  UNL A   1      41.546  36.091  27.764  1.00  0.00    -0.084 Cl
ATOM     18  C   UNL A   1      42.502  34.570  29.871  1.00  0.00     0.041 A 
BRANCH  10  19
ATOM     19  C   UNL A   1      38.632  31.000  34.185  1.00  0.00     0.430 C 
ATOM     20  F   UNL A   1      38.282  30.156  33.199  1.00  0.00    -0.167 F 
ATOM     21  F   UNL A   1      39.520  30.315  34.968  1.00  0.00    -0.167 F 
ATOM     22  F   UNL A   1      37.566  31.206  34.999  1.00  0.00    -0.167 F 
ENDBRANCH  10  19
BRANCH  16  23
ATOM     23  C   UNL A   1      43.837  33.137  31.479  1.00  0.00    -0.058 C 
ATOM     24  C   UNL A   1      44.778  32.489  31.901  1.00  0.00    -0.062 C 
BRANCH  24  25
ATOM     25  C   UNL A   1      45.863  31.612  32.391  1.00  0.00     0.025 A 
ATOM     26  C   UNL A   1      46.552  31.797  33.611  1.00  0.00     0.017 A 
ATOM     27  C   UNL A   1      46.252  30.500  31.653  1.00  0.00     0.017 A 
ATOM     28  C   UNL A   1      47.475  30.890  34.139  1.00  0.00     0.001 A 
ATOM     29  C   UNL A   1      47.234  29.610  32.143  1.00  0.00     0.001 A 
ATOM     30  C   UNL A   1      47.823  29.787  33.396  1.00  0.00     0.000 A 
ENDBRANCH  24  25
ENDBRANCH  16  23
ENDBRANCH   6   8
ENDBRANCH   5   6
ENDBRANCH   4   5
ENDBRANCH   3   4
ENDBRANCH   2   3
ENDBRANCH   1   2
BRANCH   1  31
ATOM     31  C   UNL A   1      35.343  32.929  28.347  1.00  0.00     0.261 C 
BRANCH  31  32
ATOM     32  O   UNL A   1      36.254  32.118  29.089  1.00  0.00    -0.460 OA
BRANCH  32  33
ATOM     33  C   UNL A   1      36.381  30.779  28.870  1.00  0.00     0.338 C 
ATOM     34  O   UNL A   1      35.483  29.990  28.660  1.00  0.00    -0.246 OA
BRANCH  33  35
ATOM     35  C   UNL A   1      37.849  30.475  29.023  1.00  0.00     0.060 A 
ATOM     36  C   UNL A   1      38.652  30.604  30.158  1.00  0.00     0.016 A 
ATOM     37  C   UNL A   1      38.429  29.886  27.920  1.00  0.00     0.016 A 
ATOM     38  C   UNL A   1      39.987  30.049  30.184  1.00  0.00     0.010 A 
ATOM     39  C   UNL A   1      39.661  29.230  28.001  1.00  0.00     0.010 A 
ATOM     40  C   UNL A   1      40.499  29.311  29.103  1.00  0.00    -0.014 A 
BRANCH  40  41
ATOM     41  C   UNL A   1      41.871  28.725  28.826  1.00  0.00     0.031 A 
ATOM     42  C   UNL A   1      42.993  29.728  28.538  1.00  0.00     0.074 A 
ATOM     43  C   UNL A   1      42.092  27.456  28.390  1.00  0.00     0.049 A 
ATOM     44  N   UNL A   1      44.209  29.531  28.087  1.00  0.00    -0.248 NA
ATOM     45  C   UNL A   1      42.635  31.155  28.654  1.00  0.00     0.031 C 
ATOM     46  C   UNL A   1      41.097  26.399  28.255  1.00  0.00     0.029 A 
ATOM     47  N   UNL A   1      43.242  26.855  27.898  1.00  0.00    -0.354 N 
ATOM     48  C   UNL A   1      44.736  30.799  27.851  1.00  0.00     0.074 A 
ATOM     49  C   UNL A   1      43.664  31.742  28.068  1.00  0.00     0.031 C 
ATOM     50  C   UNL A   1      41.660  25.295  27.732  1.00  0.00     0.029 A 
ATOM     51  C   UNL A   1      43.080  25.538  27.506  1.00  0.00     0.049 A 
ATOM     52  H   UNL A   1      44.103  27.327  27.832  1.00  0.00     0.167 HD
ATOM     53  C   UNL A   1      46.004  31.169  27.544  1.00  0.00     0.037 A 
ATOM     54  C   UNL A   1      43.958  24.613  27.050  1.00  0.00     0.037 A 
ATOM     55  C   UNL A   1      47.077  30.237  27.334  1.00  0.00     0.049 A 
ATOM     56  C   UNL A   1      45.412  24.975  26.882  1.00  0.00     0.074 A 
ATOM     57  C   UNL A   1      48.433  30.494  27.224  1.00  0.00     0.029 A 
ATOM     58  N   UNL A   1      46.914  28.871  27.170  1.00  0.00    -0.354 N 
ATOM     59  N   UNL A   1      45.976  26.157  26.952  1.00  0.00    -0.248 NA
ATOM     60  C   UNL A   1      46.358  23.883  26.599  1.00  0.00     0.031 C 
ATOM     61  C   UNL A   1      49.083  29.290  26.936  1.00  0.00     0.029 A 
ATOM     62  C   UNL A   1      48.142  28.273  26.947  1.00  0.00     0.049 A 
ATOM     63  H   UNL A   1      46.052  28.396  27.207  1.00  0.00     0.167 HD
ATOM     64  C   UNL A   1      47.340  25.945  26.767  1.00  0.00     0.074 A 
ATOM     65  C   UNL A   1      47.522  24.523  26.575  1.00  0.00     0.031 C 
ATOM     66  C   UNL A   1      48.345  26.855  26.774  1.00  0.00     0.037 A 
BRANCH  53  67
ATOM     67  C   UNL A   1      46.309  32.650  27.490  1.00  0.00     0.058 A 
ATOM     68  C   UNL A   1      45.922  33.435  26.387  1.00  0.00     0.135 A 
ATOM     69  C   UNL A   1      46.969  33.302  28.544  1.00  0.00     0.135 A 
ATOM     70  F   UNL A   1      45.270  32.880  25.352  1.00  0.00    -0.206 F 
ATOM     71  C   UNL A   1      46.253  34.781  26.293  1.00  0.00     0.059 A 
ATOM     72  C   UNL A   1      47.263  34.664  28.494  1.00  0.00     0.059 A 
ATOM     73  F   UNL A   1      47.345  32.618  29.637  1.00  0.00    -0.206 F 
ATOM     74  C   UNL A   1      46.930  35.386  27.350  1.00  0.00     0.060 A 
BRANCH  74  75
ATOM     75  S   UNL A   1      47.377  37.127  27.190  1.00  0.00     0.124 S 
ATOM     76  O   UNL A   1      46.190  37.668  26.535  1.00  0.00    -0.237 OA
ATOM     77  O   UNL A   1      47.569  37.527  28.580  1.00  0.00    -0.237 OA
ATOM     78  O   UNL A   1      48.586  37.095  26.375  1.00  0.00    -0.744 OA
ENDBRANCH  74  75
ENDBRANCH  53  67
BRANCH  54  79
ATOM     79  C   UNL A   1      43.511  23.200  26.835  1.00  0.00     0.058 A 
ATOM     80  C   UNL A   1      43.497  22.646  25.542  1.00  0.00     0.135 A 
ATOM     81  C   UNL A   1      43.124  22.367  27.895  1.00  0.00     0.135 A 
ATOM     82  F   UNL A   1      43.831  23.404  24.486  1.00  0.00    -0.206 F 
ATOM     83  C   UNL A   1      43.126  21.323  25.309  1.00  0.00     0.059 A 
ATOM     84  C   UNL A   1      42.771  21.032  27.690  1.00  0.00     0.059 A 
ATOM     85  F   UNL A   1      43.119  22.838  29.152  1.00  0.00    -0.206 F 
ATOM     86  C   UNL A   1      42.780  20.517  26.393  1.00  0.00     0.060 A 
BRANCH  86  87
ATOM     87  S   UNL A   1      42.418  18.771  26.086  1.00  0.00     0.124 S 
ATOM     88  O   UNL A   1      42.721  18.170  27.380  1.00  0.00    -0.237 OA
ATOM     89  O   UNL A   1      41.005  18.816  25.720  1.00  0.00    -0.237 OA
ATOM     90  O   UNL A   1      43.328  18.424  25.000  1.00  0.00    -0.744 OA
ENDBRANCH  86  87
ENDBRANCH  54  79
BRANCH  66  91
ATOM     91  C   UNL A   1      49.766  26.374  26.641  1.00  0.00     0.058 A 
ATOM     92  C   UNL A   1      50.427  26.306  25.406  1.00  0.00     0.135 A 
ATOM     93  C   UNL A   1      50.515  26.093  27.798  1.00  0.00     0.135 A 
ATOM     94  F   UNL A   1      49.763  26.558  24.268  1.00  0.00    -0.206 F 
ATOM     95  C   UNL A   1      51.779  25.977  25.322  1.00  0.00     0.059 A 
ATOM     96  C   UNL A   1      51.871  25.793  27.741  1.00  0.00     0.059 A 
ATOM     97  F   UNL A   1      49.935  26.150  29.009  1.00  0.00    -0.206 F 
ATOM     98  C   UNL A   1      52.496  25.735  26.496  1.00  0.00     0.060 A 
BRANCH  98  99
ATOM     99  S   UNL A   1      54.264  25.386  26.379  1.00  0.00     0.124 S 
ATOM    100  O   UNL A   1      54.702  26.394  25.419  1.00  0.00    -0.237 OA
ATOM    101  O   UNL A   1      54.711  25.584  27.754  1.00  0.00    -0.237 OA
ATOM    102  O   UNL A   1      54.310  24.006  25.904  1.00  0.00    -0.744 OA
ENDBRANCH  98  99
ENDBRANCH  66  91
ENDBRANCH  40  41
ENDBRANCH  33  35
ENDBRANCH  32  33
ENDBRANCH  31  32
ENDBRANCH   1  31
TORSDOF 20
ENDMDL
MODEL 3
REMARK VINA RESULT:      -9.0      4.532      7.982
REMARK SMILES O=C(OCCOCCOC(=O)c1ccc(-c2c3nc(c(-c4c(F)cc(S(=O)(=O)[O-])cc4F)c4ccc([nH]4)c(-c4c(F)cc(S(=O)(=O)[O-])cc4F)c4nc(c(-c5c(F)cc(S(=O)(=O)[O-])cc5F)c5ccc2[nH]5)C=C4)C=C3)cc1)C1=Cc2cc(Cl)cc(C#Cc3ccccc3)c2O[C@@H]1C(F)(F)F
REMARK SMILES IDX 7 1 6 2 5 3 4 4 3 5 2 6 1 7 78 8 79 9 96 10 80 11 95 12
REMARK SMILES IDX 81 13 94 14 82 15 85 16 83 17 84 18 97 19 98 20 99 21 100 22
REMARK SMILES IDX 86 23 87 24 88 25 89 26 93 27 90 28 92 29 91 30 8 31 9 32
REMARK SMILES IDX 10 33 11 34 12 35 13 36 77 37 14 38 76 39 15 40 16 41 17 42
REMARK SMILES IDX 70 43 18 44 75 45 69 46 71 47 19 48 74 49 68 50 67 51 20 53
REMARK SMILES IDX 54 54 33 55 53 56 34 57 37 58 52 59 72 60 35 61 36 62 51 64
REMARK SMILES IDX 73 65 38 66 21 67 22 68 31 69 23 70 24 71 30 72 32 73 25 74
REMARK SMILES IDX 26 75 27 76 28 77 29 78 55 79 56 80 65 81 57 82 58 83 64 84
REMARK SMILES IDX 66 85 59 86 60 87 61 88 62 89 63 90 39 91 40 92 49 93 41 94
REMARK SMILES IDX 42 95 48 96 50 97 43 98 44 99 45 100 46 101 47 102
REMARK H PARENT 71 52 37 63
REMARK Flexibility Score: inf
ROOT
ATOM      1  C   UNL A   1      37.242  31.763  34.051  1.00  0.00     0.202 C 
ENDROOT
BRANCH   1   2
ATOM      2  O   UNL A   1      36.723  32.620  35.066  1.00  0.00    -0.374 OA
BRANCH   2   3
ATOM      3  C   UNL A   1      35.971  33.942  34.908  1.00  0.00     0.202 C 
BRANCH   3   4
ATOM      4  C   UNL A   1      35.584  35.181  33.155  1.00  0.00     0.261 C 
BRANCH   4   5
ATOM      5  O   UNL A   1      34.569  34.903  32.031  1.00  0.00    -0.460 OA
BRANCH   5   6
ATOM      6  C   UNL A   1      34.558  33.628  31.635  1.00  0.00     0.338 C 
ATOM      7  O   UNL A   1      34.216  32.638  32.227  1.00  0.00    -0.246 OA
BRANCH   6   8
ATOM      8  C   UNL A   1      35.381  33.832  30.464  1.00  0.00     0.087 C 
ATOM      9  C   UNL A   1      36.619  32.982  30.579  1.00  0.00     0.027 C 
ATOM     10  C   UNL A   1      33.978  33.536  29.158  1.00  0.00     0.316 C 
ATOM     11  C   UNL A   1      36.890  31.465  29.575  1.00  0.00     0.020 A 
ATOM     12  O   UNL A   1      34.238  31.951  28.122  1.00  0.00    -0.474 OA
ATOM     13  C   UNL A   1      37.965  30.685  29.855  1.00  0.00     0.032 A 
ATOM     14  C   UNL A   1      35.669  30.882  28.427  1.00  0.00     0.143 A 
ATOM     15  C   UNL A   1      37.914  29.445  29.210  1.00  0.00     0.043 A 
ATOM     16  C   UNL A   1      35.691  29.650  27.826  1.00  0.00     0.069 A 
ATOM     17  Cl  UNL A   1      39.247  28.376  29.537  1.00  0.00    -0.084 Cl
ATOM     18  C   UNL A   1      36.850  28.971  28.286  1.00  0.00     0.041 A 
BRANCH  10  19
ATOM     19  C   UNL A   1      33.651  34.970  28.618  1.00  0.00     0.430 C 
ATOM     20  F   UNL A   1      34.582  35.501  27.806  1.00  0.00    -0.167 F 
ATOM     21  F   UNL A   1      32.511  34.873  27.868  1.00  0.00    -0.167 F 
ATOM     22  F   UNL A   1      33.334  35.867  29.585  1.00  0.00    -0.167 F 
ENDBRANCH  10  19
BRANCH  16  23
ATOM     23  C   UNL A   1      34.820  29.120  26.776  1.00  0.00    -0.058 C 
ATOM     24  C   UNL A   1      33.971  28.825  25.954  1.00  0.00    -0.062 C 
BRANCH  24  25
ATOM     25  C   UNL A   1      32.898  28.568  24.970  1.00  0.00     0.025 A 
ATOM     26  C   UNL A   1      31.689  29.297  24.897  1.00  0.00     0.017 A 
ATOM     27  C   UNL A   1      33.048  27.572  24.013  1.00  0.00     0.017 A 
ATOM     28  C   UNL A   1      30.740  29.148  23.880  1.00  0.00     0.001 A 
ATOM     29  C   UNL A   1      32.065  27.363  23.019  1.00  0.00     0.001 A 
ATOM     30  C   UNL A   1      30.929  28.168  22.934  1.00  0.00     0.000 A 
ENDBRANCH  24  25
ENDBRANCH  16  23
ENDBRANCH   6   8
ENDBRANCH   5   6
ENDBRANCH   4   5
ENDBRANCH   3   4
ENDBRANCH   2   3
ENDBRANCH   1   2
BRANCH   1  31
ATOM     31  C   UNL A   1      38.132  30.563  34.355  1.00  0.00     0.261 C 
BRANCH  31  32
ATOM     32  O   UNL A   1      39.544  30.765  34.289  1.00  0.00    -0.460 OA
BRANCH  32  33
ATOM     33  C   UNL A   1      40.430  29.732  34.341  1.00  0.00     0.338 C 
ATOM     34  O   UNL A   1      40.638  29.001  35.288  1.00  0.00    -0.246 OA
BRANCH  33  35
ATOM     35  C   UNL A   1      41.147  29.739  33.016  1.00  0.00     0.060 A 
ATOM     36  C   UNL A   1      40.904  30.539  31.897  1.00  0.00     0.016 A 
ATOM     37  C   UNL A   1      42.256  28.923  32.962  1.00  0.00     0.016 A 
ATOM     38  C   UNL A   1      41.838  30.568  30.794  1.00  0.00     0.010 A 
ATOM     39  C   UNL A   1      43.223  29.063  31.960  1.00  0.00     0.010 A 
ATOM     40  C   UNL A   1      43.045  29.849  30.832  1.00  0.00    -0.014 A 
BRANCH  40  41
ATOM     41  C   UNL A   1      44.128  29.619  29.794  1.00  0.00     0.031 A 
ATOM     42  C   UNL A   1      44.070  28.289  29.035  1.00  0.00     0.074 A 
ATOM     43  C   UNL A   1      45.335  30.243  29.791  1.00  0.00     0.049 A 
ATOM     44  N   UNL A   1      44.949  27.731  28.236  1.00  0.00    -0.248 NA
ATOM     45  C   UNL A   1      42.912  27.422  29.330  1.00  0.00     0.031 C 
ATOM     46  C   UNL A   1      45.751  31.334  30.665  1.00  0.00     0.029 A 
ATOM     47  N   UNL A   1      46.485  29.990  29.055  1.00  0.00    -0.354 N 
ATOM     48  C   UNL A   1      44.457  26.456  27.963  1.00  0.00     0.074 A 
ATOM     49  C   UNL A   1      43.288  26.275  28.792  1.00  0.00     0.031 C 
ATOM     50  C   UNL A   1      47.034  31.659  30.424  1.00  0.00     0.029 A 
ATOM     51  C   UNL A   1      47.551  30.819  29.350  1.00  0.00     0.049 A 
ATOM     52  H   UNL A   1      46.537  29.277  28.378  1.00  0.00     0.167 HD
ATOM     53  C   UNL A   1      44.886  25.534  27.066  1.00  0.00     0.037 A 
ATOM     54  C   UNL A   1      48.790  30.929  28.815  1.00  0.00     0.037 A 
ATOM     55  C   UNL A   1      46.043  25.711  26.233  1.00  0.00     0.049 A 
ATOM     56  C   UNL A   1      49.205  30.019  27.685  1.00  0.00     0.074 A 
ATOM     57  C   UNL A   1      46.453  24.948  25.153  1.00  0.00     0.029 A 
ATOM     58  N   UNL A   1      46.995  26.703  26.407  1.00  0.00    -0.354 N 
ATOM     59  N   UNL A   1      48.586  28.963  27.215  1.00  0.00    -0.248 NA
ATOM     60  C   UNL A   1      50.468  30.324  26.993  1.00  0.00     0.031 C 
ATOM     61  C   UNL A   1      47.682  25.445  24.710  1.00  0.00     0.029 A 
ATOM     62  C   UNL A   1      47.997  26.564  25.462  1.00  0.00     0.049 A 
ATOM     63  H   UNL A   1      46.963  27.402  27.099  1.00  0.00     0.167 HD
ATOM     64  C   UNL A   1      49.359  28.507  26.149  1.00  0.00     0.074 A 
ATOM     65  C   UNL A   1      50.495  29.395  26.044  1.00  0.00     0.031 C 
ATOM     66  C   UNL A   1      49.127  27.452  25.329  1.00  0.00     0.037 A 
BRANCH  53  67
ATOM     67  C   UNL A   1      44.052  24.284  26.892  1.00  0.00     0.058 A 
ATOM     68  C   UNL A   1      44.253  23.153  27.706  1.00  0.00     0.135 A 
ATOM     69  C   UNL A   1      43.032  24.210  25.929  1.00  0.00     0.135 A 
ATOM     70  F   UNL A   1      45.199  23.161  28.660  1.00  0.00    -0.206 F 
ATOM     71  C   UNL A   1      43.542  21.975  27.514  1.00  0.00     0.059 A 
ATOM     72  C   UNL A   1      42.268  23.056  25.757  1.00  0.00     0.059 A 
ATOM     73  F   UNL A   1      42.770  25.261  25.136  1.00  0.00    -0.206 F 
ATOM     74  C   UNL A   1      42.554  21.934  26.532  1.00  0.00     0.060 A 
BRANCH  74  75
ATOM     75  S   UNL A   1      41.666  20.384  26.282  1.00  0.00     0.124 S 
ATOM     76  O   UNL A   1      41.762  19.781  27.608  1.00  0.00    -0.237 OA
ATOM     77  O   UNL A   1      40.337  20.847  25.893  1.00  0.00    -0.237 OA
ATOM     78  O   UNL A   1      42.430  19.720  25.232  1.00  0.00    -0.744 OA
ENDBRANCH  74  75
ENDBRANCH  53  67
BRANCH  54  79
ATOM     79  C   UNL A   1      49.700  32.035  29.253  1.00  0.00     0.058 A 
ATOM     80  C   UNL A   1      50.632  31.824  30.286  1.00  0.00     0.135 A 
ATOM     81  C   UNL A   1      49.690  33.299  28.646  1.00  0.00     0.135 A 
ATOM     82  F   UNL A   1      50.668  30.642  30.922  1.00  0.00    -0.206 F 
ATOM     83  C   UNL A   1      51.521  32.816  30.694  1.00  0.00     0.059 A 
ATOM     84  C   UNL A   1      50.586  34.302  29.021  1.00  0.00     0.059 A 
ATOM     85  F   UNL A   1      48.826  33.560  27.653  1.00  0.00    -0.206 F 
ATOM     86  C   UNL A   1      51.503  34.049  30.043  1.00  0.00     0.060 A 
BRANCH  86  87
ATOM     87  S   UNL A   1      52.743  35.283  30.502  1.00  0.00     0.124 S 
ATOM     88  O   UNL A   1      52.166  35.851  31.715  1.00  0.00    -0.237 OA
ATOM     89  O   UNL A   1      53.934  34.459  30.687  1.00  0.00    -0.237 OA
ATOM     90  O   UNL A   1      52.779  36.171  29.345  1.00  0.00    -0.744 OA
ENDBRANCH  86  87
ENDBRANCH  54  79
BRANCH  66  91
ATOM     91  C   UNL A   1      50.066  27.204  24.179  1.00  0.00     0.058 A 
ATOM     92  C   UNL A   1      49.758  27.568  22.860  1.00  0.00     0.135 A 
ATOM     93  C   UNL A   1      51.356  26.700  24.431  1.00  0.00     0.135 A 
ATOM     94  F   UNL A   1      48.542  28.049  22.558  1.00  0.00    -0.206 F 
ATOM     95  C   UNL A   1      50.692  27.443  21.833  1.00  0.00     0.059 A 
ATOM     96  C   UNL A   1      52.313  26.596  23.428  1.00  0.00     0.059 A 
ATOM     97  F   UNL A   1      51.710  26.343  25.676  1.00  0.00    -0.206 F 
ATOM     98  C   UNL A   1      51.971  26.968  22.129  1.00  0.00     0.060 A 
BRANCH  98  99
ATOM     99  S   UNL A   1      53.196  26.884  20.804  1.00  0.00     0.124 S 
ATOM    100  O   UNL A   1      52.622  25.863  19.934  1.00  0.00    -0.237 OA
ATOM    101  O   UNL A   1      53.179  28.246  20.281  1.00  0.00    -0.237 OA
ATOM    102  O   UNL A   1      54.423  26.500  21.496  1.00  0.00    -0.744 OA
ENDBRANCH  98  99
ENDBRANCH  66  91
ENDBRANCH  40  41
ENDBRANCH  33  35
ENDBRANCH  32  33
ENDBRANCH  31  32
ENDBRANCH   1  31
TORSDOF 20
ENDMDL
