MODEL 1
REMARK VINA RESULT:     -12.6      0.000      0.000
REMARK SMILES CS(=O)(=O)c1ccc(-c2cc(Cl)cc3c2O[C@@H](C(F)(F)F)C(C(=O)OCCOCCOC(=O)c2ccc(-c4c5nc(c(-c6c(F)cc(S(=O)(=O)[O-])cc6F)c6ccc([nH]6)c(-c6c(F)cc(S(=O)(=O)[O-])cc6F)c6nc(c(-c7c(F)cc(S(=O)(=O)[O-])cc7F)c7ccc4[nH]7)C=C6)C=C5)cc2)=C3)cc1
REMARK SMILES IDX 29 1 28 2 27 3 26 4 25 5 23 6 24 7 22 8 9 9 10 10 15 11
REMARK SMILES IDX 11 12 14 13 16 14 12 15 13 16 100 17 17 18 8 19 5 20 6 21
REMARK SMILES IDX 102 22 7 23 101 24 2 25 1 26 3 27 4 28 18 29 19 30 20 31
REMARK SMILES IDX 21 32 30 33 31 34 32 35 33 36 34 37 35 38 99 39 36 40 98 41
REMARK SMILES IDX 37 42 38 43 39 44 92 45 40 46 97 47 91 48 93 49 41 50 96 51
REMARK SMILES IDX 90 52 89 53 42 55 76 56 55 57 75 58 56 59 59 60 74 61 94 62
REMARK SMILES IDX 57 63 58 64 73 66 95 67 60 68 43 69 44 70 53 71 45 72 46 73
REMARK SMILES IDX 52 74 54 75 47 76 48 77 49 78 50 79 51 80 77 81 78 82 87 83
REMARK SMILES IDX 79 84 80 85 86 86 88 87 81 88 82 89 83 90 84 91 85 92 61 93
REMARK SMILES IDX 62 94 71 95 63 96 64 97 70 98 72 99 65 100 66 101 67 102
REMARK SMILES IDX 68 103 69 104
REMARK H PARENT 93 54 59 65
REMARK Flexibility Score: inf
ROOT
ATOM      1  C   UNL A   1      33.892  31.421  27.835  1.00  0.00     0.202 C 
ENDROOT
BRANCH   1   2
ATOM      2  O   UNL A   1      33.125  31.050  26.693  1.00  0.00    -0.374 OA
BRANCH   2   3
ATOM      3  C   UNL A   1      31.868  30.418  26.904  1.00  0.00     0.202 C 
BRANCH   3   4
ATOM      4  C   UNL A   1      31.831  28.889  27.062  1.00  0.00     0.261 C 
BRANCH   4   5
ATOM      5  O   UNL A   1      32.728  28.205  26.173  1.00  0.00    -0.460 OA
BRANCH   5   6
ATOM      6  C   UNL A   1      32.204  27.174  25.485  1.00  0.00     0.338 C 
ATOM      7  O   UNL A   1      31.026  27.055  25.175  1.00  0.00    -0.246 OA
BRANCH   6   8
ATOM      8  C   UNL A   1      33.240  26.247  24.963  1.00  0.00     0.087 C 
ATOM      9  C   UNL A   1      32.057  22.283  24.526  1.00  0.00     0.026 A 
ATOM     10  C   UNL A   1      30.973  22.138  25.424  1.00  0.00     0.033 A 
ATOM     11  C   UNL A   1      32.714  23.534  24.581  1.00  0.00     0.135 A 
ATOM     12  C   UNL A   1      30.808  23.007  26.502  1.00  0.00     0.042 A 
ATOM     13  C   UNL A   1      32.724  24.242  25.795  1.00  0.00     0.019 A 
ATOM     14  O   UNL A   1      32.892  24.289  23.402  1.00  0.00    -0.475 OA
ATOM     15  Cl  UNL A   1      29.505  22.766  27.594  1.00  0.00    -0.084 Cl
ATOM     16  C   UNL A   1      31.745  23.998  26.750  1.00  0.00     0.032 A 
ATOM     17  C   UNL A   1      33.627  25.405  25.935  1.00  0.00     0.027 C 
ATOM     18  C   UNL A   1      33.390  25.690  23.564  1.00  0.00     0.316 C 
BRANCH   9  19
ATOM     19  C   UNL A   1      32.733  20.964  24.201  1.00  0.00    -0.015 A 
ATOM     20  C   UNL A   1      33.397  18.176  24.080  1.00  0.00     0.067 A 
ATOM     21  C   UNL A   1      32.549  18.733  23.127  1.00  0.00     0.021 A 
ATOM     22  C   UNL A   1      33.959  19.003  25.058  1.00  0.00     0.021 A 
ATOM     23  C   UNL A   1      32.239  20.111  23.183  1.00  0.00     0.010 A 
ATOM     24  C   UNL A   1      33.637  20.376  25.111  1.00  0.00     0.010 A 
BRANCH  20  25
ATOM     25  S   UNL A   1      33.782  16.433  24.117  1.00  0.00     0.175 S 
ATOM     26  C   UNL A   1      35.185  16.183  25.171  1.00  0.00     0.163 C 
ATOM     27  O   UNL A   1      34.210  16.067  22.778  1.00  0.00    -0.224 OA
ATOM     28  O   UNL A   1      32.647  15.777  24.738  1.00  0.00    -0.224 OA
ENDBRANCH  20  25
ENDBRANCH   9  19
BRANCH  18  29
ATOM     29  C   UNL A   1      33.074  26.687  22.424  1.00  0.00     0.430 C 
ATOM     30  F   UNL A   1      33.457  27.937  22.809  1.00  0.00    -0.167 F 
ATOM     31  F   UNL A   1      33.777  26.404  21.302  1.00  0.00    -0.167 F 
ATOM     32  F   UNL A   1      31.779  26.768  22.072  1.00  0.00    -0.167 F 
ENDBRANCH  18  29
ENDBRANCH   6   8
ENDBRANCH   5   6
ENDBRANCH   4   5
ENDBRANCH   3   4
ENDBRANCH   2   3
ENDBRANCH   1   2
BRANCH   1  33
ATOM     33  C   UNL A   1      35.073  30.543  28.255  1.00  0.00     0.261 C 
BRANCH  33  34
ATOM     34  O   UNL A   1      35.944  31.159  29.215  1.00  0.00    -0.460 OA
BRANCH  34  35
ATOM     35  C   UNL A   1      36.571  30.291  30.043  1.00  0.00     0.338 C 
ATOM     36  O   UNL A   1      36.057  29.587  30.905  1.00  0.00    -0.246 OA
BRANCH  35  37
ATOM     37  C   UNL A   1      37.985  30.166  29.667  1.00  0.00     0.060 A 
ATOM     38  C   UNL A   1      38.289  29.884  28.330  1.00  0.00     0.016 A 
ATOM     39  C   UNL A   1      38.992  30.221  30.634  1.00  0.00     0.016 A 
ATOM     40  C   UNL A   1      39.604  29.614  27.960  1.00  0.00     0.010 A 
ATOM     41  C   UNL A   1      40.308  29.944  30.260  1.00  0.00     0.010 A 
ATOM     42  C   UNL A   1      40.615  29.607  28.930  1.00  0.00    -0.014 A 
BRANCH  42  43
ATOM     43  C   UNL A   1      41.968  29.120  28.571  1.00  0.00     0.031 A 
ATOM     44  C   UNL A   1      43.111  30.096  28.534  1.00  0.00     0.074 A 
ATOM     45  C   UNL A   1      42.171  27.820  28.298  1.00  0.00     0.049 A 
ATOM     46  N   UNL A   1      44.361  29.898  28.205  1.00  0.00    -0.248 NA
ATOM     47  C   UNL A   1      42.801  31.485  28.912  1.00  0.00     0.031 C 
ATOM     48  C   UNL A   1      41.142  26.782  28.328  1.00  0.00     0.029 A 
ATOM     49  N   UNL A   1      43.312  27.152  27.928  1.00  0.00    -0.354 N 
ATOM     50  C   UNL A   1      44.985  31.135  28.324  1.00  0.00     0.074 A 
ATOM     51  C   UNL A   1      43.969  32.084  28.726  1.00  0.00     0.031 C 
ATOM     52  C   UNL A   1      41.695  25.609  27.975  1.00  0.00     0.029 A 
ATOM     53  C   UNL A   1      43.106  25.821  27.660  1.00  0.00     0.049 A 
ATOM     54  H   UNL A   1      44.193  27.587  27.861  1.00  0.00     0.167 HD
ATOM     55  C   UNL A   1      46.288  31.447  28.123  1.00  0.00     0.037 A 
ATOM     56  C   UNL A   1      43.955  24.887  27.188  1.00  0.00     0.037 A 
ATOM     57  C   UNL A   1      47.289  30.490  27.723  1.00  0.00     0.049 A 
ATOM     58  C   UNL A   1      45.389  25.266  26.924  1.00  0.00     0.074 A 
ATOM     59  C   UNL A   1      48.642  30.694  27.522  1.00  0.00     0.029 A 
ATOM     60  N   UNL A   1      47.042  29.151  27.450  1.00  0.00    -0.354 N 
ATOM     61  N   UNL A   1      45.976  26.430  27.075  1.00  0.00    -0.248 NA
ATOM     62  C   UNL A   1      46.277  24.204  26.435  1.00  0.00     0.031 C 
ATOM     63  C   UNL A   1      49.203  29.494  27.069  1.00  0.00     0.029 A 
ATOM     64  C   UNL A   1      48.212  28.524  27.053  1.00  0.00     0.049 A 
ATOM     65  H   UNL A   1      46.164  28.711  27.528  1.00  0.00     0.167 HD
ATOM     66  C   UNL A   1      47.308  26.236  26.722  1.00  0.00     0.074 A 
ATOM     67  C   UNL A   1      47.441  24.837  26.367  1.00  0.00     0.031 C 
ATOM     68  C   UNL A   1      48.328  27.130  26.697  1.00  0.00     0.037 A 
BRANCH  55  69
ATOM     69  C   UNL A   1      46.697  32.885  28.296  1.00  0.00     0.058 A 
ATOM     70  C   UNL A   1      47.204  33.375  29.511  1.00  0.00     0.135 A 
ATOM     71  C   UNL A   1      46.600  33.784  27.221  1.00  0.00     0.135 A 
ATOM     72  F   UNL A   1      47.305  32.566  30.577  1.00  0.00    -0.206 F 
ATOM     73  C   UNL A   1      47.567  34.710  29.664  1.00  0.00     0.059 A 
ATOM     74  C   UNL A   1      46.986  35.116  27.342  1.00  0.00     0.059 A 
ATOM     75  F   UNL A   1      46.120  33.373  26.038  1.00  0.00    -0.206 F 
ATOM     76  C   UNL A   1      47.453  35.573  28.572  1.00  0.00     0.060 A 
BRANCH  76  77
ATOM     77  S   UNL A   1      47.924  37.303  28.787  1.00  0.00     0.124 S 
ATOM     78  O   UNL A   1      48.712  37.240  30.015  1.00  0.00    -0.237 OA
ATOM     79  O   UNL A   1      48.675  37.576  27.566  1.00  0.00    -0.237 OA
ATOM     80  O   UNL A   1      46.644  37.994  28.900  1.00  0.00    -0.744 OA
ENDBRANCH  76  77
ENDBRANCH  55  69
BRANCH  56  81
ATOM     81  C   UNL A   1      43.462  23.509  26.921  1.00  0.00     0.058 A 
ATOM     82  C   UNL A   1      43.165  23.079  25.621  1.00  0.00     0.135 A 
ATOM     83  C   UNL A   1      43.295  22.586  27.967  1.00  0.00     0.135 A 
ATOM     84  F   UNL A   1      43.299  23.926  24.587  1.00  0.00    -0.206 F 
ATOM     85  C   UNL A   1      42.711  21.789  25.364  1.00  0.00     0.059 A 
ATOM     86  C   UNL A   1      42.870  21.283  27.735  1.00  0.00     0.059 A 
ATOM     87  F   UNL A   1      43.576  22.944  29.231  1.00  0.00    -0.206 F 
ATOM     88  C   UNL A   1      42.573  20.895  26.429  1.00  0.00     0.060 A 
BRANCH  88  89
ATOM     89  S   UNL A   1      42.040  19.206  26.078  1.00  0.00     0.124 S 
ATOM     90  O   UNL A   1      40.600  19.378  25.925  1.00  0.00    -0.237 OA
ATOM     91  O   UNL A   1      42.780  18.901  24.857  1.00  0.00    -0.237 OA
ATOM     92  O   UNL A   1      42.467  18.467  27.262  1.00  0.00    -0.744 OA
ENDBRANCH  88  89
ENDBRANCH  56  81
BRANCH  68  93
ATOM     93  C   UNL A   1      49.688  26.618  26.303  1.00  0.00     0.058 A 
ATOM     94  C   UNL A   1      50.205  26.807  25.011  1.00  0.00     0.135 A 
ATOM     95  C   UNL A   1      50.501  25.966  27.243  1.00  0.00     0.135 A 
ATOM     96  F   UNL A   1      49.470  27.421  24.071  1.00  0.00    -0.206 F 
ATOM     97  C   UNL A   1      51.467  26.337  24.658  1.00  0.00     0.059 A 
ATOM     98  C   UNL A   1      51.778  25.517  26.921  1.00  0.00     0.059 A 
ATOM     99  F   UNL A   1      50.063  25.770  28.497  1.00  0.00    -0.206 F 
ATOM    100  C   UNL A   1      52.247  25.694  25.620  1.00  0.00     0.060 A 
BRANCH 100 101
ATOM    101  S   UNL A   1      53.887  25.105  25.154  1.00  0.00     0.124 S 
ATOM    102  O   UNL A   1      54.141  25.872  23.938  1.00  0.00    -0.237 OA
ATOM    103  O   UNL A   1      54.693  25.473  26.315  1.00  0.00    -0.237 OA
ATOM    104  O   UNL A   1      53.694  23.671  24.962  1.00  0.00    -0.744 OA
ENDBRANCH 100 101
ENDBRANCH  68  93
ENDBRANCH  42  43
ENDBRANCH  35  37
ENDBRANCH  34  35
ENDBRANCH  33  34
ENDBRANCH   1  33
TORSDOF 20
ENDMDL
MODEL 2
REMARK VINA RESULT:     -12.2      1.358      2.277
REMARK SMILES CS(=O)(=O)c1ccc(-c2cc(Cl)cc3c2O[C@@H](C(F)(F)F)C(C(=O)OCCOCCOC(=O)c2ccc(-c4c5nc(c(-c6c(F)cc(S(=O)(=O)[O-])cc6F)c6ccc([nH]6)c(-c6c(F)cc(S(=O)(=O)[O-])cc6F)c6nc(c(-c7c(F)cc(S(=O)(=O)[O-])cc7F)c7ccc4[nH]7)C=C6)C=C5)cc2)=C3)cc1
REMARK SMILES IDX 29 1 28 2 27 3 26 4 25 5 23 6 24 7 22 8 9 9 10 10 15 11
REMARK SMILES IDX 11 12 14 13 16 14 12 15 13 16 100 17 17 18 8 19 5 20 6 21
REMARK SMILES IDX 102 22 7 23 101 24 2 25 1 26 3 27 4 28 18 29 19 30 20 31
REMARK SMILES IDX 21 32 30 33 31 34 32 35 33 36 34 37 35 38 99 39 36 40 98 41
REMARK SMILES IDX 37 42 38 43 39 44 92 45 40 46 97 47 91 48 93 49 41 50 96 51
REMARK SMILES IDX 90 52 89 53 42 55 76 56 55 57 75 58 56 59 59 60 74 61 94 62
REMARK SMILES IDX 57 63 58 64 73 66 95 67 60 68 43 69 44 70 53 71 45 72 46 73
REMARK SMILES IDX 52 74 54 75 47 76 48 77 49 78 50 79 51 80 77 81 78 82 87 83
REMARK SMILES IDX 79 84 80 85 86 86 88 87 81 88 82 89 83 90 84 91 85 92 61 93
REMARK SMILES IDX 62 94 71 95 63 96 64 97 70 98 72 99 65 100 66 101 67 102
REMARK SMILES IDX 68 103 69 104
REMARK H PARENT 93 54 59 65
REMARK Flexibility Score: inf
ROOT
ATOM      1  C   UNL A   1      34.428  31.151  27.655  1.00  0.00     0.202 C 
ENDROOT
BRANCH   1   2
ATOM      2  O   UNL A   1      33.227  30.385  27.613  1.00  0.00    -0.374 OA
BRANCH   2   3
ATOM      3  C   UNL A   1      33.285  29.073  27.067  1.00  0.00     0.202 C 
BRANCH   3   4
ATOM      4  C   UNL A   1      33.573  28.913  25.565  1.00  0.00     0.261 C 
BRANCH   4   5
ATOM      5  O   UNL A   1      33.290  27.594  25.071  1.00  0.00    -0.460 OA
BRANCH   5   6
ATOM      6  C   UNL A   1      33.309  27.450  23.733  1.00  0.00     0.338 C 
ATOM      7  O   UNL A   1      33.979  28.120  22.958  1.00  0.00    -0.246 OA
BRANCH   6   8
ATOM      8  C   UNL A   1      32.557  26.255  23.274  1.00  0.00     0.087 C 
ATOM      9  C   UNL A   1      33.325  22.735  25.353  1.00  0.00     0.026 A 
ATOM     10  C   UNL A   1      34.609  22.930  25.913  1.00  0.00     0.033 A 
ATOM     11  C   UNL A   1      32.888  23.766  24.489  1.00  0.00     0.135 A 
ATOM     12  C   UNL A   1      35.496  23.865  25.379  1.00  0.00     0.042 A 
ATOM     13  C   UNL A   1      33.847  24.506  23.776  1.00  0.00     0.019 A 
ATOM     14  O   UNL A   1      31.639  24.385  24.707  1.00  0.00    -0.475 OA
ATOM     15  Cl  UNL A   1      37.062  24.036  26.062  1.00  0.00    -0.084 Cl
ATOM     16  C   UNL A   1      35.154  24.581  24.242  1.00  0.00     0.032 A 
ATOM     17  C   UNL A   1      33.395  25.390  22.681  1.00  0.00     0.027 C 
ATOM     18  C   UNL A   1      31.340  25.608  23.900  1.00  0.00     0.316 C 
BRANCH   9  19
ATOM     19  C   UNL A   1      32.965  21.268  25.201  1.00  0.00    -0.015 A 
ATOM     20  C   UNL A   1      33.102  18.445  24.713  1.00  0.00     0.067 A 
ATOM     21  C   UNL A   1      33.309  18.941  25.996  1.00  0.00     0.021 A 
ATOM     22  C   UNL A   1      32.776  19.333  23.683  1.00  0.00     0.021 A 
ATOM     23  C   UNL A   1      33.223  20.333  26.232  1.00  0.00     0.010 A 
ATOM     24  C   UNL A   1      32.702  20.721  23.927  1.00  0.00     0.010 A 
BRANCH  20  25
ATOM     25  S   UNL A   1      33.258  16.710  24.321  1.00  0.00     0.175 S 
ATOM     26  C   UNL A   1      34.780  16.108  25.001  1.00  0.00     0.163 C 
ATOM     27  O   UNL A   1      33.392  16.614  22.878  1.00  0.00    -0.224 OA
ATOM     28  O   UNL A   1      32.174  16.037  25.011  1.00  0.00    -0.224 OA
ENDBRANCH  20  25
ENDBRANCH   9  19
BRANCH  18  29
ATOM     29  C   UNL A   1      30.295  26.594  24.474  1.00  0.00     0.430 C 
ATOM     30  F   UNL A   1      29.061  26.022  24.407  1.00  0.00    -0.167 F 
ATOM     31  F   UNL A   1      30.521  26.857  25.783  1.00  0.00    -0.167 F 
ATOM     32  F   UNL A   1      30.210  27.777  23.840  1.00  0.00    -0.167 F 
ENDBRANCH  18  29
ENDBRANCH   6   8
ENDBRANCH   5   6
ENDBRANCH   4   5
ENDBRANCH   3   4
ENDBRANCH   2   3
ENDBRANCH   1   2
BRANCH   1  33
ATOM     33  C   UNL A   1      34.733  31.987  28.901  1.00  0.00     0.261 C 
BRANCH  33  34
ATOM     34  O   UNL A   1      36.131  32.078  29.213  1.00  0.00    -0.460 OA
BRANCH  34  35
ATOM     35  C   UNL A   1      36.534  31.275  30.225  1.00  0.00     0.338 C 
ATOM     36  O   UNL A   1      35.951  31.067  31.282  1.00  0.00    -0.246 OA
BRANCH  35  37
ATOM     37  C   UNL A   1      37.730  30.523  29.826  1.00  0.00     0.060 A 
ATOM     38  C   UNL A   1      38.659  30.187  30.819  1.00  0.00     0.016 A 
ATOM     39  C   UNL A   1      37.988  30.245  28.481  1.00  0.00     0.016 A 
ATOM     40  C   UNL A   1      39.872  29.603  30.465  1.00  0.00     0.010 A 
ATOM     41  C   UNL A   1      39.209  29.665  28.129  1.00  0.00     0.010 A 
ATOM     42  C   UNL A   1      40.169  29.373  29.115  1.00  0.00    -0.014 A 
BRANCH  42  43
ATOM     43  C   UNL A   1      41.535  28.947  28.729  1.00  0.00     0.031 A 
ATOM     44  C   UNL A   1      42.636  29.971  28.687  1.00  0.00     0.074 A 
ATOM     45  C   UNL A   1      41.788  27.660  28.437  1.00  0.00     0.049 A 
ATOM     46  N   UNL A   1      43.888  29.829  28.336  1.00  0.00    -0.248 NA
ATOM     47  C   UNL A   1      42.275  31.341  29.087  1.00  0.00     0.031 C 
ATOM     48  C   UNL A   1      40.803  26.580  28.470  1.00  0.00     0.029 A 
ATOM     49  N   UNL A   1      42.950  27.045  28.041  1.00  0.00    -0.354 N 
ATOM     50  C   UNL A   1      44.461  31.090  28.461  1.00  0.00     0.074 A 
ATOM     51  C   UNL A   1      43.414  31.990  28.890  1.00  0.00     0.031 C 
ATOM     52  C   UNL A   1      41.399  25.436  28.093  1.00  0.00     0.029 A 
ATOM     53  C   UNL A   1      42.795  25.709  27.759  1.00  0.00     0.049 A 
ATOM     54  H   UNL A   1      43.810  27.517  27.966  1.00  0.00     0.167 HD
ATOM     55  C   UNL A   1      45.747  31.457  28.243  1.00  0.00     0.037 A 
ATOM     56  C   UNL A   1      43.674  24.818  27.263  1.00  0.00     0.037 A 
ATOM     57  C   UNL A   1      46.780  30.548  27.816  1.00  0.00     0.049 A 
ATOM     58  C   UNL A   1      45.087  25.259  26.981  1.00  0.00     0.074 A 
ATOM     59  C   UNL A   1      48.121  30.811  27.596  1.00  0.00     0.029 A 
ATOM     60  N   UNL A   1      46.585  29.204  27.530  1.00  0.00    -0.354 N 
ATOM     61  N   UNL A   1      45.627  26.445  27.138  1.00  0.00    -0.248 NA
ATOM     62  C   UNL A   1      46.010  24.242  26.465  1.00  0.00     0.031 C 
ATOM     63  C   UNL A   1      48.723  29.641  27.120  1.00  0.00     0.029 A 
ATOM     64  C   UNL A   1      47.773  28.631  27.107  1.00  0.00     0.049 A 
ATOM     65  H   UNL A   1      45.728  28.727  27.616  1.00  0.00     0.167 HD
ATOM     66  C   UNL A   1      46.960  26.311  26.762  1.00  0.00     0.074 A 
ATOM     67  C   UNL A   1      47.146  24.923  26.387  1.00  0.00     0.031 C 
ATOM     68  C   UNL A   1      47.942  27.247  26.732  1.00  0.00     0.037 A 
BRANCH  55  69
ATOM     69  C   UNL A   1      46.098  32.909  28.428  1.00  0.00     0.058 A 
ATOM     70  C   UNL A   1      46.023  33.835  27.373  1.00  0.00     0.135 A 
ATOM     71  C   UNL A   1      46.497  33.389  29.686  1.00  0.00     0.135 A 
ATOM     72  F   UNL A   1      45.663  33.432  26.144  1.00  0.00    -0.206 F 
ATOM     73  C   UNL A   1      46.362  35.173  27.551  1.00  0.00     0.059 A 
ATOM     74  C   UNL A   1      46.811  34.728  29.895  1.00  0.00     0.059 A 
ATOM     75  F   UNL A   1      46.590  32.550  30.730  1.00  0.00    -0.206 F 
ATOM     76  C   UNL A   1      46.757  35.610  28.817  1.00  0.00     0.060 A 
BRANCH  76  77
ATOM     77  S   UNL A   1      47.198  37.348  29.032  1.00  0.00     0.124 S 
ATOM     78  O   UNL A   1      46.697  37.930  27.790  1.00  0.00    -0.237 OA
ATOM     79  O   UNL A   1      46.465  37.708  30.241  1.00  0.00    -0.237 OA
ATOM     80  O   UNL A   1      48.650  37.316  29.168  1.00  0.00    -0.744 OA
ENDBRANCH  76  77
ENDBRANCH  55  69
BRANCH  56  81
ATOM     81  C   UNL A   1      43.234  23.423  26.986  1.00  0.00     0.058 A 
ATOM     82  C   UNL A   1      43.027  22.970  25.676  1.00  0.00     0.135 A 
ATOM     83  C   UNL A   1      43.030  22.509  28.033  1.00  0.00     0.135 A 
ATOM     84  F   UNL A   1      43.199  23.807  24.641  1.00  0.00    -0.206 F 
ATOM     85  C   UNL A   1      42.623  21.665  25.412  1.00  0.00     0.059 A 
ATOM     86  C   UNL A   1      42.655  21.192  27.794  1.00  0.00     0.059 A 
ATOM     87  F   UNL A   1      43.226  22.890  29.306  1.00  0.00    -0.206 F 
ATOM     88  C   UNL A   1      42.446  20.781  26.478  1.00  0.00     0.060 A 
BRANCH  88  89
ATOM     89  S   UNL A   1      41.980  19.073  26.120  1.00  0.00     0.124 S 
ATOM     90  O   UNL A   1      42.277  18.416  27.387  1.00  0.00    -0.237 OA
ATOM     91  O   UNL A   1      40.565  19.208  25.786  1.00  0.00    -0.237 OA
ATOM     92  O   UNL A   1      42.848  18.715  25.003  1.00  0.00    -0.744 OA
ENDBRANCH  88  89
ENDBRANCH  56  81
BRANCH  68  93
ATOM     93  C   UNL A   1      49.316  26.798  26.310  1.00  0.00     0.058 A 
ATOM     94  C   UNL A   1      50.166  26.096  27.179  1.00  0.00     0.135 A 
ATOM     95  C   UNL A   1      49.769  27.037  25.003  1.00  0.00     0.135 A 
ATOM     96  F   UNL A   1      49.785  25.844  28.442  1.00  0.00    -0.206 F 
ATOM     97  C   UNL A   1      51.432  25.679  26.778  1.00  0.00     0.059 A 
ATOM     98  C   UNL A   1      51.018  26.600  24.570  1.00  0.00     0.059 A 
ATOM     99  F   UNL A   1      48.992  27.692  24.126  1.00  0.00    -0.206 F 
ATOM    100  C   UNL A   1      51.848  25.934  25.470  1.00  0.00     0.060 A 
BRANCH 100 101
ATOM    101  S   UNL A   1      53.484  25.371  24.956  1.00  0.00     0.124 S 
ATOM    102  O   UNL A   1      53.460  23.974  25.375  1.00  0.00    -0.237 OA
ATOM    103  O   UNL A   1      53.455  25.601  23.514  1.00  0.00    -0.237 OA
ATOM    104  O   UNL A   1      54.393  26.234  25.704  1.00  0.00    -0.744 OA
ENDBRANCH 100 101
ENDBRANCH  68  93
ENDBRANCH  42  43
ENDBRANCH  35  37
ENDBRANCH  34  35
ENDBRANCH  33  34
ENDBRANCH   1  33
TORSDOF 20
ENDMDL
MODEL 3
REMARK VINA RESULT:     -11.7      2.846      3.571
REMARK SMILES CS(=O)(=O)c1ccc(-c2cc(Cl)cc3c2O[C@@H](C(F)(F)F)C(C(=O)OCCOCCOC(=O)c2ccc(-c4c5nc(c(-c6c(F)cc(S(=O)(=O)[O-])cc6F)c6ccc([nH]6)c(-c6c(F)cc(S(=O)(=O)[O-])cc6F)c6nc(c(-c7c(F)cc(S(=O)(=O)[O-])cc7F)c7ccc4[nH]7)C=C6)C=C5)cc2)=C3)cc1
REMARK SMILES IDX 29 1 28 2 27 3 26 4 25 5 23 6 24 7 22 8 9 9 10 10 15 11
REMARK SMILES IDX 11 12 14 13 16 14 12 15 13 16 100 17 17 18 8 19 5 20 6 21
REMARK SMILES IDX 102 22 7 23 101 24 2 25 1 26 3 27 4 28 18 29 19 30 20 31
REMARK SMILES IDX 21 32 30 33 31 34 32 35 33 36 34 37 35 38 99 39 36 40 98 41
REMARK SMILES IDX 37 42 38 43 39 44 92 45 40 46 97 47 91 48 93 49 41 50 96 51
REMARK SMILES IDX 90 52 89 53 42 55 76 56 55 57 75 58 56 59 59 60 74 61 94 62
REMARK SMILES IDX 57 63 58 64 73 66 95 67 60 68 43 69 44 70 53 71 45 72 46 73
REMARK SMILES IDX 52 74 54 75 47 76 48 77 49 78 50 79 51 80 77 81 78 82 87 83
REMARK SMILES IDX 79 84 80 85 86 86 88 87 81 88 82 89 83 90 84 91 85 92 61 93
REMARK SMILES IDX 62 94 71 95 63 96 64 97 70 98 72 99 65 100 66 101 67 102
REMARK SMILES IDX 68 103 69 104
REMARK H PARENT 93 54 59 65
REMARK Flexibility Score: inf
ROOT
ATOM      1  C   UNL A   1      31.650  30.380  26.614  1.00  0.00     0.202 C 
ENDROOT
BRANCH   1   2
ATOM      2  O   UNL A   1      31.351  30.009  25.271  1.00  0.00    -0.374 OA
BRANCH   2   3
ATOM      3  C   UNL A   1      32.300  29.219  24.565  1.00  0.00     0.202 C 
BRANCH   3   4
ATOM      4  C   UNL A   1      32.716  27.864  25.158  1.00  0.00     0.261 C 
BRANCH   4   5
ATOM      5  O   UNL A   1      33.441  27.037  24.233  1.00  0.00    -0.460 OA
BRANCH   5   6
ATOM      6  C   UNL A   1      33.001  27.051  22.961  1.00  0.00     0.338 C 
ATOM      7  O   UNL A   1      33.253  27.916  22.134  1.00  0.00    -0.246 OA
BRANCH   6   8
ATOM      8  C   UNL A   1      32.304  25.796  22.583  1.00  0.00     0.087 C 
ATOM      9  C   UNL A   1      33.143  22.482  24.953  1.00  0.00     0.026 A 
ATOM     10  C   UNL A   1      34.404  22.769  25.525  1.00  0.00     0.033 A 
ATOM     11  C   UNL A   1      32.692  23.425  24.000  1.00  0.00     0.135 A 
ATOM     12  C   UNL A   1      35.271  23.691  24.938  1.00  0.00     0.042 A 
ATOM     13  C   UNL A   1      33.642  24.141  23.252  1.00  0.00     0.019 A 
ATOM     14  O   UNL A   1      31.416  24.012  24.139  1.00  0.00    -0.475 OA
ATOM     15  Cl  UNL A   1      36.812  23.975  25.641  1.00  0.00    -0.084 Cl
ATOM     16  C   UNL A   1      34.933  24.302  23.740  1.00  0.00     0.032 A 
ATOM     17  C   UNL A   1      33.187  24.919  22.080  1.00  0.00     0.027 C 
ATOM     18  C   UNL A   1      31.094  25.156  23.231  1.00  0.00     0.316 C 
BRANCH   9  19
ATOM     19  C   UNL A   1      32.839  20.996  24.911  1.00  0.00    -0.015 A 
ATOM     20  C   UNL A   1      33.099  18.146  24.715  1.00  0.00     0.067 A 
ATOM     21  C   UNL A   1      33.165  18.768  25.958  1.00  0.00     0.021 A 
ATOM     22  C   UNL A   1      32.852  18.921  23.578  1.00  0.00     0.021 A 
ATOM     23  C   UNL A   1      33.020  20.172  26.049  1.00  0.00     0.010 A 
ATOM     24  C   UNL A   1      32.717  20.322  23.677  1.00  0.00     0.010 A 
BRANCH  20  25
ATOM     25  S   UNL A   1      33.339  16.388  24.510  1.00  0.00     0.175 S 
ATOM     26  C   UNL A   1      34.898  15.941  25.226  1.00  0.00     0.163 C 
ATOM     27  O   UNL A   1      33.461  16.143  23.084  1.00  0.00    -0.224 OA
ATOM     28  O   UNL A   1      32.300  15.741  25.288  1.00  0.00    -0.224 OA
ENDBRANCH  20  25
ENDBRANCH   9  19
BRANCH  18  29
ATOM     29  C   UNL A   1      30.001  26.144  23.701  1.00  0.00     0.430 C 
ATOM     30  F   UNL A   1      28.779  25.567  23.533  1.00  0.00    -0.167 F 
ATOM     31  F   UNL A   1      30.112  26.422  25.021  1.00  0.00    -0.167 F 
ATOM     32  F   UNL A   1      29.969  27.320  23.048  1.00  0.00    -0.167 F 
ENDBRANCH  18  29
ENDBRANCH   6   8
ENDBRANCH   5   6
ENDBRANCH   4   5
ENDBRANCH   3   4
ENDBRANCH   2   3
ENDBRANCH   1   2
BRANCH   1  33
ATOM     33  C   UNL A   1      32.959  31.119  26.907  1.00  0.00     0.261 C 
BRANCH  33  34
ATOM     34  O   UNL A   1      33.958  30.305  27.539  1.00  0.00    -0.460 OA
BRANCH  34  35
ATOM     35  C   UNL A   1      34.748  30.966  28.416  1.00  0.00     0.338 C 
ATOM     36  O   UNL A   1      34.432  31.907  29.135  1.00  0.00    -0.246 OA
BRANCH  35  37
ATOM     37  C   UNL A   1      36.050  30.294  28.528  1.00  0.00     0.060 A 
ATOM     38  C   UNL A   1      36.411  29.761  29.772  1.00  0.00     0.016 A 
ATOM     39  C   UNL A   1      36.945  30.282  27.457  1.00  0.00     0.016 A 
ATOM     40  C   UNL A   1      37.691  29.246  29.960  1.00  0.00     0.010 A 
ATOM     41  C   UNL A   1      38.230  29.771  27.651  1.00  0.00     0.010 A 
ATOM     42  C   UNL A   1      38.619  29.282  28.911  1.00  0.00    -0.014 A 
BRANCH  42  43
ATOM     43  C   UNL A   1      40.034  28.926  29.174  1.00  0.00     0.031 A 
ATOM     44  C   UNL A   1      40.944  29.953  29.789  1.00  0.00     0.074 A 
ATOM     45  C   UNL A   1      40.490  27.696  28.881  1.00  0.00     0.049 A 
ATOM     46  N   UNL A   1      42.220  29.872  30.064  1.00  0.00    -0.248 NA
ATOM     47  C   UNL A   1      40.335  31.248  30.135  1.00  0.00     0.031 C 
ATOM     48  C   UNL A   1      39.690  26.616  28.306  1.00  0.00     0.029 A 
ATOM     49  N   UNL A   1      41.744  27.154  29.014  1.00  0.00    -0.354 N 
ATOM     50  C   UNL A   1      42.570  31.105  30.601  1.00  0.00     0.074 A 
ATOM     51  C   UNL A   1      41.380  31.927  30.587  1.00  0.00     0.031 C 
ATOM     52  C   UNL A   1      40.478  25.542  28.121  1.00  0.00     0.029 A 
ATOM     53  C   UNL A   1      41.841  25.872  28.530  1.00  0.00     0.049 A 
ATOM     54  H   UNL A   1      42.500  27.638  29.418  1.00  0.00     0.167 HD
ATOM     55  C   UNL A   1      43.775  31.510  31.071  1.00  0.00     0.037 A 
ATOM     56  C   UNL A   1      42.915  25.067  28.407  1.00  0.00     0.037 A 
ATOM     57  C   UNL A   1      44.953  30.680  31.080  1.00  0.00     0.049 A 
ATOM     58  C   UNL A   1      44.256  25.555  28.891  1.00  0.00     0.074 A 
ATOM     59  C   UNL A   1      46.215  30.981  31.561  1.00  0.00     0.029 A 
ATOM     60  N   UNL A   1      45.017  29.389  30.572  1.00  0.00    -0.354 N 
ATOM     61  N   UNL A   1      44.567  26.710  29.432  1.00  0.00    -0.248 NA
ATOM     62  C   UNL A   1      45.387  24.629  28.756  1.00  0.00     0.031 C 
ATOM     63  C   UNL A   1      47.056  29.896  31.289  1.00  0.00     0.029 A 
ATOM     64  C   UNL A   1      46.304  28.892  30.699  1.00  0.00     0.049 A 
ATOM     65  H   UNL A   1      44.259  28.899  30.179  1.00  0.00     0.167 HD
ATOM     66  C   UNL A   1      45.926  26.640  29.724  1.00  0.00     0.074 A 
ATOM     67  C   UNL A   1      46.370  25.323  29.314  1.00  0.00     0.031 C 
ATOM     68  C   UNL A   1      46.732  27.578  30.282  1.00  0.00     0.037 A 
BRANCH  55  69
ATOM     69  C   UNL A   1      43.888  32.922  31.579  1.00  0.00     0.058 A 
ATOM     70  C   UNL A   1      43.571  33.266  32.905  1.00  0.00     0.135 A 
ATOM     71  C   UNL A   1      44.340  33.947  30.732  1.00  0.00     0.135 A 
ATOM     72  F   UNL A   1      43.119  32.332  33.756  1.00  0.00    -0.206 F 
ATOM     73  C   UNL A   1      43.667  34.577  33.360  1.00  0.00     0.059 A 
ATOM     74  C   UNL A   1      44.474  35.260  31.174  1.00  0.00     0.059 A 
ATOM     75  F   UNL A   1      44.655  33.678  29.455  1.00  0.00    -0.206 F 
ATOM     76  C   UNL A   1      44.119  35.568  32.486  1.00  0.00     0.060 A 
BRANCH  76  77
ATOM     77  S   UNL A   1      44.233  37.266  33.091  1.00  0.00     0.124 S 
ATOM     78  O   UNL A   1      45.634  37.337  33.495  1.00  0.00    -0.237 OA
ATOM     79  O   UNL A   1      43.875  38.043  31.908  1.00  0.00    -0.237 OA
ATOM     80  O   UNL A   1      43.264  37.306  34.181  1.00  0.00    -0.744 OA
ENDBRANCH  76  77
ENDBRANCH  55  69
BRANCH  56  81
ATOM     81  C   UNL A   1      42.763  23.725  27.784  1.00  0.00     0.058 A 
ATOM     82  C   UNL A   1      42.850  23.550  26.396  1.00  0.00     0.135 A 
ATOM     83  C   UNL A   1      42.546  22.582  28.573  1.00  0.00     0.135 A 
ATOM     84  F   UNL A   1      43.046  24.611  25.598  1.00  0.00    -0.206 F 
ATOM     85  C   UNL A   1      42.717  22.295  25.809  1.00  0.00     0.059 A 
ATOM     86  C   UNL A   1      42.439  21.314  28.013  1.00  0.00     0.059 A 
ATOM     87  F   UNL A   1      42.467  22.693  29.909  1.00  0.00    -0.206 F 
ATOM     88  C   UNL A   1      42.518  21.182  26.628  1.00  0.00     0.060 A 
BRANCH  88  89
ATOM     89  S   UNL A   1      42.406  19.551  25.860  1.00  0.00     0.124 S 
ATOM     90  O   UNL A   1      41.009  19.517  25.444  1.00  0.00    -0.237 OA
ATOM     91  O   UNL A   1      43.390  19.652  24.787  1.00  0.00    -0.237 OA
ATOM     92  O   UNL A   1      42.765  18.644  26.946  1.00  0.00    -0.744 OA
ENDBRANCH  88  89
ENDBRANCH  56  81
BRANCH  68  93
ATOM     93  C   UNL A   1      48.173  27.204  30.514  1.00  0.00     0.058 A 
ATOM     94  C   UNL A   1      49.145  27.339  29.511  1.00  0.00     0.135 A 
ATOM     95  C   UNL A   1      48.591  26.742  31.773  1.00  0.00     0.135 A 
ATOM     96  F   UNL A   1      48.799  27.772  28.288  1.00  0.00    -0.206 F 
ATOM     97  C   UNL A   1      50.475  26.998  29.737  1.00  0.00     0.059 A 
ATOM     98  C   UNL A   1      49.922  26.427  32.031  1.00  0.00     0.059 A 
ATOM     99  F   UNL A   1      47.707  26.606  32.773  1.00  0.00    -0.206 F 
ATOM    100  C   UNL A   1      50.854  26.543  31.001  1.00  0.00     0.060 A 
BRANCH 100 101
ATOM    101  S   UNL A   1      52.585  26.121  31.287  1.00  0.00     0.124 S 
ATOM    102  O   UNL A   1      53.132  26.191  29.936  1.00  0.00    -0.237 OA
ATOM    103  O   UNL A   1      53.017  27.176  32.200  1.00  0.00    -0.237 OA
ATOM    104  O   UNL A   1      52.520  24.784  31.869  1.00  0.00    -0.744 OA
ENDBRANCH 100 101
ENDBRANCH  68  93
ENDBRANCH  42  43
ENDBRANCH  35  37
ENDBRANCH  34  35
ENDBRANCH  33  34
ENDBRANCH   1  33
TORSDOF 20
ENDMDL
