MODEL 1
REMARK VINA RESULT:     -11.2      0.000      0.000
REMARK SMILES C[C@@H]1[C@H](C(=O)OCCOCCOC(=O)c2ccc(-c3c4nc(c(-c5c(F)cc(S(=O)(=O)[O-])cc5F)c5ccc([nH]5)c(-c5c(F)cc(S(=O)(=O)[O-])cc5F)c5nc(c(-c6c(F)cc(S(=O)(=O)[O-])cc6F)c6ccc3[nH]6)C=C5)C=C4)cc2)CCN1C(=O)[C@H]1CC[C@@H](C(C)(C)C)CC1
REMARK SMILES IDX 9 1 8 2 7 3 6 4 4 5 5 6 3 7 1 8 2 9 83 10 81 11 82 12 84 13
REMARK SMILES IDX 85 14 86 15 87 16 95 17 88 18 94 19 89 20 90 21 91 22 92 23
REMARK SMILES IDX 93 24 10 25 11 26 12 27 13 28 14 29 15 30 16 31 80 32 17 33
REMARK SMILES IDX 79 34 18 35 19 36 20 37 73 38 21 39 78 40 72 41 74 42 22 43
REMARK SMILES IDX 77 44 71 45 70 46 23 48 57 49 36 50 56 51 37 52 40 53 55 54
REMARK SMILES IDX 75 55 38 56 39 57 54 59 76 60 41 61 24 62 25 63 34 64 26 65
REMARK SMILES IDX 27 66 33 67 35 68 28 69 29 70 30 71 31 72 32 73 58 74 59 75
REMARK SMILES IDX 68 76 60 77 61 78 67 79 69 80 62 81 63 82 64 83 65 84 66 85
REMARK SMILES IDX 42 86 43 87 52 88 44 89 45 90 51 91 53 92 46 93 47 94 48 95
REMARK SMILES IDX 49 96 50 97
REMARK H PARENT 74 47 40 58
REMARK Flexibility Score: inf
ROOT
ATOM      1  O   UNL A   1      40.332  21.803  27.221  1.00  0.00    -0.374 OA
ENDROOT
BRANCH   1   2
ATOM      2  C   UNL A   1      39.573  21.303  26.119  1.00  0.00     0.202 C 
BRANCH   2   3
ATOM      3  C   UNL A   1      38.289  22.082  25.847  1.00  0.00     0.261 C 
BRANCH   3   4
ATOM      4  O   UNL A   1      37.556  21.544  24.727  1.00  0.00    -0.463 OA
BRANCH   4   5
ATOM      5  C   UNL A   1      36.519  20.732  25.030  1.00  0.00     0.311 C 
ATOM      6  O   UNL A   1      36.498  19.523  24.817  1.00  0.00    -0.252 OA
BRANCH   5   7
ATOM      7  C   UNL A   1      35.323  21.428  25.644  1.00  0.00     0.123 C 
ATOM      8  C   UNL A   1      34.719  22.962  23.656  1.00  0.00     0.032 C 
ATOM      9  C   UNL A   1      34.786  22.797  25.177  1.00  0.00     0.096 C 
ATOM     10  N   UNL A   1      33.426  22.816  25.770  1.00  0.00    -0.339 N 
ATOM     11  C   UNL A   1      34.088  20.539  25.523  1.00  0.00     0.039 C 
ATOM     12  C   UNL A   1      32.969  21.447  26.000  1.00  0.00     0.121 C 
BRANCH  10  13
ATOM     13  C   UNL A   1      32.594  23.831  26.207  1.00  0.00     0.225 C 
ATOM     14  O   UNL A   1      31.939  23.662  27.248  1.00  0.00    -0.275 OA
BRANCH  13  15
ATOM     15  C   UNL A   1      32.466  25.208  25.530  1.00  0.00     0.078 C 
ATOM     16  C   UNL A   1      31.169  25.936  25.883  1.00  0.00     0.014 C 
ATOM     17  C   UNL A   1      33.727  26.067  25.549  1.00  0.00     0.014 C 
ATOM     18  C   UNL A   1      31.053  27.305  25.210  1.00  0.00     0.005 C 
ATOM     19  C   UNL A   1      33.534  27.450  24.923  1.00  0.00     0.005 C 
ATOM     20  C   UNL A   1      32.278  28.226  25.385  1.00  0.00    -0.006 C 
BRANCH  20  21
ATOM     21  C   UNL A   1      32.380  28.988  26.761  1.00  0.00    -0.035 C 
ATOM     22  C   UNL A   1      31.453  28.345  27.817  1.00  0.00     0.011 C 
ATOM     23  C   UNL A   1      33.820  28.915  27.319  1.00  0.00     0.011 C 
ATOM     24  C   UNL A   1      32.016  30.466  26.690  1.00  0.00     0.011 C 
ENDBRANCH  20  21
ENDBRANCH  13  15
ENDBRANCH  10  13
ENDBRANCH   5   7
ENDBRANCH   4   5
ENDBRANCH   3   4
ENDBRANCH   2   3
ENDBRANCH   1   2
BRANCH   1  25
ATOM     25  C   UNL A   1      41.750  21.616  27.155  1.00  0.00     0.202 C 
BRANCH  25  26
ATOM     26  C   UNL A   1      42.436  22.518  26.130  1.00  0.00     0.261 C 
BRANCH  26  27
ATOM     27  O   UNL A   1      41.911  23.855  26.251  1.00  0.00    -0.460 OA
BRANCH  27  28
ATOM     28  C   UNL A   1      42.830  24.792  26.560  1.00  0.00     0.338 C 
ATOM     29  O   UNL A   1      43.960  24.892  26.099  1.00  0.00    -0.246 OA
BRANCH  28  30
ATOM     30  C   UNL A   1      42.215  25.802  27.433  1.00  0.00     0.060 A 
ATOM     31  C   UNL A   1      42.882  27.022  27.584  1.00  0.00     0.016 A 
ATOM     32  C   UNL A   1      41.062  25.524  28.172  1.00  0.00     0.016 A 
ATOM     33  C   UNL A   1      42.433  27.943  28.530  1.00  0.00     0.010 A 
ATOM     34  C   UNL A   1      40.613  26.455  29.118  1.00  0.00     0.010 A 
ATOM     35  C   UNL A   1      41.323  27.649  29.335  1.00  0.00    -0.014 A 
BRANCH  35  36
ATOM     36  C   UNL A   1      41.012  28.533  30.490  1.00  0.00     0.031 A 
ATOM     37  C   UNL A   1      41.843  28.430  31.743  1.00  0.00     0.074 A 
ATOM     38  C   UNL A   1      40.044  29.465  30.404  1.00  0.00     0.049 A 
ATOM     39  N   UNL A   1      41.790  29.151  32.834  1.00  0.00    -0.248 NA
ATOM     40  C   UNL A   1      42.872  27.378  31.769  1.00  0.00     0.031 C 
ATOM     41  C   UNL A   1      39.180  29.680  29.245  1.00  0.00     0.029 A 
ATOM     42  N   UNL A   1      39.634  30.411  31.310  1.00  0.00    -0.354 N 
ATOM     43  C   UNL A   1      42.778  28.647  33.672  1.00  0.00     0.074 A 
ATOM     44  C   UNL A   1      43.389  27.533  32.979  1.00  0.00     0.031 C 
ATOM     45  C   UNL A   1      38.342  30.698  29.511  1.00  0.00     0.029 A 
ATOM     46  C   UNL A   1      38.599  31.195  30.862  1.00  0.00     0.049 A 
ATOM     47  H   UNL A   1      40.043  30.517  32.200  1.00  0.00     0.167 HD
ATOM     48  C   UNL A   1      43.155  29.081  34.899  1.00  0.00     0.037 A 
ATOM     49  C   UNL A   1      37.932  32.197  31.469  1.00  0.00     0.037 A 
ATOM     50  C   UNL A   1      42.553  30.192  35.590  1.00  0.00     0.049 A 
ATOM     51  C   UNL A   1      38.338  32.632  32.854  1.00  0.00     0.074 A 
ATOM     52  C   UNL A   1      42.889  30.721  36.824  1.00  0.00     0.029 A 
ATOM     53  N   UNL A   1      41.486  30.937  35.114  1.00  0.00    -0.354 N 
ATOM     54  N   UNL A   1      39.305  32.174  33.611  1.00  0.00    -0.248 NA
ATOM     55  C   UNL A   1      37.566  33.727  33.461  1.00  0.00     0.031 C 
ATOM     56  C   UNL A   1      41.999  31.761  37.114  1.00  0.00     0.029 A 
ATOM     57  C   UNL A   1      41.135  31.907  36.039  1.00  0.00     0.049 A 
ATOM     58  H   UNL A   1      41.043  30.799  34.246  1.00  0.00     0.167 HD
ATOM     59  C   UNL A   1      39.273  32.940  34.773  1.00  0.00     0.074 A 
ATOM     60  C   UNL A   1      38.198  33.897  34.614  1.00  0.00     0.031 C 
ATOM     61  C   UNL A   1      40.066  32.859  35.871  1.00  0.00     0.037 A 
BRANCH  48  62
ATOM     62  C   UNL A   1      44.274  28.345  35.581  1.00  0.00     0.058 A 
ATOM     63  C   UNL A   1      45.618  28.690  35.370  1.00  0.00     0.135 A 
ATOM     64  C   UNL A   1      43.996  27.308  36.486  1.00  0.00     0.135 A 
ATOM     65  F   UNL A   1      45.938  29.664  34.504  1.00  0.00    -0.206 F 
ATOM     66  C   UNL A   1      46.650  28.015  36.015  1.00  0.00     0.059 A 
ATOM     67  C   UNL A   1      45.012  26.635  37.159  1.00  0.00     0.059 A 
ATOM     68  F   UNL A   1      42.728  26.938  36.723  1.00  0.00    -0.206 F 
ATOM     69  C   UNL A   1      46.337  26.987  36.906  1.00  0.00     0.060 A 
BRANCH  69  70
ATOM     70  S   UNL A   1      47.687  26.122  37.735  1.00  0.00     0.124 S 
ATOM     71  O   UNL A   1      47.355  24.729  37.454  1.00  0.00    -0.237 OA
ATOM     72  O   UNL A   1      48.864  26.645  37.048  1.00  0.00    -0.237 OA
ATOM     73  O   UNL A   1      47.547  26.531  39.129  1.00  0.00    -0.744 OA
ENDBRANCH  69  70
ENDBRANCH  48  62
BRANCH  49  74
ATOM     74  C   UNL A   1      36.805  32.866  30.768  1.00  0.00     0.058 A 
ATOM     75  C   UNL A   1      35.472  32.543  31.060  1.00  0.00     0.135 A 
ATOM     76  C   UNL A   1      37.043  33.845  29.792  1.00  0.00     0.135 A 
ATOM     77  F   UNL A   1      35.196  31.604  31.978  1.00  0.00    -0.206 F 
ATOM     78  C   UNL A   1      34.413  33.158  30.400  1.00  0.00     0.059 A 
ATOM     79  C   UNL A   1      36.001  34.490  29.134  1.00  0.00     0.059 A 
ATOM     80  F   UNL A   1      38.302  34.198  29.485  1.00  0.00    -0.206 F 
ATOM     81  C   UNL A   1      34.688  34.132  29.439  1.00  0.00     0.060 A 
BRANCH  81  82
ATOM     82  S   UNL A   1      33.308  34.966  28.626  1.00  0.00     0.124 S 
ATOM     83  O   UNL A   1      32.537  35.441  29.769  1.00  0.00    -0.237 OA
ATOM     84  O   UNL A   1      33.989  35.994  27.842  1.00  0.00    -0.237 OA
ATOM     85  O   UNL A   1      32.689  33.901  27.842  1.00  0.00    -0.744 OA
ENDBRANCH  81  82
ENDBRANCH  49  74
BRANCH  61  86
ATOM     86  C   UNL A   1      39.824  33.846  36.979  1.00  0.00     0.058 A 
ATOM     87  C   UNL A   1      39.019  33.529  38.085  1.00  0.00     0.135 A 
ATOM     88  C   UNL A   1      40.446  35.105  36.961  1.00  0.00     0.135 A 
ATOM     89  F   UNL A   1      38.397  32.341  38.150  1.00  0.00    -0.206 F 
ATOM     90  C   UNL A   1      38.822  34.435  39.123  1.00  0.00     0.059 A 
ATOM     91  C   UNL A   1      40.282  36.016  38.000  1.00  0.00     0.059 A 
ATOM     92  F   UNL A   1      41.235  35.454  35.932  1.00  0.00    -0.206 F 
ATOM     93  C   UNL A   1      39.458  35.677  39.072  1.00  0.00     0.060 A 
BRANCH  93  94
ATOM     94  S   UNL A   1      39.221  36.831  40.440  1.00  0.00     0.124 S 
ATOM     95  O   UNL A   1      40.593  37.041  40.888  1.00  0.00    -0.237 OA
ATOM     96  O   UNL A   1      38.587  37.971  39.784  1.00  0.00    -0.237 OA
ATOM     97  O   UNL A   1      38.364  36.091  41.363  1.00  0.00    -0.744 OA
ENDBRANCH  93  94
ENDBRANCH  61  86
ENDBRANCH  35  36
ENDBRANCH  28  30
ENDBRANCH  27  28
ENDBRANCH  26  27
ENDBRANCH  25  26
ENDBRANCH   1  25
TORSDOF 20
ENDMDL
MODEL 2
REMARK VINA RESULT:     -10.9      1.152      2.143
REMARK SMILES C[C@@H]1[C@H](C(=O)OCCOCCOC(=O)c2ccc(-c3c4nc(c(-c5c(F)cc(S(=O)(=O)[O-])cc5F)c5ccc([nH]5)c(-c5c(F)cc(S(=O)(=O)[O-])cc5F)c5nc(c(-c6c(F)cc(S(=O)(=O)[O-])cc6F)c6ccc3[nH]6)C=C5)C=C4)cc2)CCN1C(=O)[C@H]1CC[C@@H](C(C)(C)C)CC1
REMARK SMILES IDX 9 1 8 2 7 3 6 4 4 5 5 6 3 7 1 8 2 9 83 10 81 11 82 12 84 13
REMARK SMILES IDX 85 14 86 15 87 16 95 17 88 18 94 19 89 20 90 21 91 22 92 23
REMARK SMILES IDX 93 24 10 25 11 26 12 27 13 28 14 29 15 30 16 31 80 32 17 33
REMARK SMILES IDX 79 34 18 35 19 36 20 37 73 38 21 39 78 40 72 41 74 42 22 43
REMARK SMILES IDX 77 44 71 45 70 46 23 48 57 49 36 50 56 51 37 52 40 53 55 54
REMARK SMILES IDX 75 55 38 56 39 57 54 59 76 60 41 61 24 62 25 63 34 64 26 65
REMARK SMILES IDX 27 66 33 67 35 68 28 69 29 70 30 71 31 72 32 73 58 74 59 75
REMARK SMILES IDX 68 76 60 77 61 78 67 79 69 80 62 81 63 82 64 83 65 84 66 85
REMARK SMILES IDX 42 86 43 87 52 88 44 89 45 90 51 91 53 92 46 93 47 94 48 95
REMARK SMILES IDX 49 96 50 97
REMARK H PARENT 74 47 40 58
REMARK Flexibility Score: inf
ROOT
ATOM      1  O   UNL A   1      42.004  21.049  26.641  1.00  0.00    -0.374 OA
ENDROOT
BRANCH   1   2
ATOM      2  C   UNL A   1      40.627  21.155  27.006  1.00  0.00     0.202 C 
BRANCH   2   3
ATOM      3  C   UNL A   1      39.707  21.544  25.851  1.00  0.00     0.261 C 
BRANCH   3   4
ATOM      4  O   UNL A   1      38.366  21.827  26.299  1.00  0.00    -0.463 OA
BRANCH   4   5
ATOM      5  C   UNL A   1      37.915  23.082  26.072  1.00  0.00     0.311 C 
ATOM      6  O   UNL A   1      38.609  24.092  26.139  1.00  0.00    -0.252 OA
BRANCH   5   7
ATOM      7  C   UNL A   1      36.440  23.178  25.746  1.00  0.00     0.123 C 
ATOM      8  C   UNL A   1      36.602  22.894  23.185  1.00  0.00     0.032 C 
ATOM      9  C   UNL A   1      35.885  23.564  24.360  1.00  0.00     0.096 C 
ATOM     10  N   UNL A   1      34.476  23.106  24.450  1.00  0.00    -0.339 N 
ATOM     11  C   UNL A   1      35.764  21.833  26.001  1.00  0.00     0.039 C 
ATOM     12  C   UNL A   1      34.366  22.047  25.451  1.00  0.00     0.121 C 
BRANCH  10  13
ATOM     13  C   UNL A   1      33.299  23.533  23.863  1.00  0.00     0.225 C 
ATOM     14  O   UNL A   1      32.291  22.813  23.951  1.00  0.00    -0.275 OA
BRANCH  13  15
ATOM     15  C   UNL A   1      33.117  24.887  23.155  1.00  0.00     0.078 C 
ATOM     16  C   UNL A   1      31.775  25.015  22.432  1.00  0.00     0.014 C 
ATOM     17  C   UNL A   1      33.548  26.110  23.958  1.00  0.00     0.014 C 
ATOM     18  C   UNL A   1      31.602  26.366  21.735  1.00  0.00     0.005 C 
ATOM     19  C   UNL A   1      33.289  27.436  23.241  1.00  0.00     0.005 C 
ATOM     20  C   UNL A   1      31.882  27.599  22.620  1.00  0.00    -0.006 C 
BRANCH  20  21
ATOM     21  C   UNL A   1      30.720  28.030  23.595  1.00  0.00    -0.035 C 
ATOM     22  C   UNL A   1      31.239  29.011  24.670  1.00  0.00     0.011 C 
ATOM     23  C   UNL A   1      29.599  28.759  22.818  1.00  0.00     0.011 C 
ATOM     24  C   UNL A   1      30.056  26.873  24.332  1.00  0.00     0.011 C 
ENDBRANCH  20  21
ENDBRANCH  13  15
ENDBRANCH  10  13
ENDBRANCH   5   7
ENDBRANCH   4   5
ENDBRANCH   3   4
ENDBRANCH   2   3
ENDBRANCH   1   2
BRANCH   1  25
ATOM     25  C   UNL A   1      42.492  22.017  25.708  1.00  0.00     0.202 C 
BRANCH  25  26
ATOM     26  C   UNL A   1      42.852  23.356  26.352  1.00  0.00     0.261 C 
BRANCH  26  27
ATOM     27  O   UNL A   1      41.782  24.293  26.119  1.00  0.00    -0.460 OA
BRANCH  27  28
ATOM     28  C   UNL A   1      42.179  25.575  25.988  1.00  0.00     0.338 C 
ATOM     29  O   UNL A   1      42.412  26.168  24.942  1.00  0.00    -0.246 OA
BRANCH  28  30
ATOM     30  C   UNL A   1      42.136  26.232  27.302  1.00  0.00     0.060 A 
ATOM     31  C   UNL A   1      41.113  25.861  28.181  1.00  0.00     0.016 A 
ATOM     32  C   UNL A   1      43.017  27.265  27.631  1.00  0.00     0.016 A 
ATOM     33  C   UNL A   1      40.926  26.573  29.365  1.00  0.00     0.010 A 
ATOM     34  C   UNL A   1      42.828  27.975  28.824  1.00  0.00     0.010 A 
ATOM     35  C   UNL A   1      41.753  27.664  29.675  1.00  0.00    -0.014 A 
BRANCH  35  36
ATOM     36  C   UNL A   1      41.387  28.548  30.812  1.00  0.00     0.031 A 
ATOM     37  C   UNL A   1      42.195  28.489  32.083  1.00  0.00     0.074 A 
ATOM     38  C   UNL A   1      40.388  29.443  30.697  1.00  0.00     0.049 A 
ATOM     39  N   UNL A   1      42.094  29.219  33.165  1.00  0.00    -0.248 NA
ATOM     40  C   UNL A   1      43.262  27.476  32.142  1.00  0.00     0.031 C 
ATOM     41  C   UNL A   1      39.540  29.614  29.518  1.00  0.00     0.029 A 
ATOM     42  N   UNL A   1      39.926  30.383  31.584  1.00  0.00    -0.354 N 
ATOM     43  C   UNL A   1      43.083  28.761  34.028  1.00  0.00     0.074 A 
ATOM     44  C   UNL A   1      43.748  27.663  33.360  1.00  0.00     0.031 C 
ATOM     45  C   UNL A   1      38.660  30.603  29.755  1.00  0.00     0.029 A 
ATOM     46  C   UNL A   1      38.872  31.124  31.106  1.00  0.00     0.049 A 
ATOM     47  H   UNL A   1      40.312  30.514  32.480  1.00  0.00     0.167 HD
ATOM     48  C   UNL A   1      43.419  29.221  35.257  1.00  0.00     0.037 A 
ATOM     49  C   UNL A   1      38.156  32.107  31.688  1.00  0.00     0.037 A 
ATOM     50  C   UNL A   1      42.762  30.316  35.923  1.00  0.00     0.049 A 
ATOM     51  C   UNL A   1      38.518  32.571  33.075  1.00  0.00     0.074 A 
ATOM     52  C   UNL A   1      43.054  30.871  37.158  1.00  0.00     0.029 A 
ATOM     53  N   UNL A   1      41.679  31.017  35.418  1.00  0.00    -0.354 N 
ATOM     54  N   UNL A   1      39.485  32.157  33.857  1.00  0.00    -0.248 NA
ATOM     55  C   UNL A   1      37.694  33.643  33.654  1.00  0.00     0.031 C 
ATOM     56  C   UNL A   1      42.120  31.880  37.418  1.00  0.00     0.029 A 
ATOM     57  C   UNL A   1      41.274  31.983  36.325  1.00  0.00     0.049 A 
ATOM     58  H   UNL A   1      41.259  30.853  34.543  1.00  0.00     0.167 HD
ATOM     59  C   UNL A   1      39.401  32.933  35.010  1.00  0.00     0.074 A 
ATOM     60  C   UNL A   1      38.296  33.849  34.818  1.00  0.00     0.031 C 
ATOM     61  C   UNL A   1      40.174  32.893  36.124  1.00  0.00     0.037 A 
BRANCH  48  62
ATOM     62  C   UNL A   1      44.549  28.534  35.970  1.00  0.00     0.058 A 
ATOM     63  C   UNL A   1      44.323  27.444  36.826  1.00  0.00     0.135 A 
ATOM     64  C   UNL A   1      45.876  28.946  35.766  1.00  0.00     0.135 A 
ATOM     65  F   UNL A   1      43.073  27.020  37.066  1.00  0.00    -0.206 F 
ATOM     66  C   UNL A   1      45.374  26.800  37.473  1.00  0.00     0.059 A 
ATOM     67  C   UNL A   1      46.942  28.302  36.386  1.00  0.00     0.059 A 
ATOM     68  F   UNL A   1      46.145  29.983  34.959  1.00  0.00    -0.206 F 
ATOM     69  C   UNL A   1      46.680  27.238  37.249  1.00  0.00     0.060 A 
BRANCH  69  70
ATOM     70  S   UNL A   1      48.032  26.393  38.096  1.00  0.00     0.124 S 
ATOM     71  O   UNL A   1      47.878  26.893  39.458  1.00  0.00    -0.237 OA
ATOM     72  O   UNL A   1      47.699  24.986  37.894  1.00  0.00    -0.237 OA
ATOM     73  O   UNL A   1      49.220  26.860  37.387  1.00  0.00    -0.744 OA
ENDBRANCH  69  70
ENDBRANCH  48  62
BRANCH  49  74
ATOM     74  C   UNL A   1      37.020  32.727  30.957  1.00  0.00     0.058 A 
ATOM     75  C   UNL A   1      37.220  33.810  30.088  1.00  0.00     0.135 A 
ATOM     76  C   UNL A   1      35.712  32.246  31.115  1.00  0.00     0.135 A 
ATOM     77  F   UNL A   1      38.451  34.312  29.915  1.00  0.00    -0.206 F 
ATOM     78  C   UNL A   1      36.159  34.402  29.410  1.00  0.00     0.059 A 
ATOM     79  C   UNL A   1      34.639  32.806  30.431  1.00  0.00     0.059 A 
ATOM     80  F   UNL A   1      35.472  31.204  31.928  1.00  0.00    -0.206 F 
ATOM     81  C   UNL A   1      34.872  33.892  29.586  1.00  0.00     0.060 A 
BRANCH  81  82
ATOM     82  S   UNL A   1      33.508  34.629  28.659  1.00  0.00     0.124 S 
ATOM     83  O   UNL A   1      33.111  33.525  27.795  1.00  0.00    -0.237 OA
ATOM     84  O   UNL A   1      32.569  34.980  29.722  1.00  0.00    -0.237 OA
ATOM     85  O   UNL A   1      34.136  35.765  27.990  1.00  0.00    -0.744 OA
ENDBRANCH  81  82
ENDBRANCH  49  74
BRANCH  61  86
ATOM     86  C   UNL A   1      39.873  33.882  37.216  1.00  0.00     0.058 A 
ATOM     87  C   UNL A   1      39.057  33.549  38.308  1.00  0.00     0.135 A 
ATOM     88  C   UNL A   1      40.451  35.162  37.197  1.00  0.00     0.135 A 
ATOM     89  F   UNL A   1      38.476  32.340  38.373  1.00  0.00    -0.206 F 
ATOM     90  C   UNL A   1      38.806  34.457  39.332  1.00  0.00     0.059 A 
ATOM     91  C   UNL A   1      40.233  36.078  38.222  1.00  0.00     0.059 A 
ATOM     92  F   UNL A   1      41.249  35.529  36.181  1.00  0.00    -0.206 F 
ATOM     93  C   UNL A   1      39.399  35.721  39.280  1.00  0.00     0.060 A 
BRANCH  93  94
ATOM     94  S   UNL A   1      39.091  36.880  40.630  1.00  0.00     0.124 S 
ATOM     95  O   UNL A   1      40.449  37.266  41.000  1.00  0.00    -0.237 OA
ATOM     96  O   UNL A   1      38.292  37.915  39.981  1.00  0.00    -0.237 OA
ATOM     97  O   UNL A   1      38.378  36.072  41.615  1.00  0.00    -0.744 OA
ENDBRANCH  93  94
ENDBRANCH  61  86
ENDBRANCH  35  36
ENDBRANCH  28  30
ENDBRANCH  27  28
ENDBRANCH  26  27
ENDBRANCH  25  26
ENDBRANCH   1  25
TORSDOF 20
ENDMDL
MODEL 3
REMARK VINA RESULT:     -10.8      6.066     11.939
REMARK SMILES C[C@@H]1[C@H](C(=O)OCCOCCOC(=O)c2ccc(-c3c4nc(c(-c5c(F)cc(S(=O)(=O)[O-])cc5F)c5ccc([nH]5)c(-c5c(F)cc(S(=O)(=O)[O-])cc5F)c5nc(c(-c6c(F)cc(S(=O)(=O)[O-])cc6F)c6ccc3[nH]6)C=C5)C=C4)cc2)CCN1C(=O)[C@H]1CC[C@@H](C(C)(C)C)CC1
REMARK SMILES IDX 9 1 8 2 7 3 6 4 4 5 5 6 3 7 1 8 2 9 83 10 81 11 82 12 84 13
REMARK SMILES IDX 85 14 86 15 87 16 95 17 88 18 94 19 89 20 90 21 91 22 92 23
REMARK SMILES IDX 93 24 10 25 11 26 12 27 13 28 14 29 15 30 16 31 80 32 17 33
REMARK SMILES IDX 79 34 18 35 19 36 20 37 73 38 21 39 78 40 72 41 74 42 22 43
REMARK SMILES IDX 77 44 71 45 70 46 23 48 57 49 36 50 56 51 37 52 40 53 55 54
REMARK SMILES IDX 75 55 38 56 39 57 54 59 76 60 41 61 24 62 25 63 34 64 26 65
REMARK SMILES IDX 27 66 33 67 35 68 28 69 29 70 30 71 31 72 32 73 58 74 59 75
REMARK SMILES IDX 68 76 60 77 61 78 67 79 69 80 62 81 63 82 64 83 65 84 66 85
REMARK SMILES IDX 42 86 43 87 52 88 44 89 45 90 51 91 53 92 46 93 47 94 48 95
REMARK SMILES IDX 49 96 50 97
REMARK H PARENT 74 47 40 58
REMARK Flexibility Score: inf
ROOT
ATOM      1  O   UNL A   1      33.874  32.113  27.644  1.00  0.00    -0.374 OA
ENDROOT
BRANCH   1   2
ATOM      2  C   UNL A   1      34.112  30.707  27.570  1.00  0.00     0.202 C 
BRANCH   2   3
ATOM      3  C   UNL A   1      33.283  29.992  26.505  1.00  0.00     0.261 C 
BRANCH   3   4
ATOM      4  O   UNL A   1      34.052  28.999  25.796  1.00  0.00    -0.463 OA
BRANCH   4   5
ATOM      5  C   UNL A   1      33.547  28.592  24.609  1.00  0.00     0.311 C 
ATOM      6  O   UNL A   1      33.215  29.347  23.700  1.00  0.00    -0.252 OA
BRANCH   5   7
ATOM      7  C   UNL A   1      33.380  27.094  24.469  1.00  0.00     0.123 C 
ATOM      8  C   UNL A   1      30.863  26.942  25.027  1.00  0.00     0.032 C 
ATOM      9  C   UNL A   1      32.243  26.285  25.127  1.00  0.00     0.096 C 
ATOM     10  N   UNL A   1      32.280  25.016  24.359  1.00  0.00    -0.339 N 
ATOM     11  C   UNL A   1      33.226  26.727  22.994  1.00  0.00     0.039 C 
ATOM     12  C   UNL A   1      32.882  25.249  23.048  1.00  0.00     0.121 C 
BRANCH  10  13
ATOM     13  C   UNL A   1      31.955  23.708  24.671  1.00  0.00     0.225 C 
ATOM     14  O   UNL A   1      30.799  23.310  24.452  1.00  0.00    -0.275 OA
BRANCH  13  15
ATOM     15  C   UNL A   1      32.949  22.666  25.213  1.00  0.00     0.078 C 
ATOM     16  C   UNL A   1      33.710  21.926  24.112  1.00  0.00     0.014 C 
ATOM     17  C   UNL A   1      33.792  23.121  26.401  1.00  0.00     0.014 C 
ATOM     18  C   UNL A   1      34.699  20.897  24.661  1.00  0.00     0.005 C 
ATOM     19  C   UNL A   1      34.810  22.077  26.864  1.00  0.00     0.005 C 
ATOM     20  C   UNL A   1      35.659  21.426  25.747  1.00  0.00    -0.006 C 
BRANCH  20  21
ATOM     21  C   UNL A   1      36.903  22.245  25.232  1.00  0.00    -0.035 C 
ATOM     22  C   UNL A   1      36.862  23.698  25.756  1.00  0.00     0.011 C 
ATOM     23  C   UNL A   1      38.220  21.616  25.744  1.00  0.00     0.011 C 
ATOM     24  C   UNL A   1      37.020  22.323  23.714  1.00  0.00     0.011 C 
ENDBRANCH  20  21
ENDBRANCH  13  15
ENDBRANCH  10  13
ENDBRANCH   5   7
ENDBRANCH   4   5
ENDBRANCH   3   4
ENDBRANCH   2   3
ENDBRANCH   1   2
BRANCH   1  25
ATOM     25  C   UNL A   1      34.863  32.892  28.324  1.00  0.00     0.202 C 
BRANCH  25  26
ATOM     26  C   UNL A   1      35.038  32.506  29.793  1.00  0.00     0.261 C 
BRANCH  26  27
ATOM     27  O   UNL A   1      36.432  32.244  30.048  1.00  0.00    -0.460 OA
BRANCH  27  28
ATOM     28  C   UNL A   1      36.668  31.154  30.806  1.00  0.00     0.338 C 
ATOM     29  O   UNL A   1      35.993  30.754  31.747  1.00  0.00    -0.246 OA
BRANCH  28  30
ATOM     30  C   UNL A   1      37.789  30.399  30.230  1.00  0.00     0.060 A 
ATOM     31  C   UNL A   1      38.721  29.845  31.113  1.00  0.00     0.016 A 
ATOM     32  C   UNL A   1      37.983  30.320  28.849  1.00  0.00     0.016 A 
ATOM     33  C   UNL A   1      39.889  29.269  30.615  1.00  0.00     0.010 A 
ATOM     34  C   UNL A   1      39.157  29.737  28.352  1.00  0.00     0.010 A 
ATOM     35  C   UNL A   1      40.137  29.251  29.234  1.00  0.00    -0.014 A 
BRANCH  35  36
ATOM     36  C   UNL A   1      41.485  28.853  28.748  1.00  0.00     0.031 A 
ATOM     37  C   UNL A   1      42.593  29.874  28.728  1.00  0.00     0.074 A 
ATOM     38  C   UNL A   1      41.741  27.581  28.388  1.00  0.00     0.049 A 
ATOM     39  N   UNL A   1      43.855  29.722  28.412  1.00  0.00    -0.248 NA
ATOM     40  C   UNL A   1      42.235  31.246  29.121  1.00  0.00     0.031 C 
ATOM     41  C   UNL A   1      40.764  26.494  28.376  1.00  0.00     0.029 A 
ATOM     42  N   UNL A   1      42.908  26.990  27.971  1.00  0.00    -0.354 N 
ATOM     43  C   UNL A   1      44.441  30.972  28.573  1.00  0.00     0.074 A 
ATOM     44  C   UNL A   1      43.389  31.881  28.976  1.00  0.00     0.031 C 
ATOM     45  C   UNL A   1      41.374  25.365  27.974  1.00  0.00     0.029 A 
ATOM     46  C   UNL A   1      42.779  25.653  27.685  1.00  0.00     0.049 A 
ATOM     47  H   UNL A   1      43.759  27.479  27.884  1.00  0.00     0.167 HD
ATOM     48  C   UNL A   1      45.738  31.330  28.416  1.00  0.00     0.037 A 
ATOM     49  C   UNL A   1      43.686  24.760  27.238  1.00  0.00     0.037 A 
ATOM     50  C   UNL A   1      46.789  30.428  28.019  1.00  0.00     0.049 A 
ATOM     51  C   UNL A   1      45.114  25.192  27.026  1.00  0.00     0.074 A 
ATOM     52  C   UNL A   1      48.138  30.695  27.862  1.00  0.00     0.029 A 
ATOM     53  N   UNL A   1      46.609  29.090  27.707  1.00  0.00    -0.354 N 
ATOM     54  N   UNL A   1      45.659  26.367  27.227  1.00  0.00    -0.248 NA
ATOM     55  C   UNL A   1      46.051  24.171  26.532  1.00  0.00     0.031 C 
ATOM     56  C   UNL A   1      48.768  29.528  27.415  1.00  0.00     0.029 A 
ATOM     57  C   UNL A   1      47.817  28.523  27.336  1.00  0.00     0.049 A 
ATOM     58  H   UNL A   1      45.749  28.612  27.744  1.00  0.00     0.167 HD
ATOM     59  C   UNL A   1      47.006  26.221  26.908  1.00  0.00     0.074 A 
ATOM     60  C   UNL A   1      47.196  24.841  26.512  1.00  0.00     0.031 C 
ATOM     61  C   UNL A   1      47.998  27.147  26.946  1.00  0.00     0.037 A 
BRANCH  48  62
ATOM     62  C   UNL A   1      46.097  32.768  28.668  1.00  0.00     0.058 A 
ATOM     63  C   UNL A   1      46.037  33.730  27.647  1.00  0.00     0.135 A 
ATOM     64  C   UNL A   1      46.469  33.194  29.953  1.00  0.00     0.135 A 
ATOM     65  F   UNL A   1      45.701  33.371  26.399  1.00  0.00    -0.206 F 
ATOM     66  C   UNL A   1      46.356  35.063  27.888  1.00  0.00     0.059 A 
ATOM     67  C   UNL A   1      46.771  34.527  30.219  1.00  0.00     0.059 A 
ATOM     68  F   UNL A   1      46.544  32.314  30.962  1.00  0.00    -0.206 F 
ATOM     69  C   UNL A   1      46.724  35.451  29.177  1.00  0.00     0.060 A 
BRANCH  69  70
ATOM     70  S   UNL A   1      47.135  37.184  29.473  1.00  0.00     0.124 S 
ATOM     71  O   UNL A   1      48.544  37.090  29.840  1.00  0.00    -0.237 OA
ATOM     72  O   UNL A   1      46.856  37.798  28.179  1.00  0.00    -0.237 OA
ATOM     73  O   UNL A   1      46.230  37.567  30.552  1.00  0.00    -0.744 OA
ENDBRANCH  69  70
ENDBRANCH  48  62
BRANCH  49  74
ATOM     74  C   UNL A   1      43.272  23.360  26.964  1.00  0.00     0.058 A 
ATOM     75  C   UNL A   1      43.110  22.893  25.652  1.00  0.00     0.135 A 
ATOM     76  C   UNL A   1      43.032  22.460  28.014  1.00  0.00     0.135 A 
ATOM     77  F   UNL A   1      43.316  23.720  24.616  1.00  0.00    -0.206 F 
ATOM     78  C   UNL A   1      42.712  21.586  25.388  1.00  0.00     0.059 A 
ATOM     79  C   UNL A   1      42.655  21.142  27.775  1.00  0.00     0.059 A 
ATOM     80  F   UNL A   1      43.185  22.856  29.288  1.00  0.00    -0.206 F 
ATOM     81  C   UNL A   1      42.488  20.717  26.458  1.00  0.00     0.060 A 
BRANCH  81  82
ATOM     82  S   UNL A   1      42.027  19.007  26.107  1.00  0.00     0.124 S 
ATOM     83  O   UNL A   1      40.620  19.150  25.752  1.00  0.00    -0.237 OA
ATOM     84  O   UNL A   1      42.931  18.663  25.013  1.00  0.00    -0.237 OA
ATOM     85  O   UNL A   1      42.296  18.324  27.369  1.00  0.00    -0.744 OA
ENDBRANCH  81  82
ENDBRANCH  49  74
BRANCH  61  86
ATOM     86  C   UNL A   1      49.383  26.698  26.574  1.00  0.00     0.058 A 
ATOM     87  C   UNL A   1      49.875  26.831  25.267  1.00  0.00     0.135 A 
ATOM     88  C   UNL A   1      50.249  26.177  27.549  1.00  0.00     0.135 A 
ATOM     89  F   UNL A   1      49.087  27.318  24.295  1.00  0.00    -0.206 F 
ATOM     90  C   UNL A   1      51.169  26.442  24.933  1.00  0.00     0.059 A 
ATOM     91  C   UNL A   1      51.556  25.805  27.244  1.00  0.00     0.059 A 
ATOM     92  F   UNL A   1      49.834  26.040  28.818  1.00  0.00    -0.206 F 
ATOM     93  C   UNL A   1      52.003  25.930  25.930  1.00  0.00     0.060 A 
BRANCH  93  94
ATOM     94  S   UNL A   1      53.690  25.459  25.493  1.00  0.00     0.124 S 
ATOM     95  O   UNL A   1      53.476  24.166  24.851  1.00  0.00    -0.237 OA
ATOM     96  O   UNL A   1      54.102  26.545  24.610  1.00  0.00    -0.237 OA
ATOM     97  O   UNL A   1      54.374  25.414  26.782  1.00  0.00    -0.744 OA
ENDBRANCH  93  94
ENDBRANCH  61  86
ENDBRANCH  35  36
ENDBRANCH  28  30
ENDBRANCH  27  28
ENDBRANCH  26  27
ENDBRANCH  25  26
ENDBRANCH   1  25
TORSDOF 20
ENDMDL
