MODEL 1
REMARK VINA RESULT:      -9.0      0.000      0.000
REMARK SMILES C[C@@H](CC(=O)OCCOCCOC(=O)c1ccc(-c2c3nc(c(-c4c(F)cc(S(=O)(=O)[O-])cc4F)c4ccc([nH]4)c(-c4c(F)cc(S(=O)(=O)[O-])cc4F)c4nc(c(-c5c(F)cc(S(=O)(=O)[O-])cc5F)c5ccc2[nH]5)C=C4)C=C3)cc1)CC(=O)N(C)C[C@H]1CCC[N@H+]1C
REMARK SMILES IDX 7 1 6 2 4 3 5 4 3 5 2 6 1 7 81 8 82 9 83 10 84 11 85 12
REMARK SMILES IDX 86 13 87 14 88 15 91 16 89 17 90 18 92 19 8 21 9 22 10 23
REMARK SMILES IDX 11 24 12 25 13 26 14 27 15 28 16 29 80 30 17 31 79 32 18 33
REMARK SMILES IDX 19 34 20 35 73 36 21 37 78 38 72 39 74 40 22 41 77 42 71 43
REMARK SMILES IDX 70 44 23 46 57 47 36 48 56 49 37 50 40 51 55 52 75 53 38 54
REMARK SMILES IDX 39 55 54 57 76 58 41 59 24 60 25 61 34 62 26 63 27 64 33 65
REMARK SMILES IDX 35 66 28 67 29 68 30 69 31 70 32 71 58 72 59 73 68 74 60 75
REMARK SMILES IDX 61 76 67 77 69 78 62 79 63 80 64 81 65 82 66 83 42 84 43 85
REMARK SMILES IDX 52 86 44 87 45 88 51 89 53 90 46 91 47 92 48 93 49 94 50 95
REMARK H PARENT 91 20 74 45 40 56
REMARK Flexibility Score: inf
ROOT
ATOM      1  C   UNL A   1      36.876  21.074  25.018  1.00  0.00     0.261 C 
ENDROOT
BRANCH   1   2
ATOM      2  O   UNL A   1      35.729  21.631  24.342  1.00  0.00    -0.463 OA
BRANCH   2   3
ATOM      3  C   UNL A   1      34.519  21.175  24.747  1.00  0.00     0.306 C 
ATOM      4  O   UNL A   1      34.295  20.026  25.114  1.00  0.00    -0.252 OA
BRANCH   3   5
ATOM      5  C   UNL A   1      33.415  22.215  24.711  1.00  0.00     0.126 C 
BRANCH   5   6
ATOM      6  C   UNL A   1      32.107  21.967  23.929  1.00  0.00     0.006 C 
ATOM      7  C   UNL A   1      32.323  20.954  22.806  1.00  0.00     0.009 C 
BRANCH   6   8
ATOM      8  C   UNL A   1      31.446  23.272  23.459  1.00  0.00     0.104 C 
BRANCH   8   9
ATOM      9  C   UNL A   1      31.290  24.347  24.518  1.00  0.00     0.222 C 
ATOM     10  O   UNL A   1      30.949  24.002  25.655  1.00  0.00    -0.275 OA
BRANCH   9  11
ATOM     11  N   UNL A   1      31.489  25.677  24.187  1.00  0.00    -0.340 N 
ATOM     12  C   UNL A   1      30.813  26.403  23.123  1.00  0.00     0.147 C 
BRANCH  11  13
ATOM     13  C   UNL A   1      32.402  26.462  25.026  1.00  0.00     0.184 C 
BRANCH  13  14
ATOM     14  C   UNL A   1      31.869  27.892  25.319  1.00  0.00     0.203 C 
ATOM     15  C   UNL A   1      31.621  28.173  26.805  1.00  0.00     0.073 C 
ATOM     16  N   UNL A   1      32.772  29.010  24.984  1.00  0.00    -0.333 N 
ATOM     17  C   UNL A   1      32.892  28.836  27.319  1.00  0.00     0.068 C 
ATOM     18  C   UNL A   1      33.731  29.109  26.082  1.00  0.00     0.262 C 
ATOM     19  C   UNL A   1      33.410  28.934  23.681  1.00  0.00     0.333 C 
ATOM     20  H   UNL A   1      32.216  29.860  24.890  1.00  0.00     0.348 HD
ENDBRANCH  13  14
ENDBRANCH  11  13
ENDBRANCH   9  11
ENDBRANCH   8   9
ENDBRANCH   6   8
ENDBRANCH   5   6
ENDBRANCH   3   5
ENDBRANCH   2   3
ENDBRANCH   1   2
BRANCH   1  21
ATOM     21  C   UNL A   1      37.892  22.154  25.402  1.00  0.00     0.202 C 
BRANCH  21  22
ATOM     22  O   UNL A   1      39.161  21.702  25.873  1.00  0.00    -0.374 OA
BRANCH  22  23
ATOM     23  C   UNL A   1      39.863  22.577  26.752  1.00  0.00     0.202 C 
BRANCH  23  24
ATOM     24  C   UNL A   1      41.210  23.124  26.243  1.00  0.00     0.261 C 
BRANCH  24  25
ATOM     25  O   UNL A   1      41.192  24.548  26.008  1.00  0.00    -0.460 OA
BRANCH  25  26
ATOM     26  C   UNL A   1      42.378  25.182  26.180  1.00  0.00     0.338 C 
ATOM     27  O   UNL A   1      43.325  25.197  25.404  1.00  0.00    -0.246 OA
BRANCH  26  28
ATOM     28  C   UNL A   1      42.319  26.042  27.379  1.00  0.00     0.060 A 
ATOM     29  C   UNL A   1      41.544  25.615  28.465  1.00  0.00     0.016 A 
ATOM     30  C   UNL A   1      42.963  27.277  27.425  1.00  0.00     0.016 A 
ATOM     31  C   UNL A   1      41.383  26.437  29.583  1.00  0.00     0.010 A 
ATOM     32  C   UNL A   1      42.825  28.088  28.560  1.00  0.00     0.010 A 
ATOM     33  C   UNL A   1      41.999  27.695  29.631  1.00  0.00    -0.014 A 
BRANCH  33  34
ATOM     34  C   UNL A   1      41.637  28.676  30.696  1.00  0.00     0.031 A 
ATOM     35  C   UNL A   1      42.446  28.689  31.971  1.00  0.00     0.074 A 
ATOM     36  C   UNL A   1      40.627  29.556  30.546  1.00  0.00     0.049 A 
ATOM     37  N   UNL A   1      42.248  29.361  33.077  1.00  0.00    -0.248 NA
ATOM     38  C   UNL A   1      43.629  27.813  32.006  1.00  0.00     0.031 C 
ATOM     39  C   UNL A   1      39.791  29.695  29.355  1.00  0.00     0.029 A 
ATOM     40  N   UNL A   1      40.127  30.499  31.415  1.00  0.00    -0.354 N 
ATOM     41  C   UNL A   1      43.259  28.964  33.946  1.00  0.00     0.074 A 
ATOM     42  C   UNL A   1      44.046  27.969  33.253  1.00  0.00     0.031 C 
ATOM     43  C   UNL A   1      38.880  30.661  29.570  1.00  0.00     0.029 A 
ATOM     44  C   UNL A   1      39.036  31.181  30.928  1.00  0.00     0.049 A 
ATOM     45  H   UNL A   1      40.515  30.670  32.304  1.00  0.00     0.167 HD
ATOM     46  C   UNL A   1      43.522  29.399  35.201  1.00  0.00     0.037 A 
ATOM     47  C   UNL A   1      38.236  32.096  31.515  1.00  0.00     0.037 A 
ATOM     48  C   UNL A   1      42.768  30.421  35.878  1.00  0.00     0.049 A 
ATOM     49  C   UNL A   1      38.511  32.527  32.935  1.00  0.00     0.074 A 
ATOM     50  C   UNL A   1      42.980  30.949  37.140  1.00  0.00     0.029 A 
ATOM     51  N   UNL A   1      41.663  31.072  35.352  1.00  0.00    -0.354 N 
ATOM     52  N   UNL A   1      39.472  32.145  33.743  1.00  0.00    -0.248 NA
ATOM     53  C   UNL A   1      37.593  33.513  33.527  1.00  0.00     0.031 C 
ATOM     54  C   UNL A   1      41.972  31.884  37.397  1.00  0.00     0.029 A 
ATOM     55  C   UNL A   1      41.169  31.981  36.273  1.00  0.00     0.049 A 
ATOM     56  H   UNL A   1      41.286  30.912  34.457  1.00  0.00     0.167 HD
ATOM     57  C   UNL A   1      39.294  32.869  34.919  1.00  0.00     0.074 A 
ATOM     58  C   UNL A   1      38.135  33.712  34.722  1.00  0.00     0.031 C 
ATOM     59  C   UNL A   1      40.029  32.837  36.058  1.00  0.00     0.037 A 
BRANCH  46  60
ATOM     60  C   UNL A   1      44.665  28.756  35.940  1.00  0.00     0.058 A 
ATOM     61  C   UNL A   1      45.975  29.254  35.860  1.00  0.00     0.135 A 
ATOM     62  C   UNL A   1      44.436  27.644  36.766  1.00  0.00     0.135 A 
ATOM     63  F   UNL A   1      46.253  30.304  35.071  1.00  0.00    -0.206 F 
ATOM     64  C   UNL A   1      47.023  28.652  36.548  1.00  0.00     0.059 A 
ATOM     65  C   UNL A   1      45.463  27.046  37.488  1.00  0.00     0.059 A 
ATOM     66  F   UNL A   1      43.203  27.127  36.878  1.00  0.00    -0.206 F 
ATOM     67  C   UNL A   1      46.758  27.548  37.360  1.00  0.00     0.060 A 
BRANCH  67  68
ATOM     68  S   UNL A   1      48.129  26.779  38.246  1.00  0.00     0.124 S 
ATOM     69  O   UNL A   1      49.261  27.567  37.766  1.00  0.00    -0.237 OA
ATOM     70  O   UNL A   1      47.756  26.992  39.641  1.00  0.00    -0.237 OA
ATOM     71  O   UNL A   1      48.092  25.393  37.793  1.00  0.00    -0.744 OA
ENDBRANCH  67  68
ENDBRANCH  46  60
BRANCH  47  72
ATOM     72  C   UNL A   1      37.076  32.661  30.771  1.00  0.00     0.058 A 
ATOM     73  C   UNL A   1      35.798  32.093  30.878  1.00  0.00     0.135 A 
ATOM     74  C   UNL A   1      37.224  33.775  29.929  1.00  0.00     0.135 A 
ATOM     75  F   UNL A   1      35.605  31.017  31.656  1.00  0.00    -0.206 F 
ATOM     76  C   UNL A   1      34.711  32.599  30.169  1.00  0.00     0.059 A 
ATOM     77  C   UNL A   1      36.150  34.316  29.231  1.00  0.00     0.059 A 
ATOM     78  F   UNL A   1      38.424  34.361  29.795  1.00  0.00    -0.206 F 
ATOM     79  C   UNL A   1      34.897  33.714  29.351  1.00  0.00     0.060 A 
BRANCH  79  80
ATOM     80  S   UNL A   1      33.471  34.395  28.476  1.00  0.00     0.124 S 
ATOM     81  O   UNL A   1      33.002  33.235  27.730  1.00  0.00    -0.237 OA
ATOM     82  O   UNL A   1      32.620  34.835  29.578  1.00  0.00    -0.237 OA
ATOM     83  O   UNL A   1      34.051  35.470  27.676  1.00  0.00    -0.744 OA
ENDBRANCH  79  80
ENDBRANCH  47  72
BRANCH  59  84
ATOM     84  C   UNL A   1      39.654  33.775  37.175  1.00  0.00     0.058 A 
ATOM     85  C   UNL A   1      38.804  33.385  38.219  1.00  0.00     0.135 A 
ATOM     86  C   UNL A   1      40.240  35.051  37.250  1.00  0.00     0.135 A 
ATOM     87  F   UNL A   1      38.212  32.179  38.194  1.00  0.00    -0.206 F 
ATOM     88  C   UNL A   1      38.544  34.224  39.299  1.00  0.00     0.059 A 
ATOM     89  C   UNL A   1      40.017  35.896  38.333  1.00  0.00     0.059 A 
ATOM     90  F   UNL A   1      41.069  35.472  36.282  1.00  0.00    -0.206 F 
ATOM     91  C   UNL A   1      39.165  35.475  39.352  1.00  0.00     0.060 A 
BRANCH  91  92
ATOM     92  S   UNL A   1      38.878  36.523  40.795  1.00  0.00     0.124 S 
ATOM     93  O   UNL A   1      38.330  37.727  40.180  1.00  0.00    -0.237 OA
ATOM     94  O   UNL A   1      37.938  35.726  41.577  1.00  0.00    -0.237 OA
ATOM     95  O   UNL A   1      40.208  36.667  41.380  1.00  0.00    -0.744 OA
ENDBRANCH  91  92
ENDBRANCH  59  84
ENDBRANCH  33  34
ENDBRANCH  26  28
ENDBRANCH  25  26
ENDBRANCH  24  25
ENDBRANCH  23  24
ENDBRANCH  22  23
ENDBRANCH  21  22
ENDBRANCH   1  21
TORSDOF 23
ENDMDL
MODEL 2
REMARK VINA RESULT:      -8.9      6.460     11.363
REMARK SMILES C[C@@H](CC(=O)OCCOCCOC(=O)c1ccc(-c2c3nc(c(-c4c(F)cc(S(=O)(=O)[O-])cc4F)c4ccc([nH]4)c(-c4c(F)cc(S(=O)(=O)[O-])cc4F)c4nc(c(-c5c(F)cc(S(=O)(=O)[O-])cc5F)c5ccc2[nH]5)C=C4)C=C3)cc1)CC(=O)N(C)C[C@H]1CCC[N@H+]1C
REMARK SMILES IDX 7 1 6 2 4 3 5 4 3 5 2 6 1 7 81 8 82 9 83 10 84 11 85 12
REMARK SMILES IDX 86 13 87 14 88 15 91 16 89 17 90 18 92 19 8 21 9 22 10 23
REMARK SMILES IDX 11 24 12 25 13 26 14 27 15 28 16 29 80 30 17 31 79 32 18 33
REMARK SMILES IDX 19 34 20 35 73 36 21 37 78 38 72 39 74 40 22 41 77 42 71 43
REMARK SMILES IDX 70 44 23 46 57 47 36 48 56 49 37 50 40 51 55 52 75 53 38 54
REMARK SMILES IDX 39 55 54 57 76 58 41 59 24 60 25 61 34 62 26 63 27 64 33 65
REMARK SMILES IDX 35 66 28 67 29 68 30 69 31 70 32 71 58 72 59 73 68 74 60 75
REMARK SMILES IDX 61 76 67 77 69 78 62 79 63 80 64 81 65 82 66 83 42 84 43 85
REMARK SMILES IDX 52 86 44 87 45 88 51 89 53 90 46 91 47 92 48 93 49 94 50 95
REMARK H PARENT 91 20 74 45 40 56
REMARK Flexibility Score: inf
ROOT
ATOM      1  C   UNL A   1      36.180  23.084  25.894  1.00  0.00     0.261 C 
ENDROOT
BRANCH   1   2
ATOM      2  O   UNL A   1      35.278  24.057  25.324  1.00  0.00    -0.463 OA
BRANCH   2   3
ATOM      3  C   UNL A   1      34.017  24.062  25.817  1.00  0.00     0.306 C 
ATOM      4  O   UNL A   1      33.683  23.548  26.880  1.00  0.00    -0.252 OA
BRANCH   3   5
ATOM      5  C   UNL A   1      33.003  24.766  24.935  1.00  0.00     0.126 C 
BRANCH   5   6
ATOM      6  C   UNL A   1      32.785  24.338  23.468  1.00  0.00     0.006 C 
ATOM      7  C   UNL A   1      31.298  24.314  23.119  1.00  0.00     0.009 C 
BRANCH   6   8
ATOM      8  C   UNL A   1      33.518  23.034  23.120  1.00  0.00     0.104 C 
BRANCH   8   9
ATOM      9  C   UNL A   1      32.663  21.781  23.115  1.00  0.00     0.222 C 
ATOM     10  O   UNL A   1      32.084  21.473  22.068  1.00  0.00    -0.275 OA
BRANCH   9  11
ATOM     11  N   UNL A   1      32.518  21.041  24.276  1.00  0.00    -0.340 N 
ATOM     12  C   UNL A   1      31.615  21.343  25.376  1.00  0.00     0.147 C 
BRANCH  11  13
ATOM     13  C   UNL A   1      33.276  19.788  24.389  1.00  0.00     0.184 C 
BRANCH  13  14
ATOM     14  C   UNL A   1      32.474  18.554  23.890  1.00  0.00     0.203 C 
ATOM     15  C   UNL A   1      32.895  18.056  22.502  1.00  0.00     0.073 C 
ATOM     16  N   UNL A   1      32.624  17.314  24.675  1.00  0.00    -0.333 N 
ATOM     17  C   UNL A   1      33.915  16.952  22.751  1.00  0.00     0.068 C 
ATOM     18  C   UNL A   1      33.883  16.706  24.250  1.00  0.00     0.262 C 
ATOM     19  C   UNL A   1      32.528  17.467  26.116  1.00  0.00     0.333 C 
ATOM     20  H   UNL A   1      31.827  16.706  24.480  1.00  0.00     0.348 HD
ENDBRANCH  13  14
ENDBRANCH  11  13
ENDBRANCH   9  11
ENDBRANCH   8   9
ENDBRANCH   6   8
ENDBRANCH   5   6
ENDBRANCH   3   5
ENDBRANCH   2   3
ENDBRANCH   1   2
BRANCH   1  21
ATOM     21  C   UNL A   1      37.443  22.911  25.046  1.00  0.00     0.202 C 
BRANCH  21  22
ATOM     22  O   UNL A   1      38.332  21.861  25.427  1.00  0.00    -0.374 OA
BRANCH  22  23
ATOM     23  C   UNL A   1      39.301  22.178  26.423  1.00  0.00     0.202 C 
BRANCH  23  24
ATOM     24  C   UNL A   1      40.194  21.019  26.904  1.00  0.00     0.261 C 
BRANCH  24  25
ATOM     25  O   UNL A   1      40.731  20.229  25.822  1.00  0.00    -0.460 OA
BRANCH  25  26
ATOM     26  C   UNL A   1      42.049  19.928  25.919  1.00  0.00     0.338 C 
ATOM     27  O   UNL A   1      42.571  18.836  25.734  1.00  0.00    -0.246 OA
BRANCH  26  28
ATOM     28  C   UNL A   1      42.836  21.166  26.096  1.00  0.00     0.060 A 
ATOM     29  C   UNL A   1      43.347  21.451  27.368  1.00  0.00     0.016 A 
ATOM     30  C   UNL A   1      43.025  22.067  25.049  1.00  0.00     0.016 A 
ATOM     31  C   UNL A   1      44.017  22.653  27.605  1.00  0.00     0.010 A 
ATOM     32  C   UNL A   1      43.724  23.259  25.281  1.00  0.00     0.010 A 
ATOM     33  C   UNL A   1      44.188  23.584  26.571  1.00  0.00    -0.014 A 
BRANCH  33  34
ATOM     34  C   UNL A   1      44.675  24.964  26.866  1.00  0.00     0.031 A 
ATOM     35  C   UNL A   1      43.684  25.989  27.363  1.00  0.00     0.074 A 
ATOM     36  C   UNL A   1      45.969  25.314  26.718  1.00  0.00     0.049 A 
ATOM     37  N   UNL A   1      43.844  27.271  27.569  1.00  0.00    -0.248 NA
ATOM     38  C   UNL A   1      42.325  25.501  27.651  1.00  0.00     0.031 C 
ATOM     39  C   UNL A   1      47.047  24.422  26.295  1.00  0.00     0.029 A 
ATOM     40  N   UNL A   1      46.593  26.527  26.902  1.00  0.00    -0.354 N 
ATOM     41  C   UNL A   1      42.602  27.746  27.977  1.00  0.00     0.074 A 
ATOM     42  C   UNL A   1      41.692  26.623  27.955  1.00  0.00     0.031 C 
ATOM     43  C   UNL A   1      48.197  25.118  26.247  1.00  0.00     0.029 A 
ATOM     44  C   UNL A   1      47.933  26.514  26.591  1.00  0.00     0.049 A 
ATOM     45  H   UNL A   1      46.123  27.329  27.226  1.00  0.00     0.167 HD
ATOM     46  C   UNL A   1      42.251  28.999  28.353  1.00  0.00     0.037 A 
ATOM     47  C   UNL A   1      48.837  27.516  26.559  1.00  0.00     0.037 A 
ATOM     48  C   UNL A   1      43.163  30.110  28.418  1.00  0.00     0.049 A 
ATOM     49  C   UNL A   1      48.414  28.917  26.927  1.00  0.00     0.074 A 
ATOM     50  C   UNL A   1      42.905  31.410  28.818  1.00  0.00     0.029 A 
ATOM     51  N   UNL A   1      44.507  30.055  28.080  1.00  0.00    -0.354 N 
ATOM     52  N   UNL A   1      47.238  29.349  27.314  1.00  0.00    -0.248 NA
ATOM     53  C   UNL A   1      49.441  29.969  26.854  1.00  0.00     0.031 C 
ATOM     54  C   UNL A   1      44.081  32.153  28.674  1.00  0.00     0.029 A 
ATOM     55  C   UNL A   1      45.085  31.302  28.241  1.00  0.00     0.049 A 
ATOM     56  H   UNL A   1      44.980  29.248  27.772  1.00  0.00     0.167 HD
ATOM     57  C   UNL A   1      47.393  30.711  27.563  1.00  0.00     0.074 A 
ATOM     58  C   UNL A   1      48.776  31.033  27.285  1.00  0.00     0.031 C 
ATOM     59  C   UNL A   1      46.471  31.610  27.988  1.00  0.00     0.037 A 
BRANCH  46  60
ATOM     60  C   UNL A   1      40.809  29.246  28.706  1.00  0.00     0.058 A 
ATOM     61  C   UNL A   1      40.379  29.356  30.037  1.00  0.00     0.135 A 
ATOM     62  C   UNL A   1      39.851  29.408  27.692  1.00  0.00     0.135 A 
ATOM     63  F   UNL A   1      41.249  29.192  31.046  1.00  0.00    -0.206 F 
ATOM     64  C   UNL A   1      39.043  29.585  30.351  1.00  0.00     0.059 A 
ATOM     65  C   UNL A   1      38.516  29.670  27.983  1.00  0.00     0.059 A 
ATOM     66  F   UNL A   1      40.208  29.313  26.402  1.00  0.00    -0.206 F 
ATOM     67  C   UNL A   1      38.119  29.741  29.317  1.00  0.00     0.060 A 
BRANCH  67  68
ATOM     68  S   UNL A   1      36.390  30.039  29.742  1.00  0.00     0.124 S 
ATOM     69  O   UNL A   1      36.279  29.330  31.014  1.00  0.00    -0.237 OA
ATOM     70  O   UNL A   1      36.336  31.494  29.822  1.00  0.00    -0.237 OA
ATOM     71  O   UNL A   1      35.659  29.445  28.628  1.00  0.00    -0.744 OA
ENDBRANCH  67  68
ENDBRANCH  46  60
BRANCH  47  72
ATOM     72  C   UNL A   1      50.242  27.241  26.142  1.00  0.00     0.058 A 
ATOM     73  C   UNL A   1      50.610  27.241  24.789  1.00  0.00     0.135 A 
ATOM     74  C   UNL A   1      51.240  26.962  27.088  1.00  0.00     0.135 A 
ATOM     75  F   UNL A   1      49.691  27.485  23.843  1.00  0.00    -0.206 F 
ATOM     76  C   UNL A   1      51.914  26.963  24.386  1.00  0.00     0.059 A 
ATOM     77  C   UNL A   1      52.555  26.708  26.714  1.00  0.00     0.059 A 
ATOM     78  F   UNL A   1      50.943  26.955  28.397  1.00  0.00    -0.206 F 
ATOM     79  C   UNL A   1      52.881  26.702  25.358  1.00  0.00     0.060 A 
BRANCH  79  80
ATOM     80  S   UNL A   1      54.580  26.394  24.829  1.00  0.00     0.124 S 
ATOM     81  O   UNL A   1      55.271  27.561  25.363  1.00  0.00    -0.237 OA
ATOM     82  O   UNL A   1      54.876  25.121  25.480  1.00  0.00    -0.237 OA
ATOM     83  O   UNL A   1      54.472  26.334  23.374  1.00  0.00    -0.744 OA
ENDBRANCH  79  80
ENDBRANCH  47  72
BRANCH  59  84
ATOM     84  C   UNL A   1      46.918  33.025  28.239  1.00  0.00     0.058 A 
ATOM     85  C   UNL A   1      47.473  33.423  29.464  1.00  0.00     0.135 A 
ATOM     86  C   UNL A   1      46.884  33.970  27.199  1.00  0.00     0.135 A 
ATOM     87  F   UNL A   1      47.524  32.563  30.493  1.00  0.00    -0.206 F 
ATOM     88  C   UNL A   1      47.977  34.707  29.651  1.00  0.00     0.059 A 
ATOM     89  C   UNL A   1      47.407  35.251  27.355  1.00  0.00     0.059 A 
ATOM     90  F   UNL A   1      46.372  33.640  26.003  1.00  0.00    -0.206 F 
ATOM     91  C   UNL A   1      47.949  35.611  28.587  1.00  0.00     0.060 A 
BRANCH  91  92
ATOM     92  S   UNL A   1      48.673  37.248  28.822  1.00  0.00     0.124 S 
ATOM     93  O   UNL A   1      49.925  37.127  28.082  1.00  0.00    -0.237 OA
ATOM     94  O   UNL A   1      47.667  38.123  28.229  1.00  0.00    -0.237 OA
ATOM     95  O   UNL A   1      48.811  37.354  30.273  1.00  0.00    -0.744 OA
ENDBRANCH  91  92
ENDBRANCH  59  84
ENDBRANCH  33  34
ENDBRANCH  26  28
ENDBRANCH  25  26
ENDBRANCH  24  25
ENDBRANCH  23  24
ENDBRANCH  22  23
ENDBRANCH  21  22
ENDBRANCH   1  21
TORSDOF 23
ENDMDL
MODEL 3
REMARK VINA RESULT:      -8.7      4.035     10.035
REMARK SMILES C[C@@H](CC(=O)OCCOCCOC(=O)c1ccc(-c2c3nc(c(-c4c(F)cc(S(=O)(=O)[O-])cc4F)c4ccc([nH]4)c(-c4c(F)cc(S(=O)(=O)[O-])cc4F)c4nc(c(-c5c(F)cc(S(=O)(=O)[O-])cc5F)c5ccc2[nH]5)C=C4)C=C3)cc1)CC(=O)N(C)C[C@H]1CCC[N@H+]1C
REMARK SMILES IDX 7 1 6 2 4 3 5 4 3 5 2 6 1 7 81 8 82 9 83 10 84 11 85 12
REMARK SMILES IDX 86 13 87 14 88 15 91 16 89 17 90 18 92 19 8 21 9 22 10 23
REMARK SMILES IDX 11 24 12 25 13 26 14 27 15 28 16 29 80 30 17 31 79 32 18 33
REMARK SMILES IDX 19 34 20 35 73 36 21 37 78 38 72 39 74 40 22 41 77 42 71 43
REMARK SMILES IDX 70 44 23 46 57 47 36 48 56 49 37 50 40 51 55 52 75 53 38 54
REMARK SMILES IDX 39 55 54 57 76 58 41 59 24 60 25 61 34 62 26 63 27 64 33 65
REMARK SMILES IDX 35 66 28 67 29 68 30 69 31 70 32 71 58 72 59 73 68 74 60 75
REMARK SMILES IDX 61 76 67 77 69 78 62 79 63 80 64 81 65 82 66 83 42 84 43 85
REMARK SMILES IDX 52 86 44 87 45 88 51 89 53 90 46 91 47 92 48 93 49 94 50 95
REMARK H PARENT 91 20 74 45 40 56
REMARK Flexibility Score: inf
ROOT
ATOM      1  C   UNL A   1      41.176  19.513  26.414  1.00  0.00     0.261 C 
ENDROOT
BRANCH   1   2
ATOM      2  O   UNL A   1      42.608  19.658  26.524  1.00  0.00    -0.463 OA
BRANCH   2   3
ATOM      3  C   UNL A   1      43.353  18.764  25.829  1.00  0.00     0.306 C 
ATOM      4  O   UNL A   1      42.914  17.738  25.320  1.00  0.00    -0.252 OA
BRANCH   3   5
ATOM      5  C   UNL A   1      44.823  19.124  25.723  1.00  0.00     0.126 C 
BRANCH   5   6
ATOM      6  C   UNL A   1      45.293  20.336  24.890  1.00  0.00     0.006 C 
ATOM      7  C   UNL A   1      46.703  20.115  24.347  1.00  0.00     0.009 C 
BRANCH   6   8
ATOM      8  C   UNL A   1      45.126  21.666  25.641  1.00  0.00     0.104 C 
BRANCH   8   9
ATOM      9  C   UNL A   1      44.303  22.723  24.930  1.00  0.00     0.222 C 
ATOM     10  O   UNL A   1      44.003  22.532  23.747  1.00  0.00    -0.275 OA
BRANCH   9  11
ATOM     11  N   UNL A   1      43.943  23.882  25.597  1.00  0.00    -0.340 N 
ATOM     12  C   UNL A   1      43.444  25.102  24.983  1.00  0.00     0.147 C 
BRANCH  11  13
ATOM     13  C   UNL A   1      43.986  23.868  27.065  1.00  0.00     0.184 C 
BRANCH  13  14
ATOM     14  C   UNL A   1      44.348  25.254  27.668  1.00  0.00     0.203 C 
ATOM     15  C   UNL A   1      43.383  25.730  28.760  1.00  0.00     0.073 C 
ATOM     16  N   UNL A   1      45.631  25.340  28.390  1.00  0.00    -0.333 N 
ATOM     17  C   UNL A   1      44.007  25.296  30.080  1.00  0.00     0.068 C 
ATOM     18  C   UNL A   1      45.394  24.788  29.722  1.00  0.00     0.262 C 
ATOM     19  C   UNL A   1      46.770  24.734  27.722  1.00  0.00     0.333 C 
ATOM     20  H   UNL A   1      45.916  26.319  28.432  1.00  0.00     0.348 HD
ENDBRANCH  13  14
ENDBRANCH  11  13
ENDBRANCH   9  11
ENDBRANCH   8   9
ENDBRANCH   6   8
ENDBRANCH   5   6
ENDBRANCH   3   5
ENDBRANCH   2   3
ENDBRANCH   1   2
BRANCH   1  21
ATOM     21  C   UNL A   1      40.461  20.866  26.451  1.00  0.00     0.202 C 
BRANCH  21  22
ATOM     22  O   UNL A   1      40.511  21.584  27.684  1.00  0.00    -0.374 OA
BRANCH  22  23
ATOM     23  C   UNL A   1      40.462  23.006  27.596  1.00  0.00     0.202 C 
BRANCH  23  24
ATOM     24  C   UNL A   1      39.342  23.600  26.720  1.00  0.00     0.261 C 
BRANCH  24  25
ATOM     25  O   UNL A   1      38.923  24.913  27.148  1.00  0.00    -0.460 OA
BRANCH  25  26
ATOM     26  C   UNL A   1      39.864  25.884  27.055  1.00  0.00     0.338 C 
ATOM     27  O   UNL A   1      40.578  26.128  26.091  1.00  0.00    -0.246 OA
BRANCH  26  28
ATOM     28  C   UNL A   1      39.791  26.769  28.235  1.00  0.00     0.060 A 
ATOM     29  C   UNL A   1      40.475  27.990  28.192  1.00  0.00     0.016 A 
ATOM     30  C   UNL A   1      39.112  26.390  29.392  1.00  0.00     0.016 A 
ATOM     31  C   UNL A   1      40.512  28.819  29.316  1.00  0.00     0.010 A 
ATOM     32  C   UNL A   1      39.124  27.236  30.510  1.00  0.00     0.010 A 
ATOM     33  C   UNL A   1      39.860  28.437  30.498  1.00  0.00    -0.014 A 
BRANCH  33  34
ATOM     34  C   UNL A   1      40.097  29.183  31.769  1.00  0.00     0.031 A 
ATOM     35  C   UNL A   1      39.163  30.314  32.128  1.00  0.00     0.074 A 
ATOM     36  C   UNL A   1      41.104  28.866  32.608  1.00  0.00     0.049 A 
ATOM     37  N   UNL A   1      39.237  31.176  33.109  1.00  0.00    -0.248 NA
ATOM     38  C   UNL A   1      37.996  30.503  31.250  1.00  0.00     0.031 C 
ATOM     39  C   UNL A   1      42.054  27.772  32.419  1.00  0.00     0.029 A 
ATOM     40  N   UNL A   1      41.498  29.451  33.790  1.00  0.00    -0.354 N 
ATOM     41  C   UNL A   1      38.149  32.028  32.946  1.00  0.00     0.074 A 
ATOM     42  C   UNL A   1      37.453  31.601  31.754  1.00  0.00     0.031 C 
ATOM     43  C   UNL A   1      42.923  27.766  33.446  1.00  0.00     0.029 A 
ATOM     44  C   UNL A   1      42.623  28.882  34.342  1.00  0.00     0.049 A 
ATOM     45  H   UNL A   1      41.019  30.206  34.202  1.00  0.00     0.167 HD
ATOM     46  C   UNL A   1      37.754  33.063  33.726  1.00  0.00     0.037 A 
ATOM     47  C   UNL A   1      43.345  29.235  35.427  1.00  0.00     0.037 A 
ATOM     48  C   UNL A   1      38.420  33.464  34.937  1.00  0.00     0.049 A 
ATOM     49  C   UNL A   1      42.921  30.425  36.252  1.00  0.00     0.074 A 
ATOM     50  C   UNL A   1      38.073  34.481  35.810  1.00  0.00     0.029 A 
ATOM     51  N   UNL A   1      39.563  32.869  35.449  1.00  0.00    -0.354 N 
ATOM     52  N   UNL A   1      41.889  31.219  36.087  1.00  0.00    -0.248 NA
ATOM     53  C   UNL A   1      43.759  30.772  37.410  1.00  0.00     0.031 C 
ATOM     54  C   UNL A   1      39.035  34.534  36.823  1.00  0.00     0.029 A 
ATOM     55  C   UNL A   1      39.947  33.511  36.614  1.00  0.00     0.049 A 
ATOM     56  H   UNL A   1      40.031  32.103  35.045  1.00  0.00     0.167 HD
ATOM     57  C   UNL A   1      41.935  32.131  37.138  1.00  0.00     0.074 A 
ATOM     58  C   UNL A   1      43.096  31.794  37.934  1.00  0.00     0.031 C 
ATOM     59  C   UNL A   1      41.089  33.153  37.417  1.00  0.00     0.037 A 
BRANCH  46  60
ATOM     60  C   UNL A   1      36.552  33.853  33.284  1.00  0.00     0.058 A 
ATOM     61  C   UNL A   1      36.580  34.671  32.144  1.00  0.00     0.135 A 
ATOM     62  C   UNL A   1      35.345  33.761  33.996  1.00  0.00     0.135 A 
ATOM     63  F   UNL A   1      37.712  34.810  31.436  1.00  0.00    -0.206 F 
ATOM     64  C   UNL A   1      35.462  35.396  31.744  1.00  0.00     0.059 A 
ATOM     65  C   UNL A   1      34.206  34.452  33.595  1.00  0.00     0.059 A 
ATOM     66  F   UNL A   1      35.264  32.993  35.093  1.00  0.00    -0.206 F 
ATOM     67  C   UNL A   1      34.279  35.280  32.476  1.00  0.00     0.060 A 
BRANCH  67  68
ATOM     68  S   UNL A   1      32.838  36.227  31.944  1.00  0.00     0.124 S 
ATOM     69  O   UNL A   1      33.042  37.488  32.653  1.00  0.00    -0.237 OA
ATOM     70  O   UNL A   1      33.018  36.279  30.497  1.00  0.00    -0.237 OA
ATOM     71  O   UNL A   1      31.713  35.423  32.406  1.00  0.00    -0.744 OA
ENDBRANCH  67  68
ENDBRANCH  46  60
BRANCH  47  72
ATOM     72  C   UNL A   1      44.566  28.464  35.794  1.00  0.00     0.058 A 
ATOM     73  C   UNL A   1      45.821  28.797  35.264  1.00  0.00     0.135 A 
ATOM     74  C   UNL A   1      44.500  27.372  36.674  1.00  0.00     0.135 A 
ATOM     75  F   UNL A   1      45.937  29.821  34.405  1.00  0.00    -0.206 F 
ATOM     76  C   UNL A   1      46.965  28.069  35.583  1.00  0.00     0.059 A 
ATOM     77  C   UNL A   1      45.632  26.646  37.029  1.00  0.00     0.059 A 
ATOM     78  F   UNL A   1      43.324  27.015  37.215  1.00  0.00    -0.206 F 
ATOM     79  C   UNL A   1      46.860  26.998  36.471  1.00  0.00     0.060 A 
BRANCH  79  80
ATOM     80  S   UNL A   1      48.358  26.093  36.918  1.00  0.00     0.124 S 
ATOM     81  O   UNL A   1      48.671  25.406  35.671  1.00  0.00    -0.237 OA
ATOM     82  O   UNL A   1      49.264  27.172  37.299  1.00  0.00    -0.237 OA
ATOM     83  O   UNL A   1      47.917  25.238  38.017  1.00  0.00    -0.744 OA
ENDBRANCH  79  80
ENDBRANCH  47  72
BRANCH  59  84
ATOM     84  C   UNL A   1      41.335  33.962  38.663  1.00  0.00     0.058 A 
ATOM     85  C   UNL A   1      42.112  35.130  38.650  1.00  0.00     0.135 A 
ATOM     86  C   UNL A   1      40.695  33.615  39.866  1.00  0.00     0.135 A 
ATOM     87  F   UNL A   1      42.750  35.503  37.530  1.00  0.00    -0.206 F 
ATOM     88  C   UNL A   1      42.249  35.924  39.785  1.00  0.00     0.059 A 
ATOM     89  C   UNL A   1      40.796  34.409  41.004  1.00  0.00     0.059 A 
ATOM     90  F   UNL A   1      39.933  32.512  39.932  1.00  0.00    -0.206 F 
ATOM     91  C   UNL A   1      41.577  35.561  40.955  1.00  0.00     0.060 A 
BRANCH  91  92
ATOM     92  S   UNL A   1      41.705  36.642  42.396  1.00  0.00     0.124 S 
ATOM     93  O   UNL A   1      42.935  36.163  43.017  1.00  0.00    -0.237 OA
ATOM     94  O   UNL A   1      41.775  37.967  41.787  1.00  0.00    -0.237 OA
ATOM     95  O   UNL A   1      40.479  36.363  43.140  1.00  0.00    -0.744 OA
ENDBRANCH  91  92
ENDBRANCH  59  84
ENDBRANCH  33  34
ENDBRANCH  26  28
ENDBRANCH  25  26
ENDBRANCH  24  25
ENDBRANCH  23  24
ENDBRANCH  22  23
ENDBRANCH  21  22
ENDBRANCH   1  21
TORSDOF 23
ENDMDL
