MODEL 1
REMARK VINA RESULT:     -11.5      0.000      0.000
REMARK SMILES CN1C(=O)[C@@H]2CC=CC[C@]2(C(=O)OCCOCCOC(=O)c2ccc(-c3c4nc(c(-c5c(F)cc(S(=O)(=O)[O-])cc5F)c5ccc([nH]5)c(-c5c(F)cc(S(=O)(=O)[O-])cc5F)c5nc(c(-c6c(F)cc(S(=O)(=O)[O-])cc6F)c6ccc3[nH]6)C=C5)C=C4)cc2)[C@H]1c1ccccc1
REMARK SMILES IDX 17 1 16 2 15 3 14 4 13 5 11 6 12 7 10 8 1 9 2 10 3 11 88 12
REMARK SMILES IDX 4 13 5 14 6 15 9 16 7 17 8 18 89 19 90 20 94 21 91 22 93 23
REMARK SMILES IDX 92 24 18 25 19 26 20 27 21 28 22 29 23 30 87 31 24 32 86 33
REMARK SMILES IDX 25 34 26 35 27 36 80 37 28 38 85 39 79 40 81 41 29 42 84 43
REMARK SMILES IDX 78 44 77 45 30 47 64 48 43 49 63 50 44 51 47 52 62 53 82 54
REMARK SMILES IDX 45 55 46 56 61 58 83 59 48 60 31 61 32 62 41 63 33 64 34 65
REMARK SMILES IDX 40 66 42 67 35 68 36 69 37 70 38 71 39 72 65 73 66 74 75 75
REMARK SMILES IDX 67 76 68 77 74 78 76 79 69 80 70 81 71 82 72 83 73 84 49 85
REMARK SMILES IDX 50 86 59 87 51 88 52 89 58 90 60 91 53 92 54 93 55 94 56 95
REMARK SMILES IDX 57 96
REMARK H PARENT 81 46 47 57
REMARK Flexibility Score: inf
ROOT
ATOM      1  C   UNL A   1      32.226  30.409  26.161  1.00  0.00     0.202 C 
ENDROOT
BRANCH   1   2
ATOM      2  O   UNL A   1      32.864  29.256  25.599  1.00  0.00    -0.374 OA
BRANCH   2   3
ATOM      3  C   UNL A   1      32.720  29.054  24.189  1.00  0.00     0.202 C 
BRANCH   3   4
ATOM      4  C   UNL A   1      34.014  28.420  23.640  1.00  0.00     0.261 C 
BRANCH   4   5
ATOM      5  O   UNL A   1      33.944  27.027  23.984  1.00  0.00    -0.463 OA
BRANCH   5   6
ATOM      6  C   UNL A   1      33.427  26.055  23.158  1.00  0.00     0.315 C 
ATOM      7  O   UNL A   1      33.851  25.742  22.060  1.00  0.00    -0.251 OA
BRANCH   6   8
ATOM      8  C   UNL A   1      32.381  25.294  24.001  1.00  0.00     0.108 C 
ATOM      9  C   UNL A   1      32.562  21.903  25.714  1.00  0.00     0.147 C 
ATOM     10  N   UNL A   1      32.417  23.300  25.347  1.00  0.00    -0.337 N 
ATOM     11  C   UNL A   1      31.965  24.290  26.185  1.00  0.00     0.227 C 
ATOM     12  C   UNL A   1      32.963  23.825  24.126  1.00  0.00     0.133 C 
ATOM     13  O   UNL A   1      31.591  24.115  27.336  1.00  0.00    -0.275 OA
ATOM     14  C   UNL A   1      32.040  25.648  25.474  1.00  0.00     0.102 C 
ATOM     15  C   UNL A   1      30.713  26.376  25.793  1.00  0.00     0.041 C 
ATOM     16  C   UNL A   1      31.166  25.513  23.071  1.00  0.00     0.049 C 
ATOM     17  C   UNL A   1      29.587  26.152  24.837  1.00  0.00    -0.030 C 
ATOM     18  C   UNL A   1      29.797  25.727  23.595  1.00  0.00    -0.030 C 
BRANCH  12  19
ATOM     19  C   UNL A   1      34.506  23.771  24.196  1.00  0.00    -0.024 A 
ATOM     20  C   UNL A   1      35.253  23.074  23.227  1.00  0.00     0.006 A 
ATOM     21  C   UNL A   1      35.171  24.236  25.343  1.00  0.00     0.006 A 
ATOM     22  C   UNL A   1      36.571  22.699  23.478  1.00  0.00     0.000 A 
ATOM     23  C   UNL A   1      36.502  23.879  25.579  1.00  0.00     0.000 A 
ATOM     24  C   UNL A   1      37.186  23.077  24.665  1.00  0.00     0.000 A 
ENDBRANCH  12  19
ENDBRANCH   6   8
ENDBRANCH   5   6
ENDBRANCH   4   5
ENDBRANCH   3   4
ENDBRANCH   2   3
ENDBRANCH   1   2
BRANCH   1  25
ATOM     25  C   UNL A   1      33.067  31.224  27.171  1.00  0.00     0.261 C 
BRANCH  25  26
ATOM     26  O   UNL A   1      33.805  30.404  28.079  1.00  0.00    -0.460 OA
BRANCH  26  27
ATOM     27  C   UNL A   1      34.818  31.078  28.665  1.00  0.00     0.338 C 
ATOM     28  O   UNL A   1      34.748  32.129  29.272  1.00  0.00    -0.246 OA
BRANCH  27  29
ATOM     29  C   UNL A   1      36.021  30.250  28.616  1.00  0.00     0.060 A 
ATOM     30  C   UNL A   1      36.416  29.632  29.804  1.00  0.00     0.016 A 
ATOM     31  C   UNL A   1      36.801  30.190  27.460  1.00  0.00     0.016 A 
ATOM     32  C   UNL A   1      37.663  29.031  29.870  1.00  0.00     0.010 A 
ATOM     33  C   UNL A   1      38.050  29.578  27.527  1.00  0.00     0.010 A 
ATOM     34  C   UNL A   1      38.507  29.060  28.751  1.00  0.00    -0.014 A 
BRANCH  34  35
ATOM     35  C   UNL A   1      39.937  28.741  28.941  1.00  0.00     0.031 A 
ATOM     36  C   UNL A   1      40.829  29.775  29.575  1.00  0.00     0.074 A 
ATOM     37  C   UNL A   1      40.404  27.522  28.623  1.00  0.00     0.049 A 
ATOM     38  N   UNL A   1      42.097  29.701  29.877  1.00  0.00    -0.248 NA
ATOM     39  C   UNL A   1      40.205  31.068  29.911  1.00  0.00     0.031 C 
ATOM     40  C   UNL A   1      39.612  26.442  28.033  1.00  0.00     0.029 A 
ATOM     41  N   UNL A   1      41.656  26.986  28.761  1.00  0.00    -0.354 N 
ATOM     42  C   UNL A   1      42.425  30.933  30.433  1.00  0.00     0.074 A 
ATOM     43  C   UNL A   1      41.235  31.752  30.385  1.00  0.00     0.031 C 
ATOM     44  C   UNL A   1      40.399  25.367  27.865  1.00  0.00     0.029 A 
ATOM     45  C   UNL A   1      41.753  25.694  28.309  1.00  0.00     0.049 A 
ATOM     46  H   UNL A   1      42.414  27.481  29.148  1.00  0.00     0.167 HD
ATOM     47  C   UNL A   1      43.610  31.337  30.950  1.00  0.00     0.037 A 
ATOM     48  C   UNL A   1      42.819  24.875  28.256  1.00  0.00     0.037 A 
ATOM     49  C   UNL A   1      44.784  30.507  30.992  1.00  0.00     0.049 A 
ATOM     50  C   UNL A   1      44.136  25.360  28.803  1.00  0.00     0.074 A 
ATOM     51  C   UNL A   1      46.036  30.807  31.499  1.00  0.00     0.029 A 
ATOM     52  N   UNL A   1      44.852  29.208  30.505  1.00  0.00    -0.354 N 
ATOM     53  N   UNL A   1      44.430  26.522  29.341  1.00  0.00    -0.248 NA
ATOM     54  C   UNL A   1      45.259  24.417  28.753  1.00  0.00     0.031 C 
ATOM     55  C   UNL A   1      46.873  29.710  31.272  1.00  0.00     0.029 A 
ATOM     56  C   UNL A   1      46.127  28.700  30.685  1.00  0.00     0.049 A 
ATOM     57  H   UNL A   1      44.102  28.720  30.093  1.00  0.00     0.167 HD
ATOM     58  C   UNL A   1      45.763  26.435  29.726  1.00  0.00     0.074 A 
ATOM     59  C   UNL A   1      46.211  25.103  29.371  1.00  0.00     0.031 C 
ATOM     60  C   UNL A   1      46.548  27.367  30.326  1.00  0.00     0.037 A 
BRANCH  47  61
ATOM     61  C   UNL A   1      43.696  32.742  31.483  1.00  0.00     0.058 A 
ATOM     62  C   UNL A   1      43.625  33.023  32.858  1.00  0.00     0.135 A 
ATOM     63  C   UNL A   1      43.875  33.825  30.607  1.00  0.00     0.135 A 
ATOM     64  F   UNL A   1      43.431  32.030  33.742  1.00  0.00    -0.206 F 
ATOM     65  C   UNL A   1      43.701  34.326  33.342  1.00  0.00     0.059 A 
ATOM     66  C   UNL A   1      43.985  35.132  31.069  1.00  0.00     0.059 A 
ATOM     67  F   UNL A   1      43.943  33.617  29.281  1.00  0.00    -0.206 F 
ATOM     68  C   UNL A   1      43.883  35.375  32.438  1.00  0.00     0.060 A 
BRANCH  68  69
ATOM     69  S   UNL A   1      43.987  37.058  33.081  1.00  0.00     0.124 S 
ATOM     70  O   UNL A   1      42.680  37.211  33.712  1.00  0.00    -0.237 OA
ATOM     71  O   UNL A   1      45.124  36.972  33.993  1.00  0.00    -0.237 OA
ATOM     72  O   UNL A   1      44.205  37.866  31.886  1.00  0.00    -0.744 OA
ENDBRANCH  68  69
ENDBRANCH  47  61
BRANCH  48  73
ATOM     73  C   UNL A   1      42.680  23.513  27.676  1.00  0.00     0.058 A 
ATOM     74  C   UNL A   1      42.804  23.293  26.297  1.00  0.00     0.135 A 
ATOM     75  C   UNL A   1      42.431  22.400  28.496  1.00  0.00     0.135 A 
ATOM     76  F   UNL A   1      43.039  24.324  25.471  1.00  0.00    -0.206 F 
ATOM     77  C   UNL A   1      42.662  22.024  25.745  1.00  0.00     0.059 A 
ATOM     78  C   UNL A   1      42.315  21.118  27.972  1.00  0.00     0.059 A 
ATOM     79  F   UNL A   1      42.324  22.554  29.824  1.00  0.00    -0.206 F 
ATOM     80  C   UNL A   1      42.420  20.941  26.593  1.00  0.00     0.060 A 
BRANCH  80  81
ATOM     81  S   UNL A   1      42.285  19.291  25.873  1.00  0.00     0.124 S 
ATOM     82  O   UNL A   1      43.132  19.415  24.693  1.00  0.00    -0.237 OA
ATOM     83  O   UNL A   1      42.801  18.447  26.946  1.00  0.00    -0.237 OA
ATOM     84  O   UNL A   1      40.854  19.155  25.613  1.00  0.00    -0.744 OA
ENDBRANCH  80  81
ENDBRANCH  48  73
BRANCH  60  85
ATOM     85  C   UNL A   1      47.951  26.956  30.685  1.00  0.00     0.058 A 
ATOM     86  C   UNL A   1      48.266  26.385  31.927  1.00  0.00     0.135 A 
ATOM     87  C   UNL A   1      48.995  27.129  29.760  1.00  0.00     0.135 A 
ATOM     88  F   UNL A   1      47.307  26.197  32.848  1.00  0.00    -0.206 F 
ATOM     89  C   UNL A   1      49.574  26.050  32.262  1.00  0.00     0.059 A 
ATOM     90  C   UNL A   1      50.303  26.768  30.059  1.00  0.00     0.059 A 
ATOM     91  F   UNL A   1      48.746  27.652  28.550  1.00  0.00    -0.206 F 
ATOM     92  C   UNL A   1      50.587  26.252  31.322  1.00  0.00     0.060 A 
BRANCH  92  93
ATOM     93  S   UNL A   1      52.283  25.830  31.772  1.00  0.00     0.124 S 
ATOM     94  O   UNL A   1      52.993  26.106  30.528  1.00  0.00    -0.237 OA
ATOM     95  O   UNL A   1      52.553  26.748  32.875  1.00  0.00    -0.237 OA
ATOM     96  O   UNL A   1      52.195  24.422  32.145  1.00  0.00    -0.744 OA
ENDBRANCH  92  93
ENDBRANCH  60  85
ENDBRANCH  34  35
ENDBRANCH  27  29
ENDBRANCH  26  27
ENDBRANCH  25  26
ENDBRANCH   1  25
TORSDOF 18
ENDMDL
MODEL 2
REMARK VINA RESULT:     -11.3      0.960      8.209
REMARK SMILES CN1C(=O)[C@@H]2CC=CC[C@]2(C(=O)OCCOCCOC(=O)c2ccc(-c3c4nc(c(-c5c(F)cc(S(=O)(=O)[O-])cc5F)c5ccc([nH]5)c(-c5c(F)cc(S(=O)(=O)[O-])cc5F)c5nc(c(-c6c(F)cc(S(=O)(=O)[O-])cc6F)c6ccc3[nH]6)C=C5)C=C4)cc2)[C@H]1c1ccccc1
REMARK SMILES IDX 17 1 16 2 15 3 14 4 13 5 11 6 12 7 10 8 1 9 2 10 3 11 88 12
REMARK SMILES IDX 4 13 5 14 6 15 9 16 7 17 8 18 89 19 90 20 94 21 91 22 93 23
REMARK SMILES IDX 92 24 18 25 19 26 20 27 21 28 22 29 23 30 87 31 24 32 86 33
REMARK SMILES IDX 25 34 26 35 27 36 80 37 28 38 85 39 79 40 81 41 29 42 84 43
REMARK SMILES IDX 78 44 77 45 30 47 64 48 43 49 63 50 44 51 47 52 62 53 82 54
REMARK SMILES IDX 45 55 46 56 61 58 83 59 48 60 31 61 32 62 41 63 33 64 34 65
REMARK SMILES IDX 40 66 42 67 35 68 36 69 37 70 38 71 39 72 65 73 66 74 75 75
REMARK SMILES IDX 67 76 68 77 74 78 76 79 69 80 70 81 71 82 72 83 73 84 49 85
REMARK SMILES IDX 50 86 59 87 51 88 52 89 58 90 60 91 53 92 54 93 55 94 56 95
REMARK SMILES IDX 57 96
REMARK H PARENT 81 46 47 57
REMARK Flexibility Score: inf
ROOT
ATOM      1  C   UNL A   1      32.565  30.423  26.394  1.00  0.00     0.202 C 
ENDROOT
BRANCH   1   2
ATOM      2  O   UNL A   1      33.046  29.270  25.694  1.00  0.00    -0.374 OA
BRANCH   2   3
ATOM      3  C   UNL A   1      32.828  29.228  24.280  1.00  0.00     0.202 C 
BRANCH   3   4
ATOM      4  C   UNL A   1      34.009  28.494  23.613  1.00  0.00     0.261 C 
BRANCH   4   5
ATOM      5  O   UNL A   1      33.916  27.128  24.050  1.00  0.00    -0.463 OA
BRANCH   5   6
ATOM      6  C   UNL A   1      33.504  26.090  23.246  1.00  0.00     0.315 C 
ATOM      7  O   UNL A   1      34.014  25.744  22.196  1.00  0.00    -0.251 OA
BRANCH   6   8
ATOM      8  C   UNL A   1      32.444  25.317  24.061  1.00  0.00     0.108 C 
ATOM      9  C   UNL A   1      32.583  21.887  25.698  1.00  0.00     0.147 C 
ATOM     10  N   UNL A   1      32.452  23.293  25.362  1.00  0.00    -0.337 N 
ATOM     11  C   UNL A   1      31.999  24.267  26.218  1.00  0.00     0.227 C 
ATOM     12  C   UNL A   1      33.014  23.841  24.158  1.00  0.00     0.133 C 
ATOM     13  O   UNL A   1      31.614  24.068  27.361  1.00  0.00    -0.275 OA
ATOM     14  C   UNL A   1      32.092  25.640  25.539  1.00  0.00     0.102 C 
ATOM     15  C   UNL A   1      30.767  26.371  25.862  1.00  0.00     0.041 C 
ATOM     16  C   UNL A   1      31.240  25.567  23.126  1.00  0.00     0.049 C 
ATOM     17  C   UNL A   1      29.649  26.178  24.891  1.00  0.00    -0.030 C 
ATOM     18  C   UNL A   1      29.868  25.780  23.641  1.00  0.00    -0.030 C 
BRANCH  12  19
ATOM     19  C   UNL A   1      34.556  23.774  24.241  1.00  0.00    -0.024 A 
ATOM     20  C   UNL A   1      35.300  23.017  23.317  1.00  0.00     0.006 A 
ATOM     21  C   UNL A   1      35.219  24.294  25.365  1.00  0.00     0.006 A 
ATOM     22  C   UNL A   1      36.613  22.641  23.597  1.00  0.00     0.000 A 
ATOM     23  C   UNL A   1      36.544  23.935  25.629  1.00  0.00     0.000 A 
ATOM     24  C   UNL A   1      37.224  23.077  24.766  1.00  0.00     0.000 A 
ENDBRANCH  12  19
ENDBRANCH   6   8
ENDBRANCH   5   6
ENDBRANCH   4   5
ENDBRANCH   3   4
ENDBRANCH   2   3
ENDBRANCH   1   2
BRANCH   1  25
ATOM     25  C   UNL A   1      33.542  31.052  27.416  1.00  0.00     0.261 C 
BRANCH  25  26
ATOM     26  O   UNL A   1      34.457  30.108  27.974  1.00  0.00    -0.460 OA
BRANCH  26  27
ATOM     27  C   UNL A   1      35.343  30.690  28.809  1.00  0.00     0.338 C 
ATOM     28  O   UNL A   1      35.129  31.589  29.600  1.00  0.00    -0.246 OA
BRANCH  27  29
ATOM     29  C   UNL A   1      36.599  29.944  28.753  1.00  0.00     0.060 A 
ATOM     30  C   UNL A   1      37.036  29.346  29.936  1.00  0.00     0.016 A 
ATOM     31  C   UNL A   1      37.379  29.945  27.596  1.00  0.00     0.016 A 
ATOM     32  C   UNL A   1      38.321  28.829  29.997  1.00  0.00     0.010 A 
ATOM     33  C   UNL A   1      38.666  29.418  27.657  1.00  0.00     0.010 A 
ATOM     34  C   UNL A   1      39.159  28.922  28.877  1.00  0.00    -0.014 A 
BRANCH  34  35
ATOM     35  C   UNL A   1      40.608  28.697  29.062  1.00  0.00     0.031 A 
ATOM     36  C   UNL A   1      41.189  27.369  28.657  1.00  0.00     0.074 A 
ATOM     37  C   UNL A   1      41.392  29.692  29.510  1.00  0.00     0.049 A 
ATOM     38  N   UNL A   1      42.430  26.964  28.688  1.00  0.00    -0.248 NA
ATOM     39  C   UNL A   1      40.241  26.360  28.151  1.00  0.00     0.031 C 
ATOM     40  C   UNL A   1      40.927  31.024  29.898  1.00  0.00     0.029 A 
ATOM     41  N   UNL A   1      42.746  29.735  29.704  1.00  0.00    -0.354 N 
ATOM     42  C   UNL A   1      42.413  25.658  28.212  1.00  0.00     0.074 A 
ATOM     43  C   UNL A   1      41.034  25.321  27.941  1.00  0.00     0.031 C 
ATOM     44  C   UNL A   1      41.985  31.758  30.281  1.00  0.00     0.029 A 
ATOM     45  C   UNL A   1      43.192  30.939  30.189  1.00  0.00     0.049 A 
ATOM     46  H   UNL A   1      43.343  28.976  29.514  1.00  0.00     0.167 HD
ATOM     47  C   UNL A   1      43.458  24.822  28.006  1.00  0.00     0.037 A 
ATOM     48  C   UNL A   1      44.436  31.328  30.526  1.00  0.00     0.037 A 
ATOM     49  C   UNL A   1      44.826  25.175  28.278  1.00  0.00     0.049 A 
ATOM     50  C   UNL A   1      45.577  30.367  30.323  1.00  0.00     0.074 A 
ATOM     51  C   UNL A   1      45.966  24.412  28.101  1.00  0.00     0.029 A 
ATOM     52  N   UNL A   1      45.240  26.398  28.790  1.00  0.00    -0.354 N 
ATOM     53  N   UNL A   1      45.551  29.139  29.857  1.00  0.00    -0.248 NA
ATOM     54  C   UNL A   1      46.917  30.850  30.673  1.00  0.00     0.031 C 
ATOM     55  C   UNL A   1      47.063  25.155  28.553  1.00  0.00     0.029 A 
ATOM     56  C   UNL A   1      46.615  26.405  28.949  1.00  0.00     0.049 A 
ATOM     57  H   UNL A   1      44.642  27.150  29.006  1.00  0.00     0.167 HD
ATOM     58  C   UNL A   1      46.876  28.717  29.824  1.00  0.00     0.074 A 
ATOM     59  C   UNL A   1      47.675  29.827  30.305  1.00  0.00     0.031 C 
ATOM     60  C   UNL A   1      47.389  27.524  29.427  1.00  0.00     0.037 A 
BRANCH  47  61
ATOM     61  C   UNL A   1      43.156  23.441  27.487  1.00  0.00     0.058 A 
ATOM     62  C   UNL A   1      43.393  23.080  26.150  1.00  0.00     0.135 A 
ATOM     63  C   UNL A   1      42.641  22.456  28.346  1.00  0.00     0.135 A 
ATOM     64  F   UNL A   1      43.863  23.986  25.277  1.00  0.00    -0.206 F 
ATOM     65  C   UNL A   1      43.106  21.802  25.678  1.00  0.00     0.059 A 
ATOM     66  C   UNL A   1      42.376  21.164  27.904  1.00  0.00     0.059 A 
ATOM     67  F   UNL A   1      42.388  22.747  29.632  1.00  0.00    -0.206 F 
ATOM     68  C   UNL A   1      42.599  20.850  26.564  1.00  0.00     0.060 A 
BRANCH  68  69
ATOM     69  S   UNL A   1      42.239  19.195  25.939  1.00  0.00     0.124 S 
ATOM     70  O   UNL A   1      43.006  19.179  24.698  1.00  0.00    -0.237 OA
ATOM     71  O   UNL A   1      42.747  18.342  27.009  1.00  0.00    -0.237 OA
ATOM     72  O   UNL A   1      40.788  19.199  25.779  1.00  0.00    -0.744 OA
ENDBRANCH  68  69
ENDBRANCH  47  61
BRANCH  48  73
ATOM     73  C   UNL A   1      44.664  32.690  31.076  1.00  0.00     0.058 A 
ATOM     74  C   UNL A   1      44.946  33.778  30.237  1.00  0.00     0.135 A 
ATOM     75  C   UNL A   1      44.591  32.933  32.458  1.00  0.00     0.135 A 
ATOM     76  F   UNL A   1      45.029  33.596  28.910  1.00  0.00    -0.206 F 
ATOM     77  C   UNL A   1      45.174  35.052  30.746  1.00  0.00     0.059 A 
ATOM     78  C   UNL A   1      44.785  34.203  32.989  1.00  0.00     0.059 A 
ATOM     79  F   UNL A   1      44.304  31.931  33.303  1.00  0.00    -0.206 F 
ATOM     80  C   UNL A   1      45.088  35.255  32.125  1.00  0.00     0.060 A 
BRANCH  80  81
ATOM     81  S   UNL A   1      45.337  36.922  32.771  1.00  0.00     0.124 S 
ATOM     82  O   UNL A   1      46.734  37.163  32.432  1.00  0.00    -0.237 OA
ATOM     83  O   UNL A   1      44.352  37.691  32.018  1.00  0.00    -0.237 OA
ATOM     84  O   UNL A   1      45.048  36.776  34.196  1.00  0.00    -0.744 OA
ENDBRANCH  80  81
ENDBRANCH  48  73
BRANCH  60  85
ATOM     85  C   UNL A   1      48.888  27.383  29.444  1.00  0.00     0.058 A 
ATOM     86  C   UNL A   1      49.576  26.866  30.553  1.00  0.00     0.135 A 
ATOM     87  C   UNL A   1      49.645  27.764  28.323  1.00  0.00     0.135 A 
ATOM     88  F   UNL A   1      48.902  26.486  31.650  1.00  0.00    -0.206 F 
ATOM     89  C   UNL A   1      50.965  26.782  30.571  1.00  0.00     0.059 A 
ATOM     90  C   UNL A   1      51.031  27.655  28.305  1.00  0.00     0.059 A 
ATOM     91  F   UNL A   1      49.037  28.247  27.229  1.00  0.00    -0.206 F 
ATOM     92  C   UNL A   1      51.683  27.186  29.443  1.00  0.00     0.060 A 
BRANCH  92  93
ATOM     93  S   UNL A   1      53.485  27.088  29.484  1.00  0.00     0.124 S 
ATOM     94  O   UNL A   1      53.759  26.268  28.310  1.00  0.00    -0.237 OA
ATOM     95  O   UNL A   1      53.877  28.491  29.385  1.00  0.00    -0.237 OA
ATOM     96  O   UNL A   1      53.762  26.456  30.771  1.00  0.00    -0.744 OA
ENDBRANCH  92  93
ENDBRANCH  60  85
ENDBRANCH  34  35
ENDBRANCH  27  29
ENDBRANCH  26  27
ENDBRANCH  25  26
ENDBRANCH   1  25
TORSDOF 18
ENDMDL
MODEL 3
REMARK VINA RESULT:     -11.2      2.910      8.134
REMARK SMILES CN1C(=O)[C@@H]2CC=CC[C@]2(C(=O)OCCOCCOC(=O)c2ccc(-c3c4nc(c(-c5c(F)cc(S(=O)(=O)[O-])cc5F)c5ccc([nH]5)c(-c5c(F)cc(S(=O)(=O)[O-])cc5F)c5nc(c(-c6c(F)cc(S(=O)(=O)[O-])cc6F)c6ccc3[nH]6)C=C5)C=C4)cc2)[C@H]1c1ccccc1
REMARK SMILES IDX 17 1 16 2 15 3 14 4 13 5 11 6 12 7 10 8 1 9 2 10 3 11 88 12
REMARK SMILES IDX 4 13 5 14 6 15 9 16 7 17 8 18 89 19 90 20 94 21 91 22 93 23
REMARK SMILES IDX 92 24 18 25 19 26 20 27 21 28 22 29 23 30 87 31 24 32 86 33
REMARK SMILES IDX 25 34 26 35 27 36 80 37 28 38 85 39 79 40 81 41 29 42 84 43
REMARK SMILES IDX 78 44 77 45 30 47 64 48 43 49 63 50 44 51 47 52 62 53 82 54
REMARK SMILES IDX 45 55 46 56 61 58 83 59 48 60 31 61 32 62 41 63 33 64 34 65
REMARK SMILES IDX 40 66 42 67 35 68 36 69 37 70 38 71 39 72 65 73 66 74 75 75
REMARK SMILES IDX 67 76 68 77 74 78 76 79 69 80 70 81 71 82 72 83 73 84 49 85
REMARK SMILES IDX 50 86 59 87 51 88 52 89 58 90 60 91 53 92 54 93 55 94 56 95
REMARK SMILES IDX 57 96
REMARK H PARENT 81 46 47 57
REMARK Flexibility Score: inf
ROOT
ATOM      1  C   UNL A   1      36.607  21.169  25.074  1.00  0.00     0.202 C 
ENDROOT
BRANCH   1   2
ATOM      2  O   UNL A   1      35.647  22.088  25.606  1.00  0.00    -0.374 OA
BRANCH   2   3
ATOM      3  C   UNL A   1      34.788  21.605  26.644  1.00  0.00     0.202 C 
BRANCH   3   4
ATOM      4  C   UNL A   1      34.313  22.798  27.497  1.00  0.00     0.261 C 
BRANCH   4   5
ATOM      5  O   UNL A   1      33.825  23.776  26.563  1.00  0.00    -0.463 OA
BRANCH   5   6
ATOM      6  C   UNL A   1      32.491  24.010  26.321  1.00  0.00     0.315 C 
ATOM      7  O   UNL A   1      31.623  24.170  27.161  1.00  0.00    -0.251 OA
BRANCH   6   8
ATOM      8  C   UNL A   1      32.374  24.271  24.804  1.00  0.00     0.108 C 
ATOM      9  C   UNL A   1      31.742  27.490  22.878  1.00  0.00     0.147 C 
ATOM     10  N   UNL A   1      32.238  26.242  23.431  1.00  0.00    -0.337 N 
ATOM     11  C   UNL A   1      33.316  25.542  22.947  1.00  0.00     0.227 C 
ATOM     12  C   UNL A   1      31.782  25.737  24.697  1.00  0.00     0.133 C 
ATOM     13  O   UNL A   1      33.973  25.861  21.966  1.00  0.00    -0.275 OA
ATOM     14  C   UNL A   1      33.594  24.329  23.845  1.00  0.00     0.102 C 
ATOM     15  C   UNL A   1      33.868  23.141  22.892  1.00  0.00     0.041 C 
ATOM     16  C   UNL A   1      31.441  23.088  24.461  1.00  0.00     0.049 C 
ATOM     17  C   UNL A   1      32.682  22.329  22.486  1.00  0.00    -0.030 C 
ATOM     18  C   UNL A   1      31.557  22.329  23.194  1.00  0.00    -0.030 C 
BRANCH  12  19
ATOM     19  C   UNL A   1      32.260  26.684  25.821  1.00  0.00    -0.024 A 
ATOM     20  C   UNL A   1      31.338  27.326  26.670  1.00  0.00     0.006 A 
ATOM     21  C   UNL A   1      33.605  27.084  25.875  1.00  0.00     0.006 A 
ATOM     22  C   UNL A   1      31.711  28.445  27.412  1.00  0.00     0.000 A 
ATOM     23  C   UNL A   1      33.981  28.192  26.641  1.00  0.00     0.000 A 
ATOM     24  C   UNL A   1      33.026  28.894  27.375  1.00  0.00     0.000 A 
ENDBRANCH  12  19
ENDBRANCH   6   8
ENDBRANCH   5   6
ENDBRANCH   4   5
ENDBRANCH   3   4
ENDBRANCH   2   3
ENDBRANCH   1   2
BRANCH   1  25
ATOM     25  C   UNL A   1      38.092  21.502  25.356  1.00  0.00     0.261 C 
BRANCH  25  26
ATOM     26  O   UNL A   1      38.305  22.870  25.705  1.00  0.00    -0.460 OA
BRANCH  26  27
ATOM     27  C   UNL A   1      39.500  23.064  26.303  1.00  0.00     0.338 C 
ATOM     28  O   UNL A   1      40.483  22.351  26.231  1.00  0.00    -0.246 OA
BRANCH  27  29
ATOM     29  C   UNL A   1      39.501  24.384  26.931  1.00  0.00     0.060 A 
ATOM     30  C   UNL A   1      40.255  25.381  26.310  1.00  0.00     0.016 A 
ATOM     31  C   UNL A   1      38.876  24.591  28.162  1.00  0.00     0.016 A 
ATOM     32  C   UNL A   1      40.478  26.574  26.980  1.00  0.00     0.010 A 
ATOM     33  C   UNL A   1      39.094  25.793  28.828  1.00  0.00     0.010 A 
ATOM     34  C   UNL A   1      39.951  26.756  28.267  1.00  0.00    -0.014 A 
BRANCH  34  35
ATOM     35  C   UNL A   1      40.481  27.859  29.094  1.00  0.00     0.031 A 
ATOM     36  C   UNL A   1      39.616  29.069  29.323  1.00  0.00     0.074 A 
ATOM     37  C   UNL A   1      41.680  27.739  29.690  1.00  0.00     0.049 A 
ATOM     38  N   UNL A   1      39.853  30.133  30.043  1.00  0.00    -0.248 NA
ATOM     39  C   UNL A   1      38.307  29.083  28.645  1.00  0.00     0.031 C 
ATOM     40  C   UNL A   1      42.578  26.592  29.555  1.00  0.00     0.029 A 
ATOM     41  N   UNL A   1      42.341  28.590  30.533  1.00  0.00    -0.354 N 
ATOM     42  C   UNL A   1      38.731  30.941  29.903  1.00  0.00     0.074 A 
ATOM     43  C   UNL A   1      37.831  30.268  28.994  1.00  0.00     0.031 C 
ATOM     44  C   UNL A   1      43.675  26.810  30.298  1.00  0.00     0.029 A 
ATOM     45  C   UNL A   1      43.566  28.120  30.936  1.00  0.00     0.049 A 
ATOM     46  H   UNL A   1      41.972  29.455  30.824  1.00  0.00     0.167 HD
ATOM     47  C   UNL A   1      38.470  32.132  30.493  1.00  0.00     0.037 A 
ATOM     48  C   UNL A   1      44.494  28.692  31.726  1.00  0.00     0.037 A 
ATOM     49  C   UNL A   1      39.376  32.786  31.399  1.00  0.00     0.049 A 
ATOM     50  C   UNL A   1      44.196  30.035  32.341  1.00  0.00     0.074 A 
ATOM     51  C   UNL A   1      39.214  33.990  32.062  1.00  0.00     0.029 A 
ATOM     52  N   UNL A   1      40.620  32.291  31.769  1.00  0.00    -0.354 N 
ATOM     53  N   UNL A   1      43.125  30.783  32.214  1.00  0.00    -0.248 NA
ATOM     54  C   UNL A   1      45.225  30.600  33.221  1.00  0.00     0.031 C 
ATOM     55  C   UNL A   1      40.380  34.246  32.792  1.00  0.00     0.029 A 
ATOM     56  C   UNL A   1      41.241  33.172  32.637  1.00  0.00     0.049 A 
ATOM     57  H   UNL A   1      41.002  31.438  31.459  1.00  0.00     0.167 HD
ATOM     58  C   UNL A   1      43.336  31.891  33.027  1.00  0.00     0.074 A 
ATOM     59  C   UNL A   1      44.632  31.705  33.650  1.00  0.00     0.031 C 
ATOM     60  C   UNL A   1      42.532  32.963  33.247  1.00  0.00     0.037 A 
BRANCH  47  61
ATOM     61  C   UNL A   1      37.168  32.809  30.155  1.00  0.00     0.058 A 
ATOM     62  C   UNL A   1      35.992  32.568  30.885  1.00  0.00     0.135 A 
ATOM     63  C   UNL A   1      37.100  33.730  29.097  1.00  0.00     0.135 A 
ATOM     64  F   UNL A   1      35.991  31.681  31.893  1.00  0.00    -0.206 F 
ATOM     65  C   UNL A   1      34.792  33.195  30.562  1.00  0.00     0.059 A 
ATOM     66  C   UNL A   1      35.919  34.391  28.776  1.00  0.00     0.059 A 
ATOM     67  F   UNL A   1      38.191  33.993  28.360  1.00  0.00    -0.206 F 
ATOM     68  C   UNL A   1      34.766  34.107  29.506  1.00  0.00     0.060 A 
BRANCH  68  69
ATOM     69  S   UNL A   1      33.204  34.918  29.104  1.00  0.00     0.124 S 
ATOM     70  O   UNL A   1      32.534  34.919  30.400  1.00  0.00    -0.237 OA
ATOM     71  O   UNL A   1      33.647  36.221  28.618  1.00  0.00    -0.237 OA
ATOM     72  O   UNL A   1      32.615  34.042  28.096  1.00  0.00    -0.744 OA
ENDBRANCH  68  69
ENDBRANCH  47  61
BRANCH  48  73
ATOM     73  C   UNL A   1      45.780  27.993  31.986  1.00  0.00     0.058 A 
ATOM     74  C   UNL A   1      45.901  27.049  33.015  1.00  0.00     0.135 A 
ATOM     75  C   UNL A   1      46.914  28.250  31.198  1.00  0.00     0.135 A 
ATOM     76  F   UNL A   1      44.846  26.771  33.797  1.00  0.00    -0.206 F 
ATOM     77  C   UNL A   1      47.104  26.401  33.272  1.00  0.00     0.059 A 
ATOM     78  C   UNL A   1      48.120  27.593  31.416  1.00  0.00     0.059 A 
ATOM     79  F   UNL A   1      46.846  29.130  30.187  1.00  0.00    -0.206 F 
ATOM     80  C   UNL A   1      48.209  26.678  32.464  1.00  0.00     0.060 A 
BRANCH  80  81
ATOM     81  S   UNL A   1      49.753  25.797  32.776  1.00  0.00     0.124 S 
ATOM     82  O   UNL A   1      49.453  25.112  34.027  1.00  0.00    -0.237 OA
ATOM     83  O   UNL A   1      49.863  24.949  31.593  1.00  0.00    -0.237 OA
ATOM     84  O   UNL A   1      50.740  26.870  32.861  1.00  0.00    -0.744 OA
ENDBRANCH  80  81
ENDBRANCH  48  73
BRANCH  60  85
ATOM     85  C   UNL A   1      43.009  33.986  34.244  1.00  0.00     0.058 A 
ATOM     86  C   UNL A   1      42.656  33.927  35.601  1.00  0.00     0.135 A 
ATOM     87  C   UNL A   1      43.844  35.037  33.830  1.00  0.00     0.135 A 
ATOM     88  F   UNL A   1      41.860  32.942  36.051  1.00  0.00    -0.206 F 
ATOM     89  C   UNL A   1      43.068  34.903  36.502  1.00  0.00     0.059 A 
ATOM     90  C   UNL A   1      44.298  36.004  34.720  1.00  0.00     0.059 A 
ATOM     91  F   UNL A   1      44.229  35.131  32.548  1.00  0.00    -0.206 F 
ATOM     92  C   UNL A   1      43.884  35.942  36.049  1.00  0.00     0.060 A 
BRANCH  92  93
ATOM     93  S   UNL A   1      44.399  37.213  37.222  1.00  0.00     0.124 S 
ATOM     94  O   UNL A   1      44.313  38.418  36.404  1.00  0.00    -0.237 OA
ATOM     95  O   UNL A   1      43.398  37.090  38.278  1.00  0.00    -0.237 OA
ATOM     96  O   UNL A   1      45.749  36.802  37.597  1.00  0.00    -0.744 OA
ENDBRANCH  92  93
ENDBRANCH  60  85
ENDBRANCH  34  35
ENDBRANCH  27  29
ENDBRANCH  26  27
ENDBRANCH  25  26
ENDBRANCH   1  25
TORSDOF 18
ENDMDL
