MODEL 1
REMARK VINA RESULT:     -10.4      0.000      0.000
REMARK SMILES CC(C)(C)OC(=O)N[C@H](Cc1ccc(N=[N+]=[N-])cc1)C(=O)OCCOCCOC(=O)c1ccc(-c2c3nc(c(-c4c(F)cc(S(=O)(=O)[O-])cc4F)c4ccc([nH]4)c(-c4c(F)cc(S(=O)(=O)[O-])cc4F)c4nc(c(-c5c(F)cc(S(=O)(=O)[O-])cc5F)c5ccc2[nH]5)C=C4)C=C3)cc1
REMARK SMILES IDX 25 1 24 2 23 3 22 4 20 5 21 6 9 7 8 8 6 9 7 10 5 12 2 13
REMARK SMILES IDX 1 14 3 15 4 16 10 17 11 18 12 19 19 20 13 21 18 22 14 23
REMARK SMILES IDX 15 24 16 25 17 26 26 27 27 28 28 29 29 30 30 31 31 32 32 33
REMARK SMILES IDX 96 34 33 35 95 36 34 37 35 38 36 39 89 40 37 41 94 42 88 43
REMARK SMILES IDX 90 44 38 45 93 46 87 47 86 48 39 50 73 51 52 52 72 53 53 54
REMARK SMILES IDX 56 55 71 56 91 57 54 58 55 59 70 61 92 62 57 63 40 64 41 65
REMARK SMILES IDX 50 66 42 67 43 68 49 69 51 70 44 71 45 72 46 73 47 74 48 75
REMARK SMILES IDX 74 76 75 77 84 78 76 79 77 80 83 81 85 82 78 83 79 84 80 85
REMARK SMILES IDX 81 86 82 87 58 88 59 89 68 90 60 91 61 92 67 93 69 94 62 95
REMARK SMILES IDX 63 96 64 97 65 98 66 99
REMARK H PARENT 8 11 90 49 56 60
REMARK Flexibility Score: inf
ROOT
ATOM      1  O   UNL A   1      31.483  28.398  26.311  1.00  0.00    -0.374 OA
ENDROOT
BRANCH   1   2
ATOM      2  C   UNL A   1      32.354  27.371  26.768  1.00  0.00     0.202 C 
BRANCH   2   3
ATOM      3  C   UNL A   1      32.927  26.402  25.725  1.00  0.00     0.261 C 
BRANCH   3   4
ATOM      4  O   UNL A   1      33.108  25.035  26.145  1.00  0.00    -0.462 OA
BRANCH   4   5
ATOM      5  C   UNL A   1      31.951  24.322  26.241  1.00  0.00     0.329 C 
ATOM      6  O   UNL A   1      31.184  24.387  27.201  1.00  0.00    -0.250 OA
BRANCH   5   7
ATOM      7  C   UNL A   1      31.764  23.265  25.144  1.00  0.00     0.199 C 
BRANCH   7   8
ATOM      8  N   UNL A   1      33.130  23.078  24.638  1.00  0.00    -0.308 N 
ATOM      9  C   UNL A   1      33.930  22.002  24.813  1.00  0.00     0.408 C 
ATOM     10  O   UNL A   1      35.072  21.994  24.378  1.00  0.00    -0.225 OA
ATOM     11  H   UNL A   1      33.505  23.820  24.111  1.00  0.00     0.168 HD
BRANCH   9  12
ATOM     12  O   UNL A   1      33.317  20.994  25.474  1.00  0.00    -0.444 OA
BRANCH  12  13
ATOM     13  C   UNL A   1      33.295  19.670  24.885  1.00  0.00     0.106 C 
ATOM     14  C   UNL A   1      32.508  19.834  23.577  1.00  0.00     0.056 C 
ATOM     15  C   UNL A   1      32.555  18.664  25.774  1.00  0.00     0.056 C 
ATOM     16  C   UNL A   1      34.717  19.205  24.545  1.00  0.00     0.056 C 
ENDBRANCH  12  13
ENDBRANCH   9  12
ENDBRANCH   7   8
BRANCH   7  17
ATOM     17  C   UNL A   1      30.799  23.547  23.983  1.00  0.00     0.072 C 
BRANCH  17  18
ATOM     18  C   UNL A   1      30.663  24.989  23.546  1.00  0.00    -0.045 A 
ATOM     19  C   UNL A   1      31.511  25.486  22.552  1.00  0.00     0.004 A 
ATOM     20  C   UNL A   1      29.681  25.846  24.062  1.00  0.00     0.004 A 
ATOM     21  C   UNL A   1      31.441  26.821  22.144  1.00  0.00     0.010 A 
ATOM     22  C   UNL A   1      29.616  27.188  23.652  1.00  0.00     0.010 A 
ATOM     23  C   UNL A   1      30.515  27.692  22.708  1.00  0.00     0.038 A 
BRANCH  23  24
ATOM     24  N   UNL A   1      30.610  29.062  22.402  1.00  0.00    -0.061 NA
ATOM     25  N   UNL A   1      29.611  29.534  21.842  1.00  0.00     0.005 N 
ATOM     26  N   UNL A   1      28.696  30.003  21.338  1.00  0.00    -0.003 NA
ENDBRANCH  23  24
ENDBRANCH  17  18
ENDBRANCH   7  17
ENDBRANCH   5   7
ENDBRANCH   4   5
ENDBRANCH   3   4
ENDBRANCH   2   3
ENDBRANCH   1   2
BRANCH   1  27
ATOM     27  C   UNL A   1      32.061  29.659  25.971  1.00  0.00     0.202 C 
BRANCH  27  28
ATOM     28  C   UNL A   1      32.645  30.479  27.126  1.00  0.00     0.261 C 
BRANCH  28  29
ATOM     29  O   UNL A   1      34.078  30.591  27.018  1.00  0.00    -0.460 OA
BRANCH  29  30
ATOM     30  C   UNL A   1      34.700  30.949  28.166  1.00  0.00     0.338 C 
ATOM     31  O   UNL A   1      34.270  31.688  29.034  1.00  0.00    -0.246 OA
BRANCH  30  32
ATOM     32  C   UNL A   1      35.974  30.219  28.299  1.00  0.00     0.060 A 
ATOM     33  C   UNL A   1      36.346  29.745  29.561  1.00  0.00     0.016 A 
ATOM     34  C   UNL A   1      36.863  30.136  27.226  1.00  0.00     0.016 A 
ATOM     35  C   UNL A   1      37.632  29.231  29.760  1.00  0.00     0.010 A 
ATOM     36  C   UNL A   1      38.138  29.594  27.421  1.00  0.00     0.010 A 
ATOM     37  C   UNL A   1      38.549  29.181  28.699  1.00  0.00    -0.014 A 
BRANCH  37  38
ATOM     38  C   UNL A   1      39.973  28.823  28.946  1.00  0.00     0.031 A 
ATOM     39  C   UNL A   1      40.907  29.850  29.536  1.00  0.00     0.074 A 
ATOM     40  C   UNL A   1      40.436  27.593  28.655  1.00  0.00     0.049 A 
ATOM     41  N   UNL A   1      42.185  29.753  29.798  1.00  0.00    -0.248 NA
ATOM     42  C   UNL A   1      40.325  31.160  29.869  1.00  0.00     0.031 C 
ATOM     43  C   UNL A   1      39.642  26.502  28.095  1.00  0.00     0.029 A 
ATOM     44  N   UNL A   1      41.695  27.060  28.784  1.00  0.00    -0.354 N 
ATOM     45  C   UNL A   1      42.562  30.985  30.322  1.00  0.00     0.074 A 
ATOM     46  C   UNL A   1      41.384  31.826  30.306  1.00  0.00     0.031 C 
ATOM     47  C   UNL A   1      40.433  25.428  27.926  1.00  0.00     0.029 A 
ATOM     48  C   UNL A   1      41.796  25.764  28.335  1.00  0.00     0.049 A 
ATOM     49  H   UNL A   1      42.456  27.558  29.163  1.00  0.00     0.167 HD
ATOM     50  C   UNL A   1      43.772  31.379  30.788  1.00  0.00     0.037 A 
ATOM     51  C   UNL A   1      42.864  24.946  28.246  1.00  0.00     0.037 A 
ATOM     52  C   UNL A   1      44.945  30.543  30.816  1.00  0.00     0.049 A 
ATOM     53  C   UNL A   1      44.213  25.421  28.722  1.00  0.00     0.074 A 
ATOM     54  C   UNL A   1      46.206  30.849  31.298  1.00  0.00     0.029 A 
ATOM     55  N   UNL A   1      45.005  29.242  30.340  1.00  0.00    -0.354 N 
ATOM     56  N   UNL A   1      44.542  26.578  29.247  1.00  0.00    -0.248 NA
ATOM     57  C   UNL A   1      45.336  24.480  28.596  1.00  0.00     0.031 C 
ATOM     58  C   UNL A   1      47.041  29.750  31.072  1.00  0.00     0.029 A 
ATOM     59  C   UNL A   1      46.287  28.740  30.496  1.00  0.00     0.049 A 
ATOM     60  H   UNL A   1      44.250  28.748  29.949  1.00  0.00     0.167 HD
ATOM     61  C   UNL A   1      45.899  26.488  29.547  1.00  0.00     0.074 A 
ATOM     62  C   UNL A   1      46.330  25.166  29.145  1.00  0.00     0.031 C 
ATOM     63  C   UNL A   1      46.709  27.416  30.113  1.00  0.00     0.037 A 
BRANCH  50  64
ATOM     64  C   UNL A   1      43.900  32.788  31.298  1.00  0.00     0.058 A 
ATOM     65  C   UNL A   1      44.219  33.855  30.444  1.00  0.00     0.135 A 
ATOM     66  C   UNL A   1      43.650  33.080  32.649  1.00  0.00     0.135 A 
ATOM     67  F   UNL A   1      44.480  33.629  29.148  1.00  0.00    -0.206 F 
ATOM     68  C   UNL A   1      44.311  35.161  30.917  1.00  0.00     0.059 A 
ATOM     69  C   UNL A   1      43.711  34.382  33.138  1.00  0.00     0.059 A 
ATOM     70  F   UNL A   1      43.338  32.097  33.507  1.00  0.00    -0.206 F 
ATOM     71  C   UNL A   1      44.057  35.413  32.266  1.00  0.00     0.060 A 
BRANCH  71  72
ATOM     72  S   UNL A   1      44.178  37.113  32.864  1.00  0.00     0.124 S 
ATOM     73  O   UNL A   1      44.004  37.868  31.627  1.00  0.00    -0.237 OA
ATOM     74  O   UNL A   1      43.073  37.190  33.813  1.00  0.00    -0.237 OA
ATOM     75  O   UNL A   1      45.513  37.173  33.453  1.00  0.00    -0.744 OA
ENDBRANCH  71  72
ENDBRANCH  50  64
BRANCH  51  76
ATOM     76  C   UNL A   1      42.703  23.581  27.680  1.00  0.00     0.058 A 
ATOM     77  C   UNL A   1      42.808  23.351  26.300  1.00  0.00     0.135 A 
ATOM     78  C   UNL A   1      42.444  22.479  28.510  1.00  0.00     0.135 A 
ATOM     79  F   UNL A   1      43.045  24.375  25.466  1.00  0.00    -0.206 F 
ATOM     80  C   UNL A   1      42.650  22.079  25.761  1.00  0.00     0.059 A 
ATOM     81  C   UNL A   1      42.306  21.194  27.996  1.00  0.00     0.059 A 
ATOM     82  F   UNL A   1      42.345  22.646  29.838  1.00  0.00    -0.206 F 
ATOM     83  C   UNL A   1      42.401  21.006  26.619  1.00  0.00     0.060 A 
BRANCH  83  84
ATOM     84  S   UNL A   1      42.247  19.350  25.913  1.00  0.00     0.124 S 
ATOM     85  O   UNL A   1      43.055  19.470  24.705  1.00  0.00    -0.237 OA
ATOM     86  O   UNL A   1      42.801  18.513  26.973  1.00  0.00    -0.237 OA
ATOM     87  O   UNL A   1      40.810  19.210  25.701  1.00  0.00    -0.744 OA
ENDBRANCH  83  84
ENDBRANCH  51  76
BRANCH  63  88
ATOM     88  C   UNL A   1      48.139  27.035  30.386  1.00  0.00     0.058 A 
ATOM     89  C   UNL A   1      49.191  27.464  29.562  1.00  0.00     0.135 A 
ATOM     90  C   UNL A   1      48.466  26.295  31.535  1.00  0.00     0.135 A 
ATOM     91  F   UNL A   1      48.934  28.168  28.449  1.00  0.00    -0.206 F 
ATOM     92  C   UNL A   1      50.517  27.166  29.864  1.00  0.00     0.059 A 
ATOM     93  C   UNL A   1      49.785  26.007  31.868  1.00  0.00     0.059 A 
ATOM     94  F   UNL A   1      47.498  25.867  32.361  1.00  0.00    -0.206 F 
ATOM     95  C   UNL A   1      50.805  26.441  31.022  1.00  0.00     0.060 A 
BRANCH  95  96
ATOM     96  S   UNL A   1      52.532  26.111  31.433  1.00  0.00     0.124 S 
ATOM     97  O   UNL A   1      52.877  27.288  32.224  1.00  0.00    -0.237 OA
ATOM     98  O   UNL A   1      52.444  24.855  32.172  1.00  0.00    -0.237 OA
ATOM     99  O   UNL A   1      53.181  26.018  30.129  1.00  0.00    -0.744 OA
ENDBRANCH  95  96
ENDBRANCH  63  88
ENDBRANCH  37  38
ENDBRANCH  30  32
ENDBRANCH  29  30
ENDBRANCH  28  29
ENDBRANCH  27  28
ENDBRANCH   1  27
TORSDOF 23
ENDMDL
MODEL 2
REMARK VINA RESULT:     -10.0      2.362      2.862
REMARK SMILES CC(C)(C)OC(=O)N[C@H](Cc1ccc(N=[N+]=[N-])cc1)C(=O)OCCOCCOC(=O)c1ccc(-c2c3nc(c(-c4c(F)cc(S(=O)(=O)[O-])cc4F)c4ccc([nH]4)c(-c4c(F)cc(S(=O)(=O)[O-])cc4F)c4nc(c(-c5c(F)cc(S(=O)(=O)[O-])cc5F)c5ccc2[nH]5)C=C4)C=C3)cc1
REMARK SMILES IDX 25 1 24 2 23 3 22 4 20 5 21 6 9 7 8 8 6 9 7 10 5 12 2 13
REMARK SMILES IDX 1 14 3 15 4 16 10 17 11 18 12 19 19 20 13 21 18 22 14 23
REMARK SMILES IDX 15 24 16 25 17 26 26 27 27 28 28 29 29 30 30 31 31 32 32 33
REMARK SMILES IDX 96 34 33 35 95 36 34 37 35 38 36 39 89 40 37 41 94 42 88 43
REMARK SMILES IDX 90 44 38 45 93 46 87 47 86 48 39 50 73 51 52 52 72 53 53 54
REMARK SMILES IDX 56 55 71 56 91 57 54 58 55 59 70 61 92 62 57 63 40 64 41 65
REMARK SMILES IDX 50 66 42 67 43 68 49 69 51 70 44 71 45 72 46 73 47 74 48 75
REMARK SMILES IDX 74 76 75 77 84 78 76 79 77 80 83 81 85 82 78 83 79 84 80 85
REMARK SMILES IDX 81 86 82 87 58 88 59 89 68 90 60 91 61 92 67 93 69 94 62 95
REMARK SMILES IDX 63 96 64 97 65 98 66 99
REMARK H PARENT 8 11 90 49 56 60
REMARK Flexibility Score: inf
ROOT
ATOM      1  O   UNL A   1      31.293  28.229  26.192  1.00  0.00    -0.374 OA
ENDROOT
BRANCH   1   2
ATOM      2  C   UNL A   1      32.239  27.342  26.777  1.00  0.00     0.202 C 
BRANCH   2   3
ATOM      3  C   UNL A   1      33.124  26.516  25.834  1.00  0.00     0.261 C 
BRANCH   3   4
ATOM      4  O   UNL A   1      33.235  25.108  26.122  1.00  0.00    -0.462 OA
BRANCH   4   5
ATOM      5  C   UNL A   1      32.041  24.454  26.184  1.00  0.00     0.329 C 
ATOM      6  O   UNL A   1      31.252  24.558  27.122  1.00  0.00    -0.250 OA
BRANCH   5   7
ATOM      7  C   UNL A   1      31.832  23.408  25.082  1.00  0.00     0.199 C 
BRANCH   7   8
ATOM      8  N   UNL A   1      33.179  23.262  24.514  1.00  0.00    -0.308 N 
ATOM      9  C   UNL A   1      34.046  22.242  24.710  1.00  0.00     0.408 C 
ATOM     10  O   UNL A   1      35.163  22.267  24.214  1.00  0.00    -0.225 OA
ATOM     11  H   UNL A   1      33.485  23.988  23.925  1.00  0.00     0.168 HD
BRANCH   9  12
ATOM     12  O   UNL A   1      33.525  21.246  25.462  1.00  0.00    -0.444 OA
BRANCH  12  13
ATOM     13  C   UNL A   1      33.293  19.949  24.859  1.00  0.00     0.106 C 
ATOM     14  C   UNL A   1      34.695  19.367  24.626  1.00  0.00     0.056 C 
ATOM     15  C   UNL A   1      32.586  20.070  23.503  1.00  0.00     0.056 C 
ATOM     16  C   UNL A   1      32.537  19.030  25.826  1.00  0.00     0.056 C 
ENDBRANCH  12  13
ENDBRANCH   9  12
ENDBRANCH   7   8
BRANCH   7  17
ATOM     17  C   UNL A   1      30.811  23.681  23.967  1.00  0.00     0.072 C 
BRANCH  17  18
ATOM     18  C   UNL A   1      30.656  25.120  23.524  1.00  0.00    -0.045 A 
ATOM     19  C   UNL A   1      31.570  25.658  22.613  1.00  0.00     0.004 A 
ATOM     20  C   UNL A   1      29.598  25.933  23.952  1.00  0.00     0.004 A 
ATOM     21  C   UNL A   1      31.482  26.991  22.204  1.00  0.00     0.010 A 
ATOM     22  C   UNL A   1      29.515  27.274  23.542  1.00  0.00     0.010 A 
ATOM     23  C   UNL A   1      30.474  27.820  22.684  1.00  0.00     0.038 A 
BRANCH  23  24
ATOM     24  N   UNL A   1      30.540  29.195  22.393  1.00  0.00    -0.061 NA
ATOM     25  N   UNL A   1      29.553  29.640  21.792  1.00  0.00     0.005 N 
ATOM     26  N   UNL A   1      28.647  30.085  21.252  1.00  0.00    -0.003 NA
ENDBRANCH  23  24
ENDBRANCH  17  18
ENDBRANCH   7  17
ENDBRANCH   5   7
ENDBRANCH   4   5
ENDBRANCH   3   4
ENDBRANCH   2   3
ENDBRANCH   1   2
BRANCH   1  27
ATOM     27  C   UNL A   1      31.768  29.486  25.709  1.00  0.00     0.202 C 
BRANCH  27  28
ATOM     28  C   UNL A   1      32.404  30.422  26.742  1.00  0.00     0.261 C 
BRANCH  28  29
ATOM     29  O   UNL A   1      33.843  30.384  26.670  1.00  0.00    -0.460 OA
BRANCH  29  30
ATOM     30  C   UNL A   1      34.470  31.098  27.635  1.00  0.00     0.338 C 
ATOM     31  O   UNL A   1      34.073  32.118  28.168  1.00  0.00    -0.246 OA
BRANCH  30  32
ATOM     32  C   UNL A   1      35.698  30.400  28.059  1.00  0.00     0.060 A 
ATOM     33  C   UNL A   1      35.688  29.705  29.273  1.00  0.00     0.016 A 
ATOM     34  C   UNL A   1      36.889  30.557  27.348  1.00  0.00     0.016 A 
ATOM     35  C   UNL A   1      36.885  29.207  29.800  1.00  0.00     0.010 A 
ATOM     36  C   UNL A   1      38.080  30.032  27.863  1.00  0.00     0.010 A 
ATOM     37  C   UNL A   1      38.095  29.395  29.115  1.00  0.00    -0.014 A 
BRANCH  37  38
ATOM     38  C   UNL A   1      39.391  29.046  29.758  1.00  0.00     0.031 A 
ATOM     39  C   UNL A   1      39.875  29.848  30.942  1.00  0.00     0.074 A 
ATOM     40  C   UNL A   1      40.134  28.020  29.304  1.00  0.00     0.049 A 
ATOM     41  N   UNL A   1      40.984  29.730  31.624  1.00  0.00    -0.248 NA
ATOM     42  C   UNL A   1      38.992  30.927  31.414  1.00  0.00     0.031 C 
ATOM     43  C   UNL A   1      39.782  27.155  28.180  1.00  0.00     0.029 A 
ATOM     44  N   UNL A   1      41.349  27.540  29.728  1.00  0.00    -0.354 N 
ATOM     45  C   UNL A   1      40.939  30.719  32.601  1.00  0.00     0.074 A 
ATOM     46  C   UNL A   1      39.707  31.451  32.399  1.00  0.00     0.031 C 
ATOM     47  C   UNL A   1      40.759  26.249  28.002  1.00  0.00     0.029 A 
ATOM     48  C   UNL A   1      41.822  26.490  28.978  1.00  0.00     0.049 A 
ATOM     49  H   UNL A   1      41.836  27.912  30.499  1.00  0.00     0.167 HD
ATOM     50  C   UNL A   1      41.831  30.985  33.586  1.00  0.00     0.037 A 
ATOM     51  C   UNL A   1      42.984  25.810  29.053  1.00  0.00     0.037 A 
ATOM     52  C   UNL A   1      43.052  30.253  33.798  1.00  0.00     0.049 A 
ATOM     53  C   UNL A   1      43.987  26.156  30.124  1.00  0.00     0.074 A 
ATOM     54  C   UNL A   1      44.002  30.435  34.789  1.00  0.00     0.029 A 
ATOM     55  N   UNL A   1      43.499  29.205  33.006  1.00  0.00    -0.354 N 
ATOM     56  N   UNL A   1      43.910  27.071  31.061  1.00  0.00    -0.248 NA
ATOM     57  C   UNL A   1      45.233  25.377  30.149  1.00  0.00     0.031 C 
ATOM     58  C   UNL A   1      45.044  29.528  34.570  1.00  0.00     0.029 A 
ATOM     59  C   UNL A   1      44.719  28.746  33.474  1.00  0.00     0.049 A 
ATOM     60  H   UNL A   1      43.019  28.841  32.228  1.00  0.00     0.167 HD
ATOM     61  C   UNL A   1      45.078  26.951  31.808  1.00  0.00     0.074 A 
ATOM     62  C   UNL A   1      45.846  25.877  31.215  1.00  0.00     0.031 C 
ATOM     63  C   UNL A   1      45.472  27.663  32.892  1.00  0.00     0.037 A 
BRANCH  50  64
ATOM     64  C   UNL A   1      41.528  32.131  34.511  1.00  0.00     0.058 A 
ATOM     65  C   UNL A   1      41.984  33.433  34.247  1.00  0.00     0.135 A 
ATOM     66  C   UNL A   1      40.728  31.935  35.649  1.00  0.00     0.135 A 
ATOM     67  F   UNL A   1      42.762  33.673  33.181  1.00  0.00    -0.206 F 
ATOM     68  C   UNL A   1      41.680  34.494  35.094  1.00  0.00     0.059 A 
ATOM     69  C   UNL A   1      40.390  32.987  36.495  1.00  0.00     0.059 A 
ATOM     70  F   UNL A   1      40.264  30.711  35.946  1.00  0.00    -0.206 F 
ATOM     71  C   UNL A   1      40.884  34.261  36.216  1.00  0.00     0.060 A 
BRANCH  71  72
ATOM     72  S   UNL A   1      40.496  35.649  37.304  1.00  0.00     0.124 S 
ATOM     73  O   UNL A   1      39.649  36.466  36.440  1.00  0.00    -0.237 OA
ATOM     74  O   UNL A   1      39.818  34.994  38.417  1.00  0.00    -0.237 OA
ATOM     75  O   UNL A   1      41.805  36.215  37.614  1.00  0.00    -0.744 OA
ENDBRANCH  71  72
ENDBRANCH  50  64
BRANCH  51  76
ATOM     76  C   UNL A   1      43.267  24.722  28.080  1.00  0.00     0.058 A 
ATOM     77  C   UNL A   1      43.900  24.990  26.857  1.00  0.00     0.135 A 
ATOM     78  C   UNL A   1      42.912  23.392  28.356  1.00  0.00     0.135 A 
ATOM     79  F   UNL A   1      44.249  26.247  26.544  1.00  0.00    -0.206 F 
ATOM     80  C   UNL A   1      44.160  23.981  25.936  1.00  0.00     0.059 A 
ATOM     81  C   UNL A   1      43.184  22.363  27.461  1.00  0.00     0.059 A 
ATOM     82  F   UNL A   1      42.314  23.084  29.517  1.00  0.00    -0.206 F 
ATOM     83  C   UNL A   1      43.800  22.669  26.250  1.00  0.00     0.060 A 
BRANCH  83  84
ATOM     84  S   UNL A   1      44.188  21.358  25.069  1.00  0.00     0.124 S 
ATOM     85  O   UNL A   1      45.508  20.936  25.523  1.00  0.00    -0.237 OA
ATOM     86  O   UNL A   1      43.101  20.411  25.295  1.00  0.00    -0.237 OA
ATOM     87  O   UNL A   1      44.152  22.047  23.783  1.00  0.00    -0.744 OA
ENDBRANCH  83  84
ENDBRANCH  51  76
BRANCH  63  88
ATOM     88  C   UNL A   1      46.769  27.283  33.555  1.00  0.00     0.058 A 
ATOM     89  C   UNL A   1      47.985  27.895  33.210  1.00  0.00     0.135 A 
ATOM     90  C   UNL A   1      46.779  26.349  34.604  1.00  0.00     0.135 A 
ATOM     91  F   UNL A   1      48.032  28.788  32.211  1.00  0.00    -0.206 F 
ATOM     92  C   UNL A   1      49.167  27.588  33.879  1.00  0.00     0.059 A 
ATOM     93  C   UNL A   1      47.944  26.045  35.302  1.00  0.00     0.059 A 
ATOM     94  F   UNL A   1      45.643  25.741  34.979  1.00  0.00    -0.206 F 
ATOM     95  C   UNL A   1      49.136  26.666  34.927  1.00  0.00     0.060 A 
BRANCH  95  96
ATOM     96  S   UNL A   1      50.664  26.319  35.824  1.00  0.00     0.124 S 
ATOM     97  O   UNL A   1      50.408  24.975  36.333  1.00  0.00    -0.237 OA
ATOM     98  O   UNL A   1      51.673  26.416  34.773  1.00  0.00    -0.237 OA
ATOM     99  O   UNL A   1      50.716  27.373  36.831  1.00  0.00    -0.744 OA
ENDBRANCH  95  96
ENDBRANCH  63  88
ENDBRANCH  37  38
ENDBRANCH  30  32
ENDBRANCH  29  30
ENDBRANCH  28  29
ENDBRANCH  27  28
ENDBRANCH   1  27
TORSDOF 23
ENDMDL
MODEL 3
REMARK VINA RESULT:      -9.1      5.215     11.592
REMARK SMILES CC(C)(C)OC(=O)N[C@H](Cc1ccc(N=[N+]=[N-])cc1)C(=O)OCCOCCOC(=O)c1ccc(-c2c3nc(c(-c4c(F)cc(S(=O)(=O)[O-])cc4F)c4ccc([nH]4)c(-c4c(F)cc(S(=O)(=O)[O-])cc4F)c4nc(c(-c5c(F)cc(S(=O)(=O)[O-])cc5F)c5ccc2[nH]5)C=C4)C=C3)cc1
REMARK SMILES IDX 25 1 24 2 23 3 22 4 20 5 21 6 9 7 8 8 6 9 7 10 5 12 2 13
REMARK SMILES IDX 1 14 3 15 4 16 10 17 11 18 12 19 19 20 13 21 18 22 14 23
REMARK SMILES IDX 15 24 16 25 17 26 26 27 27 28 28 29 29 30 30 31 31 32 32 33
REMARK SMILES IDX 96 34 33 35 95 36 34 37 35 38 36 39 89 40 37 41 94 42 88 43
REMARK SMILES IDX 90 44 38 45 93 46 87 47 86 48 39 50 73 51 52 52 72 53 53 54
REMARK SMILES IDX 56 55 71 56 91 57 54 58 55 59 70 61 92 62 57 63 40 64 41 65
REMARK SMILES IDX 50 66 42 67 43 68 49 69 51 70 44 71 45 72 46 73 47 74 48 75
REMARK SMILES IDX 74 76 75 77 84 78 76 79 77 80 83 81 85 82 78 83 79 84 80 85
REMARK SMILES IDX 81 86 82 87 58 88 59 89 68 90 60 91 61 92 67 93 69 94 62 95
REMARK SMILES IDX 63 96 64 97 65 98 66 99
REMARK H PARENT 8 11 90 49 56 60
REMARK Flexibility Score: inf
ROOT
ATOM      1  O   UNL A   1      35.598  33.918  29.432  1.00  0.00    -0.374 OA
ENDROOT
BRANCH   1   2
ATOM      2  C   UNL A   1      34.329  34.537  29.602  1.00  0.00     0.202 C 
BRANCH   2   3
ATOM      3  C   UNL A   1      33.882  34.873  31.032  1.00  0.00     0.261 C 
BRANCH   3   4
ATOM      4  O   UNL A   1      34.540  34.159  32.097  1.00  0.00    -0.462 OA
BRANCH   4   5
ATOM      5  C   UNL A   1      35.403  34.917  32.830  1.00  0.00     0.329 C 
ATOM      6  O   UNL A   1      35.134  36.038  33.259  1.00  0.00    -0.250 OA
BRANCH   5   7
ATOM      7  C   UNL A   1      36.827  34.354  32.916  1.00  0.00     0.199 C 
BRANCH   7   8
ATOM      8  N   UNL A   1      37.348  34.577  31.561  1.00  0.00    -0.308 N 
ATOM      9  C   UNL A   1      38.637  34.766  31.198  1.00  0.00     0.408 C 
ATOM     10  O   UNL A   1      38.932  34.992  30.033  1.00  0.00    -0.225 OA
ATOM     11  H   UNL A   1      36.682  34.591  30.836  1.00  0.00     0.168 HD
BRANCH   9  12
ATOM     12  O   UNL A   1      39.497  34.652  32.234  1.00  0.00    -0.444 OA
BRANCH  12  13
ATOM     13  C   UNL A   1      40.633  33.759  32.118  1.00  0.00     0.106 C 
ATOM     14  C   UNL A   1      41.206  33.663  33.540  1.00  0.00     0.056 C 
ATOM     15  C   UNL A   1      41.715  34.332  31.196  1.00  0.00     0.056 C 
ATOM     16  C   UNL A   1      40.179  32.361  31.679  1.00  0.00     0.056 C 
ENDBRANCH  12  13
ENDBRANCH   9  12
ENDBRANCH   7   8
BRANCH   7  17
ATOM     17  C   UNL A   1      37.035  32.890  33.332  1.00  0.00     0.072 C 
BRANCH  17  18
ATOM     18  C   UNL A   1      37.365  32.637  34.788  1.00  0.00    -0.045 A 
ATOM     19  C   UNL A   1      36.990  33.580  35.749  1.00  0.00     0.004 A 
ATOM     20  C   UNL A   1      37.991  31.463  35.228  1.00  0.00     0.004 A 
ATOM     21  C   UNL A   1      37.305  33.401  37.098  1.00  0.00     0.010 A 
ATOM     22  C   UNL A   1      38.309  31.287  36.584  1.00  0.00     0.010 A 
ATOM     23  C   UNL A   1      37.991  32.269  37.526  1.00  0.00     0.038 A 
BRANCH  23  24
ATOM     24  N   UNL A   1      38.448  32.225  38.856  1.00  0.00    -0.061 NA
ATOM     25  N   UNL A   1      37.633  32.635  39.694  1.00  0.00     0.005 N 
ATOM     26  N   UNL A   1      36.895  32.993  40.493  1.00  0.00    -0.003 NA
ENDBRANCH  23  24
ENDBRANCH  17  18
ENDBRANCH   7  17
ENDBRANCH   5   7
ENDBRANCH   4   5
ENDBRANCH   3   4
ENDBRANCH   2   3
ENDBRANCH   1   2
BRANCH   1  27
ATOM     27  C   UNL A   1      35.813  33.153  28.246  1.00  0.00     0.202 C 
BRANCH  27  28
ATOM     28  C   UNL A   1      35.246  31.729  28.236  1.00  0.00     0.261 C 
BRANCH  28  29
ATOM     29  O   UNL A   1      35.855  30.916  29.259  1.00  0.00    -0.460 OA
BRANCH  29  30
ATOM     30  C   UNL A   1      36.307  29.716  28.824  1.00  0.00     0.338 C 
ATOM     31  O   UNL A   1      35.637  28.740  28.533  1.00  0.00    -0.246 OA
BRANCH  30  32
ATOM     32  C   UNL A   1      37.768  29.768  28.631  1.00  0.00     0.060 A 
ATOM     33  C   UNL A   1      38.274  29.726  27.328  1.00  0.00     0.016 A 
ATOM     34  C   UNL A   1      38.633  29.701  29.724  1.00  0.00     0.016 A 
ATOM     35  C   UNL A   1      39.648  29.569  27.120  1.00  0.00     0.010 A 
ATOM     36  C   UNL A   1      40.011  29.574  29.513  1.00  0.00     0.010 A 
ATOM     37  C   UNL A   1      40.524  29.459  28.210  1.00  0.00    -0.014 A 
BRANCH  37  38
ATOM     38  C   UNL A   1      41.952  29.096  28.001  1.00  0.00     0.031 A 
ATOM     39  C   UNL A   1      42.319  27.663  27.699  1.00  0.00     0.074 A 
ATOM     40  C   UNL A   1      42.920  30.028  28.070  1.00  0.00     0.049 A 
ATOM     41  N   UNL A   1      43.500  27.132  27.515  1.00  0.00    -0.248 NA
ATOM     42  C   UNL A   1      41.208  26.704  27.594  1.00  0.00     0.031 C 
ATOM     43  C   UNL A   1      42.707  31.448  28.341  1.00  0.00     0.029 A 
ATOM     44  N   UNL A   1      44.282  29.915  27.929  1.00  0.00    -0.354 N 
ATOM     45  C   UNL A   1      43.278  25.779  27.279  1.00  0.00     0.074 A 
ATOM     46  C   UNL A   1      41.850  25.565  27.379  1.00  0.00     0.031 C 
ATOM     47  C   UNL A   1      43.896  32.075  28.347  1.00  0.00     0.029 A 
ATOM     48  C   UNL A   1      44.958  31.097  28.114  1.00  0.00     0.049 A 
ATOM     49  H   UNL A   1      44.732  29.065  27.714  1.00  0.00     0.167 HD
ATOM     50  C   UNL A   1      44.176  24.806  26.991  1.00  0.00     0.037 A 
ATOM     51  C   UNL A   1      46.280  31.362  28.113  1.00  0.00     0.037 A 
ATOM     52  C   UNL A   1      45.596  25.016  26.880  1.00  0.00     0.049 A 
ATOM     53  C   UNL A   1      47.266  30.254  27.842  1.00  0.00     0.074 A 
ATOM     54  C   UNL A   1      46.578  24.093  26.562  1.00  0.00     0.029 A 
ATOM     55  N   UNL A   1      46.240  26.227  27.088  1.00  0.00    -0.354 N 
ATOM     56  N   UNL A   1      47.034  28.989  27.586  1.00  0.00    -0.248 NA
ATOM     57  C   UNL A   1      48.692  30.611  27.858  1.00  0.00     0.031 C 
ATOM     58  C   UNL A   1      47.820  24.735  26.623  1.00  0.00     0.029 A 
ATOM     59  C   UNL A   1      47.607  26.070  26.927  1.00  0.00     0.049 A 
ATOM     60  H   UNL A   1      45.792  27.073  27.316  1.00  0.00     0.167 HD
ATOM     61  C   UNL A   1      48.282  28.409  27.372  1.00  0.00     0.074 A 
ATOM     62  C   UNL A   1      49.265  29.459  27.531  1.00  0.00     0.031 C 
ATOM     63  C   UNL A   1      48.582  27.123  27.066  1.00  0.00     0.037 A 
BRANCH  50  64
ATOM     64  C   UNL A   1      43.652  23.412  26.785  1.00  0.00     0.058 A 
ATOM     65  C   UNL A   1      43.653  22.803  25.520  1.00  0.00     0.135 A 
ATOM     66  C   UNL A   1      43.191  22.657  27.875  1.00  0.00     0.135 A 
ATOM     67  F   UNL A   1      44.071  23.484  24.442  1.00  0.00    -0.206 F 
ATOM     68  C   UNL A   1      43.190  21.503  25.339  1.00  0.00     0.059 A 
ATOM     69  C   UNL A   1      42.748  21.346  27.722  1.00  0.00     0.059 A 
ATOM     70  F   UNL A   1      43.171  23.190  29.107  1.00  0.00    -0.206 F 
ATOM     71  C   UNL A   1      42.738  20.784  26.446  1.00  0.00     0.060 A 
BRANCH  71  72
ATOM     72  S   UNL A   1      42.143  19.097  26.196  1.00  0.00     0.124 S 
ATOM     73  O   UNL A   1      40.749  19.332  25.836  1.00  0.00    -0.237 OA
ATOM     74  O   UNL A   1      43.003  18.620  25.118  1.00  0.00    -0.237 OA
ATOM     75  O   UNL A   1      42.359  18.464  27.494  1.00  0.00    -0.744 OA
ENDBRANCH  71  72
ENDBRANCH  50  64
BRANCH  51  76
ATOM     76  C   UNL A   1      46.756  32.745  28.380  1.00  0.00     0.058 A 
ATOM     77  C   UNL A   1      46.912  33.672  27.339  1.00  0.00     0.135 A 
ATOM     78  C   UNL A   1      47.062  33.167  29.684  1.00  0.00     0.135 A 
ATOM     79  F   UNL A   1      46.642  33.311  26.075  1.00  0.00    -0.206 F 
ATOM     80  C   UNL A   1      47.366  34.964  27.577  1.00  0.00     0.059 A 
ATOM     81  C   UNL A   1      47.494  34.462  29.950  1.00  0.00     0.059 A 
ATOM     82  F   UNL A   1      46.919  32.320  30.715  1.00  0.00    -0.206 F 
ATOM     83  C   UNL A   1      47.652  35.350  28.888  1.00  0.00     0.060 A 
BRANCH  83  84
ATOM     84  S   UNL A   1      48.193  37.046  29.193  1.00  0.00     0.124 S 
ATOM     85  O   UNL A   1      48.449  37.019  30.629  1.00  0.00    -0.237 OA
ATOM     86  O   UNL A   1      49.369  37.151  28.336  1.00  0.00    -0.237 OA
ATOM     87  O   UNL A   1      47.045  37.843  28.770  1.00  0.00    -0.744 OA
ENDBRANCH  83  84
ENDBRANCH  51  76
BRANCH  63  88
ATOM     88  C   UNL A   1      50.025  26.771  26.826  1.00  0.00     0.058 A 
ATOM     89  C   UNL A   1      50.838  26.242  27.840  1.00  0.00     0.135 A 
ATOM     90  C   UNL A   1      50.577  26.891  25.540  1.00  0.00     0.135 A 
ATOM     91  F   UNL A   1      50.363  26.112  29.088  1.00  0.00    -0.206 F 
ATOM     92  C   UNL A   1      52.151  25.852  27.590  1.00  0.00     0.059 A 
ATOM     93  C   UNL A   1      51.879  26.486  25.261  1.00  0.00     0.059 A 
ATOM     94  F   UNL A   1      49.840  27.383  24.531  1.00  0.00    -0.206 F 
ATOM     95  C   UNL A   1      52.660  25.973  26.295  1.00  0.00     0.060 A 
BRANCH  95  96
ATOM     96  S   UNL A   1      54.346  25.411  25.970  1.00  0.00     0.124 S 
ATOM     97  O   UNL A   1      54.817  25.098  27.316  1.00  0.00    -0.237 OA
ATOM     98  O   UNL A   1      54.130  24.264  25.093  1.00  0.00    -0.237 OA
ATOM     99  O   UNL A   1      54.975  26.566  25.338  1.00  0.00    -0.744 OA
ENDBRANCH  95  96
ENDBRANCH  63  88
ENDBRANCH  37  38
ENDBRANCH  30  32
ENDBRANCH  29  30
ENDBRANCH  28  29
ENDBRANCH  27  28
ENDBRANCH   1  27
TORSDOF 23
ENDMDL
