MODEL 1
REMARK VINA RESULT:     -11.2      0.000      0.000
REMARK SMILES COc1ccc(-c2noc(CC(=O)OCCOCCOC(=O)c3ccc(-c4c5nc(c(-c6c(F)cc(S(=O)(=O)[O-])cc6F)c6ccc([nH]6)c(-c6c(F)cc(S(=O)(=O)[O-])cc6F)c6nc(c(-c7c(F)cc(S(=O)(=O)[O-])cc7F)c7ccc4[nH]7)C=C6)C=C5)cc3)c2-c2ccc(OC)cc2)cc1
REMARK SMILES IDX 17 1 16 2 15 3 14 4 12 5 13 6 11 7 10 8 7 9 8 10 89 11 9 12
REMARK SMILES IDX 6 13 3 14 4 15 99 16 5 17 98 18 2 19 1 20 90 21 91 22 97 23
REMARK SMILES IDX 92 24 96 25 93 26 94 27 95 28 18 29 19 30 20 31 21 32 22 33
REMARK SMILES IDX 23 34 24 35 88 36 25 37 87 38 26 39 27 40 28 41 81 42 29 43
REMARK SMILES IDX 86 44 80 45 82 46 30 47 85 48 79 49 78 50 31 52 65 53 44 54
REMARK SMILES IDX 64 55 45 56 48 57 63 58 83 59 46 60 47 61 62 63 84 64 49 65
REMARK SMILES IDX 32 66 33 67 42 68 34 69 35 70 41 71 43 72 36 73 37 74 38 75
REMARK SMILES IDX 39 76 40 77 66 78 67 79 76 80 68 81 69 82 75 83 77 84 70 85
REMARK SMILES IDX 71 86 72 87 73 88 74 89 50 90 51 91 60 92 52 93 53 94 59 95
REMARK SMILES IDX 61 96 54 97 55 98 56 99 57 100 58 101
REMARK H PARENT 82 51 48 62
REMARK Flexibility Score: inf
ROOT
ATOM      1  O   UNL A   1      31.190  29.159  25.083  1.00  0.00    -0.374 OA
ENDROOT
BRANCH   1   2
ATOM      2  C   UNL A   1      30.695  29.227  23.746  1.00  0.00     0.202 C 
BRANCH   2   3
ATOM      3  C   UNL A   1      31.082  28.079  22.810  1.00  0.00     0.261 C 
BRANCH   3   4
ATOM      4  O   UNL A   1      32.468  28.137  22.426  1.00  0.00    -0.463 OA
BRANCH   4   5
ATOM      5  C   UNL A   1      33.140  26.962  22.496  1.00  0.00     0.313 C 
ATOM      6  O   UNL A   1      33.974  26.587  21.674  1.00  0.00    -0.252 OA
BRANCH   5   7
ATOM      7  C   UNL A   1      32.848  26.122  23.708  1.00  0.00     0.201 C 
BRANCH   7   8
ATOM      8  C   UNL A   1      32.567  24.680  23.498  1.00  0.00     0.156 A 
ATOM      9  C   UNL A   1      32.286  22.479  23.568  1.00  0.00     0.122 A 
ATOM     10  N   UNL A   1      31.130  22.990  23.125  1.00  0.00    -0.079 NA
ATOM     11  C   UNL A   1      33.253  23.512  23.754  1.00  0.00     0.053 A 
ATOM     12  O   UNL A   1      31.302  24.360  23.106  1.00  0.00    -0.359 OA
BRANCH   9  13
ATOM     13  C   UNL A   1      32.426  21.068  23.908  1.00  0.00     0.005 A 
ATOM     14  C   UNL A   1      32.789  18.374  24.609  1.00  0.00     0.118 A 
ATOM     15  C   UNL A   1      32.518  18.732  23.286  1.00  0.00     0.047 A 
ATOM     16  C   UNL A   1      32.893  19.365  25.583  1.00  0.00     0.047 A 
ATOM     17  C   UNL A   1      32.319  20.072  22.936  1.00  0.00     0.014 A 
ATOM     18  C   UNL A   1      32.709  20.705  25.234  1.00  0.00     0.014 A 
BRANCH  14  19
ATOM     19  O   UNL A   1      32.990  17.040  24.837  1.00  0.00    -0.497 OA
ATOM     20  C   UNL A   1      33.866  16.398  23.916  1.00  0.00     0.278 C 
ENDBRANCH  14  19
ENDBRANCH   9  13
BRANCH  11  21
ATOM     21  C   UNL A   1      34.614  23.429  24.232  1.00  0.00    -0.012 A 
ATOM     22  C   UNL A   1      34.926  23.872  25.520  1.00  0.00     0.013 A 
ATOM     23  C   UNL A   1      35.634  22.945  23.405  1.00  0.00     0.013 A 
ATOM     24  C   UNL A   1      36.242  23.810  25.979  1.00  0.00     0.047 A 
ATOM     25  C   UNL A   1      36.948  22.872  23.874  1.00  0.00     0.047 A 
ATOM     26  C   UNL A   1      37.256  23.301  25.165  1.00  0.00     0.118 A 
BRANCH  26  27
ATOM     27  O   UNL A   1      38.499  23.289  25.733  1.00  0.00    -0.497 OA
ATOM     28  C   UNL A   1      38.781  24.323  26.668  1.00  0.00     0.278 C 
ENDBRANCH  26  27
ENDBRANCH  11  21
ENDBRANCH   7   8
ENDBRANCH   5   7
ENDBRANCH   4   5
ENDBRANCH   3   4
ENDBRANCH   2   3
ENDBRANCH   1   2
BRANCH   1  29
ATOM     29  C   UNL A   1      32.338  29.949  25.402  1.00  0.00     0.202 C 
BRANCH  29  30
ATOM     30  C   UNL A   1      32.292  30.760  26.704  1.00  0.00     0.261 C 
BRANCH  30  31
ATOM     31  O   UNL A   1      33.410  30.484  27.568  1.00  0.00    -0.460 OA
BRANCH  31  32
ATOM     32  C   UNL A   1      34.201  31.552  27.818  1.00  0.00     0.338 C 
ATOM     33  O   UNL A   1      33.843  32.714  27.972  1.00  0.00    -0.246 OA
BRANCH  32  34
ATOM     34  C   UNL A   1      35.591  31.127  28.075  1.00  0.00     0.060 A 
ATOM     35  C   UNL A   1      35.829  29.749  28.154  1.00  0.00     0.016 A 
ATOM     36  C   UNL A   1      36.613  32.040  28.347  1.00  0.00     0.016 A 
ATOM     37  C   UNL A   1      37.064  29.277  28.587  1.00  0.00     0.010 A 
ATOM     38  C   UNL A   1      37.855  31.563  28.788  1.00  0.00     0.010 A 
ATOM     39  C   UNL A   1      38.067  30.182  28.961  1.00  0.00    -0.014 A 
BRANCH  39  40
ATOM     40  C   UNL A   1      39.240  29.670  29.712  1.00  0.00     0.031 A 
ATOM     41  C   UNL A   1      39.473  30.163  31.117  1.00  0.00     0.074 A 
ATOM     42  C   UNL A   1      40.037  28.719  29.191  1.00  0.00     0.049 A 
ATOM     43  N   UNL A   1      40.402  29.825  31.973  1.00  0.00    -0.248 NA
ATOM     44  C   UNL A   1      38.525  31.168  31.627  1.00  0.00     0.031 C 
ATOM     45  C   UNL A   1      39.890  28.128  27.862  1.00  0.00     0.029 A 
ATOM     46  N   UNL A   1      41.126  28.076  29.726  1.00  0.00    -0.354 N 
ATOM     47  C   UNL A   1      40.153  30.572  33.119  1.00  0.00     0.074 A 
ATOM     48  C   UNL A   1      39.005  31.407  32.838  1.00  0.00     0.031 C 
ATOM     49  C   UNL A   1      40.853  27.207  27.686  1.00  0.00     0.029 A 
ATOM     50  C   UNL A   1      41.697  27.158  28.879  1.00  0.00     0.049 A 
ATOM     51  H   UNL A   1      41.466  28.257  30.632  1.00  0.00     0.167 HD
ATOM     52  C   UNL A   1      40.809  30.555  34.305  1.00  0.00     0.037 A 
ATOM     53  C   UNL A   1      42.781  26.374  29.044  1.00  0.00     0.037 A 
ATOM     54  C   UNL A   1      41.948  29.721  34.586  1.00  0.00     0.049 A 
ATOM     55  C   UNL A   1      43.529  26.412  30.352  1.00  0.00     0.074 A 
ATOM     56  C   UNL A   1      42.685  29.635  35.754  1.00  0.00     0.029 A 
ATOM     57  N   UNL A   1      42.514  28.827  33.689  1.00  0.00    -0.354 N 
ATOM     58  N   UNL A   1      43.276  27.119  31.428  1.00  0.00    -0.248 NA
ATOM     59  C   UNL A   1      44.705  25.538  30.472  1.00  0.00     0.031 C 
ATOM     60  C   UNL A   1      43.720  28.715  35.552  1.00  0.00     0.029 A 
ATOM     61  C   UNL A   1      43.600  28.196  34.273  1.00  0.00     0.049 A 
ATOM     62  H   UNL A   1      42.192  28.667  32.773  1.00  0.00     0.167 HD
ATOM     63  C   UNL A   1      44.242  26.752  32.362  1.00  0.00     0.074 A 
ATOM     64  C   UNL A   1      45.079  25.757  31.725  1.00  0.00     0.031 C 
ATOM     65  C   UNL A   1      44.415  27.196  33.631  1.00  0.00     0.037 A 
BRANCH  52  66
ATOM     66  C   UNL A   1      40.318  31.483  35.380  1.00  0.00     0.058 A 
ATOM     67  C   UNL A   1      39.196  31.173  36.166  1.00  0.00     0.135 A 
ATOM     68  C   UNL A   1      40.991  32.687  35.644  1.00  0.00     0.135 A 
ATOM     69  F   UNL A   1      38.506  30.044  35.943  1.00  0.00    -0.206 F 
ATOM     70  C   UNL A   1      38.743  32.037  37.158  1.00  0.00     0.059 A 
ATOM     71  C   UNL A   1      40.569  33.554  36.647  1.00  0.00     0.059 A 
ATOM     72  F   UNL A   1      42.067  33.032  34.920  1.00  0.00    -0.206 F 
ATOM     73  C   UNL A   1      39.435  33.227  37.389  1.00  0.00     0.060 A 
BRANCH  73  74
ATOM     74  S   UNL A   1      38.837  34.339  38.680  1.00  0.00     0.124 S 
ATOM     75  O   UNL A   1      38.903  35.631  38.004  1.00  0.00    -0.237 OA
ATOM     76  O   UNL A   1      37.495  33.828  38.938  1.00  0.00    -0.237 OA
ATOM     77  O   UNL A   1      39.796  34.148  39.764  1.00  0.00    -0.744 OA
ENDBRANCH  73  74
ENDBRANCH  52  66
BRANCH  53  78
ATOM     78  C   UNL A   1      43.228  25.480  27.943  1.00  0.00     0.058 A 
ATOM     79  C   UNL A   1      44.164  25.911  26.991  1.00  0.00     0.135 A 
ATOM     80  C   UNL A   1      42.720  24.178  27.819  1.00  0.00     0.135 A 
ATOM     81  F   UNL A   1      44.670  27.151  27.062  1.00  0.00    -0.206 F 
ATOM     82  C   UNL A   1      44.570  25.087  25.945  1.00  0.00     0.059 A 
ATOM     83  C   UNL A   1      43.128  23.329  26.795  1.00  0.00     0.059 A 
ATOM     84  F   UNL A   1      41.829  23.715  28.710  1.00  0.00    -0.206 F 
ATOM     85  C   UNL A   1      44.046  23.796  25.856  1.00  0.00     0.060 A 
BRANCH  85  86
ATOM     86  S   UNL A   1      44.610  22.719  24.522  1.00  0.00     0.124 S 
ATOM     87  O   UNL A   1      45.049  21.541  25.261  1.00  0.00    -0.237 OA
ATOM     88  O   UNL A   1      43.400  22.559  23.722  1.00  0.00    -0.237 OA
ATOM     89  O   UNL A   1      45.671  23.498  23.889  1.00  0.00    -0.744 OA
ENDBRANCH  85  86
ENDBRANCH  53  78
BRANCH  65  90
ATOM     90  C   UNL A   1      45.525  26.577  34.436  1.00  0.00     0.058 A 
ATOM     91  C   UNL A   1      45.320  25.434  35.222  1.00  0.00     0.135 A 
ATOM     92  C   UNL A   1      46.822  27.112  34.381  1.00  0.00     0.135 A 
ATOM     93  F   UNL A   1      44.098  24.885  35.310  1.00  0.00    -0.206 F 
ATOM     94  C   UNL A   1      46.358  24.855  35.948  1.00  0.00     0.059 A 
ATOM     95  C   UNL A   1      47.880  26.536  35.080  1.00  0.00     0.059 A 
ATOM     96  F   UNL A   1      47.075  28.198  33.634  1.00  0.00    -0.206 F 
ATOM     97  C   UNL A   1      47.634  25.416  35.872  1.00  0.00     0.060 A 
BRANCH  97  98
ATOM     98  S   UNL A   1      48.978  24.645  36.798  1.00  0.00     0.124 S 
ATOM     99  O   UNL A   1      48.311  23.479  37.367  1.00  0.00    -0.237 OA
ATOM    100  O   UNL A   1      49.961  24.367  35.755  1.00  0.00    -0.237 OA
ATOM    101  O   UNL A   1      49.366  25.676  37.755  1.00  0.00    -0.744 OA
ENDBRANCH  97  98
ENDBRANCH  65  90
ENDBRANCH  39  40
ENDBRANCH  32  34
ENDBRANCH  31  32
ENDBRANCH  30  31
ENDBRANCH  29  30
ENDBRANCH   1  29
TORSDOF 22
ENDMDL
MODEL 2
REMARK VINA RESULT:     -11.0      1.715      3.229
REMARK SMILES COc1ccc(-c2noc(CC(=O)OCCOCCOC(=O)c3ccc(-c4c5nc(c(-c6c(F)cc(S(=O)(=O)[O-])cc6F)c6ccc([nH]6)c(-c6c(F)cc(S(=O)(=O)[O-])cc6F)c6nc(c(-c7c(F)cc(S(=O)(=O)[O-])cc7F)c7ccc4[nH]7)C=C6)C=C5)cc3)c2-c2ccc(OC)cc2)cc1
REMARK SMILES IDX 17 1 16 2 15 3 14 4 12 5 13 6 11 7 10 8 7 9 8 10 89 11 9 12
REMARK SMILES IDX 6 13 3 14 4 15 99 16 5 17 98 18 2 19 1 20 90 21 91 22 97 23
REMARK SMILES IDX 92 24 96 25 93 26 94 27 95 28 18 29 19 30 20 31 21 32 22 33
REMARK SMILES IDX 23 34 24 35 88 36 25 37 87 38 26 39 27 40 28 41 81 42 29 43
REMARK SMILES IDX 86 44 80 45 82 46 30 47 85 48 79 49 78 50 31 52 65 53 44 54
REMARK SMILES IDX 64 55 45 56 48 57 63 58 83 59 46 60 47 61 62 63 84 64 49 65
REMARK SMILES IDX 32 66 33 67 42 68 34 69 35 70 41 71 43 72 36 73 37 74 38 75
REMARK SMILES IDX 39 76 40 77 66 78 67 79 76 80 68 81 69 82 75 83 77 84 70 85
REMARK SMILES IDX 71 86 72 87 73 88 74 89 50 90 51 91 60 92 52 93 53 94 59 95
REMARK SMILES IDX 61 96 54 97 55 98 56 99 57 100 58 101
REMARK H PARENT 82 51 48 62
REMARK Flexibility Score: inf
ROOT
ATOM      1  O   UNL A   1      31.230  27.610  26.318  1.00  0.00    -0.374 OA
ENDROOT
BRANCH   1   2
ATOM      2  C   UNL A   1      30.629  26.968  25.194  1.00  0.00     0.202 C 
BRANCH   2   3
ATOM      3  C   UNL A   1      29.953  25.619  25.453  1.00  0.00     0.261 C 
BRANCH   3   4
ATOM      4  O   UNL A   1      30.515  24.942  26.592  1.00  0.00    -0.463 OA
BRANCH   4   5
ATOM      5  C   UNL A   1      30.274  23.610  26.652  1.00  0.00     0.313 C 
ATOM      6  O   UNL A   1      29.794  23.032  27.626  1.00  0.00    -0.252 OA
BRANCH   5   7
ATOM      7  C   UNL A   1      30.585  22.840  25.399  1.00  0.00     0.201 C 
BRANCH   7   8
ATOM      8  C   UNL A   1      31.947  22.267  25.260  1.00  0.00     0.156 A 
ATOM      9  C   UNL A   1      34.100  21.722  25.296  1.00  0.00     0.122 A 
ATOM     10  N   UNL A   1      33.425  20.603  25.593  1.00  0.00    -0.079 NA
ATOM     11  C   UNL A   1      33.198  22.791  25.009  1.00  0.00     0.053 A 
ATOM     12  O   UNL A   1      32.089  20.953  25.592  1.00  0.00    -0.359 OA
BRANCH   9  13
ATOM     13  C   UNL A   1      35.553  21.796  25.391  1.00  0.00     0.005 A 
ATOM     14  C   UNL A   1      38.349  21.845  25.626  1.00  0.00     0.118 A 
ATOM     15  C   UNL A   1      37.584  22.936  26.045  1.00  0.00     0.047 A 
ATOM     16  C   UNL A   1      37.717  20.720  25.101  1.00  0.00     0.047 A 
ATOM     17  C   UNL A   1      36.190  22.923  25.913  1.00  0.00     0.014 A 
ATOM     18  C   UNL A   1      36.325  20.698  24.982  1.00  0.00     0.014 A 
BRANCH  14  19
ATOM     19  O   UNL A   1      39.699  21.953  25.823  1.00  0.00    -0.497 OA
ATOM     20  C   UNL A   1      40.355  20.741  26.181  1.00  0.00     0.278 C 
ENDBRANCH  14  19
ENDBRANCH   9  13
BRANCH  11  21
ATOM     21  C   UNL A   1      33.475  24.166  24.665  1.00  0.00    -0.012 A 
ATOM     22  C   UNL A   1      33.399  24.577  23.331  1.00  0.00     0.013 A 
ATOM     23  C   UNL A   1      33.858  25.086  25.647  1.00  0.00     0.013 A 
ATOM     24  C   UNL A   1      33.684  25.901  22.992  1.00  0.00     0.047 A 
ATOM     25  C   UNL A   1      34.127  26.413  25.305  1.00  0.00     0.047 A 
ATOM     26  C   UNL A   1      34.037  26.827  23.976  1.00  0.00     0.118 A 
BRANCH  26  27
ATOM     27  O   UNL A   1      34.284  28.089  23.516  1.00  0.00    -0.497 OA
ATOM     28  C   UNL A   1      33.211  28.747  22.855  1.00  0.00     0.278 C 
ENDBRANCH  26  27
ENDBRANCH  11  21
ENDBRANCH   7   8
ENDBRANCH   5   7
ENDBRANCH   4   5
ENDBRANCH   3   4
ENDBRANCH   2   3
ENDBRANCH   1   2
BRANCH   1  29
ATOM     29  C   UNL A   1      31.682  28.955  26.145  1.00  0.00     0.202 C 
BRANCH  29  30
ATOM     30  C   UNL A   1      32.578  29.541  27.243  1.00  0.00     0.261 C 
BRANCH  30  31
ATOM     31  O   UNL A   1      33.669  30.316  26.713  1.00  0.00    -0.460 OA
BRANCH  31  32
ATOM     32  C   UNL A   1      34.383  30.990  27.644  1.00  0.00     0.338 C 
ATOM     33  O   UNL A   1      34.031  31.990  28.258  1.00  0.00    -0.246 OA
BRANCH  32  34
ATOM     34  C   UNL A   1      35.618  30.262  27.988  1.00  0.00     0.060 A 
ATOM     35  C   UNL A   1      35.685  29.695  29.268  1.00  0.00     0.016 A 
ATOM     36  C   UNL A   1      36.727  30.227  27.139  1.00  0.00     0.016 A 
ATOM     37  C   UNL A   1      36.884  29.168  29.737  1.00  0.00     0.010 A 
ATOM     38  C   UNL A   1      37.935  29.700  27.615  1.00  0.00     0.010 A 
ATOM     39  C   UNL A   1      38.031  29.218  28.934  1.00  0.00    -0.014 A 
BRANCH  39  40
ATOM     40  C   UNL A   1      39.349  28.948  29.562  1.00  0.00     0.031 A 
ATOM     41  C   UNL A   1      39.743  29.736  30.785  1.00  0.00     0.074 A 
ATOM     42  C   UNL A   1      40.146  27.962  29.110  1.00  0.00     0.049 A 
ATOM     43  N   UNL A   1      40.820  29.643  31.522  1.00  0.00    -0.248 NA
ATOM     44  C   UNL A   1      38.791  30.762  31.242  1.00  0.00     0.031 C 
ATOM     45  C   UNL A   1      39.857  27.100  27.966  1.00  0.00     0.029 A 
ATOM     46  N   UNL A   1      41.360  27.516  29.570  1.00  0.00    -0.354 N 
ATOM     47  C   UNL A   1      40.676  30.595  32.526  1.00  0.00     0.074 A 
ATOM     48  C   UNL A   1      39.424  31.278  32.285  1.00  0.00     0.031 C 
ATOM     49  C   UNL A   1      40.867  26.226  27.813  1.00  0.00     0.029 A 
ATOM     50  C   UNL A   1      41.882  26.480  28.834  1.00  0.00     0.049 A 
ATOM     51  H   UNL A   1      41.814  27.902  30.353  1.00  0.00     0.167 HD
ATOM     52  C   UNL A   1      41.502  30.866  33.565  1.00  0.00     0.037 A 
ATOM     53  C   UNL A   1      43.049  25.818  28.965  1.00  0.00     0.037 A 
ATOM     54  C   UNL A   1      42.746  30.184  33.809  1.00  0.00     0.049 A 
ATOM     55  C   UNL A   1      43.980  26.175  30.096  1.00  0.00     0.074 A 
ATOM     56  C   UNL A   1      43.656  30.389  34.830  1.00  0.00     0.029 A 
ATOM     57  N   UNL A   1      43.254  29.161  33.021  1.00  0.00    -0.354 N 
ATOM     58  N   UNL A   1      43.825  27.072  31.041  1.00  0.00    -0.248 NA
ATOM     59  C   UNL A   1      45.239  25.421  30.184  1.00  0.00     0.031 C 
ATOM     60  C   UNL A   1      44.733  29.515  34.640  1.00  0.00     0.029 A 
ATOM     61  C   UNL A   1      44.471  28.735  33.526  1.00  0.00     0.049 A 
ATOM     62  H   UNL A   1      42.814  28.794  32.220  1.00  0.00     0.167 HD
ATOM     63  C   UNL A   1      44.952  26.969  31.852  1.00  0.00     0.074 A 
ATOM     64  C   UNL A   1      45.775  25.919  31.290  1.00  0.00     0.031 C 
ATOM     65  C   UNL A   1      45.272  27.677  32.963  1.00  0.00     0.037 A 
BRANCH  52  66
ATOM     66  C   UNL A   1      41.093  31.965  34.506  1.00  0.00     0.058 A 
ATOM     67  C   UNL A   1      41.455  33.303  34.278  1.00  0.00     0.135 A 
ATOM     68  C   UNL A   1      40.311  31.681  35.637  1.00  0.00     0.135 A 
ATOM     69  F   UNL A   1      42.218  33.626  33.222  1.00  0.00    -0.206 F 
ATOM     70  C   UNL A   1      41.078  34.316  35.153  1.00  0.00     0.059 A 
ATOM     71  C   UNL A   1      39.903  32.682  36.512  1.00  0.00     0.059 A 
ATOM     72  F   UNL A   1      39.941  30.418  35.902  1.00  0.00    -0.206 F 
ATOM     73  C   UNL A   1      40.303  33.995  36.270  1.00  0.00     0.060 A 
BRANCH  73  74
ATOM     74  S   UNL A   1      39.820  35.320  37.397  1.00  0.00     0.124 S 
ATOM     75  O   UNL A   1      40.976  35.382  38.286  1.00  0.00    -0.237 OA
ATOM     76  O   UNL A   1      39.653  36.455  36.495  1.00  0.00    -0.237 OA
ATOM     77  O   UNL A   1      38.590  34.819  38.002  1.00  0.00    -0.744 OA
ENDBRANCH  73  74
ENDBRANCH  52  66
BRANCH  53  78
ATOM     78  C   UNL A   1      43.409  24.745  27.999  1.00  0.00     0.058 A 
ATOM     79  C   UNL A   1      44.094  25.036  26.811  1.00  0.00     0.135 A 
ATOM     80  C   UNL A   1      43.066  23.407  28.247  1.00  0.00     0.135 A 
ATOM     81  F   UNL A   1      44.435  26.301  26.525  1.00  0.00    -0.206 F 
ATOM     82  C   UNL A   1      44.414  24.040  25.893  1.00  0.00     0.059 A 
ATOM     83  C   UNL A   1      43.394  22.391  27.355  1.00  0.00     0.059 A 
ATOM     84  F   UNL A   1      42.417  23.076  29.374  1.00  0.00    -0.206 F 
ATOM     85  C   UNL A   1      44.060  22.719  26.174  1.00  0.00     0.060 A 
BRANCH  85  86
ATOM     86  S   UNL A   1      44.516  21.427  24.999  1.00  0.00     0.124 S 
ATOM     87  O   UNL A   1      45.898  21.158  25.380  1.00  0.00    -0.237 OA
ATOM     88  O   UNL A   1      43.551  20.376  25.306  1.00  0.00    -0.237 OA
ATOM     89  O   UNL A   1      44.334  22.074  23.703  1.00  0.00    -0.744 OA
ENDBRANCH  85  86
ENDBRANCH  53  78
BRANCH  65  90
ATOM     90  C   UNL A   1      46.546  27.311  33.675  1.00  0.00     0.058 A 
ATOM     91  C   UNL A   1      47.763  27.944  33.384  1.00  0.00     0.135 A 
ATOM     92  C   UNL A   1      46.534  26.347  34.696  1.00  0.00     0.135 A 
ATOM     93  F   UNL A   1      47.829  28.871  32.416  1.00  0.00    -0.206 F 
ATOM     94  C   UNL A   1      48.933  27.613  34.062  1.00  0.00     0.059 A 
ATOM     95  C   UNL A   1      47.686  26.018  35.403  1.00  0.00     0.059 A 
ATOM     96  F   UNL A   1      45.392  25.721  35.022  1.00  0.00    -0.206 F 
ATOM     97  C   UNL A   1      48.885  26.647  35.069  1.00  0.00     0.060 A 
BRANCH  97  98
ATOM     98  S   UNL A   1      50.402  26.243  35.960  1.00  0.00     0.124 S 
ATOM     99  O   UNL A   1      50.192  24.834  36.273  1.00  0.00    -0.237 OA
ATOM    100  O   UNL A   1      51.436  26.526  34.969  1.00  0.00    -0.237 OA
ATOM    101  O   UNL A   1      50.376  27.151  37.103  1.00  0.00    -0.744 OA
ENDBRANCH  97  98
ENDBRANCH  65  90
ENDBRANCH  39  40
ENDBRANCH  32  34
ENDBRANCH  31  32
ENDBRANCH  30  31
ENDBRANCH  29  30
ENDBRANCH   1  29
TORSDOF 22
ENDMDL
MODEL 3
REMARK VINA RESULT:     -10.9      3.338      9.497
REMARK SMILES COc1ccc(-c2noc(CC(=O)OCCOCCOC(=O)c3ccc(-c4c5nc(c(-c6c(F)cc(S(=O)(=O)[O-])cc6F)c6ccc([nH]6)c(-c6c(F)cc(S(=O)(=O)[O-])cc6F)c6nc(c(-c7c(F)cc(S(=O)(=O)[O-])cc7F)c7ccc4[nH]7)C=C6)C=C5)cc3)c2-c2ccc(OC)cc2)cc1
REMARK SMILES IDX 17 1 16 2 15 3 14 4 12 5 13 6 11 7 10 8 7 9 8 10 89 11 9 12
REMARK SMILES IDX 6 13 3 14 4 15 99 16 5 17 98 18 2 19 1 20 90 21 91 22 97 23
REMARK SMILES IDX 92 24 96 25 93 26 94 27 95 28 18 29 19 30 20 31 21 32 22 33
REMARK SMILES IDX 23 34 24 35 88 36 25 37 87 38 26 39 27 40 28 41 81 42 29 43
REMARK SMILES IDX 86 44 80 45 82 46 30 47 85 48 79 49 78 50 31 52 65 53 44 54
REMARK SMILES IDX 64 55 45 56 48 57 63 58 83 59 46 60 47 61 62 63 84 64 49 65
REMARK SMILES IDX 32 66 33 67 42 68 34 69 35 70 41 71 43 72 36 73 37 74 38 75
REMARK SMILES IDX 39 76 40 77 66 78 67 79 76 80 68 81 69 82 75 83 77 84 70 85
REMARK SMILES IDX 71 86 72 87 73 88 74 89 50 90 51 91 60 92 52 93 53 94 59 95
REMARK SMILES IDX 61 96 54 97 55 98 56 99 57 100 58 101
REMARK H PARENT 82 51 48 62
REMARK Flexibility Score: inf
ROOT
ATOM      1  O   UNL A   1      35.806  21.338  24.597  1.00  0.00    -0.374 OA
ENDROOT
BRANCH   1   2
ATOM      2  C   UNL A   1      34.785  20.420  24.987  1.00  0.00     0.202 C 
BRANCH   2   3
ATOM      3  C   UNL A   1      33.366  20.980  25.106  1.00  0.00     0.261 C 
BRANCH   3   4
ATOM      4  O   UNL A   1      33.046  21.361  26.457  1.00  0.00    -0.463 OA
BRANCH   4   5
ATOM      5  C   UNL A   1      32.485  22.587  26.598  1.00  0.00     0.313 C 
ATOM      6  O   UNL A   1      31.689  22.891  27.484  1.00  0.00    -0.252 OA
BRANCH   5   7
ATOM      7  C   UNL A   1      32.942  23.623  25.609  1.00  0.00     0.201 C 
BRANCH   7   8
ATOM      8  C   UNL A   1      31.908  24.491  24.992  1.00  0.00     0.156 A 
ATOM      9  C   UNL A   1      30.682  26.023  23.952  1.00  0.00     0.122 A 
ATOM     10  N   UNL A   1      30.269  24.836  23.490  1.00  0.00    -0.079 NA
ATOM     11  C   UNL A   1      31.677  25.851  24.961  1.00  0.00     0.053 A 
ATOM     12  O   UNL A   1      31.051  23.888  24.122  1.00  0.00    -0.359 OA
BRANCH   9  13
ATOM     13  C   UNL A   1      30.222  27.280  23.373  1.00  0.00     0.005 A 
ATOM     14  C   UNL A   1      29.414  29.749  22.312  1.00  0.00     0.118 A 
ATOM     15  C   UNL A   1      28.489  28.910  22.937  1.00  0.00     0.047 A 
ATOM     16  C   UNL A   1      30.749  29.361  22.227  1.00  0.00     0.047 A 
ATOM     17  C   UNL A   1      28.884  27.670  23.452  1.00  0.00     0.014 A 
ATOM     18  C   UNL A   1      31.151  28.131  22.753  1.00  0.00     0.014 A 
BRANCH  14  19
ATOM     19  O   UNL A   1      28.925  30.947  21.866  1.00  0.00    -0.497 OA
ATOM     20  C   UNL A   1      27.966  30.853  20.818  1.00  0.00     0.278 C 
ENDBRANCH  14  19
ENDBRANCH   9  13
BRANCH  11  21
ATOM     21  C   UNL A   1      32.411  26.841  25.715  1.00  0.00    -0.012 A 
ATOM     22  C   UNL A   1      31.799  27.487  26.793  1.00  0.00     0.013 A 
ATOM     23  C   UNL A   1      33.716  27.191  25.354  1.00  0.00     0.013 A 
ATOM     24  C   UNL A   1      32.499  28.458  27.511  1.00  0.00     0.047 A 
ATOM     25  C   UNL A   1      34.417  28.153  26.085  1.00  0.00     0.047 A 
ATOM     26  C   UNL A   1      33.812  28.787  27.170  1.00  0.00     0.118 A 
BRANCH  26  27
ATOM     27  O   UNL A   1      34.387  29.747  27.955  1.00  0.00    -0.497 OA
ATOM     28  C   UNL A   1      34.289  31.088  27.494  1.00  0.00     0.278 C 
ENDBRANCH  26  27
ENDBRANCH  11  21
ENDBRANCH   7   8
ENDBRANCH   5   7
ENDBRANCH   4   5
ENDBRANCH   3   4
ENDBRANCH   2   3
ENDBRANCH   1   2
BRANCH   1  29
ATOM     29  C   UNL A   1      37.162  20.896  24.691  1.00  0.00     0.202 C 
BRANCH  29  30
ATOM     30  C   UNL A   1      37.992  21.425  25.867  1.00  0.00     0.261 C 
BRANCH  30  31
ATOM     31  O   UNL A   1      38.738  22.610  25.531  1.00  0.00    -0.460 OA
BRANCH  31  32
ATOM     32  C   UNL A   1      38.101  23.770  25.808  1.00  0.00     0.338 C 
ATOM     33  O   UNL A   1      36.940  24.056  25.536  1.00  0.00    -0.246 OA
BRANCH  32  34
ATOM     34  C   UNL A   1      38.932  24.633  26.669  1.00  0.00     0.060 A 
ATOM     35  C   UNL A   1      38.648  24.622  28.041  1.00  0.00     0.016 A 
ATOM     36  C   UNL A   1      39.882  25.515  26.149  1.00  0.00     0.016 A 
ATOM     37  C   UNL A   1      39.250  25.549  28.886  1.00  0.00     0.010 A 
ATOM     38  C   UNL A   1      40.483  26.452  27.001  1.00  0.00     0.010 A 
ATOM     39  C   UNL A   1      40.128  26.507  28.362  1.00  0.00    -0.014 A 
BRANCH  39  40
ATOM     40  C   UNL A   1      40.501  27.667  29.210  1.00  0.00     0.031 A 
ATOM     41  C   UNL A   1      41.856  27.676  29.870  1.00  0.00     0.074 A 
ATOM     42  C   UNL A   1      39.689  28.735  29.322  1.00  0.00     0.049 A 
ATOM     43  N   UNL A   1      42.411  28.596  30.616  1.00  0.00    -0.248 NA
ATOM     44  C   UNL A   1      42.701  26.489  29.655  1.00  0.00     0.031 C 
ATOM     45  C   UNL A   1      38.376  28.867  28.696  1.00  0.00     0.029 A 
ATOM     46  N   UNL A   1      39.860  29.916  30.000  1.00  0.00    -0.354 N 
ATOM     47  C   UNL A   1      43.665  28.103  30.958  1.00  0.00     0.074 A 
ATOM     48  C   UNL A   1      43.777  26.787  30.367  1.00  0.00     0.031 C 
ATOM     49  C   UNL A   1      37.859  30.065  29.017  1.00  0.00     0.029 A 
ATOM     50  C   UNL A   1      38.793  30.776  29.888  1.00  0.00     0.049 A 
ATOM     51  H   UNL A   1      40.670  30.129  30.516  1.00  0.00     0.167 HD
ATOM     52  C   UNL A   1      44.643  28.696  31.684  1.00  0.00     0.037 A 
ATOM     53  C   UNL A   1      38.593  31.992  30.433  1.00  0.00     0.037 A 
ATOM     54  C   UNL A   1      44.534  30.007  32.269  1.00  0.00     0.049 A 
ATOM     55  C   UNL A   1      39.672  32.609  31.285  1.00  0.00     0.074 A 
ATOM     56  C   UNL A   1      45.467  30.693  33.026  1.00  0.00     0.029 A 
ATOM     57  N   UNL A   1      43.424  30.832  32.158  1.00  0.00    -0.354 N 
ATOM     58  N   UNL A   1      40.855  32.132  31.592  1.00  0.00    -0.248 NA
ATOM     59  C   UNL A   1      39.393  33.935  31.855  1.00  0.00     0.031 C 
ATOM     60  C   UNL A   1      44.907  31.919  33.405  1.00  0.00     0.029 A 
ATOM     61  C   UNL A   1      43.643  32.014  32.845  1.00  0.00     0.049 A 
ATOM     62  H   UNL A   1      42.602  30.608  31.665  1.00  0.00     0.167 HD
ATOM     63  C   UNL A   1      41.472  33.112  32.365  1.00  0.00     0.074 A 
ATOM     64  C   UNL A   1      40.534  34.210  32.473  1.00  0.00     0.031 C 
ATOM     65  C   UNL A   1      42.704  33.104  32.930  1.00  0.00     0.037 A 
BRANCH  52  66
ATOM     66  C   UNL A   1      45.911  27.918  31.904  1.00  0.00     0.058 A 
ATOM     67  C   UNL A   1      46.053  27.033  32.985  1.00  0.00     0.135 A 
ATOM     68  C   UNL A   1      46.987  28.042  31.011  1.00  0.00     0.135 A 
ATOM     69  F   UNL A   1      45.062  26.891  33.879  1.00  0.00    -0.206 F 
ATOM     70  C   UNL A   1      47.230  26.317  33.187  1.00  0.00     0.059 A 
ATOM     71  C   UNL A   1      48.163  27.318  31.181  1.00  0.00     0.059 A 
ATOM     72  F   UNL A   1      46.903  28.876  29.964  1.00  0.00    -0.206 F 
ATOM     73  C   UNL A   1      48.280  26.469  32.280  1.00  0.00     0.060 A 
BRANCH  73  74
ATOM     74  S   UNL A   1      49.801  25.534  32.554  1.00  0.00     0.124 S 
ATOM     75  O   UNL A   1      50.703  26.580  33.028  1.00  0.00    -0.237 OA
ATOM     76  O   UNL A   1      49.391  24.552  33.551  1.00  0.00    -0.237 OA
ATOM     77  O   UNL A   1      50.108  24.992  31.234  1.00  0.00    -0.744 OA
ENDBRANCH  73  74
ENDBRANCH  52  66
BRANCH  53  78
ATOM     78  C   UNL A   1      37.315  32.714  30.191  1.00  0.00     0.058 A 
ATOM     79  C   UNL A   1      36.191  32.496  31.001  1.00  0.00     0.135 A 
ATOM     80  C   UNL A   1      37.194  33.632  29.137  1.00  0.00     0.135 A 
ATOM     81  F   UNL A   1      36.255  31.620  32.014  1.00  0.00    -0.206 F 
ATOM     82  C   UNL A   1      34.986  33.151  30.766  1.00  0.00     0.059 A 
ATOM     83  C   UNL A   1      36.007  34.316  28.896  1.00  0.00     0.059 A 
ATOM     84  F   UNL A   1      38.243  33.883  28.338  1.00  0.00    -0.206 F 
ATOM     85  C   UNL A   1      34.904  34.061  29.710  1.00  0.00     0.060 A 
BRANCH  85  86
ATOM     86  S   UNL A   1      33.351  34.940  29.439  1.00  0.00     0.124 S 
ATOM     87  O   UNL A   1      32.707  34.098  28.438  1.00  0.00    -0.237 OA
ATOM     88  O   UNL A   1      32.751  34.925  30.769  1.00  0.00    -0.237 OA
ATOM     89  O   UNL A   1      33.787  36.253  28.972  1.00  0.00    -0.744 OA
ENDBRANCH  85  86
ENDBRANCH  53  78
BRANCH  65  90
ATOM     90  C   UNL A   1      43.132  34.338  33.679  1.00  0.00     0.058 A 
ATOM     91  C   UNL A   1      43.003  34.440  35.071  1.00  0.00     0.135 A 
ATOM     92  C   UNL A   1      43.723  35.411  32.993  1.00  0.00     0.135 A 
ATOM     93  F   UNL A   1      42.443  33.442  35.773  1.00  0.00    -0.206 F 
ATOM     94  C   UNL A   1      43.420  35.576  35.758  1.00  0.00     0.059 A 
ATOM     95  C   UNL A   1      44.169  36.547  33.662  1.00  0.00     0.059 A 
ATOM     96  F   UNL A   1      43.882  35.359  31.662  1.00  0.00    -0.206 F 
ATOM     97  C   UNL A   1      44.000  36.626  35.043  1.00  0.00     0.060 A 
BRANCH  97  98
ATOM     98  S   UNL A   1      44.561  38.086  35.946  1.00  0.00     0.124 S 
ATOM     99  O   UNL A   1      45.964  37.764  36.183  1.00  0.00    -0.237 OA
ATOM    100  O   UNL A   1      44.309  39.163  34.994  1.00  0.00    -0.237 OA
ATOM    101  O   UNL A   1      43.710  38.098  37.133  1.00  0.00    -0.744 OA
ENDBRANCH  97  98
ENDBRANCH  65  90
ENDBRANCH  39  40
ENDBRANCH  32  34
ENDBRANCH  31  32
ENDBRANCH  30  31
ENDBRANCH  29  30
ENDBRANCH   1  29
TORSDOF 22
ENDMDL
