MODEL 1
REMARK VINA RESULT:      -9.1      0.000      0.000
REMARK SMILES CC[C@H](C)CN(CC)c1ccc(/C=C/C(=O)OCCOCCOC(=O)c2ccc(-c3c4nc(c(-c5c(F)cc(S(=O)(=O)[O-])cc5F)c5ccc([nH]5)c(-c5c(F)cc(S(=O)(=O)[O-])cc5F)c5nc(c(-c6c(F)cc(S(=O)(=O)[O-])cc6F)c6ccc3[nH]6)C=C5)C=C4)cc2)cc1F
REMARK SMILES IDX 19 1 18 2 17 3 15 4 16 5 14 6 13 7 12 8 9 9 10 10 93 11
REMARK SMILES IDX 11 12 92 13 94 14 6 15 5 16 3 17 4 18 2 19 1 20 7 21 8 22
REMARK SMILES IDX 20 23 21 24 22 25 23 26 24 27 25 28 26 29 27 30 91 31 28 32
REMARK SMILES IDX 90 33 29 34 30 35 31 36 84 37 32 38 89 39 83 40 85 41 33 42
REMARK SMILES IDX 88 43 82 44 81 45 34 47 68 48 47 49 67 50 48 51 51 52 66 53
REMARK SMILES IDX 86 54 49 55 50 56 65 58 87 59 52 60 35 61 36 62 45 63 37 64
REMARK SMILES IDX 38 65 44 66 46 67 39 68 40 69 41 70 42 71 43 72 69 73 70 74
REMARK SMILES IDX 79 75 71 76 72 77 78 78 80 79 73 80 74 81 75 82 76 83 77 84
REMARK SMILES IDX 53 85 54 86 63 87 55 88 56 89 62 90 64 91 57 92 58 93 59 94
REMARK SMILES IDX 60 95 61 96
REMARK H PARENT 85 46 51 57
REMARK Flexibility Score: inf
ROOT
ATOM      1  C   UNL A   1      42.411  19.339  26.158  1.00  0.00     0.202 C 
ENDROOT
BRANCH   1   2
ATOM      2  C   UNL A   1      43.486  18.633  25.329  1.00  0.00     0.261 C 
BRANCH   2   3
ATOM      3  O   UNL A   1      44.091  19.545  24.400  1.00  0.00    -0.460 OA
BRANCH   3   4
ATOM      4  C   UNL A   1      45.393  19.813  24.636  1.00  0.00     0.330 C 
ATOM      5  O   UNL A   1      46.358  19.331  24.059  1.00  0.00    -0.247 OA
BRANCH   4   6
ATOM      6  C   UNL A   1      45.571  20.897  25.621  1.00  0.00     0.094 C 
ATOM      7  C   UNL A   1      45.562  22.220  25.386  1.00  0.00     0.016 C 
BRANCH   7   8
ATOM      8  C   UNL A   1      45.757  23.239  26.436  1.00  0.00    -0.022 A 
ATOM      9  C   UNL A   1      46.217  25.032  28.607  1.00  0.00     0.073 A 
ATOM     10  C   UNL A   1      47.112  24.942  27.541  1.00  0.00     0.029 A 
ATOM     11  C   UNL A   1      45.049  24.257  28.526  1.00  0.00     0.147 A 
ATOM     12  C   UNL A   1      46.881  24.075  26.469  1.00  0.00     0.010 A 
ATOM     13  C   UNL A   1      44.828  23.357  27.477  1.00  0.00     0.049 A 
ATOM     14  F   UNL A   1      44.142  24.316  29.515  1.00  0.00    -0.205 F 
BRANCH   9  15
ATOM     15  N   UNL A   1      46.536  25.771  29.742  1.00  0.00    -0.369 N 
BRANCH  15  16
ATOM     16  C   UNL A   1      45.466  25.950  30.737  1.00  0.00     0.120 C 
BRANCH  16  17
ATOM     17  C   UNL A   1      45.841  25.402  32.136  1.00  0.00     0.005 C 
ATOM     18  C   UNL A   1      46.123  26.507  33.169  1.00  0.00     0.009 C 
BRANCH  17  19
ATOM     19  C   UNL A   1      44.750  24.453  32.678  1.00  0.00     0.002 C 
ATOM     20  C   UNL A   1      44.672  24.387  34.198  1.00  0.00     0.004 C 
ENDBRANCH  17  19
ENDBRANCH  16  17
ENDBRANCH  15  16
BRANCH  15  21
ATOM     21  C   UNL A   1      47.933  25.841  30.176  1.00  0.00     0.113 C 
ATOM     22  C   UNL A   1      48.497  27.257  30.179  1.00  0.00     0.027 C 
ENDBRANCH  15  21
ENDBRANCH   9  15
ENDBRANCH   7   8
ENDBRANCH   4   6
ENDBRANCH   3   4
ENDBRANCH   2   3
ENDBRANCH   1   2
BRANCH   1  23
ATOM     23  O   UNL A   1      42.275  20.743  25.933  1.00  0.00    -0.374 OA
BRANCH  23  24
ATOM     24  C   UNL A   1      41.469  21.471  26.864  1.00  0.00     0.202 C 
BRANCH  24  25
ATOM     25  C   UNL A   1      40.487  22.486  26.267  1.00  0.00     0.261 C 
BRANCH  25  26
ATOM     26  O   UNL A   1      40.284  23.615  27.136  1.00  0.00    -0.460 OA
BRANCH  26  27
ATOM     27  C   UNL A   1      41.104  24.667  26.912  1.00  0.00     0.338 C 
ATOM     28  O   UNL A   1      41.872  24.819  25.969  1.00  0.00    -0.246 OA
BRANCH  27  29
ATOM     29  C   UNL A   1      40.816  25.737  27.884  1.00  0.00     0.060 A 
ATOM     30  C   UNL A   1      41.795  26.720  28.087  1.00  0.00     0.016 A 
ATOM     31  C   UNL A   1      39.631  25.753  28.623  1.00  0.00     0.016 A 
ATOM     32  C   UNL A   1      41.610  27.700  29.060  1.00  0.00     0.010 A 
ATOM     33  C   UNL A   1      39.453  26.730  29.605  1.00  0.00     0.010 A 
ATOM     34  C   UNL A   1      40.453  27.688  29.849  1.00  0.00    -0.014 A 
BRANCH  34  35
ATOM     35  C   UNL A   1      40.341  28.585  31.025  1.00  0.00     0.031 A 
ATOM     36  C   UNL A   1      39.347  29.713  30.980  1.00  0.00     0.074 A 
ATOM     37  C   UNL A   1      41.114  28.401  32.110  1.00  0.00     0.049 A 
ATOM     38  N   UNL A   1      39.162  30.686  31.832  1.00  0.00    -0.248 NA
ATOM     39  C   UNL A   1      38.441  29.747  29.820  1.00  0.00     0.031 C 
ATOM     40  C   UNL A   1      42.067  27.308  32.292  1.00  0.00     0.029 A 
ATOM     41  N   UNL A   1      41.225  29.139  33.261  1.00  0.00    -0.354 N 
ATOM     42  C   UNL A   1      38.129  31.453  31.308  1.00  0.00     0.074 A 
ATOM     43  C   UNL A   1      37.742  30.848  30.053  1.00  0.00     0.031 C 
ATOM     44  C   UNL A   1      42.678  27.455  33.480  1.00  0.00     0.029 A 
ATOM     45  C   UNL A   1      42.192  28.676  34.122  1.00  0.00     0.049 A 
ATOM     46  H   UNL A   1      40.667  29.927  33.453  1.00  0.00     0.167 HD
ATOM     47  C   UNL A   1      37.552  32.559  31.833  1.00  0.00     0.037 A 
ATOM     48  C   UNL A   1      42.653  29.194  35.278  1.00  0.00     0.037 A 
ATOM     49  C   UNL A   1      37.941  33.151  33.086  1.00  0.00     0.049 A 
ATOM     50  C   UNL A   1      42.063  30.481  35.797  1.00  0.00     0.074 A 
ATOM     51  C   UNL A   1      37.415  34.269  33.707  1.00  0.00     0.029 A 
ATOM     52  N   UNL A   1      38.953  32.676  33.907  1.00  0.00    -0.354 N 
ATOM     53  N   UNL A   1      41.092  31.203  35.290  1.00  0.00    -0.248 NA
ATOM     54  C   UNL A   1      42.635  31.030  37.035  1.00  0.00     0.031 C 
ATOM     55  C   UNL A   1      38.139  34.498  34.880  1.00  0.00     0.029 A 
ATOM     56  C   UNL A   1      39.083  33.492  35.016  1.00  0.00     0.049 A 
ATOM     57  H   UNL A   1      39.498  31.875  33.726  1.00  0.00     0.167 HD
ATOM     58  C   UNL A   1      40.920  32.276  36.158  1.00  0.00     0.074 A 
ATOM     59  C   UNL A   1      41.886  32.109  37.225  1.00  0.00     0.031 C 
ATOM     60  C   UNL A   1      40.040  33.304  36.078  1.00  0.00     0.037 A 
BRANCH  47  61
ATOM     61  C   UNL A   1      36.447  33.215  31.055  1.00  0.00     0.058 A 
ATOM     62  C   UNL A   1      36.734  33.970  29.906  1.00  0.00     0.135 A 
ATOM     63  C   UNL A   1      35.110  33.153  31.481  1.00  0.00     0.135 A 
ATOM     64  F   UNL A   1      37.994  34.054  29.450  1.00  0.00    -0.206 F 
ATOM     65  C   UNL A   1      35.740  34.656  29.218  1.00  0.00     0.059 A 
ATOM     66  C   UNL A   1      34.095  33.811  30.794  1.00  0.00     0.059 A 
ATOM     67  F   UNL A   1      34.778  32.425  32.559  1.00  0.00    -0.206 F 
ATOM     68  C   UNL A   1      34.422  34.573  29.673  1.00  0.00     0.060 A 
BRANCH  68  69
ATOM     69  S   UNL A   1      33.139  35.450  28.753  1.00  0.00     0.124 S 
ATOM     70  O   UNL A   1      32.524  34.369  27.991  1.00  0.00    -0.237 OA
ATOM     71  O   UNL A   1      32.326  36.016  29.827  1.00  0.00    -0.237 OA
ATOM     72  O   UNL A   1      33.890  36.426  27.970  1.00  0.00    -0.744 OA
ENDBRANCH  68  69
ENDBRANCH  47  61
BRANCH  48  73
ATOM     73  C   UNL A   1      43.741  28.499  36.016  1.00  0.00     0.058 A 
ATOM     74  C   UNL A   1      45.083  28.884  35.870  1.00  0.00     0.135 A 
ATOM     75  C   UNL A   1      43.461  27.413  36.859  1.00  0.00     0.135 A 
ATOM     76  F   UNL A   1      45.406  29.915  35.074  1.00  0.00    -0.206 F 
ATOM     77  C   UNL A   1      46.111  28.198  36.506  1.00  0.00     0.059 A 
ATOM     78  C   UNL A   1      44.471  26.725  37.526  1.00  0.00     0.059 A 
ATOM     79  F   UNL A   1      42.192  27.020  37.045  1.00  0.00    -0.206 F 
ATOM     80  C   UNL A   1      45.796  27.115  37.328  1.00  0.00     0.060 A 
BRANCH  80  81
ATOM     81  S   UNL A   1      47.147  26.223  38.127  1.00  0.00     0.124 S 
ATOM     82  O   UNL A   1      47.990  27.323  38.586  1.00  0.00    -0.237 OA
ATOM     83  O   UNL A   1      46.448  25.480  39.170  1.00  0.00    -0.237 OA
ATOM     84  O   UNL A   1      47.703  25.414  37.047  1.00  0.00    -0.744 OA
ENDBRANCH  80  81
ENDBRANCH  48  73
BRANCH  60  85
ATOM     85  C   UNL A   1      40.042  34.330  37.178  1.00  0.00     0.058 A 
ATOM     86  C   UNL A   1      39.139  34.222  38.247  1.00  0.00     0.135 A 
ATOM     87  C   UNL A   1      40.835  35.485  37.099  1.00  0.00     0.135 A 
ATOM     88  F   UNL A   1      38.355  33.138  38.365  1.00  0.00    -0.206 F 
ATOM     89  C   UNL A   1      38.991  35.243  39.179  1.00  0.00     0.059 A 
ATOM     90  C   UNL A   1      40.720  36.509  38.035  1.00  0.00     0.059 A 
ATOM     91  F   UNL A   1      41.721  35.628  36.103  1.00  0.00    -0.206 F 
ATOM     92  C   UNL A   1      39.777  36.389  39.056  1.00  0.00     0.060 A 
BRANCH  92  93
ATOM     93  S   UNL A   1      39.538  37.726  40.247  1.00  0.00     0.124 S 
ATOM     94  O   UNL A   1      39.442  36.992  41.505  1.00  0.00    -0.237 OA
ATOM     95  O   UNL A   1      40.749  38.520  40.066  1.00  0.00    -0.237 OA
ATOM     96  O   UNL A   1      38.304  38.364  39.798  1.00  0.00    -0.744 OA
ENDBRANCH  92  93
ENDBRANCH  60  85
ENDBRANCH  34  35
ENDBRANCH  27  29
ENDBRANCH  26  27
ENDBRANCH  25  26
ENDBRANCH  24  25
ENDBRANCH  23  24
ENDBRANCH   1  23
TORSDOF 23
ENDMDL
MODEL 2
REMARK VINA RESULT:      -9.0      4.115     11.586
REMARK SMILES CC[C@H](C)CN(CC)c1ccc(/C=C/C(=O)OCCOCCOC(=O)c2ccc(-c3c4nc(c(-c5c(F)cc(S(=O)(=O)[O-])cc5F)c5ccc([nH]5)c(-c5c(F)cc(S(=O)(=O)[O-])cc5F)c5nc(c(-c6c(F)cc(S(=O)(=O)[O-])cc6F)c6ccc3[nH]6)C=C5)C=C4)cc2)cc1F
REMARK SMILES IDX 19 1 18 2 17 3 15 4 16 5 14 6 13 7 12 8 9 9 10 10 93 11
REMARK SMILES IDX 11 12 92 13 94 14 6 15 5 16 3 17 4 18 2 19 1 20 7 21 8 22
REMARK SMILES IDX 20 23 21 24 22 25 23 26 24 27 25 28 26 29 27 30 91 31 28 32
REMARK SMILES IDX 90 33 29 34 30 35 31 36 84 37 32 38 89 39 83 40 85 41 33 42
REMARK SMILES IDX 88 43 82 44 81 45 34 47 68 48 47 49 67 50 48 51 51 52 66 53
REMARK SMILES IDX 86 54 49 55 50 56 65 58 87 59 52 60 35 61 36 62 45 63 37 64
REMARK SMILES IDX 38 65 44 66 46 67 39 68 40 69 41 70 42 71 43 72 69 73 70 74
REMARK SMILES IDX 79 75 71 76 72 77 78 78 80 79 73 80 74 81 75 82 76 83 77 84
REMARK SMILES IDX 53 85 54 86 63 87 55 88 56 89 62 90 64 91 57 92 58 93 59 94
REMARK SMILES IDX 60 95 61 96
REMARK H PARENT 85 46 51 57
REMARK Flexibility Score: inf
ROOT
ATOM      1  C   UNL A   1      35.236  33.353  28.018  1.00  0.00     0.202 C 
ENDROOT
BRANCH   1   2
ATOM      2  C   UNL A   1      34.564  32.187  28.746  1.00  0.00     0.261 C 
BRANCH   2   3
ATOM      3  O   UNL A   1      34.442  31.050  27.879  1.00  0.00    -0.460 OA
BRANCH   3   4
ATOM      4  C   UNL A   1      33.236  30.914  27.288  1.00  0.00     0.330 C 
ATOM      5  O   UNL A   1      32.358  31.763  27.206  1.00  0.00    -0.247 OA
BRANCH   4   6
ATOM      6  C   UNL A   1      33.096  29.620  26.593  1.00  0.00     0.094 C 
ATOM      7  C   UNL A   1      32.484  28.514  27.047  1.00  0.00     0.016 C 
BRANCH   7   8
ATOM      8  C   UNL A   1      32.397  27.253  26.283  1.00  0.00    -0.022 A 
ATOM      9  C   UNL A   1      32.319  24.707  25.000  1.00  0.00     0.073 A 
ATOM     10  C   UNL A   1      31.171  25.273  25.555  1.00  0.00     0.029 A 
ATOM     11  C   UNL A   1      33.492  25.477  25.038  1.00  0.00     0.147 A 
ATOM     12  C   UNL A   1      31.204  26.527  26.170  1.00  0.00     0.010 A 
ATOM     13  C   UNL A   1      33.544  26.716  25.687  1.00  0.00     0.049 A 
ATOM     14  F   UNL A   1      34.625  24.991  24.504  1.00  0.00    -0.205 F 
BRANCH   9  15
ATOM     15  N   UNL A   1      32.312  23.394  24.539  1.00  0.00    -0.369 N 
BRANCH  15  16
ATOM     16  C   UNL A   1      32.122  22.340  25.550  1.00  0.00     0.120 C 
BRANCH  16  17
ATOM     17  C   UNL A   1      33.364  22.132  26.451  1.00  0.00     0.005 C 
ATOM     18  C   UNL A   1      33.096  22.426  27.937  1.00  0.00     0.009 C 
BRANCH  17  19
ATOM     19  C   UNL A   1      33.934  20.705  26.300  1.00  0.00     0.002 C 
ATOM     20  C   UNL A   1      34.450  20.379  24.905  1.00  0.00     0.004 C 
ENDBRANCH  17  19
ENDBRANCH  16  17
ENDBRANCH  15  16
BRANCH  15  21
ATOM     21  C   UNL A   1      31.930  23.130  23.151  1.00  0.00     0.113 C 
ATOM     22  C   UNL A   1      33.120  23.018  22.205  1.00  0.00     0.027 C 
ENDBRANCH  15  21
ENDBRANCH   9  15
ENDBRANCH   7   8
ENDBRANCH   4   6
ENDBRANCH   3   4
ENDBRANCH   2   3
ENDBRANCH   1   2
BRANCH   1  23
ATOM     23  O   UNL A   1      34.613  34.629  28.178  1.00  0.00    -0.374 OA
BRANCH  23  24
ATOM     24  C   UNL A   1      33.339  34.648  28.826  1.00  0.00     0.202 C 
BRANCH  24  25
ATOM     25  C   UNL A   1      32.877  36.003  29.379  1.00  0.00     0.261 C 
BRANCH  25  26
ATOM     26  O   UNL A   1      33.473  36.294  30.655  1.00  0.00    -0.460 OA
BRANCH  26  27
ATOM     27  C   UNL A   1      32.990  35.574  31.694  1.00  0.00     0.338 C 
ATOM     28  O   UNL A   1      31.813  35.352  31.955  1.00  0.00    -0.246 OA
BRANCH  27  29
ATOM     29  C   UNL A   1      34.101  34.907  32.395  1.00  0.00     0.060 A 
ATOM     30  C   UNL A   1      35.376  35.484  32.302  1.00  0.00     0.016 A 
ATOM     31  C   UNL A   1      33.914  33.709  33.088  1.00  0.00     0.016 A 
ATOM     32  C   UNL A   1      36.476  34.843  32.869  1.00  0.00     0.010 A 
ATOM     33  C   UNL A   1      35.020  33.063  33.645  1.00  0.00     0.010 A 
ATOM     34  C   UNL A   1      36.309  33.611  33.512  1.00  0.00    -0.014 A 
BRANCH  34  35
ATOM     35  C   UNL A   1      37.491  32.817  33.927  1.00  0.00     0.031 A 
ATOM     36  C   UNL A   1      38.176  33.164  35.220  1.00  0.00     0.074 A 
ATOM     37  C   UNL A   1      37.949  31.810  33.163  1.00  0.00     0.049 A 
ATOM     38  N   UNL A   1      39.287  32.692  35.719  1.00  0.00    -0.248 NA
ATOM     39  C   UNL A   1      37.518  34.177  36.063  1.00  0.00     0.031 C 
ATOM     40  C   UNL A   1      37.332  31.344  31.922  1.00  0.00     0.029 A 
ATOM     41  N   UNL A   1      39.049  31.004  33.314  1.00  0.00    -0.354 N 
ATOM     42  C   UNL A   1      39.469  33.357  36.926  1.00  0.00     0.074 A 
ATOM     43  C   UNL A   1      38.367  34.281  37.075  1.00  0.00     0.031 C 
ATOM     44  C   UNL A   1      38.072  30.342  31.417  1.00  0.00     0.029 A 
ATOM     45  C   UNL A   1      39.237  30.126  32.274  1.00  0.00     0.049 A 
ATOM     46  H   UNL A   1      39.648  31.051  34.094  1.00  0.00     0.167 HD
ATOM     47  C   UNL A   1      40.463  33.201  37.831  1.00  0.00     0.037 A 
ATOM     48  C   UNL A   1      40.249  29.270  32.025  1.00  0.00     0.037 A 
ATOM     49  C   UNL A   1      41.554  32.275  37.676  1.00  0.00     0.049 A 
ATOM     50  C   UNL A   1      41.397  29.183  32.998  1.00  0.00     0.074 A 
ATOM     51  C   UNL A   1      42.609  32.039  38.539  1.00  0.00     0.029 A 
ATOM     52  N   UNL A   1      41.730  31.434  36.587  1.00  0.00    -0.354 N 
ATOM     53  N   UNL A   1      41.564  29.821  34.133  1.00  0.00    -0.248 NA
ATOM     54  C   UNL A   1      42.499  28.271  32.656  1.00  0.00     0.031 C 
ATOM     55  C   UNL A   1      43.448  31.090  37.951  1.00  0.00     0.029 A 
ATOM     56  C   UNL A   1      42.890  30.696  36.745  1.00  0.00     0.049 A 
ATOM     57  H   UNL A   1      41.120  31.371  35.817  1.00  0.00     0.167 HD
ATOM     58  C   UNL A   1      42.773  29.370  34.650  1.00  0.00     0.074 A 
ATOM     59  C   UNL A   1      43.298  28.403  33.708  1.00  0.00     0.031 C 
ATOM     60  C   UNL A   1      43.391  29.725  35.803  1.00  0.00     0.037 A 
BRANCH  47  61
ATOM     61  C   UNL A   1      40.434  34.057  39.065  1.00  0.00     0.058 A 
ATOM     62  C   UNL A   1      39.764  33.621  40.220  1.00  0.00     0.135 A 
ATOM     63  C   UNL A   1      41.010  35.337  39.086  1.00  0.00     0.135 A 
ATOM     64  F   UNL A   1      39.203  32.402  40.257  1.00  0.00    -0.206 F 
ATOM     65  C   UNL A   1      39.650  34.429  41.345  1.00  0.00     0.059 A 
ATOM     66  C   UNL A   1      40.930  36.154  40.211  1.00  0.00     0.059 A 
ATOM     67  F   UNL A   1      41.682  35.793  38.018  1.00  0.00    -0.206 F 
ATOM     68  C   UNL A   1      40.235  35.698  41.330  1.00  0.00     0.060 A 
BRANCH  68  69
ATOM     69  S   UNL A   1      40.099  36.725  42.808  1.00  0.00     0.124 S 
ATOM     70  O   UNL A   1      38.998  36.086  43.518  1.00  0.00    -0.237 OA
ATOM     71  O   UNL A   1      41.421  36.571  43.409  1.00  0.00    -0.237 OA
ATOM     72  O   UNL A   1      39.817  38.053  42.272  1.00  0.00    -0.744 OA
ENDBRANCH  68  69
ENDBRANCH  47  61
BRANCH  48  73
ATOM     73  C   UNL A   1      40.225  28.436  30.794  1.00  0.00     0.058 A 
ATOM     74  C   UNL A   1      39.384  27.317  30.686  1.00  0.00     0.135 A 
ATOM     75  C   UNL A   1      41.069  28.725  29.711  1.00  0.00     0.135 A 
ATOM     76  F   UNL A   1      38.559  26.996  31.695  1.00  0.00    -0.206 F 
ATOM     77  C   UNL A   1      39.403  26.497  29.565  1.00  0.00     0.059 A 
ATOM     78  C   UNL A   1      41.088  27.932  28.567  1.00  0.00     0.059 A 
ATOM     79  F   UNL A   1      41.876  29.795  29.759  1.00  0.00    -0.206 F 
ATOM     80  C   UNL A   1      40.263  26.809  28.512  1.00  0.00     0.060 A 
BRANCH  80  81
ATOM     81  S   UNL A   1      40.289  25.717  27.074  1.00  0.00     0.124 S 
ATOM     82  O   UNL A   1      38.896  25.286  27.011  1.00  0.00    -0.237 OA
ATOM     83  O   UNL A   1      40.724  26.619  26.013  1.00  0.00    -0.237 OA
ATOM     84  O   UNL A   1      41.250  24.685  27.451  1.00  0.00    -0.744 OA
ENDBRANCH  80  81
ENDBRANCH  48  73
BRANCH  60  85
ATOM     85  C   UNL A   1      44.695  29.058  36.148  1.00  0.00     0.058 A 
ATOM     86  C   UNL A   1      44.707  27.893  36.932  1.00  0.00     0.135 A 
ATOM     87  C   UNL A   1      45.925  29.646  35.823  1.00  0.00     0.135 A 
ATOM     88  F   UNL A   1      43.555  27.293  37.273  1.00  0.00    -0.206 F 
ATOM     89  C   UNL A   1      45.895  27.357  37.417  1.00  0.00     0.059 A 
ATOM     90  C   UNL A   1      47.129  29.113  36.278  1.00  0.00     0.059 A 
ATOM     91  F   UNL A   1      45.966  30.753  35.066  1.00  0.00    -0.206 F 
ATOM     92  C   UNL A   1      47.100  27.983  37.096  1.00  0.00     0.060 A 
BRANCH  92  93
ATOM     93  S   UNL A   1      48.628  27.301  37.774  1.00  0.00     0.124 S 
ATOM     94  O   UNL A   1      48.989  26.312  36.764  1.00  0.00    -0.237 OA
ATOM     95  O   UNL A   1      49.487  28.479  37.844  1.00  0.00    -0.237 OA
ATOM     96  O   UNL A   1      48.214  26.758  39.065  1.00  0.00    -0.744 OA
ENDBRANCH  92  93
ENDBRANCH  60  85
ENDBRANCH  34  35
ENDBRANCH  27  29
ENDBRANCH  26  27
ENDBRANCH  25  26
ENDBRANCH  24  25
ENDBRANCH  23  24
ENDBRANCH   1  23
TORSDOF 23
ENDMDL
MODEL 3
REMARK VINA RESULT:      -9.0      3.425      6.135
REMARK SMILES CC[C@H](C)CN(CC)c1ccc(/C=C/C(=O)OCCOCCOC(=O)c2ccc(-c3c4nc(c(-c5c(F)cc(S(=O)(=O)[O-])cc5F)c5ccc([nH]5)c(-c5c(F)cc(S(=O)(=O)[O-])cc5F)c5nc(c(-c6c(F)cc(S(=O)(=O)[O-])cc6F)c6ccc3[nH]6)C=C5)C=C4)cc2)cc1F
REMARK SMILES IDX 19 1 18 2 17 3 15 4 16 5 14 6 13 7 12 8 9 9 10 10 93 11
REMARK SMILES IDX 11 12 92 13 94 14 6 15 5 16 3 17 4 18 2 19 1 20 7 21 8 22
REMARK SMILES IDX 20 23 21 24 22 25 23 26 24 27 25 28 26 29 27 30 91 31 28 32
REMARK SMILES IDX 90 33 29 34 30 35 31 36 84 37 32 38 89 39 83 40 85 41 33 42
REMARK SMILES IDX 88 43 82 44 81 45 34 47 68 48 47 49 67 50 48 51 51 52 66 53
REMARK SMILES IDX 86 54 49 55 50 56 65 58 87 59 52 60 35 61 36 62 45 63 37 64
REMARK SMILES IDX 38 65 44 66 46 67 39 68 40 69 41 70 42 71 43 72 69 73 70 74
REMARK SMILES IDX 79 75 71 76 72 77 78 78 80 79 73 80 74 81 75 82 76 83 77 84
REMARK SMILES IDX 53 85 54 86 63 87 55 88 56 89 62 90 64 91 57 92 58 93 59 94
REMARK SMILES IDX 60 95 61 96
REMARK H PARENT 85 46 51 57
REMARK Flexibility Score: inf
ROOT
ATOM      1  C   UNL A   1      41.094  22.605  26.929  1.00  0.00     0.202 C 
ENDROOT
BRANCH   1   2
ATOM      2  C   UNL A   1      39.643  22.415  26.484  1.00  0.00     0.261 C 
BRANCH   2   3
ATOM      3  O   UNL A   1      39.365  21.028  26.236  1.00  0.00    -0.460 OA
BRANCH   3   4
ATOM      4  C   UNL A   1      38.402  20.798  25.318  1.00  0.00     0.330 C 
ATOM      5  O   UNL A   1      38.293  19.815  24.598  1.00  0.00    -0.247 OA
BRANCH   4   6
ATOM      6  C   UNL A   1      37.351  21.834  25.339  1.00  0.00     0.094 C 
ATOM      7  C   UNL A   1      36.839  22.494  24.287  1.00  0.00     0.016 C 
BRANCH   7   8
ATOM      8  C   UNL A   1      35.788  23.526  24.401  1.00  0.00    -0.022 A 
ATOM      9  C   UNL A   1      33.602  25.340  24.658  1.00  0.00     0.073 A 
ATOM     10  C   UNL A   1      34.485  25.117  25.715  1.00  0.00     0.029 A 
ATOM     11  C   UNL A   1      33.881  24.690  23.446  1.00  0.00     0.147 A 
ATOM     12  C   UNL A   1      35.565  24.240  25.586  1.00  0.00     0.010 A 
ATOM     13  C   UNL A   1      34.937  23.779  23.319  1.00  0.00     0.049 A 
ATOM     14  F   UNL A   1      33.075  24.880  22.388  1.00  0.00    -0.205 F 
BRANCH   9  15
ATOM     15  N   UNL A   1      32.441  26.083  24.847  1.00  0.00    -0.369 N 
BRANCH  15  16
ATOM     16  C   UNL A   1      32.553  27.541  24.672  1.00  0.00     0.120 C 
BRANCH  16  17
ATOM     17  C   UNL A   1      32.517  28.317  26.011  1.00  0.00     0.005 C 
ATOM     18  C   UNL A   1      31.710  27.604  27.109  1.00  0.00     0.009 C 
BRANCH  17  19
ATOM     19  C   UNL A   1      33.943  28.613  26.526  1.00  0.00     0.002 C 
ATOM     20  C   UNL A   1      34.117  30.000  27.132  1.00  0.00     0.004 C 
ENDBRANCH  17  19
ENDBRANCH  16  17
ENDBRANCH  15  16
BRANCH  15  21
ATOM     21  C   UNL A   1      31.143  25.438  24.645  1.00  0.00     0.113 C 
ATOM     22  C   UNL A   1      30.268  26.143  23.615  1.00  0.00     0.027 C 
ENDBRANCH  15  21
ENDBRANCH   9  15
ENDBRANCH   7   8
ENDBRANCH   4   6
ENDBRANCH   3   4
ENDBRANCH   2   3
ENDBRANCH   1   2
BRANCH   1  23
ATOM     23  O   UNL A   1      42.090  22.273  25.959  1.00  0.00    -0.374 OA
BRANCH  23  24
ATOM     24  C   UNL A   1      43.303  23.031  25.993  1.00  0.00     0.202 C 
BRANCH  24  25
ATOM     25  C   UNL A   1      43.428  24.163  24.966  1.00  0.00     0.261 C 
BRANCH  25  26
ATOM     26  O   UNL A   1      43.481  25.456  25.595  1.00  0.00    -0.460 OA
BRANCH  26  27
ATOM     27  C   UNL A   1      42.282  26.053  25.784  1.00  0.00     0.338 C 
ATOM     28  O   UNL A   1      41.300  25.987  25.053  1.00  0.00    -0.246 OA
BRANCH  27  29
ATOM     29  C   UNL A   1      42.237  26.668  27.122  1.00  0.00     0.060 A 
ATOM     30  C   UNL A   1      41.353  26.123  28.065  1.00  0.00     0.016 A 
ATOM     31  C   UNL A   1      43.006  27.790  27.438  1.00  0.00     0.016 A 
ATOM     32  C   UNL A   1      41.206  26.723  29.314  1.00  0.00     0.010 A 
ATOM     33  C   UNL A   1      42.848  28.396  28.686  1.00  0.00     0.010 A 
ATOM     34  C   UNL A   1      41.927  27.885  29.617  1.00  0.00    -0.014 A 
BRANCH  34  35
ATOM     35  C   UNL A   1      41.622  28.653  30.848  1.00  0.00     0.031 A 
ATOM     36  C   UNL A   1      40.482  29.634  30.823  1.00  0.00     0.074 A 
ATOM     37  C   UNL A   1      42.351  28.485  31.966  1.00  0.00     0.049 A 
ATOM     38  N   UNL A   1      40.113  30.496  31.733  1.00  0.00    -0.248 NA
ATOM     39  C   UNL A   1      39.647  29.643  29.610  1.00  0.00     0.031 C 
ATOM     40  C   UNL A   1      43.438  27.521  32.127  1.00  0.00     0.029 A 
ATOM     41  N   UNL A   1      42.291  29.130  33.175  1.00  0.00    -0.354 N 
ATOM     42  C   UNL A   1      39.012  31.156  31.200  1.00  0.00     0.074 A 
ATOM     43  C   UNL A   1      38.787  30.613  29.879  1.00  0.00     0.031 C 
ATOM     44  C   UNL A   1      43.954  27.648  33.362  1.00  0.00     0.029 A 
ATOM     45  C   UNL A   1      43.264  28.732  34.061  1.00  0.00     0.049 A 
ATOM     46  H   UNL A   1      41.617  29.815  33.388  1.00  0.00     0.167 HD
ATOM     47  C   UNL A   1      38.255  32.123  31.768  1.00  0.00     0.037 A 
ATOM     48  C   UNL A   1      43.581  29.208  35.282  1.00  0.00     0.037 A 
ATOM     49  C   UNL A   1      38.485  32.654  33.086  1.00  0.00     0.049 A 
ATOM     50  C   UNL A   1      42.785  30.352  35.857  1.00  0.00     0.074 A 
ATOM     51  C   UNL A   1      37.771  33.632  33.754  1.00  0.00     0.029 A 
ATOM     52  N   UNL A   1      39.506  32.253  33.935  1.00  0.00    -0.354 N 
ATOM     53  N   UNL A   1      41.751  30.975  35.343  1.00  0.00    -0.248 NA
ATOM     54  C   UNL A   1      43.202  30.866  37.170  1.00  0.00     0.031 C 
ATOM     55  C   UNL A   1      38.388  33.856  34.988  1.00  0.00     0.029 A 
ATOM     56  C   UNL A   1      39.456  32.982  35.110  1.00  0.00     0.049 A 
ATOM     57  H   UNL A   1      40.169  31.553  33.731  1.00  0.00     0.167 HD
ATOM     58  C   UNL A   1      41.380  31.936  36.277  1.00  0.00     0.074 A 
ATOM     59  C   UNL A   1      42.298  31.812  37.391  1.00  0.00     0.031 C 
ATOM     60  C   UNL A   1      40.369  32.836  36.217  1.00  0.00     0.037 A 
BRANCH  47  61
ATOM     61  C   UNL A   1      37.114  32.686  30.970  1.00  0.00     0.058 A 
ATOM     62  C   UNL A   1      37.350  33.622  29.950  1.00  0.00     0.135 A 
ATOM     63  C   UNL A   1      35.780  32.350  31.256  1.00  0.00     0.135 A 
ATOM     64  F   UNL A   1      38.606  33.971  29.630  1.00  0.00    -0.206 F 
ATOM     65  C   UNL A   1      36.305  34.220  29.255  1.00  0.00     0.059 A 
ATOM     66  C   UNL A   1      34.720  32.918  30.556  1.00  0.00     0.059 A 
ATOM     67  F   UNL A   1      35.501  31.443  32.204  1.00  0.00    -0.206 F 
ATOM     68  C   UNL A   1      34.991  33.864  29.568  1.00  0.00     0.060 A 
BRANCH  68  69
ATOM     69  S   UNL A   1      33.647  34.631  28.638  1.00  0.00     0.124 S 
ATOM     70  O   UNL A   1      33.426  33.660  27.573  1.00  0.00    -0.237 OA
ATOM     71  O   UNL A   1      32.594  34.725  29.646  1.00  0.00    -0.237 OA
ATOM     72  O   UNL A   1      34.213  35.909  28.218  1.00  0.00    -0.744 OA
ENDBRANCH  68  69
ENDBRANCH  47  61
BRANCH  48  73
ATOM     73  C   UNL A   1      44.713  28.608  36.037  1.00  0.00     0.058 A 
ATOM     74  C   UNL A   1      46.031  29.053  35.851  1.00  0.00     0.135 A 
ATOM     75  C   UNL A   1      44.501  27.552  36.937  1.00  0.00     0.135 A 
ATOM     76  F   UNL A   1      46.289  30.058  35.000  1.00  0.00    -0.206 F 
ATOM     77  C   UNL A   1      47.101  28.454  36.504  1.00  0.00     0.059 A 
ATOM     78  C   UNL A   1      45.555  26.952  37.621  1.00  0.00     0.059 A 
ATOM     79  F   UNL A   1      43.257  27.104  37.162  1.00  0.00    -0.206 F 
ATOM     80  C   UNL A   1      46.854  27.400  37.384  1.00  0.00     0.060 A 
BRANCH  80  81
ATOM     81  S   UNL A   1      48.261  26.620  38.204  1.00  0.00     0.124 S 
ATOM     82  O   UNL A   1      48.218  27.252  39.519  1.00  0.00    -0.237 OA
ATOM     83  O   UNL A   1      47.892  25.209  38.167  1.00  0.00    -0.237 OA
ATOM     84  O   UNL A   1      49.393  26.994  37.363  1.00  0.00    -0.744 OA
ENDBRANCH  80  81
ENDBRANCH  48  73
BRANCH  60  85
ATOM     85  C   UNL A   1      40.163  33.755  37.390  1.00  0.00     0.058 A 
ATOM     86  C   UNL A   1      40.947  34.912  37.527  1.00  0.00     0.135 A 
ATOM     87  C   UNL A   1      39.296  33.419  38.439  1.00  0.00     0.135 A 
ATOM     88  F   UNL A   1      41.796  35.276  36.551  1.00  0.00    -0.206 F 
ATOM     89  C   UNL A   1      40.908  35.683  38.684  1.00  0.00     0.059 A 
ATOM     90  C   UNL A   1      39.223  34.190  39.597  1.00  0.00     0.059 A 
ATOM     91  F   UNL A   1      38.518  32.330  38.349  1.00  0.00    -0.206 F 
ATOM     92  C   UNL A   1      40.053  35.305  39.719  1.00  0.00     0.060 A 
BRANCH  92  93
ATOM     93  S   UNL A   1      40.051  36.289  41.233  1.00  0.00     0.124 S 
ATOM     94  O   UNL A   1      38.773  36.987  41.135  1.00  0.00    -0.237 OA
ATOM     95  O   UNL A   1      40.135  35.264  42.268  1.00  0.00    -0.237 OA
ATOM     96  O   UNL A   1      41.237  37.129  41.093  1.00  0.00    -0.744 OA
ENDBRANCH  92  93
ENDBRANCH  60  85
ENDBRANCH  34  35
ENDBRANCH  27  29
ENDBRANCH  26  27
ENDBRANCH  25  26
ENDBRANCH  24  25
ENDBRANCH  23  24
ENDBRANCH   1  23
TORSDOF 23
ENDMDL
