MODEL 1
REMARK VINA RESULT:     -11.9      0.000      0.000
REMARK SMILES CC(C)(C)c1cc(Nc2ccccc2C(=O)OCCOCCOC(=O)c2ccc(-c3c4nc(c(-c5c(F)cc(S(=O)(=O)[O-])cc5F)c5ccc([nH]5)c(-c5c(F)cc(S(=O)(=O)[O-])cc5F)c5nc(c(-c6c(F)cc(S(=O)(=O)[O-])cc6F)c6ccc3[nH]6)C=C5)C=C4)cc2)cc2c1OCC2(C)C
REMARK SMILES IDX 20 1 19 2 18 3 17 4 15 5 16 6 14 7 9 8 10 9 11 10 13 11
REMARK SMILES IDX 12 12 8 13 7 15 5 16 6 17 94 18 93 19 95 20 92 21 97 22
REMARK SMILES IDX 96 23 98 24 99 25 2 26 1 27 3 28 4 29 21 30 22 31 23 32
REMARK SMILES IDX 24 33 25 34 26 35 27 36 91 37 28 38 90 39 29 40 30 41 31 42
REMARK SMILES IDX 84 43 32 44 89 45 83 46 85 47 33 48 88 49 82 50 81 51 34 53
REMARK SMILES IDX 68 54 47 55 67 56 48 57 51 58 66 59 86 60 49 61 50 62 65 64
REMARK SMILES IDX 87 65 52 66 35 67 36 68 45 69 37 70 38 71 44 72 46 73 39 74
REMARK SMILES IDX 40 75 41 76 42 77 43 78 69 79 70 80 79 81 71 82 72 83 78 84
REMARK SMILES IDX 80 85 73 86 74 87 75 88 76 89 77 90 53 91 54 92 63 93 55 94
REMARK SMILES IDX 56 95 62 96 64 97 57 98 58 99 59 100 60 101 61 102
REMARK H PARENT 8 14 85 52 51 63
REMARK Flexibility Score: inf
ROOT
ATOM      1  O   UNL A   1      33.356  29.197  24.244  1.00  0.00    -0.374 OA
ENDROOT
BRANCH   1   2
ATOM      2  C   UNL A   1      34.027  28.441  23.234  1.00  0.00     0.202 C 
BRANCH   2   3
ATOM      3  C   UNL A   1      33.722  26.942  23.186  1.00  0.00     0.261 C 
BRANCH   3   4
ATOM      4  O   UNL A   1      33.950  26.421  21.865  1.00  0.00    -0.460 OA
BRANCH   4   5
ATOM      5  C   UNL A   1      32.856  25.885  21.277  1.00  0.00     0.340 C 
ATOM      6  O   UNL A   1      32.821  25.365  20.171  1.00  0.00    -0.246 OA
BRANCH   5   7
ATOM      7  C   UNL A   1      31.687  25.848  22.196  1.00  0.00     0.083 A 
ATOM      8  C   UNL A   1      31.224  24.723  22.907  1.00  0.00     0.053 A 
ATOM      9  C   UNL A   1      30.174  24.939  23.827  1.00  0.00     0.027 A 
ATOM     10  C   UNL A   1      29.501  26.159  23.925  1.00  0.00     0.002 A 
ATOM     11  C   UNL A   1      30.991  27.074  22.289  1.00  0.00     0.018 A 
ATOM     12  C   UNL A   1      29.885  27.219  23.123  1.00  0.00     0.001 A 
BRANCH   8  13
ATOM     13  N   UNL A   1      31.644  23.396  22.643  1.00  0.00    -0.355 N 
ATOM     14  H   UNL A   1      31.222  22.959  21.868  1.00  0.00     0.167 HD
BRANCH  13  15
ATOM     15  C   UNL A   1      32.596  22.614  23.350  1.00  0.00     0.039 A 
ATOM     16  C   UNL A   1      33.406  20.375  24.102  1.00  0.00     0.002 A 
ATOM     17  C   UNL A   1      32.428  21.215  23.492  1.00  0.00     0.034 A 
ATOM     18  C   UNL A   1      34.562  21.023  24.544  1.00  0.00     0.127 A 
ATOM     19  C   UNL A   1      34.745  22.390  24.410  1.00  0.00     0.006 A 
ATOM     20  O   UNL A   1      35.640  20.411  25.129  1.00  0.00    -0.492 OA
ATOM     21  C   UNL A   1      33.769  23.189  23.847  1.00  0.00     0.034 A 
ATOM     22  C   UNL A   1      36.111  22.791  24.853  1.00  0.00     0.028 C 
ATOM     23  C   UNL A   1      36.547  21.471  25.510  1.00  0.00     0.240 C 
ATOM     24  C   UNL A   1      36.978  23.133  23.632  1.00  0.00     0.020 C 
ATOM     25  C   UNL A   1      36.111  23.954  25.845  1.00  0.00     0.020 C 
BRANCH  16  26
ATOM     26  C   UNL A   1      33.183  18.861  24.322  1.00  0.00    -0.009 C 
ATOM     27  C   UNL A   1      32.278  18.198  23.265  1.00  0.00     0.016 C 
ATOM     28  C   UNL A   1      32.581  18.519  25.704  1.00  0.00     0.016 C 
ATOM     29  C   UNL A   1      34.549  18.171  24.258  1.00  0.00     0.016 C 
ENDBRANCH  16  26
ENDBRANCH  13  15
ENDBRANCH   8  13
ENDBRANCH   5   7
ENDBRANCH   4   5
ENDBRANCH   3   4
ENDBRANCH   2   3
ENDBRANCH   1   2
BRANCH   1  30
ATOM     30  C   UNL A   1      33.013  28.500  25.442  1.00  0.00     0.202 C 
BRANCH  30  31
ATOM     31  C   UNL A   1      34.128  28.303  26.478  1.00  0.00     0.261 C 
BRANCH  31  32
ATOM     32  O   UNL A   1      33.881  29.015  27.701  1.00  0.00    -0.460 OA
BRANCH  32  33
ATOM     33  C   UNL A   1      34.555  30.183  27.847  1.00  0.00     0.338 C 
ATOM     34  O   UNL A   1      34.089  31.313  27.847  1.00  0.00    -0.246 OA
BRANCH  33  35
ATOM     35  C   UNL A   1      35.956  29.875  28.187  1.00  0.00     0.060 A 
ATOM     36  C   UNL A   1      36.950  30.035  27.233  1.00  0.00     0.016 A 
ATOM     37  C   UNL A   1      36.280  29.430  29.478  1.00  0.00     0.016 A 
ATOM     38  C   UNL A   1      38.266  29.742  27.585  1.00  0.00     0.010 A 
ATOM     39  C   UNL A   1      37.606  29.110  29.810  1.00  0.00     0.010 A 
ATOM     40  C   UNL A   1      38.624  29.247  28.861  1.00  0.00    -0.014 A 
BRANCH  40  41
ATOM     41  C   UNL A   1      40.062  28.932  29.168  1.00  0.00     0.031 A 
ATOM     42  C   UNL A   1      40.706  27.602  28.821  1.00  0.00     0.074 A 
ATOM     43  C   UNL A   1      40.839  29.899  29.702  1.00  0.00     0.049 A 
ATOM     44  N   UNL A   1      41.955  27.227  28.971  1.00  0.00    -0.248 NA
ATOM     45  C   UNL A   1      39.849  26.565  28.226  1.00  0.00     0.031 C 
ATOM     46  C   UNL A   1      40.371  31.233  30.078  1.00  0.00     0.029 A 
ATOM     47  N   UNL A   1      42.183  29.929  29.987  1.00  0.00    -0.354 N 
ATOM     48  C   UNL A   1      42.038  25.921  28.490  1.00  0.00     0.074 A 
ATOM     49  C   UNL A   1      40.701  25.557  28.069  1.00  0.00     0.031 C 
ATOM     50  C   UNL A   1      41.417  31.974  30.464  1.00  0.00     0.029 A 
ATOM     51  C   UNL A   1      42.617  31.145  30.461  1.00  0.00     0.049 A 
ATOM     52  H   UNL A   1      42.778  29.154  29.862  1.00  0.00     0.167 HD
ATOM     53  C   UNL A   1      43.121  25.106  28.398  1.00  0.00     0.037 A 
ATOM     54  C   UNL A   1      43.831  31.557  30.876  1.00  0.00     0.037 A 
ATOM     55  C   UNL A   1      44.458  25.459  28.820  1.00  0.00     0.049 A 
ATOM     56  C   UNL A   1      44.991  30.607  30.852  1.00  0.00     0.074 A 
ATOM     57  C   UNL A   1      45.610  24.689  28.758  1.00  0.00     0.029 A 
ATOM     58  N   UNL A   1      44.827  26.668  29.390  1.00  0.00    -0.354 N 
ATOM     59  N   UNL A   1      45.040  29.380  30.393  1.00  0.00    -0.248 NA
ATOM     60  C   UNL A   1      46.259  31.091  31.417  1.00  0.00     0.031 C 
ATOM     61  C   UNL A   1      46.657  25.406  29.344  1.00  0.00     0.029 A 
ATOM     62  C   UNL A   1      46.177  26.649  29.715  1.00  0.00     0.049 A 
ATOM     63  H   UNL A   1      44.221  27.429  29.541  1.00  0.00     0.167 HD
ATOM     64  C   UNL A   1      46.345  28.948  30.607  1.00  0.00     0.074 A 
ATOM     65  C   UNL A   1      47.059  30.052  31.212  1.00  0.00     0.031 C 
ATOM     66  C   UNL A   1      46.893  27.740  30.329  1.00  0.00     0.037 A 
BRANCH  53  67
ATOM     67  C   UNL A   1      42.930  23.721  27.827  1.00  0.00     0.058 A 
ATOM     68  C   UNL A   1      42.722  22.604  28.651  1.00  0.00     0.135 A 
ATOM     69  C   UNL A   1      42.840  23.528  26.436  1.00  0.00     0.135 A 
ATOM     70  F   UNL A   1      42.799  22.725  29.986  1.00  0.00    -0.206 F 
ATOM     71  C   UNL A   1      42.447  21.346  28.119  1.00  0.00     0.059 A 
ATOM     72  C   UNL A   1      42.541  22.285  25.883  1.00  0.00     0.059 A 
ATOM     73  F   UNL A   1      43.019  24.561  25.599  1.00  0.00    -0.206 F 
ATOM     74  C   UNL A   1      42.355  21.197  26.734  1.00  0.00     0.060 A 
BRANCH  74  75
ATOM     75  S   UNL A   1      41.988  19.559  26.064  1.00  0.00     0.124 S 
ATOM     76  O   UNL A   1      42.867  19.518  24.899  1.00  0.00    -0.237 OA
ATOM     77  O   UNL A   1      42.359  18.681  27.169  1.00  0.00    -0.237 OA
ATOM     78  O   UNL A   1      40.560  19.622  25.767  1.00  0.00    -0.744 OA
ENDBRANCH  74  75
ENDBRANCH  53  67
BRANCH  54  79
ATOM     79  C   UNL A   1      43.993  32.948  31.382  1.00  0.00     0.058 A 
ATOM     80  C   UNL A   1      44.124  34.031  30.502  1.00  0.00     0.135 A 
ATOM     81  C   UNL A   1      43.977  33.222  32.760  1.00  0.00     0.135 A 
ATOM     82  F   UNL A   1      44.160  33.818  29.177  1.00  0.00    -0.206 F 
ATOM     83  C   UNL A   1      44.227  35.337  30.968  1.00  0.00     0.059 A 
ATOM     84  C   UNL A   1      44.043  34.520  33.248  1.00  0.00     0.059 A 
ATOM     85  F   UNL A   1      43.845  32.220  33.644  1.00  0.00    -0.206 F 
ATOM     86  C   UNL A   1      44.174  35.572  32.344  1.00  0.00     0.060 A 
BRANCH  86  87
ATOM     87  S   UNL A   1      44.233  37.277  32.933  1.00  0.00     0.124 S 
ATOM     88  O   UNL A   1      42.976  37.378  33.666  1.00  0.00    -0.237 OA
ATOM     89  O   UNL A   1      45.447  37.277  33.744  1.00  0.00    -0.237 OA
ATOM     90  O   UNL A   1      44.311  38.056  31.701  1.00  0.00    -0.744 OA
ENDBRANCH  86  87
ENDBRANCH  54  79
BRANCH  66  91
ATOM     91  C   UNL A   1      48.347  27.539  30.669  1.00  0.00     0.058 A 
ATOM     92  C   UNL A   1      49.368  27.877  29.765  1.00  0.00     0.135 A 
ATOM     93  C   UNL A   1      48.729  27.047  31.928  1.00  0.00     0.135 A 
ATOM     94  F   UNL A   1      49.061  28.343  28.544  1.00  0.00    -0.206 F 
ATOM     95  C   UNL A   1      50.711  27.711  30.087  1.00  0.00     0.059 A 
ATOM     96  C   UNL A   1      50.068  26.900  32.282  1.00  0.00     0.059 A 
ATOM     97  F   UNL A   1      47.797  26.714  32.836  1.00  0.00    -0.206 F 
ATOM     98  C   UNL A   1      51.052  27.227  31.351  1.00  0.00     0.060 A 
BRANCH  98  99
ATOM     99  S   UNL A   1      52.802  27.046  31.762  1.00  0.00     0.124 S 
ATOM    100  O   UNL A   1      53.077  25.691  31.297  1.00  0.00    -0.237 OA
ATOM    101  O   UNL A   1      53.415  28.119  30.986  1.00  0.00    -0.237 OA
ATOM    102  O   UNL A   1      52.834  27.230  33.210  1.00  0.00    -0.744 OA
ENDBRANCH  98  99
ENDBRANCH  66  91
ENDBRANCH  40  41
ENDBRANCH  33  35
ENDBRANCH  32  33
ENDBRANCH  31  32
ENDBRANCH  30  31
ENDBRANCH   1  30
TORSDOF 20
ENDMDL
MODEL 2
REMARK VINA RESULT:     -11.9      2.163      7.954
REMARK SMILES CC(C)(C)c1cc(Nc2ccccc2C(=O)OCCOCCOC(=O)c2ccc(-c3c4nc(c(-c5c(F)cc(S(=O)(=O)[O-])cc5F)c5ccc([nH]5)c(-c5c(F)cc(S(=O)(=O)[O-])cc5F)c5nc(c(-c6c(F)cc(S(=O)(=O)[O-])cc6F)c6ccc3[nH]6)C=C5)C=C4)cc2)cc2c1OCC2(C)C
REMARK SMILES IDX 20 1 19 2 18 3 17 4 15 5 16 6 14 7 9 8 10 9 11 10 13 11
REMARK SMILES IDX 12 12 8 13 7 15 5 16 6 17 94 18 93 19 95 20 92 21 97 22
REMARK SMILES IDX 96 23 98 24 99 25 2 26 1 27 3 28 4 29 21 30 22 31 23 32
REMARK SMILES IDX 24 33 25 34 26 35 27 36 91 37 28 38 90 39 29 40 30 41 31 42
REMARK SMILES IDX 84 43 32 44 89 45 83 46 85 47 33 48 88 49 82 50 81 51 34 53
REMARK SMILES IDX 68 54 47 55 67 56 48 57 51 58 66 59 86 60 49 61 50 62 65 64
REMARK SMILES IDX 87 65 52 66 35 67 36 68 45 69 37 70 38 71 44 72 46 73 39 74
REMARK SMILES IDX 40 75 41 76 42 77 43 78 69 79 70 80 79 81 71 82 72 83 78 84
REMARK SMILES IDX 80 85 73 86 74 87 75 88 76 89 77 90 53 91 54 92 63 93 55 94
REMARK SMILES IDX 56 95 62 96 64 97 57 98 58 99 59 100 60 101 61 102
REMARK H PARENT 8 14 85 52 51 63
REMARK Flexibility Score: inf
ROOT
ATOM      1  O   UNL A   1      33.264  29.289  24.045  1.00  0.00    -0.374 OA
ENDROOT
BRANCH   1   2
ATOM      2  C   UNL A   1      34.067  28.676  23.034  1.00  0.00     0.202 C 
BRANCH   2   3
ATOM      3  C   UNL A   1      33.893  27.168  22.843  1.00  0.00     0.261 C 
BRANCH   3   4
ATOM      4  O   UNL A   1      33.575  26.865  21.473  1.00  0.00    -0.460 OA
BRANCH   4   5
ATOM      5  C   UNL A   1      32.789  25.777  21.308  1.00  0.00     0.340 C 
ATOM      6  O   UNL A   1      33.026  24.828  20.574  1.00  0.00    -0.246 OA
BRANCH   5   7
ATOM      7  C   UNL A   1      31.638  25.768  22.250  1.00  0.00     0.083 A 
ATOM      8  C   UNL A   1      31.179  24.662  22.992  1.00  0.00     0.053 A 
ATOM      9  C   UNL A   1      30.149  24.904  23.928  1.00  0.00     0.027 A 
ATOM     10  C   UNL A   1      29.490  26.133  24.016  1.00  0.00     0.002 A 
ATOM     11  C   UNL A   1      30.956  27.002  22.335  1.00  0.00     0.018 A 
ATOM     12  C   UNL A   1      29.868  27.174  23.187  1.00  0.00     0.001 A 
BRANCH   8  13
ATOM     13  N   UNL A   1      31.581  23.325  22.743  1.00  0.00    -0.355 N 
ATOM     14  H   UNL A   1      31.123  22.871  21.999  1.00  0.00     0.167 HD
BRANCH  13  15
ATOM     15  C   UNL A   1      32.560  22.557  23.428  1.00  0.00     0.039 A 
ATOM     16  C   UNL A   1      33.420  20.329  24.157  1.00  0.00     0.002 A 
ATOM     17  C   UNL A   1      32.416  21.155  23.571  1.00  0.00     0.034 A 
ATOM     18  C   UNL A   1      34.575  20.994  24.576  1.00  0.00     0.127 A 
ATOM     19  C   UNL A   1      34.735  22.363  24.441  1.00  0.00     0.006 A 
ATOM     20  O   UNL A   1      35.675  20.398  25.136  1.00  0.00    -0.492 OA
ATOM     21  C   UNL A   1      33.734  23.149  23.901  1.00  0.00     0.034 A 
ATOM     22  C   UNL A   1      36.104  22.785  24.855  1.00  0.00     0.028 C 
ATOM     23  C   UNL A   1      36.574  21.470  25.500  1.00  0.00     0.240 C 
ATOM     24  C   UNL A   1      36.939  23.142  23.617  1.00  0.00     0.020 C 
ATOM     25  C   UNL A   1      36.107  23.945  25.850  1.00  0.00     0.020 C 
BRANCH  16  26
ATOM     26  C   UNL A   1      33.225  18.811  24.379  1.00  0.00    -0.009 C 
ATOM     27  C   UNL A   1      32.623  18.447  25.751  1.00  0.00     0.016 C 
ATOM     28  C   UNL A   1      34.529  17.994  24.232  1.00  0.00     0.016 C 
ATOM     29  C   UNL A   1      32.266  18.298  23.302  1.00  0.00     0.016 C 
ENDBRANCH  16  26
ENDBRANCH  13  15
ENDBRANCH   8  13
ENDBRANCH   5   7
ENDBRANCH   4   5
ENDBRANCH   3   4
ENDBRANCH   2   3
ENDBRANCH   1   2
BRANCH   1  30
ATOM     30  C   UNL A   1      32.885  28.463  25.147  1.00  0.00     0.202 C 
BRANCH  30  31
ATOM     31  C   UNL A   1      33.945  28.213  26.228  1.00  0.00     0.261 C 
BRANCH  31  32
ATOM     32  O   UNL A   1      33.686  28.943  27.438  1.00  0.00    -0.460 OA
BRANCH  32  33
ATOM     33  C   UNL A   1      34.312  30.142  27.546  1.00  0.00     0.338 C 
ATOM     34  O   UNL A   1      33.830  31.249  27.360  1.00  0.00    -0.246 OA
BRANCH  33  35
ATOM     35  C   UNL A   1      35.658  29.919  28.105  1.00  0.00     0.060 A 
ATOM     36  C   UNL A   1      35.797  29.457  29.406  1.00  0.00     0.016 A 
ATOM     37  C   UNL A   1      36.792  30.165  27.317  1.00  0.00     0.016 A 
ATOM     38  C   UNL A   1      37.081  29.250  29.906  1.00  0.00     0.010 A 
ATOM     39  C   UNL A   1      38.080  29.981  27.844  1.00  0.00     0.010 A 
ATOM     40  C   UNL A   1      38.249  29.532  29.158  1.00  0.00    -0.014 A 
BRANCH  40  41
ATOM     41  C   UNL A   1      39.604  29.304  29.766  1.00  0.00     0.031 A 
ATOM     42  C   UNL A   1      40.103  30.069  30.977  1.00  0.00     0.074 A 
ATOM     43  C   UNL A   1      40.383  28.319  29.267  1.00  0.00     0.049 A 
ATOM     44  N   UNL A   1      41.226  29.922  31.641  1.00  0.00    -0.248 NA
ATOM     45  C   UNL A   1      39.237  31.127  31.518  1.00  0.00     0.031 C 
ATOM     46  C   UNL A   1      40.038  27.485  28.114  1.00  0.00     0.029 A 
ATOM     47  N   UNL A   1      41.599  27.827  29.677  1.00  0.00    -0.354 N 
ATOM     48  C   UNL A   1      41.203  30.858  32.673  1.00  0.00     0.074 A 
ATOM     49  C   UNL A   1      39.962  31.591  32.530  1.00  0.00     0.031 C 
ATOM     50  C   UNL A   1      40.972  26.538  27.961  1.00  0.00     0.029 A 
ATOM     51  C   UNL A   1      42.035  26.753  28.937  1.00  0.00     0.049 A 
ATOM     52  H   UNL A   1      42.107  28.207  30.430  1.00  0.00     0.167 HD
ATOM     53  C   UNL A   1      42.118  31.081  33.653  1.00  0.00     0.037 A 
ATOM     54  C   UNL A   1      43.168  26.027  29.003  1.00  0.00     0.037 A 
ATOM     55  C   UNL A   1      43.361  30.357  33.801  1.00  0.00     0.049 A 
ATOM     56  C   UNL A   1      44.206  26.355  30.035  1.00  0.00     0.074 A 
ATOM     57  C   UNL A   1      44.341  30.523  34.768  1.00  0.00     0.029 A 
ATOM     58  N   UNL A   1      43.805  29.345  32.964  1.00  0.00    -0.354 N 
ATOM     59  N   UNL A   1      44.157  27.245  30.997  1.00  0.00    -0.248 NA
ATOM     60  C   UNL A   1      45.461  25.592  29.982  1.00  0.00     0.031 C 
ATOM     61  C   UNL A   1      45.401  29.658  34.481  1.00  0.00     0.029 A 
ATOM     62  C   UNL A   1      45.058  28.905  33.372  1.00  0.00     0.049 A 
ATOM     63  H   UNL A   1      43.306  28.990  32.193  1.00  0.00     0.167 HD
ATOM     64  C   UNL A   1      45.371  27.142  31.668  1.00  0.00     0.074 A 
ATOM     65  C   UNL A   1      46.123  26.088  31.019  1.00  0.00     0.031 C 
ATOM     66  C   UNL A   1      45.819  27.865  32.724  1.00  0.00     0.037 A 
BRANCH  53  67
ATOM     67  C   UNL A   1      41.839  32.170  34.661  1.00  0.00     0.058 A 
ATOM     68  C   UNL A   1      42.142  33.515  34.400  1.00  0.00     0.135 A 
ATOM     69  C   UNL A   1      41.155  31.878  35.856  1.00  0.00     0.135 A 
ATOM     70  F   UNL A   1      42.797  33.855  33.278  1.00  0.00    -0.206 F 
ATOM     71  C   UNL A   1      41.792  34.529  35.290  1.00  0.00     0.059 A 
ATOM     72  C   UNL A   1      40.773  32.878  36.748  1.00  0.00     0.059 A 
ATOM     73  F   UNL A   1      40.829  30.612  36.155  1.00  0.00    -0.206 F 
ATOM     74  C   UNL A   1      41.105  34.200  36.461  1.00  0.00     0.060 A 
BRANCH  74  75
ATOM     75  S   UNL A   1      40.652  35.529  37.597  1.00  0.00     0.124 S 
ATOM     76  O   UNL A   1      41.961  35.959  38.079  1.00  0.00    -0.237 OA
ATOM     77  O   UNL A   1      39.961  36.468  36.718  1.00  0.00    -0.237 OA
ATOM     78  O   UNL A   1      39.810  34.864  38.586  1.00  0.00    -0.744 OA
ENDBRANCH  74  75
ENDBRANCH  53  67
BRANCH  54  79
ATOM     79  C   UNL A   1      43.385  24.925  28.026  1.00  0.00     0.058 A 
ATOM     80  C   UNL A   1      44.001  25.162  26.789  1.00  0.00     0.135 A 
ATOM     81  C   UNL A   1      43.016  23.605  28.333  1.00  0.00     0.135 A 
ATOM     82  F   UNL A   1      44.357  26.409  26.444  1.00  0.00    -0.206 F 
ATOM     83  C   UNL A   1      44.249  24.128  25.892  1.00  0.00     0.059 A 
ATOM     84  C   UNL A   1      43.285  22.551  27.469  1.00  0.00     0.059 A 
ATOM     85  F   UNL A   1      42.431  23.325  29.508  1.00  0.00    -0.206 F 
ATOM     86  C   UNL A   1      43.897  22.824  26.248  1.00  0.00     0.060 A 
BRANCH  86  87
ATOM     87  S   UNL A   1      44.293  21.481  25.108  1.00  0.00     0.124 S 
ATOM     88  O   UNL A   1      43.237  20.520  25.410  1.00  0.00    -0.237 OA
ATOM     89  O   UNL A   1      44.201  22.144  23.811  1.00  0.00    -0.237 OA
ATOM     90  O   UNL A   1      45.639  21.086  25.509  1.00  0.00    -0.744 OA
ENDBRANCH  86  87
ENDBRANCH  54  79
BRANCH  66  91
ATOM     91  C   UNL A   1      47.189  27.542  33.260  1.00  0.00     0.058 A 
ATOM     92  C   UNL A   1      47.387  26.532  34.215  1.00  0.00     0.135 A 
ATOM     93  C   UNL A   1      48.324  28.218  32.782  1.00  0.00     0.135 A 
ATOM     94  F   UNL A   1      46.337  25.861  34.714  1.00  0.00    -0.206 F 
ATOM     95  C   UNL A   1      48.655  26.220  34.694  1.00  0.00     0.059 A 
ATOM     96  C   UNL A   1      49.606  27.902  33.225  1.00  0.00     0.059 A 
ATOM     97  F   UNL A   1      48.198  29.188  31.862  1.00  0.00    -0.206 F 
ATOM     98  C   UNL A   1      49.761  26.907  34.189  1.00  0.00     0.060 A 
BRANCH  98  99
ATOM     99  S   UNL A   1      51.402  26.467  34.801  1.00  0.00     0.124 S 
ATOM    100  O   UNL A   1      52.215  27.560  34.278  1.00  0.00    -0.237 OA
ATOM    101  O   UNL A   1      51.203  26.461  36.247  1.00  0.00    -0.237 OA
ATOM    102  O   UNL A   1      51.651  25.159  34.202  1.00  0.00    -0.744 OA
ENDBRANCH  98  99
ENDBRANCH  66  91
ENDBRANCH  40  41
ENDBRANCH  33  35
ENDBRANCH  32  33
ENDBRANCH  31  32
ENDBRANCH  30  31
ENDBRANCH   1  30
TORSDOF 20
ENDMDL
MODEL 3
REMARK VINA RESULT:     -11.8      4.537      9.918
REMARK SMILES CC(C)(C)c1cc(Nc2ccccc2C(=O)OCCOCCOC(=O)c2ccc(-c3c4nc(c(-c5c(F)cc(S(=O)(=O)[O-])cc5F)c5ccc([nH]5)c(-c5c(F)cc(S(=O)(=O)[O-])cc5F)c5nc(c(-c6c(F)cc(S(=O)(=O)[O-])cc6F)c6ccc3[nH]6)C=C5)C=C4)cc2)cc2c1OCC2(C)C
REMARK SMILES IDX 20 1 19 2 18 3 17 4 15 5 16 6 14 7 9 8 10 9 11 10 13 11
REMARK SMILES IDX 12 12 8 13 7 15 5 16 6 17 94 18 93 19 95 20 92 21 97 22
REMARK SMILES IDX 96 23 98 24 99 25 2 26 1 27 3 28 4 29 21 30 22 31 23 32
REMARK SMILES IDX 24 33 25 34 26 35 27 36 91 37 28 38 90 39 29 40 30 41 31 42
REMARK SMILES IDX 84 43 32 44 89 45 83 46 85 47 33 48 88 49 82 50 81 51 34 53
REMARK SMILES IDX 68 54 47 55 67 56 48 57 51 58 66 59 86 60 49 61 50 62 65 64
REMARK SMILES IDX 87 65 52 66 35 67 36 68 45 69 37 70 38 71 44 72 46 73 39 74
REMARK SMILES IDX 40 75 41 76 42 77 43 78 69 79 70 80 79 81 71 82 72 83 78 84
REMARK SMILES IDX 80 85 73 86 74 87 75 88 76 89 77 90 53 91 54 92 63 93 55 94
REMARK SMILES IDX 56 95 62 96 64 97 57 98 58 99 59 100 60 101 61 102
REMARK H PARENT 8 14 85 52 51 63
REMARK Flexibility Score: inf
ROOT
ATOM      1  O   UNL A   1      40.609  21.122  26.829  1.00  0.00    -0.374 OA
ENDROOT
BRANCH   1   2
ATOM      2  C   UNL A   1      39.464  20.804  26.036  1.00  0.00     0.202 C 
BRANCH   2   3
ATOM      3  C   UNL A   1      38.498  21.953  25.738  1.00  0.00     0.261 C 
BRANCH   3   4
ATOM      4  O   UNL A   1      37.136  21.495  25.792  1.00  0.00    -0.460 OA
BRANCH   4   5
ATOM      5  C   UNL A   1      36.235  22.350  25.255  1.00  0.00     0.340 C 
ATOM      6  O   UNL A   1      36.494  23.425  24.733  1.00  0.00    -0.246 OA
BRANCH   5   7
ATOM      7  C   UNL A   1      34.866  21.771  25.219  1.00  0.00     0.083 A 
ATOM      8  C   UNL A   1      33.671  22.443  25.546  1.00  0.00     0.053 A 
ATOM      9  C   UNL A   1      32.464  21.745  25.319  1.00  0.00     0.027 A 
ATOM     10  C   UNL A   1      32.436  20.398  24.947  1.00  0.00     0.002 A 
ATOM     11  C   UNL A   1      34.828  20.406  24.858  1.00  0.00     0.018 A 
ATOM     12  C   UNL A   1      33.624  19.715  24.755  1.00  0.00     0.001 A 
BRANCH   8  13
ATOM     13  N   UNL A   1      33.627  23.692  26.216  1.00  0.00    -0.355 N 
ATOM     14  H   UNL A   1      33.722  23.656  27.195  1.00  0.00     0.167 HD
BRANCH  13  15
ATOM     15  C   UNL A   1      33.464  24.987  25.657  1.00  0.00     0.039 A 
ATOM     16  C   UNL A   1      32.896  26.426  23.697  1.00  0.00     0.002 A 
ATOM     17  C   UNL A   1      33.169  25.155  24.281  1.00  0.00     0.034 A 
ATOM     18  C   UNL A   1      32.923  27.510  24.578  1.00  0.00     0.127 A 
ATOM     19  C   UNL A   1      33.205  27.365  25.927  1.00  0.00     0.006 A 
ATOM     20  O   UNL A   1      32.660  28.812  24.242  1.00  0.00    -0.492 OA
ATOM     21  C   UNL A   1      33.501  26.127  26.464  1.00  0.00     0.034 A 
ATOM     22  C   UNL A   1      33.044  28.659  26.648  1.00  0.00     0.028 C 
ATOM     23  C   UNL A   1      32.901  29.593  25.435  1.00  0.00     0.240 C 
ATOM     24  C   UNL A   1      31.766  28.630  27.499  1.00  0.00     0.020 C 
ATOM     25  C   UNL A   1      34.250  29.025  27.515  1.00  0.00     0.020 C 
BRANCH  16  26
ATOM     26  C   UNL A   1      32.649  26.611  22.182  1.00  0.00    -0.009 C 
ATOM     27  C   UNL A   1      32.761  25.310  21.363  1.00  0.00     0.016 C 
ATOM     28  C   UNL A   1      33.599  27.637  21.523  1.00  0.00     0.016 C 
ATOM     29  C   UNL A   1      31.228  27.151  21.999  1.00  0.00     0.016 C 
ENDBRANCH  16  26
ENDBRANCH  13  15
ENDBRANCH   8  13
ENDBRANCH   5   7
ENDBRANCH   4   5
ENDBRANCH   3   4
ENDBRANCH   2   3
ENDBRANCH   1   2
BRANCH   1  30
ATOM     30  C   UNL A   1      41.821  21.392  26.123  1.00  0.00     0.202 C 
BRANCH  30  31
ATOM     31  C   UNL A   1      42.413  22.801  26.267  1.00  0.00     0.261 C 
BRANCH  31  32
ATOM     32  O   UNL A   1      41.405  23.816  26.397  1.00  0.00    -0.460 OA
BRANCH  32  33
ATOM     33  C   UNL A   1      41.794  25.075  26.076  1.00  0.00     0.338 C 
ATOM     34  O   UNL A   1      42.143  25.486  24.980  1.00  0.00    -0.246 OA
BRANCH  33  35
ATOM     35  C   UNL A   1      41.563  25.947  27.243  1.00  0.00     0.060 A 
ATOM     36  C   UNL A   1      42.393  27.035  27.466  1.00  0.00     0.016 A 
ATOM     37  C   UNL A   1      40.500  25.677  28.118  1.00  0.00     0.016 A 
ATOM     38  C   UNL A   1      42.147  27.846  28.574  1.00  0.00     0.010 A 
ATOM     39  C   UNL A   1      40.282  26.483  29.246  1.00  0.00     0.010 A 
ATOM     40  C   UNL A   1      41.114  27.578  29.503  1.00  0.00    -0.014 A 
BRANCH  40  41
ATOM     41  C   UNL A   1      40.917  28.482  30.688  1.00  0.00     0.031 A 
ATOM     42  C   UNL A   1      41.836  28.470  31.894  1.00  0.00     0.074 A 
ATOM     43  C   UNL A   1      39.929  29.401  30.645  1.00  0.00     0.049 A 
ATOM     44  N   UNL A   1      41.817  29.245  32.955  1.00  0.00    -0.248 NA
ATOM     45  C   UNL A   1      42.917  27.473  31.918  1.00  0.00     0.031 C 
ATOM     46  C   UNL A   1      38.971  29.548  29.549  1.00  0.00     0.029 A 
ATOM     47  N   UNL A   1      39.585  30.406  31.519  1.00  0.00    -0.354 N 
ATOM     48  C   UNL A   1      42.874  28.837  33.765  1.00  0.00     0.074 A 
ATOM     49  C   UNL A   1      43.500  27.721  33.086  1.00  0.00     0.031 C 
ATOM     50  C   UNL A   1      38.207  30.624  29.773  1.00  0.00     0.029 A 
ATOM     51  C   UNL A   1      38.547  31.190  31.073  1.00  0.00     0.049 A 
ATOM     52  H   UNL A   1      40.041  30.550  32.380  1.00  0.00     0.167 HD
ATOM     53  C   UNL A   1      43.291  29.345  34.954  1.00  0.00     0.037 A 
ATOM     54  C   UNL A   1      37.909  32.231  31.643  1.00  0.00     0.037 A 
ATOM     55  C   UNL A   1      42.670  30.455  35.641  1.00  0.00     0.049 A 
ATOM     56  C   UNL A   1      38.330  32.713  33.000  1.00  0.00     0.074 A 
ATOM     57  C   UNL A   1      43.035  31.030  36.849  1.00  0.00     0.029 A 
ATOM     58  N   UNL A   1      41.556  31.151  35.198  1.00  0.00    -0.354 N 
ATOM     59  N   UNL A   1      39.332  32.308  33.743  1.00  0.00    -0.248 NA
ATOM     60  C   UNL A   1      37.524  33.783  33.605  1.00  0.00     0.031 C 
ATOM     61  C   UNL A   1      42.109  32.028  37.165  1.00  0.00     0.029 A 
ATOM     62  C   UNL A   1      41.201  32.122  36.126  1.00  0.00     0.049 A 
ATOM     63  H   UNL A   1      41.085  30.982  34.350  1.00  0.00     0.167 HD
ATOM     64  C   UNL A   1      39.281  33.080  34.899  1.00  0.00     0.074 A 
ATOM     65  C   UNL A   1      38.167  33.991  34.747  1.00  0.00     0.031 C 
ATOM     66  C   UNL A   1      40.086  33.027  35.988  1.00  0.00     0.037 A 
BRANCH  53  67
ATOM     67  C   UNL A   1      44.483  28.707  35.628  1.00  0.00     0.058 A 
ATOM     68  C   UNL A   1      45.790  29.171  35.412  1.00  0.00     0.135 A 
ATOM     69  C   UNL A   1      44.304  27.694  36.588  1.00  0.00     0.135 A 
ATOM     70  F   UNL A   1      46.025  30.133  34.506  1.00  0.00    -0.206 F 
ATOM     71  C   UNL A   1      46.876  28.647  36.111  1.00  0.00     0.059 A 
ATOM     72  C   UNL A   1      45.371  27.173  37.316  1.00  0.00     0.059 A 
ATOM     73  F   UNL A   1      43.076  27.218  36.844  1.00  0.00    -0.206 F 
ATOM     74  C   UNL A   1      46.656  27.650  37.064  1.00  0.00     0.060 A 
BRANCH  74  75
ATOM     75  S   UNL A   1      48.075  26.990  37.966  1.00  0.00     0.124 S 
ATOM     76  O   UNL A   1      48.243  25.686  37.331  1.00  0.00    -0.237 OA
ATOM     77  O   UNL A   1      49.113  27.974  37.676  1.00  0.00    -0.237 OA
ATOM     78  O   UNL A   1      47.616  26.956  39.351  1.00  0.00    -0.744 OA
ENDBRANCH  74  75
ENDBRANCH  53  67
BRANCH  54  79
ATOM     79  C   UNL A   1      36.773  32.871  30.925  1.00  0.00     0.058 A 
ATOM     80  C   UNL A   1      35.444  32.602  31.281  1.00  0.00     0.135 A 
ATOM     81  C   UNL A   1      37.000  33.797  29.893  1.00  0.00     0.135 A 
ATOM     82  F   UNL A   1      35.176  31.712  32.250  1.00  0.00    -0.206 F 
ATOM     83  C   UNL A   1      34.381  33.232  30.646  1.00  0.00     0.059 A 
ATOM     84  C   UNL A   1      35.956  34.466  29.268  1.00  0.00     0.059 A 
ATOM     85  F   UNL A   1      38.255  34.096  29.521  1.00  0.00    -0.206 F 
ATOM     86  C   UNL A   1      34.648  34.172  29.647  1.00  0.00     0.060 A 
BRANCH  86  87
ATOM     87  S   UNL A   1      33.262  35.039  28.882  1.00  0.00     0.124 S 
ATOM     88  O   UNL A   1      32.714  34.005  28.012  1.00  0.00    -0.237 OA
ATOM     89  O   UNL A   1      32.450  35.397  30.040  1.00  0.00    -0.237 OA
ATOM     90  O   UNL A   1      33.902  36.162  28.203  1.00  0.00    -0.744 OA
ENDBRANCH  86  87
ENDBRANCH  54  79
BRANCH  66  91
ATOM     91  C   UNL A   1      39.803  33.989  37.112  1.00  0.00     0.058 A 
ATOM     92  C   UNL A   1      39.053  33.608  38.236  1.00  0.00     0.135 A 
ATOM     93  C   UNL A   1      40.326  35.292  37.090  1.00  0.00     0.135 A 
ATOM     94  F   UNL A   1      38.521  32.377  38.307  1.00  0.00    -0.206 F 
ATOM     95  C   UNL A   1      38.810  34.490  39.284  1.00  0.00     0.059 A 
ATOM     96  C   UNL A   1      40.121  36.183  38.141  1.00  0.00     0.059 A 
ATOM     97  F   UNL A   1      41.058  35.710  36.044  1.00  0.00    -0.206 F 
ATOM     98  C   UNL A   1      39.353  35.775  39.231  1.00  0.00     0.060 A 
BRANCH  98  99
ATOM     99  S   UNL A   1      39.053  36.897  40.614  1.00  0.00     0.124 S 
ATOM    100  O   UNL A   1      38.317  36.038  41.537  1.00  0.00    -0.237 OA
ATOM    101  O   UNL A   1      40.407  37.254  41.024  1.00  0.00    -0.237 OA
ATOM    102  O   UNL A   1      38.278  37.980  40.014  1.00  0.00    -0.744 OA
ENDBRANCH  98  99
ENDBRANCH  66  91
ENDBRANCH  40  41
ENDBRANCH  33  35
ENDBRANCH  32  33
ENDBRANCH  31  32
ENDBRANCH  30  31
ENDBRANCH   1  30
TORSDOF 20
ENDMDL
