MODEL 1
REMARK VINA RESULT:     -11.7      0.000      0.000
REMARK SMILES C[C@@H](C(=O)OCCOCCOC(=O)c1ccc(-c2c3nc(c(-c4c(F)cc(S(=O)(=O)[O-])cc4F)c4ccc([nH]4)c(-c4c(F)cc(S(=O)(=O)[O-])cc4F)c4nc(c(-c5c(F)cc(S(=O)(=O)[O-])cc5F)c5ccc2[nH]5)C=C4)C=C3)cc1)c1ccc(C[C@H]2CCC[C@H]2O)cc1-c1ccc(O)cc1
REMARK SMILES IDX 7 1 6 2 5 3 3 4 4 5 2 6 1 7 80 8 81 9 92 10 82 11 91 12
REMARK SMILES IDX 83 13 93 14 94 15 99 16 95 17 98 18 96 19 97 20 84 22 85 23
REMARK SMILES IDX 86 24 89 25 87 26 88 27 90 28 8 30 9 31 10 32 11 33 12 34
REMARK SMILES IDX 13 35 14 36 15 37 79 38 16 39 78 40 17 41 18 42 19 43 72 44
REMARK SMILES IDX 20 45 77 46 71 47 73 48 21 49 76 50 70 51 69 52 22 54 56 55
REMARK SMILES IDX 35 56 55 57 36 58 39 59 54 60 74 61 37 62 38 63 53 65 75 66
REMARK SMILES IDX 40 67 23 68 24 69 33 70 25 71 26 72 32 73 34 74 27 75 28 76
REMARK SMILES IDX 29 77 30 78 31 79 57 80 58 81 67 82 59 83 60 84 66 85 68 86
REMARK SMILES IDX 61 87 62 88 63 89 64 90 65 91 41 92 42 93 51 94 43 95 44 96
REMARK SMILES IDX 50 97 52 98 45 99 46 100 47 101 48 102 49 103
REMARK H PARENT 97 21 90 29 73 53 39 64
REMARK Flexibility Score: inf
ROOT
ATOM      1  C   UNL A   1      31.493  27.465  25.417  1.00  0.00     0.202 C 
ENDROOT
BRANCH   1   2
ATOM      2  C   UNL A   1      32.064  26.632  26.577  1.00  0.00     0.261 C 
BRANCH   2   3
ATOM      3  O   UNL A   1      32.937  25.585  26.119  1.00  0.00    -0.463 OA
BRANCH   3   4
ATOM      4  C   UNL A   1      32.621  24.334  26.561  1.00  0.00     0.313 C 
ATOM      5  O   UNL A   1      31.610  24.065  27.200  1.00  0.00    -0.252 OA
BRANCH   4   6
ATOM      6  C   UNL A   1      33.734  23.335  26.250  1.00  0.00     0.127 C 
ATOM      7  C   UNL A   1      35.073  23.855  25.712  1.00  0.00     0.025 C 
BRANCH   6   8
ATOM      8  C   UNL A   1      33.236  22.133  25.447  1.00  0.00    -0.026 A 
ATOM      9  C   UNL A   1      33.318  20.906  26.138  1.00  0.00     0.005 A 
ATOM     10  C   UNL A   1      32.705  22.138  24.131  1.00  0.00    -0.014 A 
ATOM     11  C   UNL A   1      32.959  19.707  25.539  1.00  0.00     0.004 A 
ATOM     12  C   UNL A   1      32.419  20.893  23.530  1.00  0.00     0.012 A 
ATOM     13  C   UNL A   1      32.585  19.681  24.203  1.00  0.00    -0.047 A 
BRANCH  10  14
ATOM     14  C   UNL A   1      32.331  23.305  23.306  1.00  0.00    -0.018 A 
ATOM     15  C   UNL A   1      33.316  23.983  22.563  1.00  0.00     0.012 A 
ATOM     16  C   UNL A   1      31.061  23.905  23.409  1.00  0.00     0.012 A 
ATOM     17  C   UNL A   1      33.031  25.173  21.883  1.00  0.00     0.047 A 
ATOM     18  C   UNL A   1      30.782  25.118  22.765  1.00  0.00     0.047 A 
ATOM     19  C   UNL A   1      31.761  25.718  21.980  1.00  0.00     0.115 A 
BRANCH  19  20
ATOM     20  O   UNL A   1      31.414  26.796  21.221  1.00  0.00    -0.508 OA
ATOM     21  H   UNL A   1      30.703  26.733  20.614  1.00  0.00     0.293 HD
ENDBRANCH  19  20
ENDBRANCH  10  14
BRANCH  13  22
ATOM     22  C   UNL A   1      32.413  18.378  23.481  1.00  0.00     0.041 C 
BRANCH  22  23
ATOM     23  C   UNL A   1      33.440  17.285  23.823  1.00  0.00     0.022 C 
ATOM     24  C   UNL A   1      34.820  17.770  24.300  1.00  0.00     0.007 C 
ATOM     25  C   UNL A   1      33.042  16.209  24.847  1.00  0.00     0.117 C 
ATOM     26  C   UNL A   1      35.378  16.647  25.179  1.00  0.00     0.003 C 
ATOM     27  C   UNL A   1      34.367  15.505  25.104  1.00  0.00     0.032 C 
BRANCH  25  28
ATOM     28  O   UNL A   1      32.559  16.693  26.089  1.00  0.00    -0.393 OA
ATOM     29  H   UNL A   1      33.257  16.616  26.759  1.00  0.00     0.210 HD
ENDBRANCH  25  28
ENDBRANCH  22  23
ENDBRANCH  13  22
ENDBRANCH   6   8
ENDBRANCH   4   6
ENDBRANCH   3   4
ENDBRANCH   2   3
ENDBRANCH   1   2
BRANCH   1  30
ATOM     30  O   UNL A   1      31.951  28.817  25.301  1.00  0.00    -0.374 OA
BRANCH  30  31
ATOM     31  C   UNL A   1      32.084  29.481  26.559  1.00  0.00     0.202 C 
BRANCH  31  32
ATOM     32  C   UNL A   1      33.339  30.330  26.714  1.00  0.00     0.261 C 
BRANCH  32  33
ATOM     33  O   UNL A   1      34.006  29.961  27.905  1.00  0.00    -0.460 OA
BRANCH  33  34
ATOM     34  C   UNL A   1      34.811  30.945  28.364  1.00  0.00     0.338 C 
ATOM     35  O   UNL A   1      34.491  32.056  28.755  1.00  0.00    -0.246 OA
BRANCH  34  36
ATOM     36  C   UNL A   1      36.119  30.308  28.549  1.00  0.00     0.060 A 
ATOM     37  C   UNL A   1      36.383  29.694  29.776  1.00  0.00     0.016 A 
ATOM     38  C   UNL A   1      37.030  30.246  27.484  1.00  0.00     0.016 A 
ATOM     39  C   UNL A   1      37.608  29.075  29.969  1.00  0.00     0.010 A 
ATOM     40  C   UNL A   1      38.237  29.605  27.666  1.00  0.00     0.010 A 
ATOM     41  C   UNL A   1      38.543  29.075  28.925  1.00  0.00    -0.014 A 
BRANCH  41  42
ATOM     42  C   UNL A   1      39.942  28.730  29.193  1.00  0.00     0.031 A 
ATOM     43  C   UNL A   1      40.801  29.795  29.807  1.00  0.00     0.074 A 
ATOM     44  C   UNL A   1      40.409  27.526  28.834  1.00  0.00     0.049 A 
ATOM     45  N   UNL A   1      42.079  29.781  30.058  1.00  0.00    -0.248 NA
ATOM     46  C   UNL A   1      40.131  31.061  30.162  1.00  0.00     0.031 C 
ATOM     47  C   UNL A   1      39.616  26.461  28.216  1.00  0.00     0.029 A 
ATOM     48  N   UNL A   1      41.668  27.007  28.923  1.00  0.00    -0.354 N 
ATOM     49  C   UNL A   1      42.367  31.034  30.584  1.00  0.00     0.074 A 
ATOM     50  C   UNL A   1      41.146  31.802  30.574  1.00  0.00     0.031 C 
ATOM     51  C   UNL A   1      40.416  25.409  27.976  1.00  0.00     0.029 A 
ATOM     52  C   UNL A   1      41.774  25.742  28.400  1.00  0.00     0.049 A 
ATOM     53  H   UNL A   1      42.426  27.491  29.322  1.00  0.00     0.167 HD
ATOM     54  C   UNL A   1      43.553  31.488  31.046  1.00  0.00     0.037 A 
ATOM     55  C   UNL A   1      42.861  24.961  28.276  1.00  0.00     0.037 A 
ATOM     56  C   UNL A   1      44.745  30.685  31.043  1.00  0.00     0.049 A 
ATOM     57  C   UNL A   1      44.171  25.491  28.793  1.00  0.00     0.074 A 
ATOM     58  C   UNL A   1      46.002  31.002  31.516  1.00  0.00     0.029 A 
ATOM     59  N   UNL A   1      44.816  29.395  30.532  1.00  0.00    -0.354 N 
ATOM     60  N   UNL A   1      44.430  26.659  29.338  1.00  0.00    -0.248 NA
ATOM     61  C   UNL A   1      45.333  24.603  28.688  1.00  0.00     0.031 C 
ATOM     62  C   UNL A   1      46.846  29.918  31.250  1.00  0.00     0.029 A 
ATOM     63  C   UNL A   1      46.101  28.906  30.659  1.00  0.00     0.049 A 
ATOM     64  H   UNL A   1      44.061  28.902  30.136  1.00  0.00     0.167 HD
ATOM     65  C   UNL A   1      45.779  26.636  29.668  1.00  0.00     0.074 A 
ATOM     66  C   UNL A   1      46.276  25.332  29.270  1.00  0.00     0.031 C 
ATOM     67  C   UNL A   1      46.543  27.595  30.250  1.00  0.00     0.037 A 
BRANCH  54  68
ATOM     68  C   UNL A   1      43.606  32.897  31.566  1.00  0.00     0.058 A 
ATOM     69  C   UNL A   1      43.607  33.180  32.942  1.00  0.00     0.135 A 
ATOM     70  C   UNL A   1      43.657  33.982  30.678  1.00  0.00     0.135 A 
ATOM     71  F   UNL A   1      43.531  32.182  33.838  1.00  0.00    -0.206 F 
ATOM     72  C   UNL A   1      43.630  34.487  33.418  1.00  0.00     0.059 A 
ATOM     73  C   UNL A   1      43.709  35.298  31.131  1.00  0.00     0.059 A 
ATOM     74  F   UNL A   1      43.644  33.773  29.352  1.00  0.00    -0.206 F 
ATOM     75  C   UNL A   1      43.681  35.540  32.504  1.00  0.00     0.060 A 
BRANCH  75  76
ATOM     76  S   UNL A   1      43.723  37.230  33.137  1.00  0.00     0.124 S 
ATOM     77  O   UNL A   1      44.927  37.203  33.961  1.00  0.00    -0.237 OA
ATOM     78  O   UNL A   1      43.810  38.020  31.914  1.00  0.00    -0.237 OA
ATOM     79  O   UNL A   1      42.465  37.350  33.868  1.00  0.00    -0.744 OA
ENDBRANCH  75  76
ENDBRANCH  54  68
BRANCH  55  80
ATOM     80  C   UNL A   1      42.740  23.609  27.673  1.00  0.00     0.058 A 
ATOM     81  C   UNL A   1      42.904  23.418  26.295  1.00  0.00     0.135 A 
ATOM     82  C   UNL A   1      42.493  22.476  28.465  1.00  0.00     0.135 A 
ATOM     83  F   UNL A   1      43.144  24.471  25.497  1.00  0.00    -0.206 F 
ATOM     84  C   UNL A   1      42.813  22.157  25.716  1.00  0.00     0.059 A 
ATOM     85  C   UNL A   1      42.423  21.200  27.913  1.00  0.00     0.059 A 
ATOM     86  F   UNL A   1      42.353  22.601  29.794  1.00  0.00    -0.206 F 
ATOM     87  C   UNL A   1      42.574  21.053  26.535  1.00  0.00     0.060 A 
BRANCH  87  88
ATOM     88  S   UNL A   1      42.507  19.413  25.780  1.00  0.00     0.124 S 
ATOM     89  O   UNL A   1      43.344  19.600  24.600  1.00  0.00    -0.237 OA
ATOM     90  O   UNL A   1      43.065  18.569  26.833  1.00  0.00    -0.237 OA
ATOM     91  O   UNL A   1      41.083  19.220  25.521  1.00  0.00    -0.744 OA
ENDBRANCH  87  88
ENDBRANCH  55  80
BRANCH  67  92
ATOM     92  C   UNL A   1      47.980  27.252  30.512  1.00  0.00     0.058 A 
ATOM     93  C   UNL A   1      49.005  27.685  29.659  1.00  0.00     0.135 A 
ATOM     94  C   UNL A   1      48.334  26.533  31.665  1.00  0.00     0.135 A 
ATOM     95  F   UNL A   1      48.713  28.370  28.543  1.00  0.00    -0.206 F 
ATOM     96  C   UNL A   1      50.337  27.396  29.930  1.00  0.00     0.059 A 
ATOM     97  C   UNL A   1      49.661  26.260  31.970  1.00  0.00     0.059 A 
ATOM     98  F   UNL A   1      47.386  26.112  32.517  1.00  0.00    -0.206 F 
ATOM     99  C   UNL A   1      50.654  26.685  31.089  1.00  0.00     0.060 A 
BRANCH  99 100
ATOM    100  S   UNL A   1      52.389  26.348  31.447  1.00  0.00     0.124 S 
ATOM    101  O   UNL A   1      52.826  27.624  32.004  1.00  0.00    -0.237 OA
ATOM    102  O   UNL A   1      52.304  25.239  32.393  1.00  0.00    -0.237 OA
ATOM    103  O   UNL A   1      52.946  26.009  30.142  1.00  0.00    -0.744 OA
ENDBRANCH  99 100
ENDBRANCH  67  92
ENDBRANCH  41  42
ENDBRANCH  34  36
ENDBRANCH  33  34
ENDBRANCH  32  33
ENDBRANCH  31  32
ENDBRANCH  30  31
ENDBRANCH   1  30
TORSDOF 23
ENDMDL
MODEL 2
REMARK VINA RESULT:     -11.5      3.249      5.962
REMARK SMILES C[C@@H](C(=O)OCCOCCOC(=O)c1ccc(-c2c3nc(c(-c4c(F)cc(S(=O)(=O)[O-])cc4F)c4ccc([nH]4)c(-c4c(F)cc(S(=O)(=O)[O-])cc4F)c4nc(c(-c5c(F)cc(S(=O)(=O)[O-])cc5F)c5ccc2[nH]5)C=C4)C=C3)cc1)c1ccc(C[C@H]2CCC[C@H]2O)cc1-c1ccc(O)cc1
REMARK SMILES IDX 7 1 6 2 5 3 3 4 4 5 2 6 1 7 80 8 81 9 92 10 82 11 91 12
REMARK SMILES IDX 83 13 93 14 94 15 99 16 95 17 98 18 96 19 97 20 84 22 85 23
REMARK SMILES IDX 86 24 89 25 87 26 88 27 90 28 8 30 9 31 10 32 11 33 12 34
REMARK SMILES IDX 13 35 14 36 15 37 79 38 16 39 78 40 17 41 18 42 19 43 72 44
REMARK SMILES IDX 20 45 77 46 71 47 73 48 21 49 76 50 70 51 69 52 22 54 56 55
REMARK SMILES IDX 35 56 55 57 36 58 39 59 54 60 74 61 37 62 38 63 53 65 75 66
REMARK SMILES IDX 40 67 23 68 24 69 33 70 25 71 26 72 32 73 34 74 27 75 28 76
REMARK SMILES IDX 29 77 30 78 31 79 57 80 58 81 67 82 59 83 60 84 66 85 68 86
REMARK SMILES IDX 61 87 62 88 63 89 64 90 65 91 41 92 42 93 51 94 43 95 44 96
REMARK SMILES IDX 50 97 52 98 45 99 46 100 47 101 48 102 49 103
REMARK H PARENT 97 21 90 29 73 53 39 64
REMARK Flexibility Score: inf
ROOT
ATOM      1  C   UNL A   1      35.869  30.948  27.428  1.00  0.00     0.202 C 
ENDROOT
BRANCH   1   2
ATOM      2  C   UNL A   1      35.332  29.622  27.993  1.00  0.00     0.261 C 
BRANCH   2   3
ATOM      3  O   UNL A   1      34.782  28.776  26.970  1.00  0.00    -0.463 OA
BRANCH   3   4
ATOM      4  C   UNL A   1      33.436  28.565  27.055  1.00  0.00     0.313 C 
ATOM      5  O   UNL A   1      32.675  29.244  27.733  1.00  0.00    -0.252 OA
BRANCH   4   6
ATOM      6  C   UNL A   1      33.018  27.316  26.281  1.00  0.00     0.127 C 
ATOM      7  C   UNL A   1      34.102  26.412  25.682  1.00  0.00     0.025 C 
BRANCH   6   8
ATOM      8  C   UNL A   1      31.902  27.595  25.275  1.00  0.00    -0.026 A 
ATOM      9  C   UNL A   1      31.895  28.914  24.774  1.00  0.00     0.005 A 
ATOM     10  C   UNL A   1      30.920  26.685  24.803  1.00  0.00    -0.014 A 
ATOM     11  C   UNL A   1      30.920  29.354  23.893  1.00  0.00     0.004 A 
ATOM     12  C   UNL A   1      29.903  27.187  23.965  1.00  0.00     0.012 A 
ATOM     13  C   UNL A   1      29.867  28.518  23.545  1.00  0.00    -0.047 A 
BRANCH  10  14
ATOM     14  C   UNL A   1      30.858  25.225  25.018  1.00  0.00    -0.018 A 
ATOM     15  C   UNL A   1      30.431  24.716  26.261  1.00  0.00     0.012 A 
ATOM     16  C   UNL A   1      31.422  24.319  24.100  1.00  0.00     0.012 A 
ATOM     17  C   UNL A   1      30.491  23.348  26.551  1.00  0.00     0.047 A 
ATOM     18  C   UNL A   1      31.524  22.955  24.402  1.00  0.00     0.047 A 
ATOM     19  C   UNL A   1      31.023  22.481  25.610  1.00  0.00     0.115 A 
BRANCH  19  20
ATOM     20  O   UNL A   1      30.968  21.133  25.806  1.00  0.00    -0.508 OA
ATOM     21  H   UNL A   1      31.685  20.689  26.215  1.00  0.00     0.293 HD
ENDBRANCH  19  20
ENDBRANCH  10  14
BRANCH  13  22
ATOM     22  C   UNL A   1      28.690  29.047  22.780  1.00  0.00     0.041 C 
BRANCH  22  23
ATOM     23  C   UNL A   1      28.829  30.483  22.249  1.00  0.00     0.022 C 
ATOM     24  C   UNL A   1      28.143  30.784  20.905  1.00  0.00     0.007 C 
ATOM     25  C   UNL A   1      28.393  31.641  23.163  1.00  0.00     0.117 C 
ATOM     26  C   UNL A   1      27.829  32.282  20.920  1.00  0.00     0.003 C 
ATOM     27  C   UNL A   1      28.429  32.830  22.213  1.00  0.00     0.032 C 
BRANCH  25  28
ATOM     28  O   UNL A   1      27.081  31.546  23.691  1.00  0.00    -0.393 OA
ATOM     29  H   UNL A   1      27.093  31.791  24.630  1.00  0.00     0.210 HD
ENDBRANCH  25  28
ENDBRANCH  22  23
ENDBRANCH  13  22
ENDBRANCH   6   8
ENDBRANCH   4   6
ENDBRANCH   3   4
ENDBRANCH   2   3
ENDBRANCH   1   2
BRANCH   1  30
ATOM     30  O   UNL A   1      35.104  32.128  27.701  1.00  0.00    -0.374 OA
BRANCH  30  31
ATOM     31  C   UNL A   1      35.854  33.151  28.359  1.00  0.00     0.202 C 
BRANCH  31  32
ATOM     32  C   UNL A   1      35.834  33.092  29.880  1.00  0.00     0.261 C 
BRANCH  32  33
ATOM     33  O   UNL A   1      37.141  32.829  30.353  1.00  0.00    -0.460 OA
BRANCH  33  34
ATOM     34  C   UNL A   1      37.192  31.720  31.124  1.00  0.00     0.338 C 
ATOM     35  O   UNL A   1      36.344  31.303  31.895  1.00  0.00    -0.246 OA
BRANCH  34  36
ATOM     36  C   UNL A   1      38.362  30.979  30.643  1.00  0.00     0.060 A 
ATOM     37  C   UNL A   1      39.137  30.294  31.582  1.00  0.00     0.016 A 
ATOM     38  C   UNL A   1      38.629  30.898  29.269  1.00  0.00     0.016 A 
ATOM     39  C   UNL A   1      40.241  29.577  31.149  1.00  0.00     0.010 A 
ATOM     40  C   UNL A   1      39.711  30.161  28.834  1.00  0.00     0.010 A 
ATOM     41  C   UNL A   1      40.545  29.554  29.781  1.00  0.00    -0.014 A 
BRANCH  41  42
ATOM     42  C   UNL A   1      41.861  29.094  29.328  1.00  0.00     0.031 A 
ATOM     43  C   UNL A   1      42.962  30.111  29.291  1.00  0.00     0.074 A 
ATOM     44  C   UNL A   1      42.016  27.828  28.918  1.00  0.00     0.049 A 
ATOM     45  N   UNL A   1      44.181  29.990  28.849  1.00  0.00    -0.248 NA
ATOM     46  C   UNL A   1      42.634  31.459  29.796  1.00  0.00     0.031 C 
ATOM     47  C   UNL A   1      40.969  26.804  28.919  1.00  0.00     0.029 A 
ATOM     48  N   UNL A   1      43.111  27.196  28.405  1.00  0.00    -0.354 N 
ATOM     49  C   UNL A   1      44.759  31.244  29.008  1.00  0.00     0.074 A 
ATOM     50  C   UNL A   1      43.748  32.125  29.542  1.00  0.00     0.031 C 
ATOM     51  C   UNL A   1      41.477  25.664  28.421  1.00  0.00     0.029 A 
ATOM     52  C   UNL A   1      42.870  25.893  28.047  1.00  0.00     0.049 A 
ATOM     53  H   UNL A   1      43.987  27.631  28.301  1.00  0.00     0.167 HD
ATOM     54  C   UNL A   1      46.032  31.612  28.741  1.00  0.00     0.037 A 
ATOM     55  C   UNL A   1      43.696  25.002  27.470  1.00  0.00     0.037 A 
ATOM     56  C   UNL A   1      47.009  30.698  28.217  1.00  0.00     0.049 A 
ATOM     57  C   UNL A   1      45.106  25.437  27.177  1.00  0.00     0.074 A 
ATOM     58  C   UNL A   1      48.341  30.923  27.937  1.00  0.00     0.029 A 
ATOM     59  N   UNL A   1      46.743  29.373  27.889  1.00  0.00    -0.354 N 
ATOM     60  N   UNL A   1      45.666  26.610  27.378  1.00  0.00    -0.248 NA
ATOM     61  C   UNL A   1      46.001  24.434  26.591  1.00  0.00     0.031 C 
ATOM     62  C   UNL A   1      48.872  29.746  27.399  1.00  0.00     0.029 A 
ATOM     63  C   UNL A   1      47.882  28.772  27.391  1.00  0.00     0.049 A 
ATOM     64  H   UNL A   1      45.870  28.929  27.995  1.00  0.00     0.167 HD
ATOM     65  C   UNL A   1      46.986  26.479  26.968  1.00  0.00     0.074 A 
ATOM     66  C   UNL A   1      47.142  25.108  26.519  1.00  0.00     0.031 C 
ATOM     67  C   UNL A   1      47.985  27.398  26.963  1.00  0.00     0.037 A 
BRANCH  54  68
ATOM     68  C   UNL A   1      46.413  33.042  28.999  1.00  0.00     0.058 A 
ATOM     69  C   UNL A   1      46.280  34.034  28.013  1.00  0.00     0.135 A 
ATOM     70  C   UNL A   1      46.920  33.430  30.248  1.00  0.00     0.135 A 
ATOM     71  F   UNL A   1      45.828  33.714  26.789  1.00  0.00    -0.206 F 
ATOM     72  C   UNL A   1      46.659  35.352  28.247  1.00  0.00     0.059 A 
ATOM     73  C   UNL A   1      47.279  34.748  30.516  1.00  0.00     0.059 A 
ATOM     74  F   UNL A   1      47.082  32.522  31.224  1.00  0.00    -0.206 F 
ATOM     75  C   UNL A   1      47.158  35.700  29.504  1.00  0.00     0.060 A 
BRANCH  75  76
ATOM     76  S   UNL A   1      47.634  37.416  29.797  1.00  0.00     0.124 S 
ATOM     77  O   UNL A   1      47.639  37.472  31.255  1.00  0.00    -0.237 OA
ATOM     78  O   UNL A   1      48.942  37.491  29.155  1.00  0.00    -0.237 OA
ATOM     79  O   UNL A   1      46.574  38.179  29.144  1.00  0.00    -0.744 OA
ENDBRANCH  75  76
ENDBRANCH  54  68
BRANCH  55  80
ATOM     80  C   UNL A   1      43.216  23.629  27.171  1.00  0.00     0.058 A 
ATOM     81  C   UNL A   1      42.810  23.274  25.877  1.00  0.00     0.135 A 
ATOM     82  C   UNL A   1      43.186  22.634  28.161  1.00  0.00     0.135 A 
ATOM     83  F   UNL A   1      42.823  24.190  24.896  1.00  0.00    -0.206 F 
ATOM     84  C   UNL A   1      42.377  21.988  25.575  1.00  0.00     0.059 A 
ATOM     85  C   UNL A   1      42.780  21.333  27.878  1.00  0.00     0.059 A 
ATOM     86  F   UNL A   1      43.588  22.915  29.410  1.00  0.00    -0.206 F 
ATOM     87  C   UNL A   1      42.367  21.023  26.583  1.00  0.00     0.060 A 
BRANCH  87  88
ATOM     88  S   UNL A   1      41.849  19.343  26.168  1.00  0.00     0.124 S 
ATOM     89  O   UNL A   1      42.705  19.047  25.025  1.00  0.00    -0.237 OA
ATOM     90  O   UNL A   1      42.152  18.618  27.397  1.00  0.00    -0.237 OA
ATOM     91  O   UNL A   1      40.428  19.493  25.871  1.00  0.00    -0.744 OA
ENDBRANCH  87  88
ENDBRANCH  55  80
BRANCH  67  92
ATOM     92  C   UNL A   1      49.330  26.936  26.486  1.00  0.00     0.058 A 
ATOM     93  C   UNL A   1      50.262  26.362  27.363  1.00  0.00     0.135 A 
ATOM     94  C   UNL A   1      49.660  27.013  25.124  1.00  0.00     0.135 A 
ATOM     95  F   UNL A   1      49.992  26.273  28.674  1.00  0.00    -0.206 F 
ATOM     96  C   UNL A   1      51.491  25.901  26.906  1.00  0.00     0.059 A 
ATOM     97  C   UNL A   1      50.870  26.530  24.641  1.00  0.00     0.059 A 
ATOM     98  F   UNL A   1      48.792  27.541  24.246  1.00  0.00    -0.206 F 
ATOM     99  C   UNL A   1      51.784  25.988  25.544  1.00  0.00     0.060 A 
BRANCH  99 100
ATOM    100  S   UNL A   1      53.367  25.352  24.959  1.00  0.00     0.124 S 
ATOM    101  O   UNL A   1      53.254  23.936  25.292  1.00  0.00    -0.237 OA
ATOM    102  O   UNL A   1      53.327  25.675  23.537  1.00  0.00    -0.237 OA
ATOM    103  O   UNL A   1      54.344  26.104  25.739  1.00  0.00    -0.744 OA
ENDBRANCH  99 100
ENDBRANCH  67  92
ENDBRANCH  41  42
ENDBRANCH  34  36
ENDBRANCH  33  34
ENDBRANCH  32  33
ENDBRANCH  31  32
ENDBRANCH  30  31
ENDBRANCH   1  30
TORSDOF 23
ENDMDL
MODEL 3
REMARK VINA RESULT:     -11.4      3.426      9.834
REMARK SMILES C[C@@H](C(=O)OCCOCCOC(=O)c1ccc(-c2c3nc(c(-c4c(F)cc(S(=O)(=O)[O-])cc4F)c4ccc([nH]4)c(-c4c(F)cc(S(=O)(=O)[O-])cc4F)c4nc(c(-c5c(F)cc(S(=O)(=O)[O-])cc5F)c5ccc2[nH]5)C=C4)C=C3)cc1)c1ccc(C[C@H]2CCC[C@H]2O)cc1-c1ccc(O)cc1
REMARK SMILES IDX 7 1 6 2 5 3 3 4 4 5 2 6 1 7 80 8 81 9 92 10 82 11 91 12
REMARK SMILES IDX 83 13 93 14 94 15 99 16 95 17 98 18 96 19 97 20 84 22 85 23
REMARK SMILES IDX 86 24 89 25 87 26 88 27 90 28 8 30 9 31 10 32 11 33 12 34
REMARK SMILES IDX 13 35 14 36 15 37 79 38 16 39 78 40 17 41 18 42 19 43 72 44
REMARK SMILES IDX 20 45 77 46 71 47 73 48 21 49 76 50 70 51 69 52 22 54 56 55
REMARK SMILES IDX 35 56 55 57 36 58 39 59 54 60 74 61 37 62 38 63 53 65 75 66
REMARK SMILES IDX 40 67 23 68 24 69 33 70 25 71 26 72 32 73 34 74 27 75 28 76
REMARK SMILES IDX 29 77 30 78 31 79 57 80 58 81 67 82 59 83 60 84 66 85 68 86
REMARK SMILES IDX 61 87 62 88 63 89 64 90 65 91 41 92 42 93 51 94 43 95 44 96
REMARK SMILES IDX 50 97 52 98 45 99 46 100 47 101 48 102 49 103
REMARK H PARENT 97 21 90 29 73 53 39 64
REMARK Flexibility Score: inf
ROOT
ATOM      1  C   UNL A   1      35.058  31.213  27.657  1.00  0.00     0.202 C 
ENDROOT
BRANCH   1   2
ATOM      2  C   UNL A   1      34.870  29.686  27.614  1.00  0.00     0.261 C 
BRANCH   2   3
ATOM      3  O   UNL A   1      34.185  29.254  26.427  1.00  0.00    -0.463 OA
BRANCH   3   4
ATOM      4  C   UNL A   1      32.954  28.703  26.638  1.00  0.00     0.313 C 
ATOM      5  O   UNL A   1      32.170  29.080  27.501  1.00  0.00    -0.252 OA
BRANCH   4   6
ATOM      6  C   UNL A   1      32.722  27.495  25.733  1.00  0.00     0.127 C 
ATOM      7  C   UNL A   1      33.898  26.930  24.927  1.00  0.00     0.025 C 
BRANCH   6   8
ATOM      8  C   UNL A   1      31.470  27.641  24.869  1.00  0.00    -0.026 A 
ATOM      9  C   UNL A   1      31.293  28.931  24.325  1.00  0.00     0.005 A 
ATOM     10  C   UNL A   1      30.514  26.638  24.561  1.00  0.00    -0.014 A 
ATOM     11  C   UNL A   1      30.182  29.254  23.561  1.00  0.00     0.004 A 
ATOM     12  C   UNL A   1      29.362  27.022  23.842  1.00  0.00     0.012 A 
ATOM     13  C   UNL A   1      29.166  28.325  23.382  1.00  0.00    -0.047 A 
BRANCH  10  14
ATOM     14  C   UNL A   1      30.598  25.189  24.835  1.00  0.00    -0.018 A 
ATOM     15  C   UNL A   1      30.370  24.707  26.139  1.00  0.00     0.012 A 
ATOM     16  C   UNL A   1      31.118  24.288  23.887  1.00  0.00     0.012 A 
ATOM     17  C   UNL A   1      30.577  23.363  26.469  1.00  0.00     0.047 A 
ATOM     18  C   UNL A   1      31.367  22.950  24.223  1.00  0.00     0.047 A 
ATOM     19  C   UNL A   1      31.059  22.496  25.501  1.00  0.00     0.115 A 
BRANCH  19  20
ATOM     20  O   UNL A   1      31.139  21.159  25.752  1.00  0.00    -0.508 OA
ATOM     21  H   UNL A   1      30.772  20.545  25.147  1.00  0.00     0.293 HD
ENDBRANCH  19  20
ENDBRANCH  10  14
BRANCH  13  22
ATOM     22  C   UNL A   1      27.863  28.726  22.756  1.00  0.00     0.041 C 
BRANCH  22  23
ATOM     23  C   UNL A   1      27.676  30.233  22.510  1.00  0.00     0.022 C 
ATOM     24  C   UNL A   1      28.213  31.174  23.602  1.00  0.00     0.007 C 
ATOM     25  C   UNL A   1      28.215  30.828  21.199  1.00  0.00     0.117 C 
ATOM     26  C   UNL A   1      28.536  32.494  22.897  1.00  0.00     0.003 C 
ATOM     27  C   UNL A   1      28.083  32.324  21.448  1.00  0.00     0.032 C 
BRANCH  25  28
ATOM     28  O   UNL A   1      29.576  30.554  20.914  1.00  0.00    -0.393 OA
ATOM     29  H   UNL A   1      29.640  30.078  20.071  1.00  0.00     0.210 HD
ENDBRANCH  25  28
ENDBRANCH  22  23
ENDBRANCH  13  22
ENDBRANCH   6   8
ENDBRANCH   4   6
ENDBRANCH   3   4
ENDBRANCH   2   3
ENDBRANCH   1   2
BRANCH   1  30
ATOM     30  O   UNL A   1      34.193  31.948  28.532  1.00  0.00    -0.374 OA
BRANCH  30  31
ATOM     31  C   UNL A   1      34.896  32.773  29.463  1.00  0.00     0.202 C 
BRANCH  31  32
ATOM     32  C   UNL A   1      35.359  32.068  30.731  1.00  0.00     0.261 C 
BRANCH  32  33
ATOM     33  O   UNL A   1      36.718  31.703  30.592  1.00  0.00    -0.460 OA
BRANCH  33  34
ATOM     34  C   UNL A   1      37.000  30.539  31.220  1.00  0.00     0.338 C 
ATOM     35  O   UNL A   1      36.292  29.910  31.988  1.00  0.00    -0.246 OA
BRANCH  34  36
ATOM     36  C   UNL A   1      38.226  30.053  30.578  1.00  0.00     0.060 A 
ATOM     37  C   UNL A   1      39.191  29.443  31.384  1.00  0.00     0.016 A 
ATOM     38  C   UNL A   1      38.370  30.125  29.185  1.00  0.00     0.016 A 
ATOM     39  C   UNL A   1      40.352  28.965  30.799  1.00  0.00     0.010 A 
ATOM     40  C   UNL A   1      39.513  29.623  28.598  1.00  0.00     0.010 A 
ATOM     41  C   UNL A   1      40.523  29.100  29.414  1.00  0.00    -0.014 A 
BRANCH  41  42
ATOM     42  C   UNL A   1      41.848  28.912  28.816  1.00  0.00     0.031 A 
ATOM     43  C   UNL A   1      42.180  27.540  28.310  1.00  0.00     0.074 A 
ATOM     44  C   UNL A   1      42.717  29.933  28.796  1.00  0.00     0.049 A 
ATOM     45  N   UNL A   1      43.301  27.088  27.827  1.00  0.00    -0.248 NA
ATOM     46  C   UNL A   1      41.105  26.530  28.387  1.00  0.00     0.031 C 
ATOM     47  C   UNL A   1      42.447  31.284  29.292  1.00  0.00     0.029 A 
ATOM     48  N   UNL A   1      44.008  29.982  28.355  1.00  0.00    -0.354 N 
ATOM     49  C   UNL A   1      43.073  25.744  27.557  1.00  0.00     0.074 A 
ATOM     50  C   UNL A   1      41.725  25.439  27.971  1.00  0.00     0.031 C 
ATOM     51  C   UNL A   1      43.550  32.033  29.130  1.00  0.00     0.029 A 
ATOM     52  C   UNL A   1      44.602  31.205  28.546  1.00  0.00     0.049 A 
ATOM     53  H   UNL A   1      44.467  29.217  27.942  1.00  0.00     0.167 HD
ATOM     54  C   UNL A   1      43.922  24.855  26.995  1.00  0.00     0.037 A 
ATOM     55  C   UNL A   1      45.863  31.588  28.281  1.00  0.00     0.037 A 
ATOM     56  C   UNL A   1      45.255  25.205  26.590  1.00  0.00     0.049 A 
ATOM     57  C   UNL A   1      46.790  30.578  27.662  1.00  0.00     0.074 A 
ATOM     58  C   UNL A   1      46.207  24.417  25.975  1.00  0.00     0.029 A 
ATOM     59  N   UNL A   1      45.822  26.461  26.771  1.00  0.00    -0.354 N 
ATOM     60  N   UNL A   1      46.556  29.320  27.359  1.00  0.00    -0.248 NA
ATOM     61  C   UNL A   1      48.147  31.033  27.340  1.00  0.00     0.031 C 
ATOM     62  C   UNL A   1      47.366  25.185  25.821  1.00  0.00     0.029 A 
ATOM     63  C   UNL A   1      47.119  26.467  26.295  1.00  0.00     0.049 A 
ATOM     64  H   UNL A   1      45.366  27.233  27.178  1.00  0.00     0.167 HD
ATOM     65  C   UNL A   1      47.725  28.841  26.784  1.00  0.00     0.074 A 
ATOM     66  C   UNL A   1      48.662  29.950  26.773  1.00  0.00     0.031 C 
ATOM     67  C   UNL A   1      48.008  27.603  26.304  1.00  0.00     0.037 A 
BRANCH  54  68
ATOM     68  C   UNL A   1      43.433  23.446  26.811  1.00  0.00     0.058 A 
ATOM     69  C   UNL A   1      43.113  22.932  25.542  1.00  0.00     0.135 A 
ATOM     70  C   UNL A   1      43.282  22.594  27.915  1.00  0.00     0.135 A 
ATOM     71  F   UNL A   1      43.211  23.712  24.453  1.00  0.00    -0.206 F 
ATOM     72  C   UNL A   1      42.637  21.636  25.379  1.00  0.00     0.059 A 
ATOM     73  C   UNL A   1      42.833  21.284  27.774  1.00  0.00     0.059 A 
ATOM     74  F   UNL A   1      43.559  23.035  29.153  1.00  0.00    -0.206 F 
ATOM     75  C   UNL A   1      42.500  20.818  26.502  1.00  0.00     0.060 A 
BRANCH  75  76
ATOM     76  S   UNL A   1      41.892  19.134  26.273  1.00  0.00     0.124 S 
ATOM     77  O   UNL A   1      40.460  19.361  26.106  1.00  0.00    -0.237 OA
ATOM     78  O   UNL A   1      42.609  18.703  25.078  1.00  0.00    -0.237 OA
ATOM     79  O   UNL A   1      42.280  18.461  27.509  1.00  0.00    -0.744 OA
ENDBRANCH  75  76
ENDBRANCH  54  68
BRANCH  55  80
ATOM     80  C   UNL A   1      46.293  32.980  28.571  1.00  0.00     0.058 A 
ATOM     81  C   UNL A   1      46.145  33.992  27.613  1.00  0.00     0.135 A 
ATOM     82  C   UNL A   1      46.824  33.335  29.821  1.00  0.00     0.135 A 
ATOM     83  F   UNL A   1      45.639  33.702  26.404  1.00  0.00    -0.206 F 
ATOM     84  C   UNL A   1      46.524  35.305  27.874  1.00  0.00     0.059 A 
ATOM     85  C   UNL A   1      47.187  34.646  30.115  1.00  0.00     0.059 A 
ATOM     86  F   UNL A   1      46.963  32.408  30.781  1.00  0.00    -0.206 F 
ATOM     87  C   UNL A   1      47.042  35.622  29.130  1.00  0.00     0.060 A 
BRANCH  87  88
ATOM     88  S   UNL A   1      47.484  37.340  29.475  1.00  0.00     0.124 S 
ATOM     89  O   UNL A   1      48.636  37.175  30.354  1.00  0.00    -0.237 OA
ATOM     90  O   UNL A   1      47.767  37.856  28.140  1.00  0.00    -0.237 OA
ATOM     91  O   UNL A   1      46.281  37.876  30.104  1.00  0.00    -0.744 OA
ENDBRANCH  87  88
ENDBRANCH  55  80
BRANCH  67  92
ATOM     92  C   UNL A   1      49.369  27.403  25.704  1.00  0.00     0.058 A 
ATOM     93  C   UNL A   1      50.473  27.049  26.493  1.00  0.00     0.135 A 
ATOM     94  C   UNL A   1      49.550  27.506  24.316  1.00  0.00     0.135 A 
ATOM     95  F   UNL A   1      50.348  26.944  27.825  1.00  0.00    -0.206 F 
ATOM     96  C   UNL A   1      51.722  26.827  25.925  1.00  0.00     0.059 A 
ATOM     97  C   UNL A   1      50.782  27.259  23.724  1.00  0.00     0.059 A 
ATOM     98  F   UNL A   1      48.517  27.828  23.521  1.00  0.00    -0.206 F 
ATOM     99  C   UNL A   1      51.865  26.932  24.540  1.00  0.00     0.060 A 
BRANCH  99 100
ATOM    100  S   UNL A   1      53.482  26.606  23.812  1.00  0.00     0.124 S 
ATOM    101  O   UNL A   1      53.147  26.487  22.396  1.00  0.00    -0.237 OA
ATOM    102  O   UNL A   1      54.239  27.796  24.187  1.00  0.00    -0.237 OA
ATOM    103  O   UNL A   1      53.905  25.370  24.463  1.00  0.00    -0.744 OA
ENDBRANCH  99 100
ENDBRANCH  67  92
ENDBRANCH  41  42
ENDBRANCH  34  36
ENDBRANCH  33  34
ENDBRANCH  32  33
ENDBRANCH  31  32
ENDBRANCH  30  31
ENDBRANCH   1  30
TORSDOF 23
ENDMDL
