MODEL 1
REMARK VINA RESULT:     -10.7      0.000      0.000
REMARK SMILES COc1ccc(C(=O)c2ccccc2)cc1[C@@H](C)C(=O)OCCOCCOC(=O)c1ccc(-c2c3nc(c(-c4c(F)cc(S(=O)(=O)[O-])cc4F)c4ccc([nH]4)c(-c4c(F)cc(S(=O)(=O)[O-])cc4F)c4nc(c(-c5c(F)cc(S(=O)(=O)[O-])cc5F)c5ccc2[nH]5)C=C4)C=C3)cc1
REMARK SMILES IDX 24 1 23 2 22 3 21 4 19 5 20 6 17 7 18 8 16 9 3 10 4 11 5 12
REMARK SMILES IDX 15 13 6 14 2 15 1 16 7 17 8 18 9 19 10 20 14 21 11 22 13 23
REMARK SMILES IDX 12 24 25 25 26 26 27 27 28 28 29 29 30 30 31 31 95 32 32 33
REMARK SMILES IDX 94 34 33 35 34 36 35 37 88 38 36 39 93 40 87 41 89 42 37 43
REMARK SMILES IDX 92 44 86 45 85 46 38 48 72 49 51 50 71 51 52 52 55 53 70 54
REMARK SMILES IDX 90 55 53 56 54 57 69 59 91 60 56 61 39 62 40 63 49 64 41 65
REMARK SMILES IDX 42 66 48 67 50 68 43 69 44 70 45 71 46 72 47 73 73 74 74 75
REMARK SMILES IDX 83 76 75 77 76 78 82 79 84 80 77 81 78 82 79 83 80 84 81 85
REMARK SMILES IDX 57 86 58 87 67 88 59 89 60 90 66 91 68 92 61 93 62 94 63 95
REMARK SMILES IDX 64 96 65 97
REMARK H PARENT 89 47 55 58
REMARK Flexibility Score: inf
ROOT
ATOM      1  O   UNL A   1      41.502  21.447  26.085  1.00  0.00    -0.374 OA
ENDROOT
BRANCH   1   2
ATOM      2  C   UNL A   1      40.548  22.511  26.169  1.00  0.00     0.202 C 
BRANCH   2   3
ATOM      3  C   UNL A   1      39.114  22.073  26.482  1.00  0.00     0.261 C 
BRANCH   3   4
ATOM      4  O   UNL A   1      38.204  22.527  25.461  1.00  0.00    -0.463 OA
BRANCH   4   5
ATOM      5  C   UNL A   1      37.380  21.596  24.912  1.00  0.00     0.313 C 
ATOM      6  O   UNL A   1      37.555  20.384  24.976  1.00  0.00    -0.252 OA
BRANCH   5   7
ATOM      7  C   UNL A   1      36.205  22.208  24.160  1.00  0.00     0.130 C 
ATOM      8  C   UNL A   1      36.699  22.920  22.902  1.00  0.00     0.025 C 
BRANCH   7   9
ATOM      9  C   UNL A   1      35.256  23.091  24.967  1.00  0.00     0.009 A 
ATOM     10  C   UNL A   1      34.486  22.575  26.021  1.00  0.00     0.122 A 
ATOM     11  C   UNL A   1      33.519  23.357  26.658  1.00  0.00     0.047 A 
ATOM     12  C   UNL A   1      33.293  24.669  26.242  1.00  0.00     0.016 A 
ATOM     13  C   UNL A   1      35.049  24.441  24.606  1.00  0.00     0.020 A 
ATOM     14  C   UNL A   1      34.038  25.218  25.191  1.00  0.00     0.023 A 
BRANCH  10  15
ATOM     15  O   UNL A   1      34.545  21.256  26.383  1.00  0.00    -0.496 OA
ATOM     16  C   UNL A   1      33.470  20.496  25.831  1.00  0.00     0.278 C 
ENDBRANCH  10  15
BRANCH  14  17
ATOM     17  C   UNL A   1      33.711  26.608  24.748  1.00  0.00     0.193 C 
ATOM     18  O   UNL A   1      33.728  26.859  23.542  1.00  0.00    -0.289 OA
BRANCH  17  19
ATOM     19  C   UNL A   1      33.331  27.698  25.690  1.00  0.00     0.022 A 
ATOM     20  C   UNL A   1      34.350  28.289  26.444  1.00  0.00     0.012 A 
ATOM     21  C   UNL A   1      32.017  28.150  25.855  1.00  0.00     0.012 A 
ATOM     22  C   UNL A   1      34.086  29.399  27.250  1.00  0.00     0.001 A 
ATOM     23  C   UNL A   1      31.754  29.267  26.655  1.00  0.00     0.001 A 
ATOM     24  C   UNL A   1      32.792  29.904  27.332  1.00  0.00     0.000 A 
ENDBRANCH  17  19
ENDBRANCH  14  17
ENDBRANCH   7   9
ENDBRANCH   5   7
ENDBRANCH   4   5
ENDBRANCH   3   4
ENDBRANCH   2   3
ENDBRANCH   1   2
BRANCH   1  25
ATOM     25  C   UNL A   1      42.749  21.667  26.740  1.00  0.00     0.202 C 
BRANCH  25  26
ATOM     26  C   UNL A   1      43.645  22.756  26.138  1.00  0.00     0.261 C 
BRANCH  26  27
ATOM     27  O   UNL A   1      43.706  23.929  26.966  1.00  0.00    -0.460 OA
BRANCH  27  28
ATOM     28  C   UNL A   1      43.254  25.059  26.371  1.00  0.00     0.338 C 
ATOM     29  O   UNL A   1      43.189  25.282  25.169  1.00  0.00    -0.246 OA
BRANCH  28  30
ATOM     30  C   UNL A   1      42.671  25.962  27.378  1.00  0.00     0.060 A 
ATOM     31  C   UNL A   1      43.274  27.213  27.557  1.00  0.00     0.016 A 
ATOM     32  C   UNL A   1      41.593  25.580  28.178  1.00  0.00     0.016 A 
ATOM     33  C   UNL A   1      42.823  28.072  28.558  1.00  0.00     0.010 A 
ATOM     34  C   UNL A   1      41.149  26.446  29.185  1.00  0.00     0.010 A 
ATOM     35  C   UNL A   1      41.769  27.690  29.398  1.00  0.00    -0.014 A 
BRANCH  35  36
ATOM     36  C   UNL A   1      41.396  28.547  30.557  1.00  0.00     0.031 A 
ATOM     37  C   UNL A   1      42.198  28.470  31.831  1.00  0.00     0.074 A 
ATOM     38  C   UNL A   1      40.367  29.414  30.471  1.00  0.00     0.049 A 
ATOM     39  N   UNL A   1      42.080  29.175  32.928  1.00  0.00    -0.248 NA
ATOM     40  C   UNL A   1      43.263  27.457  31.884  1.00  0.00     0.031 C 
ATOM     41  C   UNL A   1      39.483  29.569  29.313  1.00  0.00     0.029 A 
ATOM     42  N   UNL A   1      39.893  30.334  31.374  1.00  0.00    -0.354 N 
ATOM     43  C   UNL A   1      43.051  28.690  33.798  1.00  0.00     0.074 A 
ATOM     44  C   UNL A   1      43.706  27.590  33.125  1.00  0.00     0.031 C 
ATOM     45  C   UNL A   1      38.588  30.538  29.571  1.00  0.00     0.029 A 
ATOM     46  C   UNL A   1      38.825  31.067  30.912  1.00  0.00     0.049 A 
ATOM     47  H   UNL A   1      40.282  30.457  32.270  1.00  0.00     0.167 HD
ATOM     48  C   UNL A   1      43.393  29.137  35.030  1.00  0.00     0.037 A 
ATOM     49  C   UNL A   1      38.125  32.060  31.498  1.00  0.00     0.037 A 
ATOM     50  C   UNL A   1      42.765  30.248  35.694  1.00  0.00     0.049 A 
ATOM     51  C   UNL A   1      38.525  32.544  32.869  1.00  0.00     0.074 A 
ATOM     52  C   UNL A   1      43.084  30.813  36.917  1.00  0.00     0.029 A 
ATOM     53  N   UNL A   1      41.690  30.965  35.192  1.00  0.00    -0.354 N 
ATOM     54  N   UNL A   1      39.496  32.121  33.642  1.00  0.00    -0.248 NA
ATOM     55  C   UNL A   1      37.744  33.653  33.436  1.00  0.00     0.031 C 
ATOM     56  C   UNL A   1      42.176  31.848  37.172  1.00  0.00     0.029 A 
ATOM     57  C   UNL A   1      41.320  31.955  36.088  1.00  0.00     0.049 A 
ATOM     58  H   UNL A   1      41.254  30.795  34.326  1.00  0.00     0.167 HD
ATOM     59  C   UNL A   1      39.457  32.929  34.776  1.00  0.00     0.074 A 
ATOM     60  C   UNL A   1      38.379  33.875  34.578  1.00  0.00     0.031 C 
ATOM     61  C   UNL A   1      40.243  32.891  35.881  1.00  0.00     0.037 A 
BRANCH  48  62
ATOM     62  C   UNL A   1      44.513  28.423  35.736  1.00  0.00     0.058 A 
ATOM     63  C   UNL A   1      44.265  27.354  36.614  1.00  0.00     0.135 A 
ATOM     64  C   UNL A   1      45.850  28.797  35.524  1.00  0.00     0.135 A 
ATOM     65  F   UNL A   1      43.004  26.966  36.866  1.00  0.00    -0.206 F 
ATOM     66  C   UNL A   1      45.297  26.705  37.282  1.00  0.00     0.059 A 
ATOM     67  C   UNL A   1      46.901  28.143  36.161  1.00  0.00     0.059 A 
ATOM     68  F   UNL A   1      46.144  29.810  34.695  1.00  0.00    -0.206 F 
ATOM     69  C   UNL A   1      46.612  27.109  37.051  1.00  0.00     0.060 A 
BRANCH  69  70
ATOM     70  S   UNL A   1      47.942  26.260  37.929  1.00  0.00     0.124 S 
ATOM     71  O   UNL A   1      47.627  26.583  39.316  1.00  0.00    -0.237 OA
ATOM     72  O   UNL A   1      47.734  24.868  37.540  1.00  0.00    -0.237 OA
ATOM     73  O   UNL A   1      49.151  26.881  37.397  1.00  0.00    -0.744 OA
ENDBRANCH  69  70
ENDBRANCH  48  62
BRANCH  49  74
ATOM     74  C   UNL A   1      36.983  32.689  30.781  1.00  0.00     0.058 A 
ATOM     75  C   UNL A   1      35.657  32.347  31.087  1.00  0.00     0.135 A 
ATOM     76  C   UNL A   1      37.197  33.637  29.768  1.00  0.00     0.135 A 
ATOM     77  F   UNL A   1      35.402  31.440  32.041  1.00  0.00    -0.206 F 
ATOM     78  C   UNL A   1      34.583  32.910  30.406  1.00  0.00     0.059 A 
ATOM     79  C   UNL A   1      36.138  34.229  29.087  1.00  0.00     0.059 A 
ATOM     80  F   UNL A   1      38.446  34.009  29.448  1.00  0.00    -0.206 F 
ATOM     81  C   UNL A   1      34.835  33.853  29.407  1.00  0.00     0.060 A 
BRANCH  81  82
ATOM     82  S   UNL A   1      33.433  34.618  28.563  1.00  0.00     0.124 S 
ATOM     83  O   UNL A   1      32.993  33.539  27.685  1.00  0.00    -0.237 OA
ATOM     84  O   UNL A   1      32.544  34.940  29.675  1.00  0.00    -0.237 OA
ATOM     85  O   UNL A   1      34.033  35.771  27.897  1.00  0.00    -0.744 OA
ENDBRANCH  81  82
ENDBRANCH  49  74
BRANCH  61  86
ATOM     86  C   UNL A   1      39.982  33.916  36.951  1.00  0.00     0.058 A 
ATOM     87  C   UNL A   1      40.520  35.210  36.878  1.00  0.00     0.135 A 
ATOM     88  C   UNL A   1      39.167  33.608  38.052  1.00  0.00     0.135 A 
ATOM     89  F   UNL A   1      41.310  35.558  35.849  1.00  0.00    -0.206 F 
ATOM     90  C   UNL A   1      40.290  36.152  37.877  1.00  0.00     0.059 A 
ATOM     91  C   UNL A   1      38.901  34.541  39.049  1.00  0.00     0.059 A 
ATOM     92  F   UNL A   1      38.615  32.389  38.165  1.00  0.00    -0.206 F 
ATOM     93  C   UNL A   1      39.483  35.805  38.962  1.00  0.00     0.060 A 
BRANCH  93  94
ATOM     94  S   UNL A   1      39.189  37.033  40.253  1.00  0.00     0.124 S 
ATOM     95  O   UNL A   1      38.352  36.284  41.185  1.00  0.00    -0.237 OA
ATOM     96  O   UNL A   1      40.540  37.334  40.716  1.00  0.00    -0.237 OA
ATOM     97  O   UNL A   1      38.520  38.119  39.542  1.00  0.00    -0.744 OA
ENDBRANCH  93  94
ENDBRANCH  61  86
ENDBRANCH  35  36
ENDBRANCH  28  30
ENDBRANCH  27  28
ENDBRANCH  26  27
ENDBRANCH  25  26
ENDBRANCH   1  25
TORSDOF 21
ENDMDL
MODEL 2
REMARK VINA RESULT:     -10.6      2.981      9.540
REMARK SMILES COc1ccc(C(=O)c2ccccc2)cc1[C@@H](C)C(=O)OCCOCCOC(=O)c1ccc(-c2c3nc(c(-c4c(F)cc(S(=O)(=O)[O-])cc4F)c4ccc([nH]4)c(-c4c(F)cc(S(=O)(=O)[O-])cc4F)c4nc(c(-c5c(F)cc(S(=O)(=O)[O-])cc5F)c5ccc2[nH]5)C=C4)C=C3)cc1
REMARK SMILES IDX 24 1 23 2 22 3 21 4 19 5 20 6 17 7 18 8 16 9 3 10 4 11 5 12
REMARK SMILES IDX 15 13 6 14 2 15 1 16 7 17 8 18 9 19 10 20 14 21 11 22 13 23
REMARK SMILES IDX 12 24 25 25 26 26 27 27 28 28 29 29 30 30 31 31 95 32 32 33
REMARK SMILES IDX 94 34 33 35 34 36 35 37 88 38 36 39 93 40 87 41 89 42 37 43
REMARK SMILES IDX 92 44 86 45 85 46 38 48 72 49 51 50 71 51 52 52 55 53 70 54
REMARK SMILES IDX 90 55 53 56 54 57 69 59 91 60 56 61 39 62 40 63 49 64 41 65
REMARK SMILES IDX 42 66 48 67 50 68 43 69 44 70 45 71 46 72 47 73 73 74 74 75
REMARK SMILES IDX 83 76 75 77 76 78 82 79 84 80 77 81 78 82 79 83 80 84 81 85
REMARK SMILES IDX 57 86 58 87 67 88 59 89 60 90 66 91 68 92 61 93 62 94 63 95
REMARK SMILES IDX 64 96 65 97
REMARK H PARENT 89 47 55 58
REMARK Flexibility Score: inf
ROOT
ATOM      1  O   UNL A   1      32.974  28.716  22.704  1.00  0.00    -0.374 OA
ENDROOT
BRANCH   1   2
ATOM      2  C   UNL A   1      32.019  27.689  22.420  1.00  0.00     0.202 C 
BRANCH   2   3
ATOM      3  C   UNL A   1      30.555  28.094  22.617  1.00  0.00     0.261 C 
BRANCH   3   4
ATOM      4  O   UNL A   1      30.156  27.923  23.992  1.00  0.00    -0.463 OA
BRANCH   4   5
ATOM      5  C   UNL A   1      29.678  26.702  24.348  1.00  0.00     0.313 C 
ATOM      6  O   UNL A   1      28.818  26.083  23.730  1.00  0.00    -0.252 OA
BRANCH   5   7
ATOM      7  C   UNL A   1      30.295  26.171  25.635  1.00  0.00     0.130 C 
ATOM      8  C   UNL A   1      31.062  27.282  26.349  1.00  0.00     0.025 C 
BRANCH   7   9
ATOM      9  C   UNL A   1      31.130  24.897  25.523  1.00  0.00     0.009 A 
ATOM     10  C   UNL A   1      30.873  23.774  26.325  1.00  0.00     0.122 A 
ATOM     11  C   UNL A   1      31.729  22.670  26.316  1.00  0.00     0.047 A 
ATOM     12  C   UNL A   1      32.869  22.673  25.512  1.00  0.00     0.016 A 
ATOM     13  C   UNL A   1      32.257  24.849  24.674  1.00  0.00     0.020 A 
ATOM     14  C   UNL A   1      33.161  23.777  24.701  1.00  0.00     0.023 A 
BRANCH  10  15
ATOM     15  O   UNL A   1      29.861  23.760  27.248  1.00  0.00    -0.496 OA
ATOM     16  C   UNL A   1      29.151  22.521  27.252  1.00  0.00     0.278 C 
ENDBRANCH  10  15
BRANCH  14  17
ATOM     17  C   UNL A   1      34.428  23.750  23.907  1.00  0.00     0.193 C 
ATOM     18  O   UNL A   1      34.401  24.161  22.746  1.00  0.00    -0.289 OA
BRANCH  17  19
ATOM     19  C   UNL A   1      35.730  23.286  24.462  1.00  0.00     0.022 A 
ATOM     20  C   UNL A   1      36.336  24.077  25.444  1.00  0.00     0.012 A 
ATOM     21  C   UNL A   1      36.369  22.110  24.051  1.00  0.00     0.012 A 
ATOM     22  C   UNL A   1      37.489  23.639  26.099  1.00  0.00     0.001 A 
ATOM     23  C   UNL A   1      37.518  21.667  24.712  1.00  0.00     0.001 A 
ATOM     24  C   UNL A   1      38.063  22.420  25.751  1.00  0.00     0.000 A 
ENDBRANCH  17  19
ENDBRANCH  14  17
ENDBRANCH   7   9
ENDBRANCH   5   7
ENDBRANCH   4   5
ENDBRANCH   3   4
ENDBRANCH   2   3
ENDBRANCH   1   2
BRANCH   1  25
ATOM     25  C   UNL A   1      33.795  28.512  23.852  1.00  0.00     0.202 C 
BRANCH  25  26
ATOM     26  C   UNL A   1      33.426  29.323  25.099  1.00  0.00     0.261 C 
BRANCH  26  27
ATOM     27  O   UNL A   1      34.275  29.018  26.217  1.00  0.00    -0.460 OA
BRANCH  27  28
ATOM     28  C   UNL A   1      34.322  29.982  27.167  1.00  0.00     0.338 C 
ATOM     29  O   UNL A   1      33.425  30.757  27.473  1.00  0.00    -0.246 OA
BRANCH  28  30
ATOM     30  C   UNL A   1      35.574  29.875  27.936  1.00  0.00     0.060 A 
ATOM     31  C   UNL A   1      36.777  30.087  27.251  1.00  0.00     0.016 A 
ATOM     32  C   UNL A   1      35.586  29.518  29.284  1.00  0.00     0.016 A 
ATOM     33  C   UNL A   1      37.996  29.910  27.905  1.00  0.00     0.010 A 
ATOM     34  C   UNL A   1      36.814  29.335  29.932  1.00  0.00     0.010 A 
ATOM     35  C   UNL A   1      38.029  29.510  29.247  1.00  0.00    -0.014 A 
BRANCH  35  36
ATOM     36  C   UNL A   1      39.330  29.177  29.891  1.00  0.00     0.031 A 
ATOM     37  C   UNL A   1      39.751  29.904  31.142  1.00  0.00     0.074 A 
ATOM     38  C   UNL A   1      40.122  28.211  29.384  1.00  0.00     0.049 A 
ATOM     39  N   UNL A   1      40.809  29.720  31.891  1.00  0.00    -0.248 NA
ATOM     40  C   UNL A   1      38.876  30.993  31.603  1.00  0.00     0.031 C 
ATOM     41  C   UNL A   1      39.857  27.451  28.162  1.00  0.00     0.029 A 
ATOM     42  N   UNL A   1      41.312  27.699  29.842  1.00  0.00    -0.354 N 
ATOM     43  C   UNL A   1      40.725  30.667  32.906  1.00  0.00     0.074 A 
ATOM     44  C   UNL A   1      39.549  31.465  32.642  1.00  0.00     0.031 C 
ATOM     45  C   UNL A   1      40.845  26.558  27.976  1.00  0.00     0.029 A 
ATOM     46  C   UNL A   1      41.818  26.687  29.059  1.00  0.00     0.049 A 
ATOM     47  H   UNL A   1      41.761  28.026  30.654  1.00  0.00     0.167 HD
ATOM     48  C   UNL A   1      41.532  30.839  33.981  1.00  0.00     0.037 A 
ATOM     49  C   UNL A   1      42.933  25.942  29.203  1.00  0.00     0.037 A 
ATOM     50  C   UNL A   1      42.688  30.032  34.266  1.00  0.00     0.049 A 
ATOM     51  C   UNL A   1      43.815  26.148  30.408  1.00  0.00     0.074 A 
ATOM     52  C   UNL A   1      43.531  30.091  35.363  1.00  0.00     0.029 A 
ATOM     53  N   UNL A   1      43.166  29.017  33.451  1.00  0.00    -0.354 N 
ATOM     54  N   UNL A   1      43.676  26.999  31.397  1.00  0.00    -0.248 NA
ATOM     55  C   UNL A   1      44.994  25.278  30.525  1.00  0.00     0.031 C 
ATOM     56  C   UNL A   1      44.541  29.137  35.191  1.00  0.00     0.029 A 
ATOM     57  C   UNL A   1      44.301  28.454  34.009  1.00  0.00     0.049 A 
ATOM     58  H   UNL A   1      42.756  28.737  32.600  1.00  0.00     0.167 HD
ATOM     59  C   UNL A   1      44.736  26.750  32.264  1.00  0.00     0.074 A 
ATOM     60  C   UNL A   1      45.496  25.658  31.692  1.00  0.00     0.031 C 
ATOM     61  C   UNL A   1      45.052  27.369  33.429  1.00  0.00     0.037 A 
BRANCH  48  62
ATOM     62  C   UNL A   1      41.178  31.944  34.939  1.00  0.00     0.058 A 
ATOM     63  C   UNL A   1      41.720  33.234  34.804  1.00  0.00     0.135 A 
ATOM     64  C   UNL A   1      40.278  31.720  35.992  1.00  0.00     0.135 A 
ATOM     65  F   UNL A   1      42.599  33.498  33.824  1.00  0.00    -0.206 F 
ATOM     66  C   UNL A   1      41.410  34.251  35.699  1.00  0.00     0.059 A 
ATOM     67  C   UNL A   1      39.931  32.732  36.884  1.00  0.00     0.059 A 
ATOM     68  F   UNL A   1      39.730  30.508  36.167  1.00  0.00    -0.206 F 
ATOM     69  C   UNL A   1      40.516  33.990  36.738  1.00  0.00     0.060 A 
BRANCH  69  70
ATOM     70  S   UNL A   1      40.125  35.320  37.895  1.00  0.00     0.124 S 
ATOM     71  O   UNL A   1      39.952  36.451  36.989  1.00  0.00    -0.237 OA
ATOM     72  O   UNL A   1      38.908  34.830  38.535  1.00  0.00    -0.237 OA
ATOM     73  O   UNL A   1      41.301  35.378  38.756  1.00  0.00    -0.744 OA
ENDBRANCH  69  70
ENDBRANCH  48  62
BRANCH  49  74
ATOM     74  C   UNL A   1      43.271  24.905  28.191  1.00  0.00     0.058 A 
ATOM     75  C   UNL A   1      43.951  25.238  27.010  1.00  0.00     0.135 A 
ATOM     76  C   UNL A   1      42.912  23.561  28.383  1.00  0.00     0.135 A 
ATOM     77  F   UNL A   1      44.307  26.510  26.778  1.00  0.00    -0.206 F 
ATOM     78  C   UNL A   1      44.249  24.281  26.046  1.00  0.00     0.059 A 
ATOM     79  C   UNL A   1      43.219  22.583  27.442  1.00  0.00     0.059 A 
ATOM     80  F   UNL A   1      42.275  23.188  29.502  1.00  0.00    -0.206 F 
ATOM     81  C   UNL A   1      43.880  22.954  26.272  1.00  0.00     0.060 A 
BRANCH  81  82
ATOM     82  S   UNL A   1      44.318  21.709  25.039  1.00  0.00     0.124 S 
ATOM     83  O   UNL A   1      44.102  22.438  23.795  1.00  0.00    -0.237 OA
ATOM     84  O   UNL A   1      45.708  21.419  25.377  1.00  0.00    -0.237 OA
ATOM     85  O   UNL A   1      43.377  20.626  25.310  1.00  0.00    -0.744 OA
ENDBRANCH  81  82
ENDBRANCH  49  74
BRANCH  61  86
ATOM     86  C   UNL A   1      46.258  26.864  34.176  1.00  0.00     0.058 A 
ATOM     87  C   UNL A   1      47.541  27.379  33.935  1.00  0.00     0.135 A 
ATOM     88  C   UNL A   1      46.125  25.870  35.158  1.00  0.00     0.135 A 
ATOM     89  F   UNL A   1      47.726  28.329  33.004  1.00  0.00    -0.206 F 
ATOM     90  C   UNL A   1      48.657  26.900  34.616  1.00  0.00     0.059 A 
ATOM     91  C   UNL A   1      47.222  25.395  35.869  1.00  0.00     0.059 A 
ATOM     92  F   UNL A   1      44.918  25.352  35.438  1.00  0.00    -0.206 F 
ATOM     93  C   UNL A   1      48.487  25.902  35.578  1.00  0.00     0.060 A 
BRANCH  93  94
ATOM     94  S   UNL A   1      49.940  25.288  36.457  1.00  0.00     0.124 S 
ATOM     95  O   UNL A   1      50.029  26.228  37.569  1.00  0.00    -0.237 OA
ATOM     96  O   UNL A   1      49.544  23.927  36.807  1.00  0.00    -0.237 OA
ATOM     97  O   UNL A   1      51.005  25.389  35.463  1.00  0.00    -0.744 OA
ENDBRANCH  93  94
ENDBRANCH  61  86
ENDBRANCH  35  36
ENDBRANCH  28  30
ENDBRANCH  27  28
ENDBRANCH  26  27
ENDBRANCH  25  26
ENDBRANCH   1  25
TORSDOF 21
ENDMDL
MODEL 3
REMARK VINA RESULT:     -10.6      1.225      8.382
REMARK SMILES COc1ccc(C(=O)c2ccccc2)cc1[C@@H](C)C(=O)OCCOCCOC(=O)c1ccc(-c2c3nc(c(-c4c(F)cc(S(=O)(=O)[O-])cc4F)c4ccc([nH]4)c(-c4c(F)cc(S(=O)(=O)[O-])cc4F)c4nc(c(-c5c(F)cc(S(=O)(=O)[O-])cc5F)c5ccc2[nH]5)C=C4)C=C3)cc1
REMARK SMILES IDX 24 1 23 2 22 3 21 4 19 5 20 6 17 7 18 8 16 9 3 10 4 11 5 12
REMARK SMILES IDX 15 13 6 14 2 15 1 16 7 17 8 18 9 19 10 20 14 21 11 22 13 23
REMARK SMILES IDX 12 24 25 25 26 26 27 27 28 28 29 29 30 30 31 31 95 32 32 33
REMARK SMILES IDX 94 34 33 35 34 36 35 37 88 38 36 39 93 40 87 41 89 42 37 43
REMARK SMILES IDX 92 44 86 45 85 46 38 48 72 49 51 50 71 51 52 52 55 53 70 54
REMARK SMILES IDX 90 55 53 56 54 57 69 59 91 60 56 61 39 62 40 63 49 64 41 65
REMARK SMILES IDX 42 66 48 67 50 68 43 69 44 70 45 71 46 72 47 73 73 74 74 75
REMARK SMILES IDX 83 76 75 77 76 78 82 79 84 80 77 81 78 82 79 83 80 84 81 85
REMARK SMILES IDX 57 86 58 87 67 88 59 89 60 90 66 91 68 92 61 93 62 94 63 95
REMARK SMILES IDX 64 96 65 97
REMARK H PARENT 89 47 55 58
REMARK Flexibility Score: inf
ROOT
ATOM      1  O   UNL A   1      38.333  21.970  26.105  1.00  0.00    -0.374 OA
ENDROOT
BRANCH   1   2
ATOM      2  C   UNL A   1      37.766  21.281  24.986  1.00  0.00     0.202 C 
BRANCH   2   3
ATOM      3  C   UNL A   1      36.704  22.068  24.212  1.00  0.00     0.261 C 
BRANCH   3   4
ATOM      4  O   UNL A   1      35.407  21.453  24.349  1.00  0.00    -0.463 OA
BRANCH   4   5
ATOM      5  C   UNL A   1      34.359  22.277  24.611  1.00  0.00     0.313 C 
ATOM      6  O   UNL A   1      33.390  22.428  23.874  1.00  0.00    -0.252 OA
BRANCH   5   7
ATOM      7  C   UNL A   1      34.513  23.045  25.917  1.00  0.00     0.130 C 
ATOM      8  C   UNL A   1      34.466  22.082  27.102  1.00  0.00     0.025 C 
BRANCH   7   9
ATOM      9  C   UNL A   1      33.583  24.238  26.127  1.00  0.00     0.009 A 
ATOM     10  C   UNL A   1      32.253  24.071  26.543  1.00  0.00     0.122 A 
ATOM     11  C   UNL A   1      31.372  25.154  26.594  1.00  0.00     0.047 A 
ATOM     12  C   UNL A   1      31.801  26.426  26.216  1.00  0.00     0.016 A 
ATOM     13  C   UNL A   1      34.008  25.546  25.807  1.00  0.00     0.020 A 
ATOM     14  C   UNL A   1      33.120  26.631  25.791  1.00  0.00     0.023 A 
BRANCH  10  15
ATOM     15  O   UNL A   1      31.720  22.833  26.784  1.00  0.00    -0.496 OA
ATOM     16  C   UNL A   1      30.585  22.564  25.960  1.00  0.00     0.278 C 
ENDBRANCH  10  15
BRANCH  14  17
ATOM     17  C   UNL A   1      33.508  28.003  25.339  1.00  0.00     0.193 C 
ATOM     18  O   UNL A   1      33.399  28.280  24.145  1.00  0.00    -0.289 OA
BRANCH  17  19
ATOM     19  C   UNL A   1      33.986  29.064  26.270  1.00  0.00     0.022 A 
ATOM     20  C   UNL A   1      33.148  30.162  26.489  1.00  0.00     0.012 A 
ATOM     21  C   UNL A   1      35.222  29.015  26.926  1.00  0.00     0.012 A 
ATOM     22  C   UNL A   1      33.473  31.127  27.443  1.00  0.00     0.001 A 
ATOM     23  C   UNL A   1      35.544  29.976  27.888  1.00  0.00     0.001 A 
ATOM     24  C   UNL A   1      34.659  31.018  28.163  1.00  0.00     0.000 A 
ENDBRANCH  17  19
ENDBRANCH  14  17
ENDBRANCH   7   9
ENDBRANCH   5   7
ENDBRANCH   4   5
ENDBRANCH   3   4
ENDBRANCH   2   3
ENDBRANCH   1   2
BRANCH   1  25
ATOM     25  C   UNL A   1      39.732  21.791  26.311  1.00  0.00     0.202 C 
BRANCH  25  26
ATOM     26  C   UNL A   1      40.518  23.039  26.730  1.00  0.00     0.261 C 
BRANCH  26  27
ATOM     27  O   UNL A   1      39.720  24.231  26.666  1.00  0.00    -0.460 OA
BRANCH  27  28
ATOM     28  C   UNL A   1      40.412  25.354  26.360  1.00  0.00     0.338 C 
ATOM     29  O   UNL A   1      40.739  25.736  25.243  1.00  0.00    -0.246 OA
BRANCH  28  30
ATOM     30  C   UNL A   1      40.589  26.184  27.564  1.00  0.00     0.060 A 
ATOM     31  C   UNL A   1      39.628  26.074  28.576  1.00  0.00     0.016 A 
ATOM     32  C   UNL A   1      41.636  27.098  27.685  1.00  0.00     0.016 A 
ATOM     33  C   UNL A   1      39.693  26.900  29.698  1.00  0.00     0.010 A 
ATOM     34  C   UNL A   1      41.691  27.928  28.811  1.00  0.00     0.010 A 
ATOM     35  C   UNL A   1      40.714  27.852  29.818  1.00  0.00    -0.014 A 
BRANCH  35  36
ATOM     36  C   UNL A   1      40.688  28.829  30.942  1.00  0.00     0.031 A 
ATOM     37  C   UNL A   1      39.664  29.936  30.945  1.00  0.00     0.074 A 
ATOM     38  C   UNL A   1      41.550  28.718  31.972  1.00  0.00     0.049 A 
ATOM     39  N   UNL A   1      39.431  30.846  31.857  1.00  0.00    -0.248 NA
ATOM     40  C   UNL A   1      38.799  30.043  29.760  1.00  0.00     0.031 C 
ATOM     41  C   UNL A   1      42.614  27.719  32.083  1.00  0.00     0.029 A 
ATOM     42  N   UNL A   1      41.663  29.453  33.128  1.00  0.00    -0.354 N 
ATOM     43  C   UNL A   1      38.398  31.630  31.355  1.00  0.00     0.074 A 
ATOM     44  C   UNL A   1      38.092  31.129  30.033  1.00  0.00     0.031 C 
ATOM     45  C   UNL A   1      43.259  27.892  33.250  1.00  0.00     0.029 A 
ATOM     46  C   UNL A   1      42.663  29.018  33.967  1.00  0.00     0.049 A 
ATOM     47  H   UNL A   1      41.081  30.219  33.336  1.00  0.00     0.167 HD
ATOM     48  C   UNL A   1      37.737  32.653  31.949  1.00  0.00     0.037 A 
ATOM     49  C   UNL A   1      43.048  29.469  35.178  1.00  0.00     0.037 A 
ATOM     50  C   UNL A   1      38.016  33.139  33.274  1.00  0.00     0.049 A 
ATOM     51  C   UNL A   1      42.297  30.606  35.822  1.00  0.00     0.074 A 
ATOM     52  C   UNL A   1      37.360  34.130  33.985  1.00  0.00     0.029 A 
ATOM     53  N   UNL A   1      39.035  32.672  34.091  1.00  0.00    -0.354 N 
ATOM     54  N   UNL A   1      41.273  31.284  35.362  1.00  0.00    -0.248 NA
ATOM     55  C   UNL A   1      42.743  31.025  37.158  1.00  0.00     0.031 C 
ATOM     56  C   UNL A   1      38.005  34.288  35.216  1.00  0.00     0.029 A 
ATOM     57  C   UNL A   1      39.037  33.365  35.290  1.00  0.00     0.049 A 
ATOM     58  H   UNL A   1      39.663  31.952  33.853  1.00  0.00     0.167 HD
ATOM     59  C   UNL A   1      40.938  32.193  36.362  1.00  0.00     0.074 A 
ATOM     60  C   UNL A   1      41.858  31.964  37.458  1.00  0.00     0.031 C 
ATOM     61  C   UNL A   1      39.959  33.131  36.373  1.00  0.00     0.037 A 
BRANCH  48  62
ATOM     62  C   UNL A   1      36.633  33.309  31.165  1.00  0.00     0.058 A 
ATOM     63  C   UNL A   1      36.907  34.163  30.084  1.00  0.00     0.135 A 
ATOM     64  C   UNL A   1      35.287  33.070  31.485  1.00  0.00     0.135 A 
ATOM     65  F   UNL A   1      38.177  34.438  29.746  1.00  0.00    -0.206 F 
ATOM     66  C   UNL A   1      35.889  34.785  29.370  1.00  0.00     0.059 A 
ATOM     67  C   UNL A   1      34.250  33.660  30.766  1.00  0.00     0.059 A 
ATOM     68  F   UNL A   1      34.968  32.262  32.507  1.00  0.00    -0.206 F 
ATOM     69  C   UNL A   1      34.563  34.529  29.721  1.00  0.00     0.060 A 
BRANCH  69  70
ATOM     70  S   UNL A   1      33.251  35.347  28.788  1.00  0.00     0.124 S 
ATOM     71  O   UNL A   1      32.644  34.218  28.091  1.00  0.00    -0.237 OA
ATOM     72  O   UNL A   1      32.443  35.947  29.844  1.00  0.00    -0.237 OA
ATOM     73  O   UNL A   1      33.974  36.292  27.943  1.00  0.00    -0.744 OA
ENDBRANCH  69  70
ENDBRANCH  48  62
BRANCH  49  74
ATOM     74  C   UNL A   1      44.190  28.826  35.882  1.00  0.00     0.058 A 
ATOM     75  C   UNL A   1      45.502  29.294  35.715  1.00  0.00     0.135 A 
ATOM     76  C   UNL A   1      43.991  27.725  36.730  1.00  0.00     0.135 A 
ATOM     77  F   UNL A   1      45.743  30.338  34.909  1.00  0.00    -0.206 F 
ATOM     78  C   UNL A   1      46.580  28.684  36.349  1.00  0.00     0.059 A 
ATOM     79  C   UNL A   1      45.051  27.112  37.391  1.00  0.00     0.059 A 
ATOM     80  F   UNL A   1      42.754  27.248  36.936  1.00  0.00    -0.206 F 
ATOM     81  C   UNL A   1      46.343  27.593  37.187  1.00  0.00     0.060 A 
BRANCH  81  82
ATOM     82  S   UNL A   1      47.742  26.841  38.048  1.00  0.00     0.124 S 
ATOM     83  O   UNL A   1      47.514  25.423  37.796  1.00  0.00    -0.237 OA
ATOM     84  O   UNL A   1      48.883  27.438  37.361  1.00  0.00    -0.237 OA
ATOM     85  O   UNL A   1      47.556  27.276  39.430  1.00  0.00    -0.744 OA
ENDBRANCH  81  82
ENDBRANCH  49  74
BRANCH  61  86
ATOM     86  C   UNL A   1      39.814  33.965  37.617  1.00  0.00     0.058 A 
ATOM     87  C   UNL A   1      39.045  33.534  38.709  1.00  0.00     0.135 A 
ATOM     88  C   UNL A   1      40.470  35.202  37.727  1.00  0.00     0.135 A 
ATOM     89  F   UNL A   1      38.393  32.361  38.656  1.00  0.00    -0.206 F 
ATOM     90  C   UNL A   1      38.901  34.315  39.852  1.00  0.00     0.059 A 
ATOM     91  C   UNL A   1      40.362  35.987  38.871  1.00  0.00     0.059 A 
ATOM     92  F   UNL A   1      41.231  35.657  36.718  1.00  0.00    -0.206 F 
ATOM     93  C   UNL A   1      39.560  35.544  39.921  1.00  0.00     0.060 A 
BRANCH  93  94
ATOM     94  S   UNL A   1      39.368  36.550  41.408  1.00  0.00     0.124 S 
ATOM     95  O   UNL A   1      38.921  37.820  40.847  1.00  0.00    -0.237 OA
ATOM     96  O   UNL A   1      38.367  35.805  42.166  1.00  0.00    -0.237 OA
ATOM     97  O   UNL A   1      40.707  36.556  41.988  1.00  0.00    -0.744 OA
ENDBRANCH  93  94
ENDBRANCH  61  86
ENDBRANCH  35  36
ENDBRANCH  28  30
ENDBRANCH  27  28
ENDBRANCH  26  27
ENDBRANCH  25  26
ENDBRANCH   1  25
TORSDOF 21
ENDMDL
