MODEL 1
REMARK VINA RESULT:     -11.4      0.000      0.000
REMARK SMILES Cc1c(CC(=O)OCCOCCOC(=O)c2ccc(-c3c4nc(c(-c5c(F)cc(S(=O)(=O)[O-])cc5F)c5ccc([nH]5)c(-c5c(F)cc(S(=O)(=O)[O-])cc5F)c5nc(c(-c6c(F)cc(S(=O)(=O)[O-])cc6F)c6ccc3[nH]6)C=C5)C=C4)cc2)c2ccccc2n1C(=O)c1ccc(Cl)cc1
REMARK SMILES IDX 10 1 9 2 8 3 7 4 5 5 6 6 4 7 3 8 1 9 2 10 88 11 82 12 87 13
REMARK SMILES IDX 83 14 86 15 84 16 85 17 89 18 90 19 91 20 92 21 97 22 93 23
REMARK SMILES IDX 96 24 94 25 95 26 11 27 12 28 13 29 14 30 15 31 16 32 17 33
REMARK SMILES IDX 81 34 18 35 80 36 19 37 20 38 21 39 74 40 22 41 79 42 73 43
REMARK SMILES IDX 75 44 23 45 78 46 72 47 71 48 24 50 58 51 37 52 57 53 38 54
REMARK SMILES IDX 41 55 56 56 76 57 39 58 40 59 55 61 77 62 42 63 25 64 26 65
REMARK SMILES IDX 35 66 27 67 28 68 34 69 36 70 29 71 30 72 31 73 32 74 33 75
REMARK SMILES IDX 59 76 60 77 69 78 61 79 62 80 68 81 70 82 63 83 64 84 65 85
REMARK SMILES IDX 66 86 67 87 43 88 44 89 53 90 45 91 46 92 52 93 54 94 47 95
REMARK SMILES IDX 48 96 49 97 50 98 51 99
REMARK H PARENT 75 49 41 60
REMARK Flexibility Score: inf
ROOT
ATOM      1  O   UNL A   1      31.288  28.677  25.421  1.00  0.00    -0.374 OA
ENDROOT
BRANCH   1   2
ATOM      2  C   UNL A   1      31.740  27.414  24.954  1.00  0.00     0.202 C 
BRANCH   2   3
ATOM      3  C   UNL A   1      31.320  26.871  23.577  1.00  0.00     0.261 C 
BRANCH   3   4
ATOM      4  O   UNL A   1      31.774  25.540  23.273  1.00  0.00    -0.463 OA
BRANCH   4   5
ATOM      5  C   UNL A   1      33.110  25.446  23.040  1.00  0.00     0.310 C 
ATOM      6  O   UNL A   1      33.874  26.408  23.010  1.00  0.00    -0.252 OA
BRANCH   5   7
ATOM      7  C   UNL A   1      33.640  24.049  22.806  1.00  0.00     0.160 C 
BRANCH   7   8
ATOM      8  C   UNL A   1      34.355  23.323  23.919  1.00  0.00    -0.008 A 
ATOM      9  C   UNL A   1      36.657  22.989  22.786  1.00  0.00     0.065 C 
ATOM     10  C   UNL A   1      35.673  22.886  23.910  1.00  0.00     0.028 A 
ATOM     11  N   UNL A   1      36.005  22.373  25.173  1.00  0.00    -0.280 N 
ATOM     12  C   UNL A   1      33.857  23.094  25.237  1.00  0.00     0.004 A 
ATOM     13  C   UNL A   1      34.849  22.432  25.973  1.00  0.00     0.056 A 
ATOM     14  C   UNL A   1      32.629  23.406  25.872  1.00  0.00     0.010 A 
ATOM     15  C   UNL A   1      34.577  22.024  27.298  1.00  0.00     0.027 A 
ATOM     16  C   UNL A   1      32.357  22.956  27.165  1.00  0.00     0.001 A 
ATOM     17  C   UNL A   1      33.321  22.255  27.864  1.00  0.00     0.002 A 
BRANCH  11  18
ATOM     18  C   UNL A   1      37.309  21.957  25.583  1.00  0.00     0.262 C 
ATOM     19  O   UNL A   1      37.682  20.813  25.323  1.00  0.00    -0.268 OA
BRANCH  18  20
ATOM     20  C   UNL A   1      38.315  22.813  26.234  1.00  0.00     0.040 A 
ATOM     21  C   UNL A   1      39.542  22.285  26.648  1.00  0.00     0.015 A 
ATOM     22  C   UNL A   1      38.006  24.161  26.446  1.00  0.00     0.015 A 
ATOM     23  C   UNL A   1      40.424  23.095  27.371  1.00  0.00     0.021 A 
ATOM     24  C   UNL A   1      38.896  24.968  27.156  1.00  0.00     0.021 A 
ATOM     25  C   UNL A   1      40.089  24.425  27.636  1.00  0.00     0.041 A 
ATOM     26  Cl  UNL A   1      41.145  25.400  28.584  1.00  0.00    -0.084 Cl
ENDBRANCH  18  20
ENDBRANCH  11  18
ENDBRANCH   7   8
ENDBRANCH   5   7
ENDBRANCH   4   5
ENDBRANCH   3   4
ENDBRANCH   2   3
ENDBRANCH   1   2
BRANCH   1  27
ATOM     27  C   UNL A   1      32.273  29.651  25.742  1.00  0.00     0.202 C 
BRANCH  27  28
ATOM     28  C   UNL A   1      32.910  29.672  27.143  1.00  0.00     0.261 C 
BRANCH  28  29
ATOM     29  O   UNL A   1      34.326  29.840  27.105  1.00  0.00    -0.460 OA
BRANCH  29  30
ATOM     30  C   UNL A   1      34.773  30.927  27.787  1.00  0.00     0.338 C 
ATOM     31  O   UNL A   1      34.127  31.884  28.177  1.00  0.00    -0.246 OA
BRANCH  30  32
ATOM     32  C   UNL A   1      36.072  30.497  28.320  1.00  0.00     0.060 A 
ATOM     33  C   UNL A   1      36.987  31.450  28.779  1.00  0.00     0.016 A 
ATOM     34  C   UNL A   1      36.470  29.197  27.971  1.00  0.00     0.016 A 
ATOM     35  C   UNL A   1      38.332  31.117  28.804  1.00  0.00     0.010 A 
ATOM     36  C   UNL A   1      37.820  28.884  27.961  1.00  0.00     0.010 A 
ATOM     37  C   UNL A   1      38.750  29.855  28.345  1.00  0.00    -0.014 A 
BRANCH  37  38
ATOM     38  C   UNL A   1      40.147  29.482  28.556  1.00  0.00     0.031 A 
ATOM     39  C   UNL A   1      40.452  29.348  30.010  1.00  0.00     0.074 A 
ATOM     40  C   UNL A   1      41.022  29.116  27.596  1.00  0.00     0.049 A 
ATOM     41  N   UNL A   1      41.289  30.031  30.717  1.00  0.00    -0.248 NA
ATOM     42  C   UNL A   1      39.570  28.473  30.806  1.00  0.00     0.031 C 
ATOM     43  C   UNL A   1      40.781  28.937  26.166  1.00  0.00     0.029 A 
ATOM     44  N   UNL A   1      42.321  28.718  27.728  1.00  0.00    -0.354 N 
ATOM     45  C   UNL A   1      41.182  29.524  32.010  1.00  0.00     0.074 A 
ATOM     46  C   UNL A   1      39.987  28.727  32.044  1.00  0.00     0.031 C 
ATOM     47  C   UNL A   1      41.810  28.252  25.617  1.00  0.00     0.029 A 
ATOM     48  C   UNL A   1      42.829  28.030  26.628  1.00  0.00     0.049 A 
ATOM     49  H   UNL A   1      42.854  28.900  28.534  1.00  0.00     0.167 HD
ATOM     50  C   UNL A   1      42.209  29.596  32.898  1.00  0.00     0.037 A 
ATOM     51  C   UNL A   1      43.960  27.272  26.587  1.00  0.00     0.037 A 
ATOM     52  C   UNL A   1      43.179  30.580  32.506  1.00  0.00     0.049 A 
ATOM     53  C   UNL A   1      44.795  27.678  27.750  1.00  0.00     0.074 A 
ATOM     54  C   UNL A   1      43.138  31.944  32.293  1.00  0.00     0.029 A 
ATOM     55  N   UNL A   1      44.333  30.138  31.907  1.00  0.00    -0.354 N 
ATOM     56  N   UNL A   1      45.368  28.844  27.860  1.00  0.00    -0.248 NA
ATOM     57  C   UNL A   1      44.608  26.955  29.000  1.00  0.00     0.031 C 
ATOM     58  C   UNL A   1      43.999  32.169  31.181  1.00  0.00     0.029 A 
ATOM     59  C   UNL A   1      44.559  30.944  30.821  1.00  0.00     0.049 A 
ATOM     60  H   UNL A   1      44.894  29.384  32.201  1.00  0.00     0.167 HD
ATOM     61  C   UNL A   1      45.224  29.186  29.196  1.00  0.00     0.074 A 
ATOM     62  C   UNL A   1      44.817  27.951  29.866  1.00  0.00     0.031 C 
ATOM     63  C   UNL A   1      45.169  30.491  29.591  1.00  0.00     0.037 A 
BRANCH  50  64
ATOM     64  C   UNL A   1      42.499  28.525  33.917  1.00  0.00     0.058 A 
ATOM     65  C   UNL A   1      42.972  27.270  33.488  1.00  0.00     0.135 A 
ATOM     66  C   UNL A   1      42.069  28.591  35.263  1.00  0.00     0.135 A 
ATOM     67  F   UNL A   1      43.389  27.093  32.224  1.00  0.00    -0.206 F 
ATOM     68  C   UNL A   1      42.956  26.148  34.316  1.00  0.00     0.059 A 
ATOM     69  C   UNL A   1      42.102  27.502  36.122  1.00  0.00     0.059 A 
ATOM     70  F   UNL A   1      41.500  29.686  35.781  1.00  0.00    -0.206 F 
ATOM     71  C   UNL A   1      42.505  26.273  35.628  1.00  0.00     0.060 A 
BRANCH  71  72
ATOM     72  S   UNL A   1      42.376  24.808  36.664  1.00  0.00     0.124 S 
ATOM     73  O   UNL A   1      41.076  25.012  37.293  1.00  0.00    -0.237 OA
ATOM     74  O   UNL A   1      42.450  23.735  35.677  1.00  0.00    -0.237 OA
ATOM     75  O   UNL A   1      43.531  24.919  37.550  1.00  0.00    -0.744 OA
ENDBRANCH  71  72
ENDBRANCH  50  64
BRANCH  51  76
ATOM     76  C   UNL A   1      44.217  26.011  25.828  1.00  0.00     0.058 A 
ATOM     77  C   UNL A   1      45.517  25.480  25.703  1.00  0.00     0.135 A 
ATOM     78  C   UNL A   1      43.169  25.150  25.450  1.00  0.00     0.135 A 
ATOM     79  F   UNL A   1      46.584  26.215  26.054  1.00  0.00    -0.206 F 
ATOM     80  C   UNL A   1      45.757  24.162  25.284  1.00  0.00     0.059 A 
ATOM     81  C   UNL A   1      43.382  23.839  25.018  1.00  0.00     0.059 A 
ATOM     82  F   UNL A   1      41.886  25.519  25.577  1.00  0.00    -0.206 F 
ATOM     83  C   UNL A   1      44.677  23.340  24.967  1.00  0.00     0.060 A 
BRANCH  83  84
ATOM     84  S   UNL A   1      44.957  21.588  24.611  1.00  0.00     0.124 S 
ATOM     85  O   UNL A   1      46.392  21.455  24.843  1.00  0.00    -0.237 OA
ATOM     86  O   UNL A   1      44.092  20.934  25.587  1.00  0.00    -0.237 OA
ATOM     87  O   UNL A   1      44.535  21.451  23.220  1.00  0.00    -0.744 OA
ENDBRANCH  83  84
ENDBRANCH  51  76
BRANCH  63  88
ATOM     88  C   UNL A   1      45.539  31.558  28.596  1.00  0.00     0.058 A 
ATOM     89  C   UNL A   1      44.652  32.099  27.648  1.00  0.00     0.135 A 
ATOM     90  C   UNL A   1      46.785  32.186  28.739  1.00  0.00     0.135 A 
ATOM     91  F   UNL A   1      43.406  31.622  27.519  1.00  0.00    -0.206 F 
ATOM     92  C   UNL A   1      44.999  33.198  26.860  1.00  0.00     0.059 A 
ATOM     93  C   UNL A   1      47.139  33.303  27.988  1.00  0.00     0.059 A 
ATOM     94  F   UNL A   1      47.652  31.755  29.670  1.00  0.00    -0.206 F 
ATOM     95  C   UNL A   1      46.243  33.800  27.045  1.00  0.00     0.060 A 
BRANCH  95  96
ATOM     96  S   UNL A   1      46.651  35.286  26.102  1.00  0.00     0.124 S 
ATOM     97  O   UNL A   1      46.723  34.774  24.737  1.00  0.00    -0.237 OA
ATOM     98  O   UNL A   1      45.521  36.163  26.392  1.00  0.00    -0.237 OA
ATOM     99  O   UNL A   1      47.924  35.715  26.675  1.00  0.00    -0.744 OA
ENDBRANCH  95  96
ENDBRANCH  63  88
ENDBRANCH  37  38
ENDBRANCH  30  32
ENDBRANCH  29  30
ENDBRANCH  28  29
ENDBRANCH  27  28
ENDBRANCH   1  27
TORSDOF 20
ENDMDL
MODEL 2
REMARK VINA RESULT:     -11.2      2.380      3.481
REMARK SMILES Cc1c(CC(=O)OCCOCCOC(=O)c2ccc(-c3c4nc(c(-c5c(F)cc(S(=O)(=O)[O-])cc5F)c5ccc([nH]5)c(-c5c(F)cc(S(=O)(=O)[O-])cc5F)c5nc(c(-c6c(F)cc(S(=O)(=O)[O-])cc6F)c6ccc3[nH]6)C=C5)C=C4)cc2)c2ccccc2n1C(=O)c1ccc(Cl)cc1
REMARK SMILES IDX 10 1 9 2 8 3 7 4 5 5 6 6 4 7 3 8 1 9 2 10 88 11 82 12 87 13
REMARK SMILES IDX 83 14 86 15 84 16 85 17 89 18 90 19 91 20 92 21 97 22 93 23
REMARK SMILES IDX 96 24 94 25 95 26 11 27 12 28 13 29 14 30 15 31 16 32 17 33
REMARK SMILES IDX 81 34 18 35 80 36 19 37 20 38 21 39 74 40 22 41 79 42 73 43
REMARK SMILES IDX 75 44 23 45 78 46 72 47 71 48 24 50 58 51 37 52 57 53 38 54
REMARK SMILES IDX 41 55 56 56 76 57 39 58 40 59 55 61 77 62 42 63 25 64 26 65
REMARK SMILES IDX 35 66 27 67 28 68 34 69 36 70 29 71 30 72 31 73 32 74 33 75
REMARK SMILES IDX 59 76 60 77 69 78 61 79 62 80 68 81 70 82 63 83 64 84 65 85
REMARK SMILES IDX 66 86 67 87 43 88 44 89 53 90 45 91 46 92 52 93 54 94 47 95
REMARK SMILES IDX 48 96 49 97 50 98 51 99
REMARK H PARENT 75 49 41 60
REMARK Flexibility Score: inf
ROOT
ATOM      1  O   UNL A   1      32.112  30.422  25.813  1.00  0.00    -0.374 OA
ENDROOT
BRANCH   1   2
ATOM      2  C   UNL A   1      33.130  29.728  25.104  1.00  0.00     0.202 C 
BRANCH   2   3
ATOM      3  C   UNL A   1      32.921  28.286  24.609  1.00  0.00     0.261 C 
BRANCH   3   4
ATOM      4  O   UNL A   1      33.161  27.258  25.586  1.00  0.00    -0.463 OA
BRANCH   4   5
ATOM      5  C   UNL A   1      33.384  26.026  25.056  1.00  0.00     0.310 C 
ATOM      6  O   UNL A   1      33.463  25.798  23.851  1.00  0.00    -0.252 OA
BRANCH   5   7
ATOM      7  C   UNL A   1      33.538  24.900  26.053  1.00  0.00     0.160 C 
BRANCH   7   8
ATOM      8  C   UNL A   1      33.784  23.494  25.564  1.00  0.00    -0.008 A 
ATOM      9  C   UNL A   1      31.376  22.873  24.851  1.00  0.00     0.065 C 
ATOM     10  C   UNL A   1      32.843  22.629  25.022  1.00  0.00     0.028 A 
ATOM     11  N   UNL A   1      33.483  21.465  24.569  1.00  0.00    -0.280 N 
ATOM     12  C   UNL A   1      35.054  22.858  25.423  1.00  0.00     0.004 A 
ATOM     13  C   UNL A   1      34.848  21.578  24.892  1.00  0.00     0.056 A 
ATOM     14  C   UNL A   1      36.379  23.275  25.704  1.00  0.00     0.010 A 
ATOM     15  C   UNL A   1      35.949  20.709  24.720  1.00  0.00     0.027 A 
ATOM     16  C   UNL A   1      37.451  22.390  25.575  1.00  0.00     0.001 A 
ATOM     17  C   UNL A   1      37.231  21.111  25.102  1.00  0.00     0.002 A 
BRANCH  11  18
ATOM     18  C   UNL A   1      32.861  20.409  23.833  1.00  0.00     0.262 C 
ATOM     19  O   UNL A   1      32.352  20.660  22.741  1.00  0.00    -0.268 OA
BRANCH  18  20
ATOM     20  C   UNL A   1      32.842  18.990  24.224  1.00  0.00     0.040 A 
ATOM     21  C   UNL A   1      32.578  18.615  25.545  1.00  0.00     0.015 A 
ATOM     22  C   UNL A   1      33.113  18.026  23.246  1.00  0.00     0.015 A 
ATOM     23  C   UNL A   1      32.688  17.269  25.907  1.00  0.00     0.021 A 
ATOM     24  C   UNL A   1      33.208  16.682  23.611  1.00  0.00     0.021 A 
ATOM     25  C   UNL A   1      33.018  16.313  24.944  1.00  0.00     0.041 A 
ATOM     26  Cl  UNL A   1      33.219  14.667  25.407  1.00  0.00    -0.084 Cl
ENDBRANCH  18  20
ENDBRANCH  11  18
ENDBRANCH   7   8
ENDBRANCH   5   7
ENDBRANCH   4   5
ENDBRANCH   3   4
ENDBRANCH   2   3
ENDBRANCH   1   2
BRANCH   1  27
ATOM     27  C   UNL A   1      32.405  30.840  27.140  1.00  0.00     0.202 C 
BRANCH  27  28
ATOM     28  C   UNL A   1      33.655  31.692  27.424  1.00  0.00     0.261 C 
BRANCH  28  29
ATOM     29  O   UNL A   1      34.585  31.039  28.286  1.00  0.00    -0.460 OA
BRANCH  29  30
ATOM     30  C   UNL A   1      34.963  31.784  29.358  1.00  0.00     0.338 C 
ATOM     31  O   UNL A   1      34.263  32.489  30.064  1.00  0.00    -0.246 OA
BRANCH  30  32
ATOM     32  C   UNL A   1      36.267  31.224  29.734  1.00  0.00     0.060 A 
ATOM     33  C   UNL A   1      37.350  32.077  29.969  1.00  0.00     0.016 A 
ATOM     34  C   UNL A   1      36.446  29.862  29.447  1.00  0.00     0.016 A 
ATOM     35  C   UNL A   1      38.633  31.570  29.829  1.00  0.00     0.010 A 
ATOM     36  C   UNL A   1      37.730  29.372  29.270  1.00  0.00     0.010 A 
ATOM     37  C   UNL A   1      38.819  30.235  29.429  1.00  0.00    -0.014 A 
BRANCH  37  38
ATOM     38  C   UNL A   1      40.176  29.694  29.468  1.00  0.00     0.031 A 
ATOM     39  C   UNL A   1      40.655  29.549  30.873  1.00  0.00     0.074 A 
ATOM     40  C   UNL A   1      40.865  29.206  28.415  1.00  0.00     0.049 A 
ATOM     41  N   UNL A   1      41.655  30.136  31.442  1.00  0.00    -0.248 NA
ATOM     42  C   UNL A   1      39.787  28.805  31.806  1.00  0.00     0.031 C 
ATOM     43  C   UNL A   1      40.415  29.034  27.035  1.00  0.00     0.029 A 
ATOM     44  N   UNL A   1      42.111  28.652  28.389  1.00  0.00    -0.354 N 
ATOM     45  C   UNL A   1      41.661  29.668  32.754  1.00  0.00     0.074 A 
ATOM     46  C   UNL A   1      40.394  29.027  32.970  1.00  0.00     0.031 C 
ATOM     47  C   UNL A   1      41.271  28.217  26.380  1.00  0.00     0.029 A 
ATOM     48  C   UNL A   1      42.381  27.887  27.256  1.00  0.00     0.049 A 
ATOM     49  H   UNL A   1      42.766  28.781  29.113  1.00  0.00     0.167 HD
ATOM     50  C   UNL A   1      42.798  29.627  33.498  1.00  0.00     0.037 A 
ATOM     51  C   UNL A   1      43.397  26.994  27.094  1.00  0.00     0.037 A 
ATOM     52  C   UNL A   1      43.820  30.476  32.949  1.00  0.00     0.049 A 
ATOM     53  C   UNL A   1      44.422  27.313  28.123  1.00  0.00     0.074 A 
ATOM     54  C   UNL A   1      43.915  31.830  32.697  1.00  0.00     0.029 A 
ATOM     55  N   UNL A   1      44.821  29.883  32.220  1.00  0.00    -0.354 N 
ATOM     56  N   UNL A   1      45.142  28.402  28.118  1.00  0.00    -0.248 NA
ATOM     57  C   UNL A   1      44.319  26.641  29.411  1.00  0.00     0.031 C 
ATOM     58  C   UNL A   1      44.640  31.928  31.476  1.00  0.00     0.029 A 
ATOM     59  C   UNL A   1      44.996  30.637  31.087  1.00  0.00     0.049 A 
ATOM     60  H   UNL A   1      45.321  29.071  32.464  1.00  0.00     0.167 HD
ATOM     61  C   UNL A   1      45.220  28.781  29.450  1.00  0.00     0.074 A 
ATOM     62  C   UNL A   1      44.760  27.619  30.208  1.00  0.00     0.031 C 
ATOM     63  C   UNL A   1      45.376  30.090  29.804  1.00  0.00     0.037 A 
BRANCH  50  64
ATOM     64  C   UNL A   1      43.090  28.546  34.506  1.00  0.00     0.058 A 
ATOM     65  C   UNL A   1      43.431  28.903  35.825  1.00  0.00     0.135 A 
ATOM     66  C   UNL A   1      43.318  27.195  34.157  1.00  0.00     0.135 A 
ATOM     67  F   UNL A   1      43.270  30.164  36.255  1.00  0.00    -0.206 F 
ATOM     68  C   UNL A   1      44.016  27.998  36.710  1.00  0.00     0.059 A 
ATOM     69  C   UNL A   1      43.843  26.264  35.041  1.00  0.00     0.059 A 
ATOM     70  F   UNL A   1      43.141  26.736  32.912  1.00  0.00    -0.206 F 
ATOM     71  C   UNL A   1      44.231  26.683  36.302  1.00  0.00     0.060 A 
BRANCH  71  72
ATOM     72  S   UNL A   1      45.089  25.545  37.399  1.00  0.00     0.124 S 
ATOM     73  O   UNL A   1      44.984  24.293  36.657  1.00  0.00    -0.237 OA
ATOM     74  O   UNL A   1      46.420  26.139  37.468  1.00  0.00    -0.237 OA
ATOM     75  O   UNL A   1      44.312  25.616  38.633  1.00  0.00    -0.744 OA
ENDBRANCH  71  72
ENDBRANCH  50  64
BRANCH  51  76
ATOM     76  C   UNL A   1      43.396  25.698  26.351  1.00  0.00     0.058 A 
ATOM     77  C   UNL A   1      44.324  25.440  25.320  1.00  0.00     0.135 A 
ATOM     78  C   UNL A   1      42.678  24.580  26.817  1.00  0.00     0.135 A 
ATOM     79  F   UNL A   1      45.071  26.436  24.819  1.00  0.00    -0.206 F 
ATOM     80  C   UNL A   1      44.563  24.149  24.827  1.00  0.00     0.059 A 
ATOM     81  C   UNL A   1      42.888  23.287  26.333  1.00  0.00     0.059 A 
ATOM     82  F   UNL A   1      41.809  24.687  27.832  1.00  0.00    -0.206 F 
ATOM     83  C   UNL A   1      43.855  23.073  25.359  1.00  0.00     0.060 A 
BRANCH  83  84
ATOM     84  S   UNL A   1      44.286  21.384  24.870  1.00  0.00     0.124 S 
ATOM     85  O   UNL A   1      43.119  20.630  25.316  1.00  0.00    -0.237 OA
ATOM     86  O   UNL A   1      44.445  21.515  23.425  1.00  0.00    -0.237 OA
ATOM     87  O   UNL A   1      45.518  21.121  25.607  1.00  0.00    -0.744 OA
ENDBRANCH  83  84
ENDBRANCH  51  76
BRANCH  63  88
ATOM     88  C   UNL A   1      45.736  31.086  28.734  1.00  0.00     0.058 A 
ATOM     89  C   UNL A   1      44.797  31.775  27.946  1.00  0.00     0.135 A 
ATOM     90  C   UNL A   1      47.076  31.492  28.638  1.00  0.00     0.135 A 
ATOM     91  F   UNL A   1      43.486  31.518  28.052  1.00  0.00    -0.206 F 
ATOM     92  C   UNL A   1      45.178  32.805  27.083  1.00  0.00     0.059 A 
ATOM     93  C   UNL A   1      47.472  32.537  27.810  1.00  0.00     0.059 A 
ATOM     94  F   UNL A   1      48.010  30.914  29.411  1.00  0.00    -0.206 F 
ATOM     95  C   UNL A   1      46.518  33.185  27.029  1.00  0.00     0.060 A 
BRANCH  95  96
ATOM     96  S   UNL A   1      46.994  34.587  25.993  1.00  0.00     0.124 S 
ATOM     97  O   UNL A   1      48.386  34.280  25.681  1.00  0.00    -0.237 OA
ATOM     98  O   UNL A   1      46.056  34.488  24.879  1.00  0.00    -0.237 OA
ATOM     99  O   UNL A   1      46.790  35.740  26.867  1.00  0.00    -0.744 OA
ENDBRANCH  95  96
ENDBRANCH  63  88
ENDBRANCH  37  38
ENDBRANCH  30  32
ENDBRANCH  29  30
ENDBRANCH  28  29
ENDBRANCH  27  28
ENDBRANCH   1  27
TORSDOF 20
ENDMDL
MODEL 3
REMARK VINA RESULT:     -10.8      3.472      7.977
REMARK SMILES Cc1c(CC(=O)OCCOCCOC(=O)c2ccc(-c3c4nc(c(-c5c(F)cc(S(=O)(=O)[O-])cc5F)c5ccc([nH]5)c(-c5c(F)cc(S(=O)(=O)[O-])cc5F)c5nc(c(-c6c(F)cc(S(=O)(=O)[O-])cc6F)c6ccc3[nH]6)C=C5)C=C4)cc2)c2ccccc2n1C(=O)c1ccc(Cl)cc1
REMARK SMILES IDX 10 1 9 2 8 3 7 4 5 5 6 6 4 7 3 8 1 9 2 10 88 11 82 12 87 13
REMARK SMILES IDX 83 14 86 15 84 16 85 17 89 18 90 19 91 20 92 21 97 22 93 23
REMARK SMILES IDX 96 24 94 25 95 26 11 27 12 28 13 29 14 30 15 31 16 32 17 33
REMARK SMILES IDX 81 34 18 35 80 36 19 37 20 38 21 39 74 40 22 41 79 42 73 43
REMARK SMILES IDX 75 44 23 45 78 46 72 47 71 48 24 50 58 51 37 52 57 53 38 54
REMARK SMILES IDX 41 55 56 56 76 57 39 58 40 59 55 61 77 62 42 63 25 64 26 65
REMARK SMILES IDX 35 66 27 67 28 68 34 69 36 70 29 71 30 72 31 73 32 74 33 75
REMARK SMILES IDX 59 76 60 77 69 78 61 79 62 80 68 81 70 82 63 83 64 84 65 85
REMARK SMILES IDX 66 86 67 87 43 88 44 89 53 90 45 91 46 92 52 93 54 94 47 95
REMARK SMILES IDX 48 96 49 97 50 98 51 99
REMARK H PARENT 75 49 41 60
REMARK Flexibility Score: inf
ROOT
ATOM      1  O   UNL A   1      31.667  30.105  26.197  1.00  0.00    -0.374 OA
ENDROOT
BRANCH   1   2
ATOM      2  C   UNL A   1      31.287  29.543  24.948  1.00  0.00     0.202 C 
BRANCH   2   3
ATOM      3  C   UNL A   1      31.830  28.180  24.485  1.00  0.00     0.261 C 
BRANCH   3   4
ATOM      4  O   UNL A   1      31.089  27.033  24.941  1.00  0.00    -0.463 OA
BRANCH   4   5
ATOM      5  C   UNL A   1      31.787  26.212  25.769  1.00  0.00     0.310 C 
ATOM      6  O   UNL A   1      31.373  25.817  26.857  1.00  0.00    -0.252 OA
BRANCH   5   7
ATOM      7  C   UNL A   1      33.151  25.785  25.275  1.00  0.00     0.160 C 
BRANCH   7   8
ATOM      8  C   UNL A   1      33.411  24.334  24.953  1.00  0.00    -0.008 A 
ATOM      9  C   UNL A   1      31.066  23.674  24.080  1.00  0.00     0.065 C 
ATOM     10  C   UNL A   1      32.505  23.430  24.413  1.00  0.00     0.028 A 
ATOM     11  N   UNL A   1      33.158  22.218  24.140  1.00  0.00    -0.280 N 
ATOM     12  C   UNL A   1      34.674  23.671  24.997  1.00  0.00     0.004 A 
ATOM     13  C   UNL A   1      34.490  22.347  24.578  1.00  0.00     0.056 A 
ATOM     14  C   UNL A   1      35.975  24.098  25.360  1.00  0.00     0.010 A 
ATOM     15  C   UNL A   1      35.583  21.451  24.598  1.00  0.00     0.027 A 
ATOM     16  C   UNL A   1      37.035  23.191  25.421  1.00  0.00     0.001 A 
ATOM     17  C   UNL A   1      36.832  21.874  25.058  1.00  0.00     0.002 A 
BRANCH  11  18
ATOM     18  C   UNL A   1      32.585  21.102  23.456  1.00  0.00     0.262 C 
ATOM     19  O   UNL A   1      32.097  21.271  22.339  1.00  0.00    -0.268 OA
BRANCH  18  20
ATOM     20  C   UNL A   1      32.595  19.710  23.934  1.00  0.00     0.040 A 
ATOM     21  C   UNL A   1      32.550  19.422  25.302  1.00  0.00     0.015 A 
ATOM     22  C   UNL A   1      32.670  18.681  22.987  1.00  0.00     0.015 A 
ATOM     23  C   UNL A   1      32.684  18.096  25.725  1.00  0.00     0.021 A 
ATOM     24  C   UNL A   1      32.790  17.359  23.416  1.00  0.00     0.021 A 
ATOM     25  C   UNL A   1      32.820  17.075  24.782  1.00  0.00     0.041 A 
ATOM     26  Cl  UNL A   1      33.053  15.452  25.308  1.00  0.00    -0.084 Cl
ENDBRANCH  18  20
ENDBRANCH  11  18
ENDBRANCH   7   8
ENDBRANCH   5   7
ENDBRANCH   4   5
ENDBRANCH   3   4
ENDBRANCH   2   3
ENDBRANCH   1   2
BRANCH   1  27
ATOM     27  C   UNL A   1      31.522  31.511  26.356  1.00  0.00     0.202 C 
BRANCH  27  28
ATOM     28  C   UNL A   1      32.124  32.214  27.586  1.00  0.00     0.261 C 
BRANCH  28  29
ATOM     29  O   UNL A   1      32.310  33.614  27.386  1.00  0.00    -0.460 OA
BRANCH  29  30
ATOM     30  C   UNL A   1      32.956  34.238  28.406  1.00  0.00     0.338 C 
ATOM     31  O   UNL A   1      32.495  35.029  29.212  1.00  0.00    -0.246 OA
BRANCH  30  32
ATOM     32  C   UNL A   1      34.173  33.439  28.593  1.00  0.00     0.060 A 
ATOM     33  C   UNL A   1      34.411  32.805  29.816  1.00  0.00     0.016 A 
ATOM     34  C   UNL A   1      35.206  33.685  27.674  1.00  0.00     0.016 A 
ATOM     35  C   UNL A   1      35.718  32.494  30.157  1.00  0.00     0.010 A 
ATOM     36  C   UNL A   1      36.514  33.408  28.037  1.00  0.00     0.010 A 
ATOM     37  C   UNL A   1      36.770  32.843  29.291  1.00  0.00    -0.014 A 
BRANCH  37  38
ATOM     38  C   UNL A   1      38.106  32.339  29.602  1.00  0.00     0.031 A 
ATOM     39  C   UNL A   1      38.236  30.901  29.228  1.00  0.00     0.074 A 
ATOM     40  C   UNL A   1      39.160  33.083  29.999  1.00  0.00     0.049 A 
ATOM     41  N   UNL A   1      38.471  29.893  30.000  1.00  0.00    -0.248 NA
ATOM     42  C   UNL A   1      37.864  30.527  27.850  1.00  0.00     0.031 C 
ATOM     43  C   UNL A   1      39.247  34.534  30.139  1.00  0.00     0.029 A 
ATOM     44  N   UNL A   1      40.437  32.684  30.264  1.00  0.00    -0.354 N 
ATOM     45  C   UNL A   1      38.480  28.780  29.162  1.00  0.00     0.074 A 
ATOM     46  C   UNL A   1      37.909  29.198  27.913  1.00  0.00     0.031 C 
ATOM     47  C   UNL A   1      40.546  34.902  30.230  1.00  0.00     0.029 A 
ATOM     48  C   UNL A   1      41.378  33.712  30.255  1.00  0.00     0.049 A 
ATOM     49  H   UNL A   1      40.676  31.746  30.447  1.00  0.00     0.167 HD
ATOM     50  C   UNL A   1      39.178  27.654  29.469  1.00  0.00     0.037 A 
ATOM     51  C   UNL A   1      42.732  33.582  30.192  1.00  0.00     0.037 A 
ATOM     52  C   UNL A   1      39.511  27.603  30.866  1.00  0.00     0.049 A 
ATOM     53  C   UNL A   1      43.054  32.189  30.604  1.00  0.00     0.074 A 
ATOM     54  C   UNL A   1      38.773  27.584  32.033  1.00  0.00     0.029 A 
ATOM     55  N   UNL A   1      40.790  27.944  31.233  1.00  0.00    -0.354 N 
ATOM     56  N   UNL A   1      42.890  31.734  31.816  1.00  0.00    -0.248 NA
ATOM     57  C   UNL A   1      43.118  31.174  29.561  1.00  0.00     0.031 C 
ATOM     58  C   UNL A   1      39.518  28.374  32.954  1.00  0.00     0.029 A 
ATOM     59  C   UNL A   1      40.691  28.777  32.317  1.00  0.00     0.049 A 
ATOM     60  H   UNL A   1      41.622  27.645  30.799  1.00  0.00     0.167 HD
ATOM     61  C   UNL A   1      42.407  30.445  31.648  1.00  0.00     0.074 A 
ATOM     62  C   UNL A   1      42.641  30.127  30.241  1.00  0.00     0.031 C 
ATOM     63  C   UNL A   1      41.607  29.862  32.588  1.00  0.00     0.037 A 
BRANCH  50  64
ATOM     64  C   UNL A   1      39.857  26.793  28.437  1.00  0.00     0.058 A 
ATOM     65  C   UNL A   1      39.563  25.417  28.380  1.00  0.00     0.135 A 
ATOM     66  C   UNL A   1      40.983  27.212  27.690  1.00  0.00     0.135 A 
ATOM     67  F   UNL A   1      38.525  24.911  29.065  1.00  0.00    -0.206 F 
ATOM     68  C   UNL A   1      40.369  24.514  27.686  1.00  0.00     0.059 A 
ATOM     69  C   UNL A   1      41.763  26.339  26.944  1.00  0.00     0.059 A 
ATOM     70  F   UNL A   1      41.444  28.467  27.731  1.00  0.00    -0.206 F 
ATOM     71  C   UNL A   1      41.475  24.986  26.982  1.00  0.00     0.060 A 
BRANCH  71  72
ATOM     72  S   UNL A   1      42.581  23.814  26.182  1.00  0.00     0.124 S 
ATOM     73  O   UNL A   1      43.017  24.576  25.017  1.00  0.00    -0.237 OA
ATOM     74  O   UNL A   1      43.585  23.593  27.217  1.00  0.00    -0.237 OA
ATOM     75  O   UNL A   1      41.715  22.672  25.902  1.00  0.00    -0.744 OA
ENDBRANCH  71  72
ENDBRANCH  50  64
BRANCH  51  76
ATOM     76  C   UNL A   1      43.726  34.450  29.491  1.00  0.00     0.058 A 
ATOM     77  C   UNL A   1      43.779  34.518  28.083  1.00  0.00     0.135 A 
ATOM     78  C   UNL A   1      44.453  35.443  30.177  1.00  0.00     0.135 A 
ATOM     79  F   UNL A   1      43.106  33.629  27.338  1.00  0.00    -0.206 F 
ATOM     80  C   UNL A   1      44.462  35.538  27.403  1.00  0.00     0.059 A 
ATOM     81  C   UNL A   1      45.151  36.460  29.522  1.00  0.00     0.059 A 
ATOM     82  F   UNL A   1      44.434  35.518  31.515  1.00  0.00    -0.206 F 
ATOM     83  C   UNL A   1      45.127  36.521  28.135  1.00  0.00     0.060 A 
BRANCH  83  84
ATOM     84  S   UNL A   1      45.848  37.944  27.280  1.00  0.00     0.124 S 
ATOM     85  O   UNL A   1      46.451  38.688  28.381  1.00  0.00    -0.237 OA
ATOM     86  O   UNL A   1      46.781  37.306  26.357  1.00  0.00    -0.237 OA
ATOM     87  O   UNL A   1      44.696  38.583  26.652  1.00  0.00    -0.744 OA
ENDBRANCH  83  84
ENDBRANCH  51  76
BRANCH  63  88
ATOM     88  C   UNL A   1      41.476  30.527  33.932  1.00  0.00     0.058 A 
ATOM     89  C   UNL A   1      42.380  30.349  34.995  1.00  0.00     0.135 A 
ATOM     90  C   UNL A   1      40.502  31.526  34.079  1.00  0.00     0.135 A 
ATOM     91  F   UNL A   1      43.401  29.487  34.894  1.00  0.00    -0.206 F 
ATOM     92  C   UNL A   1      42.302  31.113  36.161  1.00  0.00     0.059 A 
ATOM     93  C   UNL A   1      40.426  32.321  35.219  1.00  0.00     0.059 A 
ATOM     94  F   UNL A   1      39.649  31.785  33.075  1.00  0.00    -0.206 F 
ATOM     95  C   UNL A   1      41.326  32.104  36.259  1.00  0.00     0.060 A 
BRANCH  95  96
ATOM     96  S   UNL A   1      41.293  33.163  37.723  1.00  0.00     0.124 S 
ATOM     97  O   UNL A   1      40.300  34.166  37.354  1.00  0.00    -0.237 OA
ATOM     98  O   UNL A   1      40.896  32.233  38.776  1.00  0.00    -0.237 OA
ATOM     99  O   UNL A   1      42.666  33.652  37.821  1.00  0.00    -0.744 OA
ENDBRANCH  95  96
ENDBRANCH  63  88
ENDBRANCH  37  38
ENDBRANCH  30  32
ENDBRANCH  29  30
ENDBRANCH  28  29
ENDBRANCH  27  28
ENDBRANCH   1  27
TORSDOF 20
ENDMDL
