MODEL 1
REMARK VINA RESULT:     -10.3      0.000      0.000
REMARK SMILES O=C(OCCOCCOC(=O)c1cc(SCC(=O)N2CCOCC2)ccn1)c1ccc(-c2c3nc(c(-c4c(F)cc(S(=O)(=O)[O-])cc4F)c4ccc([nH]4)c(-c4c(F)cc(S(=O)(=O)[O-])cc4F)c4nc(c(-c5c(F)cc(S(=O)(=O)[O-])cc5F)c5ccc2[nH]5)C=C4)C=C3)cc1
REMARK SMILES IDX 6 1 5 2 4 3 3 4 2 5 1 6 28 7 29 8 93 9 30 10 92 11 31 12
REMARK SMILES IDX 32 13 33 14 86 15 34 16 91 17 85 18 87 19 35 20 90 21 84 22
REMARK SMILES IDX 83 23 36 25 70 26 49 27 69 28 50 29 53 30 68 31 88 32 51 33
REMARK SMILES IDX 52 34 67 36 89 37 54 38 37 39 38 40 47 41 39 42 40 43 46 44
REMARK SMILES IDX 48 45 41 46 42 47 43 48 44 49 45 50 71 51 72 52 81 53 73 54
REMARK SMILES IDX 74 55 80 56 82 57 75 58 76 59 77 60 78 61 79 62 55 63 56 64
REMARK SMILES IDX 65 65 57 66 58 67 64 68 66 69 59 70 60 71 61 72 62 73 63 74
REMARK SMILES IDX 7 75 8 76 9 77 10 78 11 79 12 80 13 81 27 82 14 83 26 84
REMARK SMILES IDX 25 85 15 86 16 87 17 88 18 89 19 90 20 91 24 92 21 93 23 94
REMARK SMILES IDX 22 95
REMARK H PARENT 87 24 53 35
REMARK Flexibility Score: inf
ROOT
ATOM      1  O   UNL A   1      43.626  21.360  26.403  1.00  0.00    -0.374 OA
ENDROOT
BRANCH   1   2
ATOM      2  C   UNL A   1      44.049  22.446  25.585  1.00  0.00     0.202 C 
BRANCH   2   3
ATOM      3  C   UNL A   1      42.906  23.365  25.151  1.00  0.00     0.261 C 
BRANCH   3   4
ATOM      4  O   UNL A   1      42.569  24.275  26.211  1.00  0.00    -0.460 OA
BRANCH   4   5
ATOM      5  C   UNL A   1      42.097  25.538  26.112  1.00  0.00     0.338 C 
ATOM      6  O   UNL A   1      41.965  26.019  24.986  1.00  0.00    -0.246 OA
BRANCH   5   7
ATOM      7  C   UNL A   1      41.724  26.394  27.283  1.00  0.00     0.060 A 
ATOM      8  C   UNL A   1      40.792  26.055  28.266  1.00  0.00     0.016 A 
ATOM      9  C   UNL A   1      42.458  27.580  27.460  1.00  0.00     0.016 A 
ATOM     10  C   UNL A   1      40.580  26.852  29.381  1.00  0.00     0.010 A 
ATOM     11  C   UNL A   1      42.269  28.381  28.591  1.00  0.00     0.010 A 
ATOM     12  C   UNL A   1      41.331  28.007  29.557  1.00  0.00    -0.014 A 
BRANCH  12  13
ATOM     13  C   UNL A   1      41.068  28.823  30.751  1.00  0.00     0.031 A 
ATOM     14  C   UNL A   1      39.929  29.788  30.715  1.00  0.00     0.074 A 
ATOM     15  C   UNL A   1      41.795  28.607  31.863  1.00  0.00     0.049 A 
ATOM     16  N   UNL A   1      39.561  30.659  31.610  1.00  0.00    -0.248 NA
ATOM     17  C   UNL A   1      39.079  29.761  29.510  1.00  0.00     0.031 C 
ATOM     18  C   UNL A   1      42.844  27.592  32.000  1.00  0.00     0.029 A 
ATOM     19  N   UNL A   1      41.759  29.214  33.090  1.00  0.00    -0.354 N 
ATOM     20  C   UNL A   1      38.465  31.313  31.066  1.00  0.00     0.074 A 
ATOM     21  C   UNL A   1      38.211  30.728  29.769  1.00  0.00     0.031 C 
ATOM     22  C   UNL A   1      43.358  27.653  33.239  1.00  0.00     0.029 A 
ATOM     23  C   UNL A   1      42.725  28.753  33.956  1.00  0.00     0.049 A 
ATOM     24  H   UNL A   1      41.108  29.911  33.329  1.00  0.00     0.167 HD
ATOM     25  C   UNL A   1      37.757  32.328  31.609  1.00  0.00     0.037 A 
ATOM     26  C   UNL A   1      43.084  29.217  35.167  1.00  0.00     0.037 A 
ATOM     27  C   UNL A   1      38.042  32.871  32.909  1.00  0.00     0.049 A 
ATOM     28  C   UNL A   1      42.333  30.404  35.709  1.00  0.00     0.074 A 
ATOM     29  C   UNL A   1      37.408  33.904  33.569  1.00  0.00     0.029 A 
ATOM     30  N   UNL A   1      39.060  32.420  33.741  1.00  0.00    -0.354 N 
ATOM     31  N   UNL A   1      41.307  31.036  35.185  1.00  0.00    -0.248 NA
ATOM     32  C   UNL A   1      42.794  30.963  36.985  1.00  0.00     0.031 C 
ATOM     33  C   UNL A   1      38.079  34.116  34.778  1.00  0.00     0.029 A 
ATOM     34  C   UNL A   1      39.099  33.182  34.894  1.00  0.00     0.049 A 
ATOM     35  H   UNL A   1      39.663  31.669  33.540  1.00  0.00     0.167 HD
ATOM     36  C   UNL A   1      40.998  32.063  36.066  1.00  0.00     0.074 A 
ATOM     37  C   UNL A   1      41.929  31.950  37.173  1.00  0.00     0.031 C 
ATOM     38  C   UNL A   1      40.043  33.021  35.972  1.00  0.00     0.037 A 
BRANCH  25  39
ATOM     39  C   UNL A   1      36.682  32.957  30.773  1.00  0.00     0.058 A 
ATOM     40  C   UNL A   1      36.961  33.896  29.770  1.00  0.00     0.135 A 
ATOM     41  C   UNL A   1      35.341  32.592  30.976  1.00  0.00     0.135 A 
ATOM     42  F   UNL A   1      38.221  34.306  29.557  1.00  0.00    -0.206 F 
ATOM     43  C   UNL A   1      35.946  34.458  28.999  1.00  0.00     0.059 A 
ATOM     44  C   UNL A   1      34.312  33.125  30.205  1.00  0.00     0.059 A 
ATOM     45  F   UNL A   1      35.018  31.713  31.938  1.00  0.00    -0.206 F 
ATOM     46  C   UNL A   1      34.625  34.062  29.222  1.00  0.00     0.060 A 
BRANCH  46  47
ATOM     47  S   UNL A   1      33.322  34.780  28.199  1.00  0.00     0.124 S 
ATOM     48  O   UNL A   1      32.627  35.627  29.164  1.00  0.00    -0.237 OA
ATOM     49  O   UNL A   1      34.084  35.484  27.174  1.00  0.00    -0.237 OA
ATOM     50  O   UNL A   1      32.573  33.617  27.734  1.00  0.00    -0.744 OA
ENDBRANCH  46  47
ENDBRANCH  25  39
BRANCH  26  51
ATOM     51  C   UNL A   1      44.251  28.635  35.890  1.00  0.00     0.058 A 
ATOM     52  C   UNL A   1      45.558  29.095  35.672  1.00  0.00     0.135 A 
ATOM     53  C   UNL A   1      44.081  27.576  36.800  1.00  0.00     0.135 A 
ATOM     54  F   UNL A   1      45.781  30.098  34.808  1.00  0.00    -0.206 F 
ATOM     55  C   UNL A   1      46.654  28.511  36.304  1.00  0.00     0.059 A 
ATOM     56  C   UNL A   1      45.157  26.998  37.468  1.00  0.00     0.059 A 
ATOM     57  F   UNL A   1      42.855  27.097  37.057  1.00  0.00    -0.206 F 
ATOM     58  C   UNL A   1      46.443  27.459  37.197  1.00  0.00     0.060 A 
BRANCH  58  59
ATOM     59  S   UNL A   1      47.868  26.701  38.009  1.00  0.00     0.124 S 
ATOM     60  O   UNL A   1      48.072  25.511  37.191  1.00  0.00    -0.237 OA
ATOM     61  O   UNL A   1      48.884  27.742  37.885  1.00  0.00    -0.237 OA
ATOM     62  O   UNL A   1      47.392  26.459  39.368  1.00  0.00    -0.744 OA
ENDBRANCH  58  59
ENDBRANCH  26  51
BRANCH  38  63
ATOM     63  C   UNL A   1      39.956  34.011  37.096  1.00  0.00     0.058 A 
ATOM     64  C   UNL A   1      40.609  35.250  37.024  1.00  0.00     0.135 A 
ATOM     65  C   UNL A   1      39.133  33.757  38.203  1.00  0.00     0.135 A 
ATOM     66  F   UNL A   1      41.416  35.532  35.988  1.00  0.00    -0.206 F 
ATOM     67  C   UNL A   1      40.447  36.209  38.016  1.00  0.00     0.059 A 
ATOM     68  C   UNL A   1      38.934  34.711  39.192  1.00  0.00     0.059 A 
ATOM     69  F   UNL A   1      38.481  32.586  38.307  1.00  0.00    -0.206 F 
ATOM     70  C   UNL A   1      39.598  35.933  39.090  1.00  0.00     0.060 A 
BRANCH  70  71
ATOM     71  S   UNL A   1      39.331  37.218  40.328  1.00  0.00     0.124 S 
ATOM     72  O   UNL A   1      38.611  36.484  41.363  1.00  0.00    -0.237 OA
ATOM     73  O   UNL A   1      40.695  37.616  40.664  1.00  0.00    -0.237 OA
ATOM     74  O   UNL A   1      38.551  38.223  39.612  1.00  0.00    -0.744 OA
ENDBRANCH  70  71
ENDBRANCH  38  63
ENDBRANCH  12  13
ENDBRANCH   5   7
ENDBRANCH   4   5
ENDBRANCH   3   4
ENDBRANCH   2   3
ENDBRANCH   1   2
BRANCH   1  75
ATOM     75  C   UNL A   1      43.151  20.190  25.734  1.00  0.00     0.202 C 
BRANCH  75  76
ATOM     76  C   UNL A   1      41.988  19.611  26.546  1.00  0.00     0.261 C 
BRANCH  76  77
ATOM     77  O   UNL A   1      40.940  20.592  26.591  1.00  0.00    -0.459 OA
BRANCH  77  78
ATOM     78  C   UNL A   1      39.818  20.274  25.881  1.00  0.00     0.357 C 
ATOM     79  O   UNL A   1      39.529  19.201  25.400  1.00  0.00    -0.244 OA
BRANCH  78  80
ATOM     80  C   UNL A   1      38.926  21.465  25.965  1.00  0.00     0.149 A 
ATOM     81  C   UNL A   1      37.595  21.347  25.590  1.00  0.00     0.051 A 
ATOM     82  N   UNL A   1      39.510  22.643  26.311  1.00  0.00    -0.249 NA
ATOM     83  C   UNL A   1      36.826  22.499  25.526  1.00  0.00     0.012 A 
ATOM     84  C   UNL A   1      38.738  23.742  26.256  1.00  0.00     0.113 A 
ATOM     85  C   UNL A   1      37.410  23.721  25.868  1.00  0.00     0.035 A 
BRANCH  83  86
ATOM     86  S   UNL A   1      35.109  22.503  25.061  1.00  0.00    -0.116 SA
BRANCH  86  87
ATOM     87  C   UNL A   1      34.673  20.748  24.984  1.00  0.00     0.175 C 
BRANCH  87  88
ATOM     88  C   UNL A   1      33.261  20.351  24.565  1.00  0.00     0.233 C 
ATOM     89  O   UNL A   1      32.518  21.229  24.109  1.00  0.00    -0.274 OA
ATOM     90  N   UNL A   1      32.915  19.020  24.448  1.00  0.00    -0.337 N 
ATOM     91  C   UNL A   1      33.417  17.888  25.221  1.00  0.00     0.148 C 
ATOM     92  C   UNL A   1      32.161  18.587  23.270  1.00  0.00     0.148 C 
ATOM     93  C   UNL A   1      34.334  17.047  24.339  1.00  0.00     0.181 C 
ATOM     94  C   UNL A   1      33.077  17.688  22.416  1.00  0.00     0.181 C 
ATOM     95  O   UNL A   1      33.620  16.589  23.176  1.00  0.00    -0.378 OA
ENDBRANCH  87  88
ENDBRANCH  86  87
ENDBRANCH  83  86
ENDBRANCH  78  80
ENDBRANCH  77  78
ENDBRANCH  76  77
ENDBRANCH  75  76
ENDBRANCH   1  75
TORSDOF 20
ENDMDL
MODEL 2
REMARK VINA RESULT:     -10.0      6.460     12.332
REMARK SMILES O=C(OCCOCCOC(=O)c1cc(SCC(=O)N2CCOCC2)ccn1)c1ccc(-c2c3nc(c(-c4c(F)cc(S(=O)(=O)[O-])cc4F)c4ccc([nH]4)c(-c4c(F)cc(S(=O)(=O)[O-])cc4F)c4nc(c(-c5c(F)cc(S(=O)(=O)[O-])cc5F)c5ccc2[nH]5)C=C4)C=C3)cc1
REMARK SMILES IDX 6 1 5 2 4 3 3 4 2 5 1 6 28 7 29 8 93 9 30 10 92 11 31 12
REMARK SMILES IDX 32 13 33 14 86 15 34 16 91 17 85 18 87 19 35 20 90 21 84 22
REMARK SMILES IDX 83 23 36 25 70 26 49 27 69 28 50 29 53 30 68 31 88 32 51 33
REMARK SMILES IDX 52 34 67 36 89 37 54 38 37 39 38 40 47 41 39 42 40 43 46 44
REMARK SMILES IDX 48 45 41 46 42 47 43 48 44 49 45 50 71 51 72 52 81 53 73 54
REMARK SMILES IDX 74 55 80 56 82 57 75 58 76 59 77 60 78 61 79 62 55 63 56 64
REMARK SMILES IDX 65 65 57 66 58 67 64 68 66 69 59 70 60 71 61 72 62 73 63 74
REMARK SMILES IDX 7 75 8 76 9 77 10 78 11 79 12 80 13 81 27 82 14 83 26 84
REMARK SMILES IDX 25 85 15 86 16 87 17 88 18 89 19 90 20 91 24 92 21 93 23 94
REMARK SMILES IDX 22 95
REMARK H PARENT 87 24 53 35
REMARK Flexibility Score: inf
ROOT
ATOM      1  O   UNL A   1      35.007  31.633  27.495  1.00  0.00    -0.374 OA
ENDROOT
BRANCH   1   2
ATOM      2  C   UNL A   1      35.508  32.524  28.486  1.00  0.00     0.202 C 
BRANCH   2   3
ATOM      3  C   UNL A   1      35.169  32.100  29.916  1.00  0.00     0.261 C 
BRANCH   3   4
ATOM      4  O   UNL A   1      36.359  31.688  30.608  1.00  0.00    -0.460 OA
BRANCH   4   5
ATOM      5  C   UNL A   1      36.870  30.441  30.725  1.00  0.00     0.338 C 
ATOM      6  O   UNL A   1      36.217  29.605  31.349  1.00  0.00    -0.246 OA
BRANCH   5   7
ATOM      7  C   UNL A   1      38.182  30.010  30.146  1.00  0.00     0.060 A 
ATOM      8  C   UNL A   1      38.491  29.972  28.785  1.00  0.00     0.016 A 
ATOM      9  C   UNL A   1      39.217  29.734  31.058  1.00  0.00     0.016 A 
ATOM     10  C   UNL A   1      39.764  29.666  28.330  1.00  0.00     0.010 A 
ATOM     11  C   UNL A   1      40.511  29.445  30.612  1.00  0.00     0.010 A 
ATOM     12  C   UNL A   1      40.783  29.421  29.242  1.00  0.00    -0.014 A 
BRANCH  12  13
ATOM     13  C   UNL A   1      42.115  29.095  28.713  1.00  0.00     0.031 A 
ATOM     14  C   UNL A   1      42.359  27.713  28.204  1.00  0.00     0.074 A 
ATOM     15  C   UNL A   1      43.036  30.072  28.616  1.00  0.00     0.049 A 
ATOM     16  N   UNL A   1      43.466  27.181  27.771  1.00  0.00    -0.248 NA
ATOM     17  C   UNL A   1      41.196  26.808  28.167  1.00  0.00     0.031 C 
ATOM     18  C   UNL A   1      42.818  31.475  28.985  1.00  0.00     0.029 A 
ATOM     19  N   UNL A   1      44.330  30.045  28.170  1.00  0.00    -0.354 N 
ATOM     20  C   UNL A   1      43.146  25.870  27.447  1.00  0.00     0.074 A 
ATOM     21  C   UNL A   1      41.738  25.687  27.713  1.00  0.00     0.031 C 
ATOM     22  C   UNL A   1      43.944  32.171  28.758  1.00  0.00     0.029 A 
ATOM     23  C   UNL A   1      44.978  31.253  28.296  1.00  0.00     0.049 A 
ATOM     24  H   UNL A   1      44.755  29.240  27.796  1.00  0.00     0.167 HD
ATOM     25  C   UNL A   1      43.977  24.908  26.987  1.00  0.00     0.037 A 
ATOM     26  C   UNL A   1      46.276  31.554  28.111  1.00  0.00     0.037 A 
ATOM     27  C   UNL A   1      45.372  25.140  26.726  1.00  0.00     0.049 A 
ATOM     28  C   UNL A   1      47.195  30.441  27.681  1.00  0.00     0.074 A 
ATOM     29  C   UNL A   1      46.323  24.250  26.269  1.00  0.00     0.029 A 
ATOM     30  N   UNL A   1      46.013  26.359  26.914  1.00  0.00    -0.354 N 
ATOM     31  N   UNL A   1      46.896  29.194  27.392  1.00  0.00    -0.248 NA
ATOM     32  C   UNL A   1      48.625  30.756  27.575  1.00  0.00     0.031 C 
ATOM     33  C   UNL A   1      47.552  24.916  26.234  1.00  0.00     0.029 A 
ATOM     34  C   UNL A   1      47.357  26.236  26.621  1.00  0.00     0.049 A 
ATOM     35  H   UNL A   1      45.574  27.189  27.211  1.00  0.00     0.167 HD
ATOM     36  C   UNL A   1      48.097  28.578  27.068  1.00  0.00     0.074 A 
ATOM     37  C   UNL A   1      49.124  29.596  27.169  1.00  0.00     0.031 C 
ATOM     38  C   UNL A   1      48.338  27.287  26.729  1.00  0.00     0.037 A 
BRANCH  25  39
ATOM     39  C   UNL A   1      43.423  23.524  26.821  1.00  0.00     0.058 A 
ATOM     40  C   UNL A   1      43.055  23.005  25.572  1.00  0.00     0.135 A 
ATOM     41  C   UNL A   1      43.274  22.696  27.946  1.00  0.00     0.135 A 
ATOM     42  F   UNL A   1      43.145  23.765  24.469  1.00  0.00    -0.206 F 
ATOM     43  C   UNL A   1      42.553  21.712  25.443  1.00  0.00     0.059 A 
ATOM     44  C   UNL A   1      42.794  21.395  27.839  1.00  0.00     0.059 A 
ATOM     45  F   UNL A   1      43.592  23.152  29.168  1.00  0.00    -0.206 F 
ATOM     46  C   UNL A   1      42.431  20.914  26.583  1.00  0.00     0.060 A 
BRANCH  46  47
ATOM     47  S   UNL A   1      41.802  19.231  26.398  1.00  0.00     0.124 S 
ATOM     48  O   UNL A   1      41.897  18.731  27.766  1.00  0.00    -0.237 OA
ATOM     49  O   UNL A   1      40.449  19.458  25.901  1.00  0.00    -0.237 OA
ATOM     50  O   UNL A   1      42.724  18.624  25.444  1.00  0.00    -0.744 OA
ENDBRANCH  46  47
ENDBRANCH  25  39
BRANCH  26  51
ATOM     51  C   UNL A   1      46.794  32.917  28.423  1.00  0.00     0.058 A 
ATOM     52  C   UNL A   1      46.886  33.914  27.441  1.00  0.00     0.135 A 
ATOM     53  C   UNL A   1      47.239  33.241  29.717  1.00  0.00     0.135 A 
ATOM     54  F   UNL A   1      46.484  33.659  26.186  1.00  0.00    -0.206 F 
ATOM     55  C   UNL A   1      47.424  35.168  27.720  1.00  0.00     0.059 A 
ATOM     56  C   UNL A   1      47.751  34.498  30.028  1.00  0.00     0.059 A 
ATOM     57  F   UNL A   1      47.170  32.332  30.702  1.00  0.00    -0.206 F 
ATOM     58  C   UNL A   1      47.860  35.449  29.016  1.00  0.00     0.060 A 
BRANCH  58  59
ATOM     59  S   UNL A   1      48.563  37.074  29.371  1.00  0.00     0.124 S 
ATOM     60  O   UNL A   1      47.361  37.878  29.557  1.00  0.00    -0.237 OA
ATOM     61  O   UNL A   1      49.350  36.816  30.572  1.00  0.00    -0.237 OA
ATOM     62  O   UNL A   1      49.342  37.373  28.172  1.00  0.00    -0.744 OA
ENDBRANCH  58  59
ENDBRANCH  26  51
BRANCH  38  63
ATOM     63  C   UNL A   1      49.762  26.913  26.436  1.00  0.00     0.058 A 
ATOM     64  C   UNL A   1      50.585  26.361  27.428  1.00  0.00     0.135 A 
ATOM     65  C   UNL A   1      50.268  27.015  25.132  1.00  0.00     0.135 A 
ATOM     66  F   UNL A   1      50.146  26.255  28.692  1.00  0.00    -0.206 F 
ATOM     67  C   UNL A   1      51.869  25.918  27.134  1.00  0.00     0.059 A 
ATOM     68  C   UNL A   1      51.538  26.554  24.810  1.00  0.00     0.059 A 
ATOM     69  F   UNL A   1      49.509  27.529  24.149  1.00  0.00    -0.206 F 
ATOM     70  C   UNL A   1      52.331  26.009  25.819  1.00  0.00     0.060 A 
BRANCH  70  71
ATOM     71  S   UNL A   1      53.968  25.355  25.435  1.00  0.00     0.124 S 
ATOM     72  O   UNL A   1      54.501  25.096  26.769  1.00  0.00    -0.237 OA
ATOM     73  O   UNL A   1      53.653  24.175  24.636  1.00  0.00    -0.237 OA
ATOM     74  O   UNL A   1      54.607  26.446  24.705  1.00  0.00    -0.744 OA
ENDBRANCH  70  71
ENDBRANCH  38  63
ENDBRANCH  12  13
ENDBRANCH   5   7
ENDBRANCH   4   5
ENDBRANCH   3   4
ENDBRANCH   2   3
ENDBRANCH   1   2
BRANCH   1  75
ATOM     75  C   UNL A   1      34.376  30.437  27.956  1.00  0.00     0.202 C 
BRANCH  75  76
ATOM     76  C   UNL A   1      33.856  29.667  26.737  1.00  0.00     0.261 C 
BRANCH  76  77
ATOM     77  O   UNL A   1      32.424  29.761  26.725  1.00  0.00    -0.459 OA
BRANCH  77  78
ATOM     78  C   UNL A   1      31.764  28.580  26.913  1.00  0.00     0.357 C 
ATOM     79  O   UNL A   1      31.415  28.090  27.963  1.00  0.00    -0.244 OA
BRANCH  78  80
ATOM     80  C   UNL A   1      31.396  28.093  25.553  1.00  0.00     0.149 A 
ATOM     81  C   UNL A   1      31.486  26.739  25.267  1.00  0.00     0.051 A 
ATOM     82  N   UNL A   1      31.089  29.040  24.627  1.00  0.00    -0.249 NA
ATOM     83  C   UNL A   1      31.292  26.329  23.957  1.00  0.00     0.012 A 
ATOM     84  C   UNL A   1      30.890  28.615  23.367  1.00  0.00     0.113 A 
ATOM     85  C   UNL A   1      30.985  27.288  22.989  1.00  0.00     0.035 A 
BRANCH  83  86
ATOM     86  S   UNL A   1      31.377  24.629  23.441  1.00  0.00    -0.116 SA
BRANCH  86  87
ATOM     87  C   UNL A   1      32.903  24.018  24.199  1.00  0.00     0.175 C 
BRANCH  87  88
ATOM     88  C   UNL A   1      34.060  23.593  23.301  1.00  0.00     0.233 C 
ATOM     89  O   UNL A   1      34.294  24.266  22.290  1.00  0.00    -0.274 OA
ATOM     90  N   UNL A   1      34.974  22.654  23.737  1.00  0.00    -0.337 N 
ATOM     91  C   UNL A   1      34.746  21.522  24.629  1.00  0.00     0.148 C 
ATOM     92  C   UNL A   1      36.401  22.907  23.527  1.00  0.00     0.148 C 
ATOM     93  C   UNL A   1      35.390  21.813  25.981  1.00  0.00     0.181 C 
ATOM     94  C   UNL A   1      37.055  23.140  24.904  1.00  0.00     0.181 C 
ATOM     95  O   UNL A   1      36.801  22.051  25.816  1.00  0.00    -0.378 OA
ENDBRANCH  87  88
ENDBRANCH  86  87
ENDBRANCH  83  86
ENDBRANCH  78  80
ENDBRANCH  77  78
ENDBRANCH  76  77
ENDBRANCH  75  76
ENDBRANCH   1  75
TORSDOF 20
ENDMDL
MODEL 3
REMARK VINA RESULT:      -9.9      2.980      9.190
REMARK SMILES O=C(OCCOCCOC(=O)c1cc(SCC(=O)N2CCOCC2)ccn1)c1ccc(-c2c3nc(c(-c4c(F)cc(S(=O)(=O)[O-])cc4F)c4ccc([nH]4)c(-c4c(F)cc(S(=O)(=O)[O-])cc4F)c4nc(c(-c5c(F)cc(S(=O)(=O)[O-])cc5F)c5ccc2[nH]5)C=C4)C=C3)cc1
REMARK SMILES IDX 6 1 5 2 4 3 3 4 2 5 1 6 28 7 29 8 93 9 30 10 92 11 31 12
REMARK SMILES IDX 32 13 33 14 86 15 34 16 91 17 85 18 87 19 35 20 90 21 84 22
REMARK SMILES IDX 83 23 36 25 70 26 49 27 69 28 50 29 53 30 68 31 88 32 51 33
REMARK SMILES IDX 52 34 67 36 89 37 54 38 37 39 38 40 47 41 39 42 40 43 46 44
REMARK SMILES IDX 48 45 41 46 42 47 43 48 44 49 45 50 71 51 72 52 81 53 73 54
REMARK SMILES IDX 74 55 80 56 82 57 75 58 76 59 77 60 78 61 79 62 55 63 56 64
REMARK SMILES IDX 65 65 57 66 58 67 64 68 66 69 59 70 60 71 61 72 62 73 63 74
REMARK SMILES IDX 7 75 8 76 9 77 10 78 11 79 12 80 13 81 27 82 14 83 26 84
REMARK SMILES IDX 25 85 15 86 16 87 17 88 18 89 19 90 20 91 24 92 21 93 23 94
REMARK SMILES IDX 22 95
REMARK H PARENT 87 24 53 35
REMARK Flexibility Score: inf
ROOT
ATOM      1  O   UNL A   1      34.722  25.120  24.158  1.00  0.00    -0.374 OA
ENDROOT
BRANCH   1   2
ATOM      2  C   UNL A   1      35.480  23.916  24.102  1.00  0.00     0.202 C 
BRANCH   2   3
ATOM      3  C   UNL A   1      36.320  23.664  25.355  1.00  0.00     0.261 C 
BRANCH   3   4
ATOM      4  O   UNL A   1      37.672  23.342  24.991  1.00  0.00    -0.460 OA
BRANCH   4   5
ATOM      5  C   UNL A   1      38.753  23.233  25.797  1.00  0.00     0.338 C 
ATOM      6  O   UNL A   1      39.334  22.148  25.842  1.00  0.00    -0.246 OA
BRANCH   5   7
ATOM      7  C   UNL A   1      39.289  24.347  26.642  1.00  0.00     0.060 A 
ATOM      8  C   UNL A   1      40.095  25.391  26.185  1.00  0.00     0.016 A 
ATOM      9  C   UNL A   1      38.847  24.399  27.976  1.00  0.00     0.016 A 
ATOM     10  C   UNL A   1      40.463  26.447  27.006  1.00  0.00     0.010 A 
ATOM     11  C   UNL A   1      39.192  25.469  28.808  1.00  0.00     0.010 A 
ATOM     12  C   UNL A   1      39.997  26.500  28.314  1.00  0.00    -0.014 A 
BRANCH  12  13
ATOM     13  C   UNL A   1      40.417  27.635  29.148  1.00  0.00     0.031 A 
ATOM     14  C   UNL A   1      41.743  27.562  29.831  1.00  0.00     0.074 A 
ATOM     15  C   UNL A   1      39.644  28.736  29.191  1.00  0.00     0.049 A 
ATOM     16  N   UNL A   1      42.281  28.398  30.672  1.00  0.00    -0.248 NA
ATOM     17  C   UNL A   1      42.583  26.392  29.518  1.00  0.00     0.031 C 
ATOM     18  C   UNL A   1      38.393  28.916  28.446  1.00  0.00     0.029 A 
ATOM     19  N   UNL A   1      39.795  29.912  29.874  1.00  0.00    -0.354 N 
ATOM     20  C   UNL A   1      43.503  27.841  31.020  1.00  0.00     0.074 A 
ATOM     21  C   UNL A   1      43.641  26.603  30.289  1.00  0.00     0.031 C 
ATOM     22  C   UNL A   1      37.887  30.129  28.721  1.00  0.00     0.029 A 
ATOM     23  C   UNL A   1      38.738  30.779  29.711  1.00  0.00     0.049 A 
ATOM     24  H   UNL A   1      40.581  30.118  30.428  1.00  0.00     0.167 HD
ATOM     25  C   UNL A   1      44.411  28.327  31.896  1.00  0.00     0.037 A 
ATOM     26  C   UNL A   1      38.472  31.938  30.341  1.00  0.00     0.037 A 
ATOM     27  C   UNL A   1      44.234  29.571  32.594  1.00  0.00     0.049 A 
ATOM     28  C   UNL A   1      39.461  32.410  31.375  1.00  0.00     0.074 A 
ATOM     29  C   UNL A   1      45.072  30.170  33.513  1.00  0.00     0.029 A 
ATOM     30  N   UNL A   1      43.129  30.402  32.450  1.00  0.00    -0.354 N 
ATOM     31  N   UNL A   1      40.609  31.873  31.719  1.00  0.00    -0.248 NA
ATOM     32  C   UNL A   1      39.115  33.623  32.125  1.00  0.00     0.031 C 
ATOM     33  C   UNL A   1      44.446  31.335  33.968  1.00  0.00     0.029 A 
ATOM     34  C   UNL A   1      43.242  31.490  33.294  1.00  0.00     0.049 A 
ATOM     35  H   UNL A   1      42.377  30.240  31.836  1.00  0.00     0.167 HD
ATOM     36  C   UNL A   1      41.125  32.682  32.722  1.00  0.00     0.074 A 
ATOM     37  C   UNL A   1      40.176  33.762  32.910  1.00  0.00     0.031 C 
ATOM     38  C   UNL A   1      42.270  32.545  33.435  1.00  0.00     0.037 A 
BRANCH  25  39
ATOM     39  C   UNL A   1      45.611  27.481  32.201  1.00  0.00     0.058 A 
ATOM     40  C   UNL A   1      46.852  27.684  31.582  1.00  0.00     0.135 A 
ATOM     41  C   UNL A   1      45.513  26.452  33.153  1.00  0.00     0.135 A 
ATOM     42  F   UNL A   1      46.993  28.631  30.641  1.00  0.00    -0.206 F 
ATOM     43  C   UNL A   1      47.956  26.892  31.891  1.00  0.00     0.059 A 
ATOM     44  C   UNL A   1      46.606  25.662  33.492  1.00  0.00     0.059 A 
ATOM     45  F   UNL A   1      44.342  26.202  33.759  1.00  0.00    -0.206 F 
ATOM     46  C   UNL A   1      47.823  25.887  32.851  1.00  0.00     0.060 A 
BRANCH  46  47
ATOM     47  S   UNL A   1      49.268  24.884  33.259  1.00  0.00     0.124 S 
ATOM     48  O   UNL A   1      50.071  25.829  34.029  1.00  0.00    -0.237 OA
ATOM     49  O   UNL A   1      48.679  23.787  34.021  1.00  0.00    -0.237 OA
ATOM     50  O   UNL A   1      49.810  24.518  31.955  1.00  0.00    -0.744 OA
ENDBRANCH  46  47
ENDBRANCH  25  39
BRANCH  26  51
ATOM     51  C   UNL A   1      37.195  32.665  30.093  1.00  0.00     0.058 A 
ATOM     52  C   UNL A   1      37.111  33.714  29.166  1.00  0.00     0.135 A 
ATOM     53  C   UNL A   1      36.029  32.340  30.809  1.00  0.00     0.135 A 
ATOM     54  F   UNL A   1      38.194  34.073  28.460  1.00  0.00    -0.206 F 
ATOM     55  C   UNL A   1      35.931  34.431  28.977  1.00  0.00     0.059 A 
ATOM     56  C   UNL A   1      34.830  33.021  30.615  1.00  0.00     0.059 A 
ATOM     57  F   UNL A   1      36.043  31.341  31.705  1.00  0.00    -0.206 F 
ATOM     58  C   UNL A   1      34.797  34.080  29.711  1.00  0.00     0.060 A 
BRANCH  58  59
ATOM     59  S   UNL A   1      33.272  35.017  29.468  1.00  0.00     0.124 S 
ATOM     60  O   UNL A   1      32.730  35.050  30.821  1.00  0.00    -0.237 OA
ATOM     61  O   UNL A   1      33.769  36.287  28.949  1.00  0.00    -0.237 OA
ATOM     62  O   UNL A   1      32.527  34.206  28.509  1.00  0.00    -0.744 OA
ENDBRANCH  58  59
ENDBRANCH  26  51
BRANCH  38  63
ATOM     63  C   UNL A   1      42.558  33.591  34.472  1.00  0.00     0.058 A 
ATOM     64  C   UNL A   1      43.119  34.827  34.119  1.00  0.00     0.135 A 
ATOM     65  C   UNL A   1      42.175  33.392  35.807  1.00  0.00     0.135 A 
ATOM     66  F   UNL A   1      43.510  35.058  32.856  1.00  0.00    -0.206 F 
ATOM     67  C   UNL A   1      43.291  35.835  35.059  1.00  0.00     0.059 A 
ATOM     68  C   UNL A   1      42.312  34.395  36.757  1.00  0.00     0.059 A 
ATOM     69  F   UNL A   1      41.625  32.226  36.186  1.00  0.00    -0.206 F 
ATOM     70  C   UNL A   1      42.873  35.613  36.374  1.00  0.00     0.060 A 
BRANCH  70  71
ATOM     71  S   UNL A   1      43.026  36.958  37.565  1.00  0.00     0.124 S 
ATOM     72  O   UNL A   1      43.855  36.345  38.596  1.00  0.00    -0.237 OA
ATOM     73  O   UNL A   1      43.666  38.005  36.773  1.00  0.00    -0.237 OA
ATOM     74  O   UNL A   1      41.644  37.230  37.950  1.00  0.00    -0.744 OA
ENDBRANCH  70  71
ENDBRANCH  38  63
ENDBRANCH  12  13
ENDBRANCH   5   7
ENDBRANCH   4   5
ENDBRANCH   3   4
ENDBRANCH   2   3
ENDBRANCH   1   2
BRANCH   1  75
ATOM     75  C   UNL A   1      33.598  25.220  23.281  1.00  0.00     0.202 C 
BRANCH  75  76
ATOM     76  C   UNL A   1      32.529  26.076  23.968  1.00  0.00     0.261 C 
BRANCH  76  77
ATOM     77  O   UNL A   1      32.968  26.355  25.305  1.00  0.00    -0.459 OA
BRANCH  77  78
ATOM     78  C   UNL A   1      31.985  26.339  26.253  1.00  0.00     0.357 C 
ATOM     79  O   UNL A   1      31.368  27.284  26.692  1.00  0.00    -0.244 OA
BRANCH  78  80
ATOM     80  C   UNL A   1      31.690  24.902  26.516  1.00  0.00     0.149 A 
ATOM     81  C   UNL A   1      32.739  24.012  26.692  1.00  0.00     0.051 A 
ATOM     82  N   UNL A   1      30.385  24.526  26.460  1.00  0.00    -0.249 NA
ATOM     83  C   UNL A   1      32.447  22.659  26.776  1.00  0.00     0.012 A 
ATOM     84  C   UNL A   1      30.127  23.210  26.561  1.00  0.00     0.113 A 
ATOM     85  C   UNL A   1      31.113  22.252  26.711  1.00  0.00     0.035 A 
BRANCH  83  86
ATOM     86  S   UNL A   1      33.686  21.403  27.000  1.00  0.00    -0.116 SA
BRANCH  86  87
ATOM     87  C   UNL A   1      34.030  20.823  25.320  1.00  0.00     0.175 C 
BRANCH  87  88
ATOM     88  C   UNL A   1      32.877  20.317  24.459  1.00  0.00     0.233 C 
ATOM     89  O   UNL A   1      32.424  21.068  23.588  1.00  0.00    -0.274 OA
ATOM     90  N   UNL A   1      32.530  18.980  24.472  1.00  0.00    -0.337 N 
ATOM     91  C   UNL A   1      32.623  18.037  25.582  1.00  0.00     0.148 C 
ATOM     92  C   UNL A   1      32.277  18.304  23.198  1.00  0.00     0.148 C 
ATOM     93  C   UNL A   1      33.764  17.061  25.316  1.00  0.00     0.181 C 
ATOM     94  C   UNL A   1      33.402  17.277  22.967  1.00  0.00     0.181 C 
ATOM     95  O   UNL A   1      33.540  16.364  24.076  1.00  0.00    -0.378 OA
ENDBRANCH  87  88
ENDBRANCH  86  87
ENDBRANCH  83  86
ENDBRANCH  78  80
ENDBRANCH  77  78
ENDBRANCH  76  77
ENDBRANCH  75  76
ENDBRANCH   1  75
TORSDOF 20
ENDMDL
