MODEL 1
REMARK VINA RESULT:     -11.1      0.000      0.000
REMARK SMILES Cc1c(C)c2c(c(C)c1O)CC[C@@](C)(C(=O)OCCOCCOC(=O)c1ccc(-c3c4nc(c(-c5c(F)cc(S(=O)(=O)[O-])cc5F)c5ccc([nH]5)c(-c5c(F)cc(S(=O)(=O)[O-])cc5F)c5nc(c(-c6c(F)cc(S(=O)(=O)[O-])cc6F)c6ccc3[nH]6)C=C5)C=C4)cc1)O2
REMARK SMILES IDX 21 1 20 2 19 3 18 4 17 5 15 6 16 7 13 8 1 9 2 10 3 11 9 12
REMARK SMILES IDX 4 13 5 14 7 15 6 16 92 17 8 18 11 19 12 20 14 21 10 22 22 24
REMARK SMILES IDX 23 25 24 26 25 27 26 28 27 29 91 30 28 31 90 32 29 33 30 34
REMARK SMILES IDX 31 35 84 36 32 37 89 38 83 39 85 40 33 41 88 42 82 43 81 44
REMARK SMILES IDX 34 46 68 47 47 48 67 49 48 50 51 51 66 52 86 53 49 54 50 55
REMARK SMILES IDX 65 57 87 58 52 59 35 60 36 61 45 62 37 63 38 64 44 65 46 66
REMARK SMILES IDX 39 67 40 68 41 69 42 70 43 71 69 72 70 73 79 74 71 75 72 76
REMARK SMILES IDX 78 77 80 78 73 79 74 80 75 81 76 82 77 83 53 84 54 85 63 86
REMARK SMILES IDX 55 87 56 88 62 89 64 90 57 91 58 92 59 93 60 94 61 95
REMARK H PARENT 10 23 85 45 51 56
REMARK Flexibility Score: inf
ROOT
ATOM      1  C   UNL A   1      38.801  22.052  25.853  1.00  0.00     0.202 C 
ENDROOT
BRANCH   1   2
ATOM      2  O   UNL A   1      37.468  22.287  26.303  1.00  0.00    -0.374 OA
BRANCH   2   3
ATOM      3  C   UNL A   1      36.466  22.511  25.312  1.00  0.00     0.202 C 
BRANCH   3   4
ATOM      4  C   UNL A   1      35.717  23.846  25.359  1.00  0.00     0.261 C 
BRANCH   4   5
ATOM      5  O   UNL A   1      34.368  23.740  24.871  1.00  0.00    -0.460 OA
BRANCH   5   6
ATOM      6  C   UNL A   1      34.188  24.163  23.587  1.00  0.00     0.350 C 
ATOM      7  O   UNL A   1      34.920  23.844  22.654  1.00  0.00    -0.247 OA
BRANCH   6   8
ATOM      8  C   UNL A   1      32.987  25.114  23.442  1.00  0.00     0.203 C 
ATOM      9  C   UNL A   1      32.167  30.395  26.486  1.00  0.00     0.049 C 
ATOM     10  C   UNL A   1      32.039  29.434  25.332  1.00  0.00    -0.002 A 
ATOM     11  C   UNL A   1      32.878  28.305  25.226  1.00  0.00    -0.002 A 
ATOM     12  C   UNL A   1      31.047  29.627  24.347  1.00  0.00     0.122 A 
ATOM     13  C   UNL A   1      33.996  28.061  26.212  1.00  0.00     0.049 C 
ATOM     14  C   UNL A   1      32.651  27.376  24.190  1.00  0.00     0.127 A 
ATOM     15  C   UNL A   1      30.884  28.744  23.263  1.00  0.00    -0.002 A 
ATOM     16  C   UNL A   1      31.718  27.611  23.172  1.00  0.00     0.001 A 
ATOM     17  O   UNL A   1      33.391  26.229  24.256  1.00  0.00    -0.475 OA
ATOM     18  C   UNL A   1      29.824  28.992  22.219  1.00  0.00     0.049 C 
ATOM     19  C   UNL A   1      31.597  26.640  22.021  1.00  0.00     0.044 C 
ATOM     20  C   UNL A   1      32.722  25.608  22.020  1.00  0.00     0.065 C 
ATOM     21  C   UNL A   1      31.789  24.387  24.065  1.00  0.00     0.069 C 
BRANCH  12  22
ATOM     22  O   UNL A   1      30.192  30.698  24.409  1.00  0.00    -0.507 OA
ATOM     23  H   UNL A   1      29.405  30.640  24.915  1.00  0.00     0.293 HD
ENDBRANCH  12  22
ENDBRANCH   6   8
ENDBRANCH   5   6
ENDBRANCH   4   5
ENDBRANCH   3   4
ENDBRANCH   2   3
ENDBRANCH   1   2
BRANCH   1  24
ATOM     24  C   UNL A   1      39.888  23.006  26.368  1.00  0.00     0.261 C 
BRANCH  24  25
ATOM     25  O   UNL A   1      39.416  24.360  26.492  1.00  0.00    -0.460 OA
BRANCH  25  26
ATOM     26  C   UNL A   1      40.380  25.309  26.386  1.00  0.00     0.338 C 
ATOM     27  O   UNL A   1      40.982  25.637  25.373  1.00  0.00    -0.246 OA
BRANCH  26  28
ATOM     28  C   UNL A   1      40.487  26.066  27.646  1.00  0.00     0.060 A 
ATOM     29  C   UNL A   1      39.476  25.875  28.598  1.00  0.00     0.016 A 
ATOM     30  C   UNL A   1      41.498  27.004  27.863  1.00  0.00     0.016 A 
ATOM     31  C   UNL A   1      39.449  26.657  29.750  1.00  0.00     0.010 A 
ATOM     32  C   UNL A   1      41.460  27.796  29.017  1.00  0.00     0.010 A 
ATOM     33  C   UNL A   1      40.414  27.653  29.946  1.00  0.00    -0.014 A 
BRANCH  33  34
ATOM     34  C   UNL A   1      40.210  28.634  31.040  1.00  0.00     0.031 A 
ATOM     35  C   UNL A   1      41.100  28.567  32.253  1.00  0.00     0.074 A 
ATOM     36  C   UNL A   1      39.310  29.625  30.918  1.00  0.00     0.049 A 
ATOM     37  N   UNL A   1      41.159  29.371  33.283  1.00  0.00    -0.248 NA
ATOM     38  C   UNL A   1      42.057  27.448  32.308  1.00  0.00     0.031 C 
ATOM     39  C   UNL A   1      38.418  29.818  29.774  1.00  0.00     0.029 A 
ATOM     40  N   UNL A   1      39.008  30.668  31.759  1.00  0.00    -0.354 N 
ATOM     41  C   UNL A   1      42.164  28.867  34.098  1.00  0.00     0.074 A 
ATOM     42  C   UNL A   1      42.658  27.662  33.469  1.00  0.00     0.031 C 
ATOM     43  C   UNL A   1      37.676  30.920  29.981  1.00  0.00     0.029 A 
ATOM     44  C   UNL A   1      38.026  31.501  31.277  1.00  0.00     0.049 A 
ATOM     45  H   UNL A   1      39.453  30.807  32.625  1.00  0.00     0.167 HD
ATOM     46  C   UNL A   1      42.649  29.374  35.256  1.00  0.00     0.037 A 
ATOM     47  C   UNL A   1      37.473  32.605  31.820  1.00  0.00     0.037 A 
ATOM     48  C   UNL A   1      42.157  30.574  35.880  1.00  0.00     0.049 A 
ATOM     49  C   UNL A   1      37.970  33.104  33.152  1.00  0.00     0.074 A 
ATOM     50  C   UNL A   1      42.594  31.177  37.046  1.00  0.00     0.029 A 
ATOM     51  N   UNL A   1      41.113  31.349  35.395  1.00  0.00    -0.354 N 
ATOM     52  N   UNL A   1      38.945  32.636  33.894  1.00  0.00    -0.248 NA
ATOM     53  C   UNL A   1      37.294  34.280  33.721  1.00  0.00     0.031 C 
ATOM     54  C   UNL A   1      41.783  32.288  37.292  1.00  0.00     0.029 A 
ATOM     55  C   UNL A   1      40.871  32.406  36.256  1.00  0.00     0.049 A 
ATOM     56  H   UNL A   1      40.618  31.172  34.563  1.00  0.00     0.167 HD
ATOM     57  C   UNL A   1      39.011  33.470  35.008  1.00  0.00     0.074 A 
ATOM     58  C   UNL A   1      37.985  34.477  34.836  1.00  0.00     0.031 C 
ATOM     59  C   UNL A   1      39.846  33.403  36.073  1.00  0.00     0.037 A 
BRANCH  46  60
ATOM     60  C   UNL A   1      43.768  28.631  35.930  1.00  0.00     0.058 A 
ATOM     61  C   UNL A   1      45.108  29.010  35.754  1.00  0.00     0.135 A 
ATOM     62  C   UNL A   1      43.496  27.561  36.795  1.00  0.00     0.135 A 
ATOM     63  F   UNL A   1      45.424  30.016  34.922  1.00  0.00    -0.206 F 
ATOM     64  C   UNL A   1      46.142  28.339  36.397  1.00  0.00     0.059 A 
ATOM     65  C   UNL A   1      44.513  26.891  37.469  1.00  0.00     0.059 A 
ATOM     66  F   UNL A   1      42.231  27.158  36.997  1.00  0.00    -0.206 F 
ATOM     67  C   UNL A   1      45.835  27.281  37.255  1.00  0.00     0.060 A 
BRANCH  67  68
ATOM     68  S   UNL A   1      47.189  26.430  38.090  1.00  0.00     0.124 S 
ATOM     69  O   UNL A   1      47.591  25.459  37.078  1.00  0.00    -0.237 OA
ATOM     70  O   UNL A   1      48.133  27.515  38.337  1.00  0.00    -0.237 OA
ATOM     71  O   UNL A   1      46.557  25.868  39.281  1.00  0.00    -0.744 OA
ENDBRANCH  67  68
ENDBRANCH  46  60
BRANCH  47  72
ATOM     72  C   UNL A   1      36.388  33.320  31.095  1.00  0.00     0.058 A 
ATOM     73  C   UNL A   1      35.058  33.254  31.534  1.00  0.00     0.135 A 
ATOM     74  C   UNL A   1      36.664  34.099  29.961  1.00  0.00     0.135 A 
ATOM     75  F   UNL A   1      34.742  32.512  32.607  1.00  0.00    -0.206 F 
ATOM     76  C   UNL A   1      34.038  33.933  30.875  1.00  0.00     0.059 A 
ATOM     77  C   UNL A   1      35.666  34.805  29.297  1.00  0.00     0.059 A 
ATOM     78  F   UNL A   1      37.922  34.200  29.505  1.00  0.00    -0.206 F 
ATOM     79  C   UNL A   1      34.354  34.713  29.760  1.00  0.00     0.060 A 
BRANCH  79  80
ATOM     80  S   UNL A   1      33.033  35.643  28.954  1.00  0.00     0.124 S 
ATOM     81  O   UNL A   1      32.258  36.109  30.099  1.00  0.00    -0.237 OA
ATOM     82  O   UNL A   1      33.780  36.664  28.227  1.00  0.00    -0.237 OA
ATOM     83  O   UNL A   1      32.380  34.641  28.117  1.00  0.00    -0.744 OA
ENDBRANCH  79  80
ENDBRANCH  47  72
BRANCH  59  84
ATOM     84  C   UNL A   1      39.701  34.444  37.150  1.00  0.00     0.058 A 
ATOM     85  C   UNL A   1      38.985  34.180  38.326  1.00  0.00     0.135 A 
ATOM     86  C   UNL A   1      40.384  35.668  37.056  1.00  0.00     0.135 A 
ATOM     87  F   UNL A   1      38.310  33.028  38.462  1.00  0.00    -0.206 F 
ATOM     88  C   UNL A   1      38.951  35.093  39.375  1.00  0.00     0.059 A 
ATOM     89  C   UNL A   1      40.383  36.586  38.103  1.00  0.00     0.059 A 
ATOM     90  F   UNL A   1      41.092  35.965  35.955  1.00  0.00    -0.206 F 
ATOM     91  C   UNL A   1      39.663  36.289  39.259  1.00  0.00     0.060 A 
BRANCH  91  92
ATOM     92  S   UNL A   1      39.675  37.425  40.662  1.00  0.00     0.124 S 
ATOM     93  O   UNL A   1      38.973  38.581  40.112  1.00  0.00    -0.237 OA
ATOM     94  O   UNL A   1      38.950  36.670  41.679  1.00  0.00    -0.237 OA
ATOM     95  O   UNL A   1      41.096  37.623  40.930  1.00  0.00    -0.744 OA
ENDBRANCH  91  92
ENDBRANCH  59  84
ENDBRANCH  33  34
ENDBRANCH  26  28
ENDBRANCH  25  26
ENDBRANCH  24  25
ENDBRANCH   1  24
TORSDOF 18
ENDMDL
MODEL 2
REMARK VINA RESULT:     -11.1      5.079     10.106
REMARK SMILES Cc1c(C)c2c(c(C)c1O)CC[C@@](C)(C(=O)OCCOCCOC(=O)c1ccc(-c3c4nc(c(-c5c(F)cc(S(=O)(=O)[O-])cc5F)c5ccc([nH]5)c(-c5c(F)cc(S(=O)(=O)[O-])cc5F)c5nc(c(-c6c(F)cc(S(=O)(=O)[O-])cc6F)c6ccc3[nH]6)C=C5)C=C4)cc1)O2
REMARK SMILES IDX 21 1 20 2 19 3 18 4 17 5 15 6 16 7 13 8 1 9 2 10 3 11 9 12
REMARK SMILES IDX 4 13 5 14 7 15 6 16 92 17 8 18 11 19 12 20 14 21 10 22 22 24
REMARK SMILES IDX 23 25 24 26 25 27 26 28 27 29 91 30 28 31 90 32 29 33 30 34
REMARK SMILES IDX 31 35 84 36 32 37 89 38 83 39 85 40 33 41 88 42 82 43 81 44
REMARK SMILES IDX 34 46 68 47 47 48 67 49 48 50 51 51 66 52 86 53 49 54 50 55
REMARK SMILES IDX 65 57 87 58 52 59 35 60 36 61 45 62 37 63 38 64 44 65 46 66
REMARK SMILES IDX 39 67 40 68 41 69 42 70 43 71 69 72 70 73 79 74 71 75 72 76
REMARK SMILES IDX 78 77 80 78 73 79 74 80 75 81 76 82 77 83 53 84 54 85 63 86
REMARK SMILES IDX 55 87 56 88 62 89 64 90 57 91 58 92 59 93 60 94 61 95
REMARK H PARENT 10 23 85 45 51 56
REMARK Flexibility Score: inf
ROOT
ATOM      1  C   UNL A   1      32.466  29.588  25.591  1.00  0.00     0.202 C 
ENDROOT
BRANCH   1   2
ATOM      2  O   UNL A   1      31.281  29.871  24.850  1.00  0.00    -0.374 OA
BRANCH   2   3
ATOM      3  C   UNL A   1      30.913  28.957  23.818  1.00  0.00     0.202 C 
BRANCH   3   4
ATOM      4  C   UNL A   1      32.037  28.389  22.947  1.00  0.00     0.261 C 
BRANCH   4   5
ATOM      5  O   UNL A   1      32.007  26.953  22.874  1.00  0.00    -0.460 OA
BRANCH   5   6
ATOM      6  C   UNL A   1      33.037  26.325  23.512  1.00  0.00     0.350 C 
ATOM      7  O   UNL A   1      33.970  26.916  24.047  1.00  0.00    -0.247 OA
BRANCH   6   8
ATOM      8  C   UNL A   1      32.918  24.792  23.454  1.00  0.00     0.203 C 
ATOM      9  C   UNL A   1      37.315  20.766  24.967  1.00  0.00     0.049 C 
ATOM     10  C   UNL A   1      35.904  21.268  24.796  1.00  0.00    -0.002 A 
ATOM     11  C   UNL A   1      35.634  22.642  24.630  1.00  0.00    -0.002 A 
ATOM     12  C   UNL A   1      34.823  20.363  24.762  1.00  0.00     0.122 A 
ATOM     13  C   UNL A   1      36.734  23.675  24.708  1.00  0.00     0.049 C 
ATOM     14  C   UNL A   1      34.312  23.054  24.366  1.00  0.00     0.127 A 
ATOM     15  C   UNL A   1      33.492  20.789  24.588  1.00  0.00    -0.002 A 
ATOM     16  C   UNL A   1      33.233  22.163  24.410  1.00  0.00     0.001 A 
ATOM     17  O   UNL A   1      34.161  24.375  24.049  1.00  0.00    -0.475 OA
ATOM     18  C   UNL A   1      32.359  19.795  24.575  1.00  0.00     0.049 C 
ATOM     19  C   UNL A   1      31.823  22.677  24.236  1.00  0.00     0.044 C 
ATOM     20  C   UNL A   1      31.761  24.203  24.260  1.00  0.00     0.065 C 
ATOM     21  C   UNL A   1      32.873  24.421  21.967  1.00  0.00     0.069 C 
BRANCH  12  22
ATOM     22  O   UNL A   1      35.028  19.014  24.900  1.00  0.00    -0.507 OA
ATOM     23  H   UNL A   1      35.707  18.698  25.464  1.00  0.00     0.293 HD
ENDBRANCH  12  22
ENDBRANCH   6   8
ENDBRANCH   5   6
ENDBRANCH   4   5
ENDBRANCH   3   4
ENDBRANCH   2   3
ENDBRANCH   1   2
BRANCH   1  24
ATOM     24  C   UNL A   1      32.588  30.226  26.982  1.00  0.00     0.261 C 
BRANCH  24  25
ATOM     25  O   UNL A   1      33.687  29.686  27.739  1.00  0.00    -0.460 OA
BRANCH  25  26
ATOM     26  C   UNL A   1      34.539  30.613  28.242  1.00  0.00     0.338 C 
ATOM     27  O   UNL A   1      34.249  31.719  28.679  1.00  0.00    -0.246 OA
BRANCH  26  28
ATOM     28  C   UNL A   1      35.889  30.038  28.387  1.00  0.00     0.060 A 
ATOM     29  C   UNL A   1      36.307  29.700  29.681  1.00  0.00     0.016 A 
ATOM     30  C   UNL A   1      36.760  29.910  27.303  1.00  0.00     0.016 A 
ATOM     31  C   UNL A   1      37.614  29.276  29.901  1.00  0.00     0.010 A 
ATOM     32  C   UNL A   1      38.077  29.496  27.531  1.00  0.00     0.010 A 
ATOM     33  C   UNL A   1      38.521  29.213  28.835  1.00  0.00    -0.014 A 
BRANCH  33  34
ATOM     34  C   UNL A   1      39.961  29.015  29.138  1.00  0.00     0.031 A 
ATOM     35  C   UNL A   1      40.596  27.690  28.807  1.00  0.00     0.074 A 
ATOM     36  C   UNL A   1      40.710  30.024  29.614  1.00  0.00     0.049 A 
ATOM     37  N   UNL A   1      41.849  27.327  28.903  1.00  0.00    -0.248 NA
ATOM     38  C   UNL A   1      39.703  26.639  28.293  1.00  0.00     0.031 C 
ATOM     39  C   UNL A   1      40.216  31.363  29.935  1.00  0.00     0.029 A 
ATOM     40  N   UNL A   1      42.053  30.085  29.894  1.00  0.00    -0.354 N 
ATOM     41  C   UNL A   1      41.897  26.015  28.449  1.00  0.00     0.074 A 
ATOM     42  C   UNL A   1      40.542  25.629  28.121  1.00  0.00     0.031 C 
ATOM     43  C   UNL A   1      41.245  32.117  30.359  1.00  0.00     0.029 A 
ATOM     44  C   UNL A   1      42.467  31.313  30.356  1.00  0.00     0.049 A 
ATOM     45  H   UNL A   1      42.663  29.322  29.774  1.00  0.00     0.167 HD
ATOM     46  C   UNL A   1      42.975  25.211  28.296  1.00  0.00     0.037 A 
ATOM     47  C   UNL A   1      43.690  31.736  30.734  1.00  0.00     0.037 A 
ATOM     48  C   UNL A   1      44.322  25.598  28.622  1.00  0.00     0.049 A 
ATOM     49  C   UNL A   1      44.863  30.796  30.636  1.00  0.00     0.074 A 
ATOM     50  C   UNL A   1      45.484  24.858  28.487  1.00  0.00     0.029 A 
ATOM     51  N   UNL A   1      44.688  26.825  29.155  1.00  0.00    -0.354 N 
ATOM     52  N   UNL A   1      44.898  29.570  30.172  1.00  0.00    -0.248 NA
ATOM     53  C   UNL A   1      46.162  31.295  31.112  1.00  0.00     0.031 C 
ATOM     54  C   UNL A   1      46.546  25.620  28.984  1.00  0.00     0.029 A 
ATOM     55  C   UNL A   1      46.053  26.852  29.385  1.00  0.00     0.049 A 
ATOM     56  H   UNL A   1      44.069  27.567  29.342  1.00  0.00     0.167 HD
ATOM     57  C   UNL A   1      46.223  29.157  30.283  1.00  0.00     0.074 A 
ATOM     58  C   UNL A   1      46.961  30.268  30.849  1.00  0.00     0.031 C 
ATOM     59  C   UNL A   1      46.776  27.965  29.948  1.00  0.00     0.037 A 
BRANCH  46  60
ATOM     60  C   UNL A   1      42.744  23.828  27.757  1.00  0.00     0.058 A 
ATOM     61  C   UNL A   1      42.549  22.731  28.611  1.00  0.00     0.135 A 
ATOM     62  C   UNL A   1      42.672  23.603  26.373  1.00  0.00     0.135 A 
ATOM     63  F   UNL A   1      42.626  22.889  29.943  1.00  0.00    -0.206 F 
ATOM     64  C   UNL A   1      42.309  21.456  28.112  1.00  0.00     0.059 A 
ATOM     65  C   UNL A   1      42.409  22.340  25.852  1.00  0.00     0.059 A 
ATOM     66  F   UNL A   1      42.854  24.617  25.513  1.00  0.00    -0.206 F 
ATOM     67  C   UNL A   1      42.239  21.270  26.731  1.00  0.00     0.060 A 
BRANCH  67  68
ATOM     68  S   UNL A   1      41.917  19.609  26.102  1.00  0.00     0.124 S 
ATOM     69  O   UNL A   1      42.320  18.785  27.236  1.00  0.00    -0.237 OA
ATOM     70  O   UNL A   1      40.484  19.653  25.829  1.00  0.00    -0.237 OA
ATOM     71  O   UNL A   1      42.776  19.517  24.924  1.00  0.00    -0.744 OA
ENDBRANCH  67  68
ENDBRANCH  46  60
BRANCH  47  72
ATOM     72  C   UNL A   1      43.868  33.127  31.233  1.00  0.00     0.058 A 
ATOM     73  C   UNL A   1      43.719  33.433  32.592  1.00  0.00     0.135 A 
ATOM     74  C   UNL A   1      44.211  34.172  30.361  1.00  0.00     0.135 A 
ATOM     75  F   UNL A   1      43.379  32.470  33.463  1.00  0.00    -0.206 F 
ATOM     76  C   UNL A   1      43.901  34.727  33.072  1.00  0.00     0.059 A 
ATOM     77  C   UNL A   1      44.420  35.469  30.819  1.00  0.00     0.059 A 
ATOM     78  F   UNL A   1      44.372  33.929  29.050  1.00  0.00    -0.206 F 
ATOM     79  C   UNL A   1      44.259  35.737  32.177  1.00  0.00     0.060 A 
BRANCH  79  80
ATOM     80  S   UNL A   1      44.558  37.397  32.823  1.00  0.00     0.124 S 
ATOM     81  O   UNL A   1      43.319  37.659  33.549  1.00  0.00    -0.237 OA
ATOM     82  O   UNL A   1      45.748  37.194  33.642  1.00  0.00    -0.237 OA
ATOM     83  O   UNL A   1      44.763  38.194  31.618  1.00  0.00    -0.744 OA
ENDBRANCH  79  80
ENDBRANCH  47  72
BRANCH  59  84
ATOM     84  C   UNL A   1      48.251  27.782  30.174  1.00  0.00     0.058 A 
ATOM     85  C   UNL A   1      48.742  27.230  31.366  1.00  0.00     0.135 A 
ATOM     86  C   UNL A   1      49.170  28.050  29.147  1.00  0.00     0.135 A 
ATOM     87  F   UNL A   1      47.906  26.962  32.382  1.00  0.00    -0.206 F 
ATOM     88  C   UNL A   1      50.094  26.945  31.532  1.00  0.00     0.059 A 
ATOM     89  C   UNL A   1      50.523  27.752  29.282  1.00  0.00     0.059 A 
ATOM     90  F   UNL A   1      48.750  28.570  27.982  1.00  0.00    -0.206 F 
ATOM     91  C   UNL A   1      50.976  27.199  30.479  1.00  0.00     0.060 A 
BRANCH  91  92
ATOM     92  S   UNL A   1      52.712  26.748  30.681  1.00  0.00     0.124 S 
ATOM     93  O   UNL A   1      53.112  26.487  29.302  1.00  0.00    -0.237 OA
ATOM     94  O   UNL A   1      53.276  27.951  31.287  1.00  0.00    -0.237 OA
ATOM     95  O   UNL A   1      52.663  25.579  31.553  1.00  0.00    -0.744 OA
ENDBRANCH  91  92
ENDBRANCH  59  84
ENDBRANCH  33  34
ENDBRANCH  26  28
ENDBRANCH  25  26
ENDBRANCH  24  25
ENDBRANCH   1  24
TORSDOF 18
ENDMDL
MODEL 3
REMARK VINA RESULT:     -11.0      0.665      8.343
REMARK SMILES Cc1c(C)c2c(c(C)c1O)CC[C@@](C)(C(=O)OCCOCCOC(=O)c1ccc(-c3c4nc(c(-c5c(F)cc(S(=O)(=O)[O-])cc5F)c5ccc([nH]5)c(-c5c(F)cc(S(=O)(=O)[O-])cc5F)c5nc(c(-c6c(F)cc(S(=O)(=O)[O-])cc6F)c6ccc3[nH]6)C=C5)C=C4)cc1)O2
REMARK SMILES IDX 21 1 20 2 19 3 18 4 17 5 15 6 16 7 13 8 1 9 2 10 3 11 9 12
REMARK SMILES IDX 4 13 5 14 7 15 6 16 92 17 8 18 11 19 12 20 14 21 10 22 22 24
REMARK SMILES IDX 23 25 24 26 25 27 26 28 27 29 91 30 28 31 90 32 29 33 30 34
REMARK SMILES IDX 31 35 84 36 32 37 89 38 83 39 85 40 33 41 88 42 82 43 81 44
REMARK SMILES IDX 34 46 68 47 47 48 67 49 48 50 51 51 66 52 86 53 49 54 50 55
REMARK SMILES IDX 65 57 87 58 52 59 35 60 36 61 45 62 37 63 38 64 44 65 46 66
REMARK SMILES IDX 39 67 40 68 41 69 42 70 43 71 69 72 70 73 79 74 71 75 72 76
REMARK SMILES IDX 78 77 80 78 73 79 74 80 75 81 76 82 77 83 53 84 54 85 63 86
REMARK SMILES IDX 55 87 56 88 62 89 64 90 57 91 58 92 59 93 60 94 61 95
REMARK H PARENT 10 23 85 45 51 56
REMARK Flexibility Score: inf
ROOT
ATOM      1  C   UNL A   1      38.390  21.927  25.828  1.00  0.00     0.202 C 
ENDROOT
BRANCH   1   2
ATOM      2  O   UNL A   1      37.453  21.779  24.763  1.00  0.00    -0.374 OA
BRANCH   2   3
ATOM      3  C   UNL A   1      36.278  21.010  25.017  1.00  0.00     0.202 C 
BRANCH   3   4
ATOM      4  C   UNL A   1      35.048  21.758  25.539  1.00  0.00     0.261 C 
BRANCH   4   5
ATOM      5  O   UNL A   1      34.552  22.728  24.600  1.00  0.00    -0.460 OA
BRANCH   5   6
ATOM      6  C   UNL A   1      34.644  24.025  25.013  1.00  0.00     0.350 C 
ATOM      7  O   UNL A   1      35.584  24.468  25.668  1.00  0.00    -0.247 OA
BRANCH   6   8
ATOM      8  C   UNL A   1      33.422  24.864  24.600  1.00  0.00     0.203 C 
ATOM      9  C   UNL A   1      32.135  30.566  26.513  1.00  0.00     0.049 C 
ATOM     10  C   UNL A   1      32.145  29.401  25.557  1.00  0.00    -0.002 A 
ATOM     11  C   UNL A   1      33.034  28.320  25.732  1.00  0.00    -0.002 A 
ATOM     12  C   UNL A   1      31.233  29.352  24.481  1.00  0.00     0.122 A 
ATOM     13  C   UNL A   1      34.073  28.327  26.828  1.00  0.00     0.049 C 
ATOM     14  C   UNL A   1      32.933  27.204  24.876  1.00  0.00     0.127 A 
ATOM     15  C   UNL A   1      31.198  28.275  23.575  1.00  0.00    -0.002 A 
ATOM     16  C   UNL A   1      32.081  27.193  23.765  1.00  0.00     0.001 A 
ATOM     17  O   UNL A   1      33.710  26.132  25.216  1.00  0.00    -0.475 OA
ATOM     18  C   UNL A   1      30.222  28.265  22.425  1.00  0.00     0.049 C 
ATOM     19  C   UNL A   1      32.098  26.020  22.813  1.00  0.00     0.044 C 
ATOM     20  C   UNL A   1      33.260  25.069  23.094  1.00  0.00     0.065 C 
ATOM     21  C   UNL A   1      32.206  24.201  25.257  1.00  0.00     0.069 C 
BRANCH  12  22
ATOM     22  O   UNL A   1      30.333  30.367  24.273  1.00  0.00    -0.507 OA
ATOM     23  H   UNL A   1      29.663  30.536  24.906  1.00  0.00     0.293 HD
ENDBRANCH  12  22
ENDBRANCH   6   8
ENDBRANCH   5   6
ENDBRANCH   4   5
ENDBRANCH   3   4
ENDBRANCH   2   3
ENDBRANCH   1   2
BRANCH   1  24
ATOM     24  C   UNL A   1      38.858  23.352  26.151  1.00  0.00     0.261 C 
BRANCH  24  25
ATOM     25  O   UNL A   1      39.748  23.393  27.283  1.00  0.00    -0.460 OA
BRANCH  25  26
ATOM     26  C   UNL A   1      40.798  24.241  27.149  1.00  0.00     0.338 C 
ATOM     27  O   UNL A   1      41.720  24.149  26.349  1.00  0.00    -0.246 OA
BRANCH  26  28
ATOM     28  C   UNL A   1      40.592  25.441  27.980  1.00  0.00     0.060 A 
ATOM     29  C   UNL A   1      41.670  26.328  28.104  1.00  0.00     0.016 A 
ATOM     30  C   UNL A   1      39.410  25.655  28.691  1.00  0.00     0.016 A 
ATOM     31  C   UNL A   1      41.584  27.408  28.978  1.00  0.00     0.010 A 
ATOM     32  C   UNL A   1      39.333  26.736  29.578  1.00  0.00     0.010 A 
ATOM     33  C   UNL A   1      40.433  27.595  29.753  1.00  0.00    -0.014 A 
BRANCH  33  34
ATOM     34  C   UNL A   1      40.471  28.589  30.854  1.00  0.00     0.031 A 
ATOM     35  C   UNL A   1      39.501  29.741  30.828  1.00  0.00     0.074 A 
ATOM     36  C   UNL A   1      41.292  28.421  31.906  1.00  0.00     0.049 A 
ATOM     37  N   UNL A   1      39.298  30.672  31.723  1.00  0.00    -0.248 NA
ATOM     38  C   UNL A   1      38.641  29.852  29.638  1.00  0.00     0.031 C 
ATOM     39  C   UNL A   1      42.247  27.325  32.063  1.00  0.00     0.029 A 
ATOM     40  N   UNL A   1      41.441  29.164  33.051  1.00  0.00    -0.354 N 
ATOM     41  C   UNL A   1      38.281  31.469  31.214  1.00  0.00     0.074 A 
ATOM     42  C   UNL A   1      37.938  30.941  29.912  1.00  0.00     0.031 C 
ATOM     43  C   UNL A   1      42.877  27.461  33.244  1.00  0.00     0.029 A 
ATOM     44  C   UNL A   1      42.383  28.662  33.918  1.00  0.00     0.049 A 
ATOM     45  H   UNL A   1      40.922  29.979  33.235  1.00  0.00     0.167 HD
ATOM     46  C   UNL A   1      37.670  32.531  31.789  1.00  0.00     0.037 A 
ATOM     47  C   UNL A   1      42.799  29.119  35.116  1.00  0.00     0.037 A 
ATOM     48  C   UNL A   1      38.011  33.055  33.085  1.00  0.00     0.049 A 
ATOM     49  C   UNL A   1      42.164  30.354  35.699  1.00  0.00     0.074 A 
ATOM     50  C   UNL A   1      37.438  34.118  33.759  1.00  0.00     0.029 A 
ATOM     51  N   UNL A   1      39.020  32.560  33.899  1.00  0.00    -0.354 N 
ATOM     52  N   UNL A   1      41.179  31.077  35.221  1.00  0.00    -0.248 NA
ATOM     53  C   UNL A   1      42.695  30.838  36.983  1.00  0.00     0.031 C 
ATOM     54  C   UNL A   1      38.132  34.298  34.959  1.00  0.00     0.029 A 
ATOM     55  C   UNL A   1      39.107  33.317  35.054  1.00  0.00     0.049 A 
ATOM     56  H   UNL A   1      39.589  31.786  33.685  1.00  0.00     0.167 HD
ATOM     57  C   UNL A   1      40.960  32.088  36.153  1.00  0.00     0.074 A 
ATOM     58  C   UNL A   1      41.908  31.878  37.227  1.00  0.00     0.031 C 
ATOM     59  C   UNL A   1      40.055  33.098  36.118  1.00  0.00     0.037 A 
BRANCH  46  60
ATOM     60  C   UNL A   1      36.569  33.205  31.018  1.00  0.00     0.058 A 
ATOM     61  C   UNL A   1      35.226  33.093  31.410  1.00  0.00     0.135 A 
ATOM     62  C   UNL A   1      36.864  34.008  29.906  1.00  0.00     0.135 A 
ATOM     63  F   UNL A   1      34.889  32.322  32.457  1.00  0.00    -0.206 F 
ATOM     64  C   UNL A   1      34.210  33.737  30.713  1.00  0.00     0.059 A 
ATOM     65  C   UNL A   1      35.866  34.683  29.208  1.00  0.00     0.059 A 
ATOM     66  F   UNL A   1      38.132  34.148  29.489  1.00  0.00    -0.206 F 
ATOM     67  C   UNL A   1      34.540  34.532  29.613  1.00  0.00     0.060 A 
BRANCH  67  68
ATOM     68  S   UNL A   1      33.210  35.369  28.727  1.00  0.00     0.124 S 
ATOM     69  O   UNL A   1      32.392  35.866  29.830  1.00  0.00    -0.237 OA
ATOM     70  O   UNL A   1      33.933  36.385  27.968  1.00  0.00    -0.237 OA
ATOM     71  O   UNL A   1      32.606  34.305  27.931  1.00  0.00    -0.744 OA
ENDBRANCH  67  68
ENDBRANCH  46  60
BRANCH  47  72
ATOM     72  C   UNL A   1      43.872  28.396  35.850  1.00  0.00     0.058 A 
ATOM     73  C   UNL A   1      45.224  28.705  35.647  1.00  0.00     0.135 A 
ATOM     74  C   UNL A   1      43.564  27.395  36.785  1.00  0.00     0.135 A 
ATOM     75  F   UNL A   1      45.571  29.646  34.755  1.00  0.00    -0.206 F 
ATOM     76  C   UNL A   1      46.235  28.047  36.342  1.00  0.00     0.059 A 
ATOM     77  C   UNL A   1      44.554  26.738  37.508  1.00  0.00     0.059 A 
ATOM     78  F   UNL A   1      42.284  27.066  37.020  1.00  0.00    -0.206 F 
ATOM     79  C   UNL A   1      45.888  27.069  37.277  1.00  0.00     0.060 A 
BRANCH  79  80
ATOM     80  S   UNL A   1      47.205  26.270  38.221  1.00  0.00     0.124 S 
ATOM     81  O   UNL A   1      46.448  25.359  39.071  1.00  0.00    -0.237 OA
ATOM     82  O   UNL A   1      48.000  25.651  37.166  1.00  0.00    -0.237 OA
ATOM     83  O   UNL A   1      47.849  27.386  38.907  1.00  0.00    -0.744 OA
ENDBRANCH  79  80
ENDBRANCH  47  72
BRANCH  59  84
ATOM     84  C   UNL A   1      40.031  34.064  37.270  1.00  0.00     0.058 A 
ATOM     85  C   UNL A   1      40.757  35.263  37.230  1.00  0.00     0.135 A 
ATOM     86  C   UNL A   1      39.183  33.845  38.368  1.00  0.00     0.135 A 
ATOM     87  F   UNL A   1      41.588  35.517  36.207  1.00  0.00    -0.206 F 
ATOM     88  C   UNL A   1      40.642  36.215  38.238  1.00  0.00     0.059 A 
ATOM     89  C   UNL A   1      39.034  34.794  39.376  1.00  0.00     0.059 A 
ATOM     90  F   UNL A   1      38.458  32.718  38.449  1.00  0.00    -0.206 F 
ATOM     91  C   UNL A   1      39.768  35.977  39.302  1.00  0.00     0.060 A 
BRANCH  91  92
ATOM     92  S   UNL A   1      39.570  37.258  40.558  1.00  0.00     0.124 S 
ATOM     93  O   UNL A   1      38.704  38.212  39.873  1.00  0.00    -0.237 OA
ATOM     94  O   UNL A   1      38.955  36.521  41.658  1.00  0.00    -0.237 OA
ATOM     95  O   UNL A   1      40.936  37.712  40.802  1.00  0.00    -0.744 OA
ENDBRANCH  91  92
ENDBRANCH  59  84
ENDBRANCH  33  34
ENDBRANCH  26  28
ENDBRANCH  25  26
ENDBRANCH  24  25
ENDBRANCH   1  24
TORSDOF 18
ENDMDL
