MODEL 1
REMARK VINA RESULT:      -9.1      0.000      0.000
REMARK SMILES CCCc1ccccc1N[C@H](C)[C@@H](C)C(=O)OCCOCCOC(=O)c1ccc(-c2c3nc(c(-c4c(F)cc(S(=O)(=O)[O-])cc4F)c4ccc([nH]4)c(-c4c(F)cc(S(=O)(=O)[O-])cc4F)c4nc(c(-c5c(F)cc(S(=O)(=O)[O-])cc5F)c5ccc2[nH]5)C=C4)C=C3)cc1
REMARK SMILES IDX 19 1 18 2 17 3 15 4 16 5 13 6 14 7 11 8 12 9 10 10 9 12 4 13
REMARK SMILES IDX 5 14 6 15 8 16 7 17 3 18 2 19 1 20 20 21 21 22 22 23 23 24
REMARK SMILES IDX 24 25 25 26 26 27 27 28 91 29 28 30 90 31 29 32 30 33 31 34
REMARK SMILES IDX 84 35 32 36 89 37 83 38 85 39 33 40 88 41 82 42 81 43 34 45
REMARK SMILES IDX 68 46 47 47 67 48 48 49 51 50 66 51 86 52 49 53 50 54 65 56
REMARK SMILES IDX 87 57 52 58 35 59 36 60 45 61 37 62 38 63 44 64 46 65 39 66
REMARK SMILES IDX 40 67 41 68 42 69 43 70 69 71 70 72 79 73 71 74 72 75 78 76
REMARK SMILES IDX 80 77 73 78 74 79 75 80 76 81 77 82 53 83 54 84 63 85 55 86
REMARK SMILES IDX 56 87 62 88 64 89 57 90 58 91 59 92 60 93 61 94
REMARK H PARENT 10 11 85 44 51 55
REMARK Flexibility Score: inf
ROOT
ATOM      1  C   UNL A   1      40.918  20.197  26.966  1.00  0.00     0.202 C 
ENDROOT
BRANCH   1   2
ATOM      2  C   UNL A   1      42.081  19.470  26.278  1.00  0.00     0.261 C 
BRANCH   2   3
ATOM      3  O   UNL A   1      42.895  20.255  25.374  1.00  0.00    -0.463 OA
BRANCH   3   4
ATOM      4  C   UNL A   1      44.054  19.661  24.981  1.00  0.00     0.310 C 
ATOM      5  O   UNL A   1      44.310  18.472  25.162  1.00  0.00    -0.252 OA
BRANCH   4   6
ATOM      6  C   UNL A   1      45.114  20.616  24.459  1.00  0.00     0.118 C 
ATOM      7  C   UNL A   1      46.425  19.821  24.612  1.00  0.00     0.022 C 
BRANCH   6   8
ATOM      8  C   UNL A   1      45.134  22.065  25.050  1.00  0.00     0.090 C 
ATOM      9  C   UNL A   1      44.113  22.945  24.329  1.00  0.00     0.031 C 
BRANCH   8  10
ATOM     10  N   UNL A   1      44.970  22.014  26.538  1.00  0.00    -0.382 N 
ATOM     11  H   UNL A   1      45.294  21.166  26.918  1.00  0.00     0.160 HD
BRANCH  10  12
ATOM     12  C   UNL A   1      44.473  22.871  27.513  1.00  0.00     0.037 A 
ATOM     13  C   UNL A   1      45.197  24.038  27.915  1.00  0.00    -0.025 A 
ATOM     14  C   UNL A   1      44.687  24.909  28.911  1.00  0.00     0.006 A 
ATOM     15  C   UNL A   1      43.467  24.673  29.519  1.00  0.00     0.000 A 
ATOM     16  C   UNL A   1      43.268  22.660  28.197  1.00  0.00     0.026 A 
ATOM     17  C   UNL A   1      42.759  23.543  29.162  1.00  0.00     0.002 A 
BRANCH  13  18
ATOM     18  C   UNL A   1      46.487  24.515  27.282  1.00  0.00     0.037 C 
BRANCH  18  19
ATOM     19  C   UNL A   1      46.526  25.928  26.692  1.00  0.00     0.001 C 
ATOM     20  C   UNL A   1      45.567  26.226  25.552  1.00  0.00     0.004 C 
ENDBRANCH  18  19
ENDBRANCH  13  18
ENDBRANCH  10  12
ENDBRANCH   8  10
ENDBRANCH   6   8
ENDBRANCH   4   6
ENDBRANCH   3   4
ENDBRANCH   2   3
ENDBRANCH   1   2
BRANCH   1  21
ATOM     21  O   UNL A   1      39.987  20.933  26.182  1.00  0.00    -0.374 OA
BRANCH  21  22
ATOM     22  C   UNL A   1      39.566  22.196  26.655  1.00  0.00     0.202 C 
BRANCH  22  23
ATOM     23  C   UNL A   1      39.816  23.438  25.801  1.00  0.00     0.261 C 
BRANCH  23  24
ATOM     24  O   UNL A   1      39.594  24.703  26.408  1.00  0.00    -0.460 OA
BRANCH  24  25
ATOM     25  C   UNL A   1      40.603  25.583  26.252  1.00  0.00     0.338 C 
ATOM     26  O   UNL A   1      41.214  25.856  25.225  1.00  0.00    -0.246 OA
BRANCH  25  27
ATOM     27  C   UNL A   1      40.785  26.278  27.526  1.00  0.00     0.060 A 
ATOM     28  C   UNL A   1      39.933  25.943  28.583  1.00  0.00     0.016 A 
ATOM     29  C   UNL A   1      41.763  27.268  27.663  1.00  0.00     0.016 A 
ATOM     30  C   UNL A   1      40.023  26.642  29.780  1.00  0.00     0.010 A 
ATOM     31  C   UNL A   1      41.846  27.971  28.862  1.00  0.00     0.010 A 
ATOM     32  C   UNL A   1      40.949  27.686  29.906  1.00  0.00    -0.014 A 
BRANCH  32  33
ATOM     33  C   UNL A   1      40.848  28.611  31.054  1.00  0.00     0.031 A 
ATOM     34  C   UNL A   1      39.811  29.696  30.998  1.00  0.00     0.074 A 
ATOM     35  C   UNL A   1      41.654  28.466  32.119  1.00  0.00     0.049 A 
ATOM     36  N   UNL A   1      39.573  30.658  31.847  1.00  0.00    -0.248 NA
ATOM     37  C   UNL A   1      38.927  29.700  29.818  1.00  0.00     0.031 C 
ATOM     38  C   UNL A   1      42.664  27.420  32.278  1.00  0.00     0.029 A 
ATOM     39  N   UNL A   1      41.755  29.209  33.266  1.00  0.00    -0.354 N 
ATOM     40  C   UNL A   1      38.522  31.387  31.303  1.00  0.00     0.074 A 
ATOM     41  C   UNL A   1      38.186  30.775  30.037  1.00  0.00     0.031 C 
ATOM     42  C   UNL A   1      43.294  27.597  33.452  1.00  0.00     0.029 A 
ATOM     43  C   UNL A   1      42.753  28.786  34.109  1.00  0.00     0.049 A 
ATOM     44  H   UNL A   1      41.168  29.974  33.465  1.00  0.00     0.167 HD
ATOM     45  C   UNL A   1      37.892  32.466  31.820  1.00  0.00     0.037 A 
ATOM     46  C   UNL A   1      43.191  29.318  35.267  1.00  0.00     0.037 A 
ATOM     47  C   UNL A   1      38.241  33.056  33.085  1.00  0.00     0.049 A 
ATOM     48  C   UNL A   1      42.506  30.547  35.803  1.00  0.00     0.074 A 
ATOM     49  C   UNL A   1      37.672  34.148  33.713  1.00  0.00     0.029 A 
ATOM     50  N   UNL A   1      39.259  32.599  33.912  1.00  0.00    -0.354 N 
ATOM     51  N   UNL A   1      41.504  31.222  35.287  1.00  0.00    -0.248 NA
ATOM     52  C   UNL A   1      43.001  31.089  37.076  1.00  0.00     0.031 C 
ATOM     53  C   UNL A   1      38.372  34.375  34.903  1.00  0.00     0.029 A 
ATOM     54  C   UNL A   1      39.343  33.395  35.039  1.00  0.00     0.049 A 
ATOM     55  H   UNL A   1      39.835  31.823  33.722  1.00  0.00     0.167 HD
ATOM     56  C   UNL A   1      41.227  32.244  36.188  1.00  0.00     0.074 A 
ATOM     57  C   UNL A   1      42.168  32.101  37.280  1.00  0.00     0.031 C 
ATOM     58  C   UNL A   1      40.276  33.208  36.123  1.00  0.00     0.037 A 
BRANCH  45  59
ATOM     59  C   UNL A   1      36.789  33.086  31.010  1.00  0.00     0.058 A 
ATOM     60  C   UNL A   1      37.052  34.002  29.980  1.00  0.00     0.135 A 
ATOM     61  C   UNL A   1      35.449  32.747  31.257  1.00  0.00     0.135 A 
ATOM     62  F   UNL A   1      38.313  34.379  29.715  1.00  0.00    -0.206 F 
ATOM     63  C   UNL A   1      36.025  34.580  29.240  1.00  0.00     0.059 A 
ATOM     64  C   UNL A   1      34.407  33.293  30.512  1.00  0.00     0.059 A 
ATOM     65  F   UNL A   1      35.140  31.881  32.235  1.00  0.00    -0.206 F 
ATOM     66  C   UNL A   1      34.705  34.219  29.515  1.00  0.00     0.060 A 
BRANCH  66  67
ATOM     67  S   UNL A   1      33.382  34.976  28.546  1.00  0.00     0.124 S 
ATOM     68  O   UNL A   1      34.141  35.763  27.581  1.00  0.00    -0.237 OA
ATOM     69  O   UNL A   1      32.685  33.813  28.006  1.00  0.00    -0.237 OA
ATOM     70  O   UNL A   1      32.635  35.746  29.536  1.00  0.00    -0.744 OA
ENDBRANCH  66  67
ENDBRANCH  45  59
BRANCH  46  71
ATOM     71  C   UNL A   1      44.331  28.691  35.987  1.00  0.00     0.058 A 
ATOM     72  C   UNL A   1      44.131  27.629  36.880  1.00  0.00     0.135 A 
ATOM     73  C   UNL A   1      45.648  29.129  35.778  1.00  0.00     0.135 A 
ATOM     74  F   UNL A   1      42.890  27.178  37.118  1.00  0.00    -0.206 F 
ATOM     75  C   UNL A   1      45.193  27.028  37.548  1.00  0.00     0.059 A 
ATOM     76  C   UNL A   1      46.730  28.530  36.416  1.00  0.00     0.059 A 
ATOM     77  F   UNL A   1      45.896  30.133  34.921  1.00  0.00    -0.206 F 
ATOM     78  C   UNL A   1      46.491  27.485  37.307  1.00  0.00     0.060 A 
BRANCH  78  79
ATOM     79  S   UNL A   1      47.869  26.664  38.138  1.00  0.00     0.124 S 
ATOM     80  O   UNL A   1      48.785  26.430  37.027  1.00  0.00    -0.237 OA
ATOM     81  O   UNL A   1      48.285  27.671  39.109  1.00  0.00    -0.237 OA
ATOM     82  O   UNL A   1      47.252  25.471  38.710  1.00  0.00    -0.744 OA
ENDBRANCH  78  79
ENDBRANCH  46  71
BRANCH  58  83
ATOM     83  C   UNL A   1      40.158  34.152  37.285  1.00  0.00     0.058 A 
ATOM     84  C   UNL A   1      40.828  35.384  37.305  1.00  0.00     0.135 A 
ATOM     85  C   UNL A   1      39.273  33.864  38.336  1.00  0.00     0.135 A 
ATOM     86  F   UNL A   1      41.689  35.702  36.326  1.00  0.00    -0.206 F 
ATOM     87  C   UNL A   1      40.624  36.300  38.332  1.00  0.00     0.059 A 
ATOM     88  C   UNL A   1      39.035  34.774  39.360  1.00  0.00     0.059 A 
ATOM     89  F   UNL A   1      38.602  32.700  38.354  1.00  0.00    -0.206 F 
ATOM     90  C   UNL A   1      39.718  35.990  39.349  1.00  0.00     0.060 A 
BRANCH  90  91
ATOM     91  S   UNL A   1      39.402  37.220  40.631  1.00  0.00     0.124 S 
ATOM     92  O   UNL A   1      38.626  38.215  39.899  1.00  0.00    -0.237 OA
ATOM     93  O   UNL A   1      38.664  36.449  41.629  1.00  0.00    -0.237 OA
ATOM     94  O   UNL A   1      40.739  37.640  41.036  1.00  0.00    -0.744 OA
ENDBRANCH  90  91
ENDBRANCH  58  83
ENDBRANCH  32  33
ENDBRANCH  25  27
ENDBRANCH  24  25
ENDBRANCH  23  24
ENDBRANCH  22  23
ENDBRANCH  21  22
ENDBRANCH   1  21
TORSDOF 22
ENDMDL
MODEL 2
REMARK VINA RESULT:      -9.0      4.950     11.920
REMARK SMILES CCCc1ccccc1N[C@H](C)[C@@H](C)C(=O)OCCOCCOC(=O)c1ccc(-c2c3nc(c(-c4c(F)cc(S(=O)(=O)[O-])cc4F)c4ccc([nH]4)c(-c4c(F)cc(S(=O)(=O)[O-])cc4F)c4nc(c(-c5c(F)cc(S(=O)(=O)[O-])cc5F)c5ccc2[nH]5)C=C4)C=C3)cc1
REMARK SMILES IDX 19 1 18 2 17 3 15 4 16 5 13 6 14 7 11 8 12 9 10 10 9 12 4 13
REMARK SMILES IDX 5 14 6 15 8 16 7 17 3 18 2 19 1 20 20 21 21 22 22 23 23 24
REMARK SMILES IDX 24 25 25 26 26 27 27 28 91 29 28 30 90 31 29 32 30 33 31 34
REMARK SMILES IDX 84 35 32 36 89 37 83 38 85 39 33 40 88 41 82 42 81 43 34 45
REMARK SMILES IDX 68 46 47 47 67 48 48 49 51 50 66 51 86 52 49 53 50 54 65 56
REMARK SMILES IDX 87 57 52 58 35 59 36 60 45 61 37 62 38 63 44 64 46 65 39 66
REMARK SMILES IDX 40 67 41 68 42 69 43 70 69 71 70 72 79 73 71 74 72 75 78 76
REMARK SMILES IDX 80 77 73 78 74 79 75 80 76 81 77 82 53 83 54 84 63 85 55 86
REMARK SMILES IDX 56 87 62 88 64 89 57 90 58 91 59 92 60 93 61 94
REMARK H PARENT 10 11 85 44 51 55
REMARK Flexibility Score: inf
ROOT
ATOM      1  C   UNL A   1      36.465  33.847  32.265  1.00  0.00     0.202 C 
ENDROOT
BRANCH   1   2
ATOM      2  C   UNL A   1      37.772  34.652  32.285  1.00  0.00     0.261 C 
BRANCH   2   3
ATOM      3  O   UNL A   1      38.418  34.813  33.571  1.00  0.00    -0.463 OA
BRANCH   3   4
ATOM      4  C   UNL A   1      39.755  34.565  33.578  1.00  0.00     0.310 C 
ATOM      5  O   UNL A   1      40.463  34.595  32.572  1.00  0.00    -0.252 OA
BRANCH   4   6
ATOM      6  C   UNL A   1      40.302  34.055  34.900  1.00  0.00     0.118 C 
ATOM      7  C   UNL A   1      40.464  35.334  35.744  1.00  0.00     0.022 C 
BRANCH   6   8
ATOM      8  C   UNL A   1      41.556  33.120  34.851  1.00  0.00     0.090 C 
ATOM      9  C   UNL A   1      41.667  32.316  36.147  1.00  0.00     0.031 C 
BRANCH   8  10
ATOM     10  N   UNL A   1      41.528  32.289  33.605  1.00  0.00    -0.382 N 
ATOM     11  H   UNL A   1      41.645  32.834  32.794  1.00  0.00     0.160 HD
BRANCH  10  12
ATOM     12  C   UNL A   1      41.377  30.938  33.314  1.00  0.00     0.037 A 
ATOM     13  C   UNL A   1      40.081  30.354  33.151  1.00  0.00    -0.025 A 
ATOM     14  C   UNL A   1      39.932  28.975  32.856  1.00  0.00     0.006 A 
ATOM     15  C   UNL A   1      41.030  28.148  32.699  1.00  0.00     0.000 A 
ATOM     16  C   UNL A   1      42.448  30.042  33.190  1.00  0.00     0.026 A 
ATOM     17  C   UNL A   1      42.290  28.685  32.871  1.00  0.00     0.002 A 
BRANCH  13  18
ATOM     18  C   UNL A   1      38.778  31.124  33.174  1.00  0.00     0.037 C 
BRANCH  18  19
ATOM     19  C   UNL A   1      37.793  30.849  34.315  1.00  0.00     0.001 C 
ATOM     20  C   UNL A   1      38.318  31.008  35.731  1.00  0.00     0.004 C 
ENDBRANCH  18  19
ENDBRANCH  13  18
ENDBRANCH  10  12
ENDBRANCH   8  10
ENDBRANCH   6   8
ENDBRANCH   4   6
ENDBRANCH   3   4
ENDBRANCH   2   3
ENDBRANCH   1   2
BRANCH   1  21
ATOM     21  O   UNL A   1      35.235  34.512  32.008  1.00  0.00    -0.374 OA
BRANCH  21  22
ATOM     22  C   UNL A   1      34.446  34.063  30.926  1.00  0.00     0.202 C 
BRANCH  22  23
ATOM     23  C   UNL A   1      35.064  33.131  29.884  1.00  0.00     0.261 C 
BRANCH  23  24
ATOM     24  O   UNL A   1      34.838  31.737  30.038  1.00  0.00    -0.460 OA
BRANCH  24  25
ATOM     25  C   UNL A   1      34.884  31.033  28.890  1.00  0.00     0.338 C 
ATOM     26  O   UNL A   1      34.061  31.017  27.982  1.00  0.00    -0.246 OA
BRANCH  25  27
ATOM     27  C   UNL A   1      36.179  30.354  28.839  1.00  0.00     0.060 A 
ATOM     28  C   UNL A   1      36.688  29.821  30.028  1.00  0.00     0.016 A 
ATOM     29  C   UNL A   1      36.893  30.274  27.640  1.00  0.00     0.016 A 
ATOM     30  C   UNL A   1      37.951  29.245  30.032  1.00  0.00     0.010 A 
ATOM     31  C   UNL A   1      38.163  29.701  27.648  1.00  0.00     0.010 A 
ATOM     32  C   UNL A   1      38.708  29.224  28.852  1.00  0.00    -0.014 A 
BRANCH  32  33
ATOM     33  C   UNL A   1      40.145  28.884  28.919  1.00  0.00     0.031 A 
ATOM     34  C   UNL A   1      41.107  29.961  29.331  1.00  0.00     0.074 A 
ATOM     35  C   UNL A   1      40.565  27.641  28.633  1.00  0.00     0.049 A 
ATOM     36  N   UNL A   1      42.410  29.924  29.402  1.00  0.00    -0.248 NA
ATOM     37  C   UNL A   1      40.519  31.260  29.705  1.00  0.00     0.031 C 
ATOM     38  C   UNL A   1      39.700  26.521  28.261  1.00  0.00     0.029 A 
ATOM     39  N   UNL A   1      41.830  27.115  28.603  1.00  0.00    -0.354 N 
ATOM     40  C   UNL A   1      42.799  31.193  29.819  1.00  0.00     0.074 A 
ATOM     41  C   UNL A   1      41.598  31.986  29.956  1.00  0.00     0.031 C 
ATOM     42  C   UNL A   1      40.464  25.441  28.025  1.00  0.00     0.029 A 
ATOM     43  C   UNL A   1      41.869  25.803  28.198  1.00  0.00     0.049 A 
ATOM     44  H   UNL A   1      42.633  27.629  28.846  1.00  0.00     0.167 HD
ATOM     45  C   UNL A   1      44.047  31.648  30.069  1.00  0.00     0.037 A 
ATOM     46  C   UNL A   1      42.926  24.998  27.973  1.00  0.00     0.037 A 
ATOM     47  C   UNL A   1      45.228  30.839  29.929  1.00  0.00     0.049 A 
ATOM     48  C   UNL A   1      44.311  25.539  28.213  1.00  0.00     0.074 A 
ATOM     49  C   UNL A   1      46.546  31.189  30.158  1.00  0.00     0.029 A 
ATOM     50  N   UNL A   1      45.229  29.512  29.517  1.00  0.00    -0.354 N 
ATOM     51  N   UNL A   1      44.668  26.736  28.619  1.00  0.00    -0.248 NA
ATOM     52  C   UNL A   1      45.438  24.627  27.972  1.00  0.00     0.031 C 
ATOM     53  C   UNL A   1      47.347  30.086  29.846  1.00  0.00     0.029 A 
ATOM     54  C   UNL A   1      46.524  29.034  29.473  1.00  0.00     0.049 A 
ATOM     55  H   UNL A   1      44.424  28.991  29.290  1.00  0.00     0.167 HD
ATOM     56  C   UNL A   1      46.055  26.709  28.716  1.00  0.00     0.074 A 
ATOM     57  C   UNL A   1      46.473  25.379  28.323  1.00  0.00     0.031 C 
ATOM     58  C   UNL A   1      46.905  27.692  29.103  1.00  0.00     0.037 A 
BRANCH  45  59
ATOM     59  C   UNL A   1      44.196  33.083  30.491  1.00  0.00     0.058 A 
ATOM     60  C   UNL A   1      44.420  33.442  31.829  1.00  0.00     0.135 A 
ATOM     61  C   UNL A   1      44.130  34.114  29.539  1.00  0.00     0.135 A 
ATOM     62  F   UNL A   1      44.470  32.498  32.783  1.00  0.00    -0.206 F 
ATOM     63  C   UNL A   1      44.547  34.772  32.214  1.00  0.00     0.059 A 
ATOM     64  C   UNL A   1      44.280  35.450  29.897  1.00  0.00     0.059 A 
ATOM     65  F   UNL A   1      43.911  33.827  28.246  1.00  0.00    -0.206 F 
ATOM     66  C   UNL A   1      44.475  35.770  31.240  1.00  0.00     0.060 A 
BRANCH  66  67
ATOM     67  S   UNL A   1      44.643  37.494  31.753  1.00  0.00     0.124 S 
ATOM     68  O   UNL A   1      43.639  37.582  32.807  1.00  0.00    -0.237 OA
ATOM     69  O   UNL A   1      46.032  37.554  32.195  1.00  0.00    -0.237 OA
ATOM     70  O   UNL A   1      44.343  38.241  30.536  1.00  0.00    -0.744 OA
ENDBRANCH  66  67
ENDBRANCH  45  59
BRANCH  46  71
ATOM     71  C   UNL A   1      42.711  23.607  27.494  1.00  0.00     0.058 A 
ATOM     72  C   UNL A   1      42.746  23.295  26.127  1.00  0.00     0.135 A 
ATOM     73  C   UNL A   1      42.487  22.556  28.398  1.00  0.00     0.135 A 
ATOM     74  F   UNL A   1      42.951  24.265  25.223  1.00  0.00    -0.206 F 
ATOM     75  C   UNL A   1      42.559  21.994  25.671  1.00  0.00     0.059 A 
ATOM     76  C   UNL A   1      42.320  21.243  27.968  1.00  0.00     0.059 A 
ATOM     77  F   UNL A   1      42.459  22.798  29.718  1.00  0.00    -0.206 F 
ATOM     78  C   UNL A   1      42.349  20.974  26.601  1.00  0.00     0.060 A 
BRANCH  78  79
ATOM     79  S   UNL A   1      42.160  19.279  26.003  1.00  0.00     0.124 S 
ATOM     80  O   UNL A   1      40.728  19.224  25.726  1.00  0.00    -0.237 OA
ATOM     81  O   UNL A   1      43.038  19.266  24.837  1.00  0.00    -0.237 OA
ATOM     82  O   UNL A   1      42.617  18.474  27.131  1.00  0.00    -0.744 OA
ENDBRANCH  78  79
ENDBRANCH  46  71
BRANCH  58  83
ATOM     83  C   UNL A   1      48.368  27.361  29.179  1.00  0.00     0.058 A 
ATOM     84  C   UNL A   1      49.251  27.680  28.138  1.00  0.00     0.135 A 
ATOM     85  C   UNL A   1      48.903  26.818  30.358  1.00  0.00     0.135 A 
ATOM     86  F   UNL A   1      48.787  28.195  26.990  1.00  0.00    -0.206 F 
ATOM     87  C   UNL A   1      50.621  27.472  28.265  1.00  0.00     0.059 A 
ATOM     88  C   UNL A   1      50.271  26.624  30.516  1.00  0.00     0.059 A 
ATOM     89  F   UNL A   1      48.095  26.505  31.385  1.00  0.00    -0.206 F 
ATOM     90  C   UNL A   1      51.122  26.953  29.462  1.00  0.00     0.060 A 
BRANCH  90  91
ATOM     91  S   UNL A   1      52.907  26.763  29.643  1.00  0.00     0.124 S 
ATOM     92  O   UNL A   1      53.341  28.152  29.754  1.00  0.00    -0.237 OA
ATOM     93  O   UNL A   1      53.014  25.967  30.863  1.00  0.00    -0.237 OA
ATOM     94  O   UNL A   1      53.302  26.077  28.418  1.00  0.00    -0.744 OA
ENDBRANCH  90  91
ENDBRANCH  58  83
ENDBRANCH  32  33
ENDBRANCH  25  27
ENDBRANCH  24  25
ENDBRANCH  23  24
ENDBRANCH  22  23
ENDBRANCH  21  22
ENDBRANCH   1  21
TORSDOF 22
ENDMDL
MODEL 3
REMARK VINA RESULT:      -8.8      3.389     10.044
REMARK SMILES CCCc1ccccc1N[C@H](C)[C@@H](C)C(=O)OCCOCCOC(=O)c1ccc(-c2c3nc(c(-c4c(F)cc(S(=O)(=O)[O-])cc4F)c4ccc([nH]4)c(-c4c(F)cc(S(=O)(=O)[O-])cc4F)c4nc(c(-c5c(F)cc(S(=O)(=O)[O-])cc5F)c5ccc2[nH]5)C=C4)C=C3)cc1
REMARK SMILES IDX 19 1 18 2 17 3 15 4 16 5 13 6 14 7 11 8 12 9 10 10 9 12 4 13
REMARK SMILES IDX 5 14 6 15 8 16 7 17 3 18 2 19 1 20 20 21 21 22 22 23 23 24
REMARK SMILES IDX 24 25 25 26 26 27 27 28 91 29 28 30 90 31 29 32 30 33 31 34
REMARK SMILES IDX 84 35 32 36 89 37 83 38 85 39 33 40 88 41 82 42 81 43 34 45
REMARK SMILES IDX 68 46 47 47 67 48 48 49 51 50 66 51 86 52 49 53 50 54 65 56
REMARK SMILES IDX 87 57 52 58 35 59 36 60 45 61 37 62 38 63 44 64 46 65 39 66
REMARK SMILES IDX 40 67 41 68 42 69 43 70 69 71 70 72 79 73 71 74 72 75 78 76
REMARK SMILES IDX 80 77 73 78 74 79 75 80 76 81 77 82 53 83 54 84 63 85 55 86
REMARK SMILES IDX 56 87 62 88 64 89 57 90 58 91 59 92 60 93 61 94
REMARK H PARENT 10 11 85 44 51 55
REMARK Flexibility Score: inf
ROOT
ATOM      1  C   UNL A   1      35.894  21.506  24.963  1.00  0.00     0.202 C 
ENDROOT
BRANCH   1   2
ATOM      2  C   UNL A   1      34.549  21.208  25.639  1.00  0.00     0.261 C 
BRANCH   2   3
ATOM      3  O   UNL A   1      33.711  22.346  25.951  1.00  0.00    -0.463 OA
BRANCH   3   4
ATOM      4  C   UNL A   1      34.063  23.506  25.333  1.00  0.00     0.310 C 
ATOM      5  O   UNL A   1      34.929  24.270  25.753  1.00  0.00    -0.252 OA
BRANCH   4   6
ATOM      6  C   UNL A   1      33.171  23.903  24.169  1.00  0.00     0.118 C 
ATOM      7  C   UNL A   1      34.118  23.857  22.954  1.00  0.00     0.022 C 
BRANCH   6   8
ATOM      8  C   UNL A   1      32.333  25.217  24.316  1.00  0.00     0.090 C 
ATOM      9  C   UNL A   1      31.283  25.054  25.416  1.00  0.00     0.031 C 
BRANCH   8  10
ATOM     10  N   UNL A   1      33.247  26.390  24.498  1.00  0.00    -0.382 N 
ATOM     11  H   UNL A   1      34.071  26.304  23.967  1.00  0.00     0.160 HD
BRANCH  10  12
ATOM     12  C   UNL A   1      33.215  27.570  25.232  1.00  0.00     0.037 A 
ATOM     13  C   UNL A   1      32.475  28.708  24.778  1.00  0.00    -0.025 A 
ATOM     14  C   UNL A   1      32.446  29.909  25.530  1.00  0.00     0.006 A 
ATOM     15  C   UNL A   1      33.118  30.023  26.734  1.00  0.00     0.000 A 
ATOM     16  C   UNL A   1      33.913  27.761  26.433  1.00  0.00     0.026 A 
ATOM     17  C   UNL A   1      33.856  28.946  27.183  1.00  0.00     0.002 A 
BRANCH  13  18
ATOM     18  C   UNL A   1      31.592  28.729  23.549  1.00  0.00     0.037 C 
BRANCH  18  19
ATOM     19  C   UNL A   1      30.133  28.285  23.698  1.00  0.00     0.001 C 
ATOM     20  C   UNL A   1      29.150  28.784  22.652  1.00  0.00     0.004 C 
ENDBRANCH  18  19
ENDBRANCH  13  18
ENDBRANCH  10  12
ENDBRANCH   8  10
ENDBRANCH   6   8
ENDBRANCH   4   6
ENDBRANCH   3   4
ENDBRANCH   2   3
ENDBRANCH   1   2
BRANCH   1  21
ATOM     21  O   UNL A   1      37.066  21.637  25.758  1.00  0.00    -0.374 OA
BRANCH  21  22
ATOM     22  C   UNL A   1      38.025  22.603  25.380  1.00  0.00     0.202 C 
BRANCH  22  23
ATOM     23  C   UNL A   1      39.009  23.131  26.423  1.00  0.00     0.261 C 
BRANCH  23  24
ATOM     24  O   UNL A   1      39.002  24.529  26.679  1.00  0.00    -0.460 OA
BRANCH  24  25
ATOM     25  C   UNL A   1      40.219  25.107  26.660  1.00  0.00     0.338 C 
ATOM     26  O   UNL A   1      41.057  25.071  25.767  1.00  0.00    -0.246 OA
BRANCH  25  27
ATOM     27  C   UNL A   1      40.342  25.918  27.872  1.00  0.00     0.060 A 
ATOM     28  C   UNL A   1      39.285  25.895  28.787  1.00  0.00     0.016 A 
ATOM     29  C   UNL A   1      41.472  26.713  28.082  1.00  0.00     0.016 A 
ATOM     30  C   UNL A   1      39.332  26.717  29.906  1.00  0.00     0.010 A 
ATOM     31  C   UNL A   1      41.514  27.542  29.202  1.00  0.00     0.010 A 
ATOM     32  C   UNL A   1      40.426  27.574  30.091  1.00  0.00    -0.014 A 
BRANCH  32  33
ATOM     33  C   UNL A   1      40.344  28.645  31.105  1.00  0.00     0.031 A 
ATOM     34  C   UNL A   1      41.260  28.565  32.293  1.00  0.00     0.074 A 
ATOM     35  C   UNL A   1      39.482  29.664  30.953  1.00  0.00     0.049 A 
ATOM     36  N   UNL A   1      41.332  29.344  33.337  1.00  0.00    -0.248 NA
ATOM     37  C   UNL A   1      42.223  27.448  32.306  1.00  0.00     0.031 C 
ATOM     38  C   UNL A   1      38.581  29.845  29.815  1.00  0.00     0.029 A 
ATOM     39  N   UNL A   1      39.219  30.736  31.765  1.00  0.00    -0.354 N 
ATOM     40  C   UNL A   1      42.336  28.809  34.136  1.00  0.00     0.074 A 
ATOM     41  C   UNL A   1      42.826  27.622  33.472  1.00  0.00     0.031 C 
ATOM     42  C   UNL A   1      37.851  30.957  30.010  1.00  0.00     0.029 A 
ATOM     43  C   UNL A   1      38.213  31.545  31.298  1.00  0.00     0.049 A 
ATOM     44  H   UNL A   1      39.705  30.908  32.604  1.00  0.00     0.167 HD
ATOM     45  C   UNL A   1      42.807  29.273  35.316  1.00  0.00     0.037 A 
ATOM     46  C   UNL A   1      37.638  32.624  31.864  1.00  0.00     0.037 A 
ATOM     47  C   UNL A   1      42.306  30.459  35.958  1.00  0.00     0.049 A 
ATOM     48  C   UNL A   1      38.146  33.098  33.200  1.00  0.00     0.074 A 
ATOM     49  C   UNL A   1      42.708  31.029  37.151  1.00  0.00     0.029 A 
ATOM     50  N   UNL A   1      41.285  31.254  35.453  1.00  0.00    -0.354 N 
ATOM     51  N   UNL A   1      39.105  32.593  33.942  1.00  0.00    -0.248 NA
ATOM     52  C   UNL A   1      37.505  34.287  33.778  1.00  0.00     0.031 C 
ATOM     53  C   UNL A   1      41.902  32.147  37.388  1.00  0.00     0.029 A 
ATOM     54  C   UNL A   1      41.034  32.303  36.318  1.00  0.00     0.049 A 
ATOM     55  H   UNL A   1      40.810  31.094  34.606  1.00  0.00     0.167 HD
ATOM     56  C   UNL A   1      39.205  33.421  35.054  1.00  0.00     0.074 A 
ATOM     57  C   UNL A   1      38.207  34.458  34.890  1.00  0.00     0.031 C 
ATOM     58  C   UNL A   1      40.050  33.337  36.111  1.00  0.00     0.037 A 
BRANCH  45  59
ATOM     59  C   UNL A   1      43.894  28.486  35.992  1.00  0.00     0.058 A 
ATOM     60  C   UNL A   1      45.251  28.799  35.820  1.00  0.00     0.135 A 
ATOM     61  C   UNL A   1      43.572  27.412  36.839  1.00  0.00     0.135 A 
ATOM     62  F   UNL A   1      45.616  29.802  35.005  1.00  0.00    -0.206 F 
ATOM     63  C   UNL A   1      46.252  28.060  36.442  1.00  0.00     0.059 A 
ATOM     64  C   UNL A   1      44.556  26.676  37.491  1.00  0.00     0.059 A 
ATOM     65  F   UNL A   1      42.290  27.066  37.033  1.00  0.00    -0.206 F 
ATOM     66  C   UNL A   1      45.895  26.999  37.276  1.00  0.00     0.060 A 
BRANCH  66  67
ATOM     67  S   UNL A   1      47.205  26.048  38.077  1.00  0.00     0.124 S 
ATOM     68  O   UNL A   1      46.437  25.203  38.984  1.00  0.00    -0.237 OA
ATOM     69  O   UNL A   1      47.829  25.364  36.949  1.00  0.00    -0.237 OA
ATOM     70  O   UNL A   1      48.024  27.073  38.716  1.00  0.00    -0.744 OA
ENDBRANCH  66  67
ENDBRANCH  45  59
BRANCH  46  71
ATOM     71  C   UNL A   1      36.521  33.320  31.170  1.00  0.00     0.058 A 
ATOM     72  C   UNL A   1      35.209  33.258  31.660  1.00  0.00     0.135 A 
ATOM     73  C   UNL A   1      36.750  34.079  30.011  1.00  0.00     0.135 A 
ATOM     74  F   UNL A   1      34.938  32.540  32.761  1.00  0.00    -0.206 F 
ATOM     75  C   UNL A   1      34.161  33.916  31.024  1.00  0.00     0.059 A 
ATOM     76  C   UNL A   1      35.723  34.765  29.370  1.00  0.00     0.059 A 
ATOM     77  F   UNL A   1      37.991  34.183  29.509  1.00  0.00    -0.206 F 
ATOM     78  C   UNL A   1      34.430  34.670  29.880  1.00  0.00     0.060 A 
BRANCH  78  79
ATOM     79  S   UNL A   1      33.072  35.564  29.092  1.00  0.00     0.124 S 
ATOM     80  O   UNL A   1      33.783  36.653  28.430  1.00  0.00    -0.237 OA
ATOM     81  O   UNL A   1      32.503  34.546  28.215  1.00  0.00    -0.237 OA
ATOM     82  O   UNL A   1      32.229  35.953  30.218  1.00  0.00    -0.744 OA
ENDBRANCH  78  79
ENDBRANCH  46  71
BRANCH  58  83
ATOM     83  C   UNL A   1      39.981  34.420  37.149  1.00  0.00     0.058 A 
ATOM     84  C   UNL A   1      40.782  35.568  37.071  1.00  0.00     0.135 A 
ATOM     85  C   UNL A   1      39.018  34.353  38.169  1.00  0.00     0.135 A 
ATOM     86  F   UNL A   1      41.721  35.675  36.118  1.00  0.00    -0.206 F 
ATOM     87  C   UNL A   1      40.630  36.617  37.973  1.00  0.00     0.059 A 
ATOM     88  C   UNL A   1      38.833  35.399  39.066  1.00  0.00     0.059 A 
ATOM     89  F   UNL A   1      38.221  33.277  38.276  1.00  0.00    -0.206 F 
ATOM     90  C   UNL A   1      39.646  36.527  38.960  1.00  0.00     0.060 A 
BRANCH  90  91
ATOM     91  S   UNL A   1      39.406  37.927  40.073  1.00  0.00     0.124 S 
ATOM     92  O   UNL A   1      38.162  38.496  39.565  1.00  0.00    -0.237 OA
ATOM     93  O   UNL A   1      39.319  37.277  41.378  1.00  0.00    -0.237 OA
ATOM     94  O   UNL A   1      40.601  38.738  39.862  1.00  0.00    -0.744 OA
ENDBRANCH  90  91
ENDBRANCH  58  83
ENDBRANCH  32  33
ENDBRANCH  25  27
ENDBRANCH  24  25
ENDBRANCH  23  24
ENDBRANCH  22  23
ENDBRANCH  21  22
ENDBRANCH   1  21
TORSDOF 22
ENDMDL
