MODEL 1
REMARK VINA RESULT:      -9.9      0.000      0.000
REMARK SMILES CC(C)CCN(C(=O)N[C@H](C(=O)OCCOCCOC(=O)c1ccc(-c2c3nc(c(-c4c(F)cc(S(=O)(=O)[O-])cc4F)c4ccc([nH]4)c(-c4c(F)cc(S(=O)(=O)[O-])cc4F)c4nc(c(-c5c(F)cc(S(=O)(=O)[O-])cc5F)c5ccc2[nH]5)C=C4)C=C3)cc1)[C@H](C)O)C1CCCC1
REMARK SMILES IDX 15 1 14 2 13 3 11 4 12 5 10 6 9 7 7 8 8 9 6 11 5 12 4 13
REMARK SMILES IDX 2 14 1 15 3 16 91 17 92 18 95 19 93 20 94 21 88 22 89 23
REMARK SMILES IDX 90 24 16 26 17 27 18 28 19 29 20 30 21 31 22 32 23 33 87 34
REMARK SMILES IDX 24 35 86 36 25 37 26 38 27 39 80 40 28 41 85 42 79 43 81 44
REMARK SMILES IDX 29 45 84 46 78 47 77 48 30 50 64 51 43 52 63 53 44 54 47 55
REMARK SMILES IDX 62 56 82 57 45 58 46 59 61 61 83 62 48 63 31 64 32 65 41 66
REMARK SMILES IDX 33 67 34 68 40 69 42 70 35 71 36 72 37 73 38 74 39 75 65 76
REMARK SMILES IDX 66 77 75 78 67 79 68 80 74 81 76 82 69 83 70 84 71 85 72 86
REMARK SMILES IDX 73 87 49 88 50 89 59 90 51 91 52 92 58 93 60 94 53 95 54 96
REMARK SMILES IDX 55 97 56 98 57 99
REMARK H PARENT 9 10 90 25 81 49 47 60
REMARK Flexibility Score: inf
ROOT
ATOM      1  C   UNL A   1      33.299  28.360  25.711  1.00  0.00     0.202 C 
ENDROOT
BRANCH   1   2
ATOM      2  C   UNL A   1      33.478  27.033  24.970  1.00  0.00     0.261 C 
BRANCH   2   3
ATOM      3  O   UNL A   1      33.560  25.967  25.924  1.00  0.00    -0.462 OA
BRANCH   3   4
ATOM      4  C   UNL A   1      32.404  25.302  26.189  1.00  0.00     0.331 C 
ATOM      5  O   UNL A   1      31.520  25.675  26.949  1.00  0.00    -0.250 OA
BRANCH   4   6
ATOM      6  C   UNL A   1      32.368  24.008  25.377  1.00  0.00     0.222 C 
BRANCH   6   7
ATOM      7  N   UNL A   1      32.773  22.934  26.280  1.00  0.00    -0.322 N 
ATOM      8  C   UNL A   1      33.399  21.754  26.171  1.00  0.00     0.318 C 
ATOM      9  O   UNL A   1      33.874  21.386  27.253  1.00  0.00    -0.249 OA
ATOM     10  H   UNL A   1      32.521  23.127  27.212  1.00  0.00     0.166 HD
BRANCH   8  11
ATOM     11  N   UNL A   1      33.501  20.993  25.029  1.00  0.00    -0.322 N 
BRANCH  11  12
ATOM     12  C   UNL A   1      32.539  20.010  24.476  1.00  0.00     0.122 C 
BRANCH  12  13
ATOM     13  C   UNL A   1      32.770  18.523  24.843  1.00  0.00     0.024 C 
BRANCH  13  14
ATOM     14  C   UNL A   1      32.849  17.543  23.644  1.00  0.00    -0.016 C 
ATOM     15  C   UNL A   1      32.344  18.152  22.333  1.00  0.00     0.007 C 
ATOM     16  C   UNL A   1      34.271  17.013  23.436  1.00  0.00     0.007 C 
ENDBRANCH  13  14
ENDBRANCH  12  13
ENDBRANCH  11  12
BRANCH  11  17
ATOM     17  C   UNL A   1      34.811  21.118  24.337  1.00  0.00     0.087 C 
ATOM     18  C   UNL A   1      35.269  22.527  23.955  1.00  0.00     0.025 C 
ATOM     19  C   UNL A   1      35.983  20.472  25.082  1.00  0.00     0.025 C 
ATOM     20  C   UNL A   1      36.770  22.393  23.763  1.00  0.00     0.002 C 
ATOM     21  C   UNL A   1      37.223  21.279  24.701  1.00  0.00     0.002 C 
ENDBRANCH  11  17
ENDBRANCH   8  11
ENDBRANCH   6   7
BRANCH   6  22
ATOM     22  C   UNL A   1      30.988  23.724  24.720  1.00  0.00     0.145 C 
ATOM     23  C   UNL A   1      30.470  24.730  23.699  1.00  0.00     0.041 C 
BRANCH  22  24
ATOM     24  O   UNL A   1      29.975  23.558  25.726  1.00  0.00    -0.391 OA
ATOM     25  H   UNL A   1      30.333  23.816  26.590  1.00  0.00     0.211 HD
ENDBRANCH  22  24
ENDBRANCH   6  22
ENDBRANCH   4   6
ENDBRANCH   3   4
ENDBRANCH   2   3
ENDBRANCH   1   2
BRANCH   1  26
ATOM     26  O   UNL A   1      32.670  29.416  24.977  1.00  0.00    -0.374 OA
BRANCH  26  27
ATOM     27  C   UNL A   1      31.739  30.245  25.667  1.00  0.00     0.202 C 
BRANCH  27  28
ATOM     28  C   UNL A   1      32.209  30.965  26.937  1.00  0.00     0.261 C 
BRANCH  28  29
ATOM     29  O   UNL A   1      33.524  30.573  27.351  1.00  0.00    -0.460 OA
BRANCH  29  30
ATOM     30  C   UNL A   1      34.255  31.587  27.870  1.00  0.00     0.338 C 
ATOM     31  O   UNL A   1      33.853  32.707  28.167  1.00  0.00    -0.246 OA
BRANCH  30  32
ATOM     32  C   UNL A   1      35.608  31.123  28.211  1.00  0.00     0.060 A 
ATOM     33  C   UNL A   1      35.725  29.821  28.709  1.00  0.00     0.016 A 
ATOM     34  C   UNL A   1      36.726  31.956  28.123  1.00  0.00     0.016 A 
ATOM     35  C   UNL A   1      36.951  29.363  29.174  1.00  0.00     0.010 A 
ATOM     36  C   UNL A   1      37.960  31.496  28.598  1.00  0.00     0.010 A 
ATOM     37  C   UNL A   1      38.067  30.212  29.158  1.00  0.00    -0.014 A 
BRANCH  37  38
ATOM     38  C   UNL A   1      39.304  29.768  29.844  1.00  0.00     0.031 A 
ATOM     39  C   UNL A   1      39.683  30.392  31.158  1.00  0.00     0.074 A 
ATOM     40  C   UNL A   1      40.033  28.761  29.332  1.00  0.00     0.049 A 
ATOM     41  N   UNL A   1      40.670  30.092  31.963  1.00  0.00    -0.248 NA
ATOM     42  C   UNL A   1      38.837  31.500  31.630  1.00  0.00     0.031 C 
ATOM     43  C   UNL A   1      39.746  28.066  28.078  1.00  0.00     0.029 A 
ATOM     44  N   UNL A   1      41.157  28.140  29.813  1.00  0.00    -0.354 N 
ATOM     45  C   UNL A   1      40.561  30.967  33.039  1.00  0.00     0.074 A 
ATOM     46  C   UNL A   1      39.436  31.835  32.764  1.00  0.00     0.031 C 
ATOM     47  C   UNL A   1      40.666  27.105  27.892  1.00  0.00     0.029 A 
ATOM     48  C   UNL A   1      41.616  27.130  29.003  1.00  0.00     0.049 A 
ATOM     49  H   UNL A   1      41.593  28.394  30.658  1.00  0.00     0.167 HD
ATOM     50  C   UNL A   1      41.322  31.031  34.158  1.00  0.00     0.037 A 
ATOM     51  C   UNL A   1      42.682  26.319  29.142  1.00  0.00     0.037 A 
ATOM     52  C   UNL A   1      42.445  30.167  34.420  1.00  0.00     0.049 A 
ATOM     53  C   UNL A   1      43.542  26.440  30.372  1.00  0.00     0.074 A 
ATOM     54  C   UNL A   1      43.268  30.137  35.532  1.00  0.00     0.029 A 
ATOM     55  N   UNL A   1      42.909  29.187  33.554  1.00  0.00    -0.354 N 
ATOM     56  N   UNL A   1      43.407  27.250  31.397  1.00  0.00    -0.248 NA
ATOM     57  C   UNL A   1      44.693  25.535  30.467  1.00  0.00     0.031 C 
ATOM     58  C   UNL A   1      44.259  29.171  35.318  1.00  0.00     0.029 A 
ATOM     59  C   UNL A   1      44.025  28.566  34.093  1.00  0.00     0.049 A 
ATOM     60  H   UNL A   1      42.506  28.966  32.683  1.00  0.00     0.167 HD
ATOM     61  C   UNL A   1      44.448  26.939  32.266  1.00  0.00     0.074 A 
ATOM     62  C   UNL A   1      45.190  25.855  31.654  1.00  0.00     0.031 C 
ATOM     63  C   UNL A   1      44.762  27.500  33.462  1.00  0.00     0.037 A 
BRANCH  50  64
ATOM     64  C   UNL A   1      40.977  32.090  35.168  1.00  0.00     0.058 A 
ATOM     65  C   UNL A   1      40.016  31.873  36.169  1.00  0.00     0.135 A 
ATOM     66  C   UNL A   1      41.624  33.336  35.143  1.00  0.00     0.135 A 
ATOM     67  F   UNL A   1      39.355  30.707  36.230  1.00  0.00    -0.206 F 
ATOM     68  C   UNL A   1      39.685  32.865  37.088  1.00  0.00     0.059 A 
ATOM     69  C   UNL A   1      41.327  34.334  36.067  1.00  0.00     0.059 A 
ATOM     70  F   UNL A   1      42.549  33.599  34.206  1.00  0.00    -0.206 F 
ATOM     71  C   UNL A   1      40.342  34.095  37.026  1.00  0.00     0.060 A 
BRANCH  71  72
ATOM     72  S   UNL A   1      39.892  35.378  38.213  1.00  0.00     0.124 S 
ATOM     73  O   UNL A   1      38.660  34.833  38.775  1.00  0.00    -0.237 OA
ATOM     74  O   UNL A   1      41.044  35.395  39.108  1.00  0.00    -0.237 OA
ATOM     75  O   UNL A   1      39.730  36.568  37.382  1.00  0.00    -0.744 OA
ENDBRANCH  71  72
ENDBRANCH  50  64
BRANCH  51  76
ATOM     76  C   UNL A   1      42.986  25.316  28.089  1.00  0.00     0.058 A 
ATOM     77  C   UNL A   1      43.875  25.606  27.044  1.00  0.00     0.135 A 
ATOM     78  C   UNL A   1      42.413  24.036  28.126  1.00  0.00     0.135 A 
ATOM     79  F   UNL A   1      44.440  26.821  26.962  1.00  0.00    -0.206 F 
ATOM     80  C   UNL A   1      44.182  24.664  26.067  1.00  0.00     0.059 A 
ATOM     81  C   UNL A   1      42.722  23.070  27.175  1.00  0.00     0.059 A 
ATOM     82  F   UNL A   1      41.566  23.705  29.113  1.00  0.00    -0.206 F 
ATOM     83  C   UNL A   1      43.604  23.395  26.145  1.00  0.00     0.060 A 
BRANCH  83  84
ATOM     84  S   UNL A   1      44.064  22.156  24.916  1.00  0.00     0.124 S 
ATOM     85  O   UNL A   1      43.220  21.031  25.302  1.00  0.00    -0.237 OA
ATOM     86  O   UNL A   1      43.710  22.821  23.665  1.00  0.00    -0.237 OA
ATOM     87  O   UNL A   1      45.495  21.978  25.138  1.00  0.00    -0.744 OA
ENDBRANCH  83  84
ENDBRANCH  51  76
BRANCH  63  88
ATOM     88  C   UNL A   1      45.958  26.941  34.185  1.00  0.00     0.058 A 
ATOM     89  C   UNL A   1      45.842  25.864  35.077  1.00  0.00     0.135 A 
ATOM     90  C   UNL A   1      47.238  27.480  33.971  1.00  0.00     0.135 A 
ATOM     91  F   UNL A   1      44.640  25.315  35.320  1.00  0.00    -0.206 F 
ATOM     92  C   UNL A   1      46.945  25.364  35.761  1.00  0.00     0.059 A 
ATOM     93  C   UNL A   1      48.359  26.978  34.623  1.00  0.00     0.059 A 
ATOM     94  F   UNL A   1      47.408  28.503  33.118  1.00  0.00    -0.206 F 
ATOM     95  C   UNL A   1      48.200  25.932  35.532  1.00  0.00     0.060 A 
BRANCH  95  96
ATOM     96  S   UNL A   1      49.625  25.276  36.425  1.00  0.00     0.124 S 
ATOM     97  O   UNL A   1      49.096  25.169  37.781  1.00  0.00    -0.237 OA
ATOM     98  O   UNL A   1      49.872  24.012  35.739  1.00  0.00    -0.237 OA
ATOM     99  O   UNL A   1      50.648  26.299  36.229  1.00  0.00    -0.744 OA
ENDBRANCH  95  96
ENDBRANCH  63  88
ENDBRANCH  37  38
ENDBRANCH  30  32
ENDBRANCH  29  30
ENDBRANCH  28  29
ENDBRANCH  27  28
ENDBRANCH  26  27
ENDBRANCH   1  26
TORSDOF 25
ENDMDL
MODEL 2
REMARK VINA RESULT:      -9.6      5.306      9.637
REMARK SMILES CC(C)CCN(C(=O)N[C@H](C(=O)OCCOCCOC(=O)c1ccc(-c2c3nc(c(-c4c(F)cc(S(=O)(=O)[O-])cc4F)c4ccc([nH]4)c(-c4c(F)cc(S(=O)(=O)[O-])cc4F)c4nc(c(-c5c(F)cc(S(=O)(=O)[O-])cc5F)c5ccc2[nH]5)C=C4)C=C3)cc1)[C@H](C)O)C1CCCC1
REMARK SMILES IDX 15 1 14 2 13 3 11 4 12 5 10 6 9 7 7 8 8 9 6 11 5 12 4 13
REMARK SMILES IDX 2 14 1 15 3 16 91 17 92 18 95 19 93 20 94 21 88 22 89 23
REMARK SMILES IDX 90 24 16 26 17 27 18 28 19 29 20 30 21 31 22 32 23 33 87 34
REMARK SMILES IDX 24 35 86 36 25 37 26 38 27 39 80 40 28 41 85 42 79 43 81 44
REMARK SMILES IDX 29 45 84 46 78 47 77 48 30 50 64 51 43 52 63 53 44 54 47 55
REMARK SMILES IDX 62 56 82 57 45 58 46 59 61 61 83 62 48 63 31 64 32 65 41 66
REMARK SMILES IDX 33 67 34 68 40 69 42 70 35 71 36 72 37 73 38 74 39 75 65 76
REMARK SMILES IDX 66 77 75 78 67 79 68 80 74 81 76 82 69 83 70 84 71 85 72 86
REMARK SMILES IDX 73 87 49 88 50 89 59 90 51 91 52 92 58 93 60 94 53 95 54 96
REMARK SMILES IDX 55 97 56 98 57 99
REMARK H PARENT 9 10 90 25 81 49 47 60
REMARK Flexibility Score: inf
ROOT
ATOM      1  C   UNL A   1      32.667  28.376  26.734  1.00  0.00     0.202 C 
ENDROOT
BRANCH   1   2
ATOM      2  C   UNL A   1      31.487  27.737  25.997  1.00  0.00     0.261 C 
BRANCH   2   3
ATOM      3  O   UNL A   1      31.921  26.518  25.381  1.00  0.00    -0.462 OA
BRANCH   3   4
ATOM      4  C   UNL A   1      31.915  26.492  24.021  1.00  0.00     0.331 C 
ATOM      5  O   UNL A   1      30.941  26.272  23.314  1.00  0.00    -0.250 OA
BRANCH   4   6
ATOM      6  C   UNL A   1      33.321  26.790  23.503  1.00  0.00     0.222 C 
BRANCH   6   7
ATOM      7  N   UNL A   1      33.700  25.669  22.648  1.00  0.00    -0.322 N 
ATOM      8  C   UNL A   1      33.926  24.357  22.804  1.00  0.00     0.318 C 
ATOM      9  O   UNL A   1      33.825  23.745  21.733  1.00  0.00    -0.249 OA
ATOM     10  H   UNL A   1      33.822  25.950  21.713  1.00  0.00     0.166 HD
BRANCH   8  11
ATOM     11  N   UNL A   1      34.261  23.727  23.980  1.00  0.00    -0.322 N 
BRANCH  11  12
ATOM     12  C   UNL A   1      35.581  23.644  24.649  1.00  0.00     0.122 C 
BRANCH  12  13
ATOM     13  C   UNL A   1      36.729  22.977  23.852  1.00  0.00     0.024 C 
BRANCH  13  14
ATOM     14  C   UNL A   1      37.281  21.658  24.452  1.00  0.00    -0.016 C 
ATOM     15  C   UNL A   1      38.389  21.884  25.484  1.00  0.00     0.007 C 
ATOM     16  C   UNL A   1      36.171  20.813  25.086  1.00  0.00     0.007 C 
ENDBRANCH  13  14
ENDBRANCH  12  13
ENDBRANCH  11  12
BRANCH  11  17
ATOM     17  C   UNL A   1      33.150  22.941  24.580  1.00  0.00     0.087 C 
ATOM     18  C   UNL A   1      32.867  21.561  23.984  1.00  0.00     0.025 C 
ATOM     19  C   UNL A   1      33.264  22.742  26.094  1.00  0.00     0.025 C 
ATOM     20  C   UNL A   1      32.092  20.836  25.071  1.00  0.00     0.002 C 
ATOM     21  C   UNL A   1      32.578  21.411  26.398  1.00  0.00     0.002 C 
ENDBRANCH  11  17
ENDBRANCH   8  11
ENDBRANCH   6   7
BRANCH   6  22
ATOM     22  C   UNL A   1      33.435  28.151  22.761  1.00  0.00     0.145 C 
ATOM     23  C   UNL A   1      32.183  29.016  22.671  1.00  0.00     0.041 C 
BRANCH  22  24
ATOM     24  O   UNL A   1      33.930  27.957  21.426  1.00  0.00    -0.391 OA
ATOM     25  H   UNL A   1      33.249  28.220  20.787  1.00  0.00     0.211 HD
ENDBRANCH  22  24
ENDBRANCH   6  22
ENDBRANCH   4   6
ENDBRANCH   3   4
ENDBRANCH   2   3
ENDBRANCH   1   2
BRANCH   1  26
ATOM     26  O   UNL A   1      32.992  29.720  26.364  1.00  0.00    -0.374 OA
BRANCH  26  27
ATOM     27  C   UNL A   1      34.055  30.364  27.060  1.00  0.00     0.202 C 
BRANCH  27  28
ATOM     28  C   UNL A   1      34.600  29.700  28.331  1.00  0.00     0.261 C 
BRANCH  28  29
ATOM     29  O   UNL A   1      36.009  29.442  28.268  1.00  0.00    -0.460 OA
BRANCH  29  30
ATOM     30  C   UNL A   1      36.638  29.575  29.460  1.00  0.00     0.338 C 
ATOM     31  O   UNL A   1      36.120  29.558  30.571  1.00  0.00    -0.246 OA
BRANCH  30  32
ATOM     32  C   UNL A   1      38.096  29.572  29.273  1.00  0.00     0.060 A 
ATOM     33  C   UNL A   1      38.567  29.604  27.956  1.00  0.00     0.016 A 
ATOM     34  C   UNL A   1      38.985  29.464  30.346  1.00  0.00     0.016 A 
ATOM     35  C   UNL A   1      39.927  29.472  27.702  1.00  0.00     0.010 A 
ATOM     36  C   UNL A   1      40.354  29.325  30.089  1.00  0.00     0.010 A 
ATOM     37  C   UNL A   1      40.824  29.291  28.764  1.00  0.00    -0.014 A 
BRANCH  37  38
ATOM     38  C   UNL A   1      42.232  28.950  28.452  1.00  0.00     0.031 A 
ATOM     39  C   UNL A   1      42.576  27.549  28.031  1.00  0.00     0.074 A 
ATOM     40  C   UNL A   1      43.175  29.908  28.469  1.00  0.00     0.049 A 
ATOM     41  N   UNL A   1      43.723  27.062  27.632  1.00  0.00    -0.248 NA
ATOM     42  C   UNL A   1      41.483  26.564  28.063  1.00  0.00     0.031 C 
ATOM     43  C   UNL A   1      42.951  31.306  28.836  1.00  0.00     0.029 A 
ATOM     44  N   UNL A   1      44.509  29.852  28.154  1.00  0.00    -0.354 N 
ATOM     45  C   UNL A   1      43.490  25.719  27.358  1.00  0.00     0.074 A 
ATOM     46  C   UNL A   1      42.102  25.459  27.674  1.00  0.00     0.031 C 
ATOM     47  C   UNL A   1      44.107  31.978  28.717  1.00  0.00     0.029 A 
ATOM     48  C   UNL A   1      45.156  31.057  28.283  1.00  0.00     0.049 A 
ATOM     49  H   UNL A   1      44.959  29.026  27.863  1.00  0.00     0.167 HD
ATOM     50  C   UNL A   1      44.352  24.792  26.875  1.00  0.00     0.037 A 
ATOM     51  C   UNL A   1      46.447  31.378  28.076  1.00  0.00     0.037 A 
ATOM     52  C   UNL A   1      45.735  25.058  26.568  1.00  0.00     0.049 A 
ATOM     53  C   UNL A   1      47.398  30.320  27.584  1.00  0.00     0.074 A 
ATOM     54  C   UNL A   1      46.686  24.194  26.054  1.00  0.00     0.029 A 
ATOM     55  N   UNL A   1      46.367  26.280  26.758  1.00  0.00    -0.354 N 
ATOM     56  N   UNL A   1      47.156  29.061  27.297  1.00  0.00    -0.248 NA
ATOM     57  C   UNL A   1      48.794  30.726  27.381  1.00  0.00     0.031 C 
ATOM     58  C   UNL A   1      47.904  24.880  25.978  1.00  0.00     0.029 A 
ATOM     59  C   UNL A   1      47.701  26.185  26.399  1.00  0.00     0.049 A 
ATOM     60  H   UNL A   1      45.930  27.094  27.098  1.00  0.00     0.167 HD
ATOM     61  C   UNL A   1      48.367  28.531  26.864  1.00  0.00     0.074 A 
ATOM     62  C   UNL A   1      49.332  29.610  26.909  1.00  0.00     0.031 C 
ATOM     63  C   UNL A   1      48.654  27.265  26.467  1.00  0.00     0.037 A 
BRANCH  50  64
ATOM     64  C   UNL A   1      43.826  23.398  26.673  1.00  0.00     0.058 A 
ATOM     65  C   UNL A   1      43.584  22.875  25.393  1.00  0.00     0.135 A 
ATOM     66  C   UNL A   1      43.570  22.567  27.776  1.00  0.00     0.135 A 
ATOM     67  F   UNL A   1      43.795  23.631  24.303  1.00  0.00    -0.206 F 
ATOM     68  C   UNL A   1      43.076  21.592  25.213  1.00  0.00     0.059 A 
ATOM     69  C   UNL A   1      43.086  21.271  27.620  1.00  0.00     0.059 A 
ATOM     70  F   UNL A   1      43.782  23.016  29.024  1.00  0.00    -0.206 F 
ATOM     71  C   UNL A   1      42.825  20.799  26.334  1.00  0.00     0.060 A 
BRANCH  71  72
ATOM     72  S   UNL A   1      42.150  19.142  26.089  1.00  0.00     0.124 S 
ATOM     73  O   UNL A   1      42.907  18.691  24.925  1.00  0.00    -0.237 OA
ATOM     74  O   UNL A   1      42.473  18.483  27.350  1.00  0.00    -0.237 OA
ATOM     75  O   UNL A   1      40.729  19.385  25.857  1.00  0.00    -0.744 OA
ENDBRANCH  71  72
ENDBRANCH  50  64
BRANCH  51  76
ATOM     76  C   UNL A   1      46.909  32.768  28.327  1.00  0.00     0.058 A 
ATOM     77  C   UNL A   1      46.892  33.733  27.309  1.00  0.00     0.135 A 
ATOM     78  C   UNL A   1      47.351  33.163  29.598  1.00  0.00     0.135 A 
ATOM     79  F   UNL A   1      46.486  33.399  26.074  1.00  0.00    -0.206 F 
ATOM     80  C   UNL A   1      47.302  35.042  27.542  1.00  0.00     0.059 A 
ATOM     81  C   UNL A   1      47.743  34.471  29.861  1.00  0.00     0.059 A 
ATOM     82  F   UNL A   1      47.374  32.280  30.608  1.00  0.00    -0.206 F 
ATOM     83  C   UNL A   1      47.720  35.403  28.824  1.00  0.00     0.060 A 
BRANCH  83  84
ATOM     84  S   UNL A   1      48.182  37.121  29.135  1.00  0.00     0.124 S 
ATOM     85  O   UNL A   1      48.639  37.545  27.817  1.00  0.00    -0.237 OA
ATOM     86  O   UNL A   1      46.921  37.698  29.591  1.00  0.00    -0.237 OA
ATOM     87  O   UNL A   1      49.216  37.010  30.158  1.00  0.00    -0.744 OA
ENDBRANCH  83  84
ENDBRANCH  51  76
BRANCH  63  88
ATOM     88  C   UNL A   1      50.072  26.987  26.044  1.00  0.00     0.058 A 
ATOM     89  C   UNL A   1      51.038  26.539  26.958  1.00  0.00     0.135 A 
ATOM     90  C   UNL A   1      50.464  27.157  24.706  1.00  0.00     0.135 A 
ATOM     91  F   UNL A   1      50.715  26.364  28.250  1.00  0.00    -0.206 F 
ATOM     92  C   UNL A   1      52.352  26.303  26.569  1.00  0.00     0.059 A 
ATOM     93  C   UNL A   1      51.766  26.901  24.289  1.00  0.00     0.059 A 
ATOM     94  F   UNL A   1      49.577  27.571  23.787  1.00  0.00    -0.206 F 
ATOM     95  C   UNL A   1      52.709  26.493  25.233  1.00  0.00     0.060 A 
BRANCH  95  96
ATOM     96  S   UNL A   1      54.419  26.186  24.739  1.00  0.00     0.124 S 
ATOM     97  O   UNL A   1      54.545  24.756  24.998  1.00  0.00    -0.237 OA
ATOM     98  O   UNL A   1      54.414  26.577  23.333  1.00  0.00    -0.237 OA
ATOM     99  O   UNL A   1      55.189  27.056  25.623  1.00  0.00    -0.744 OA
ENDBRANCH  95  96
ENDBRANCH  63  88
ENDBRANCH  37  38
ENDBRANCH  30  32
ENDBRANCH  29  30
ENDBRANCH  28  29
ENDBRANCH  27  28
ENDBRANCH  26  27
ENDBRANCH   1  26
TORSDOF 25
ENDMDL
MODEL 3
REMARK VINA RESULT:      -9.2      2.483      4.005
REMARK SMILES CC(C)CCN(C(=O)N[C@H](C(=O)OCCOCCOC(=O)c1ccc(-c2c3nc(c(-c4c(F)cc(S(=O)(=O)[O-])cc4F)c4ccc([nH]4)c(-c4c(F)cc(S(=O)(=O)[O-])cc4F)c4nc(c(-c5c(F)cc(S(=O)(=O)[O-])cc5F)c5ccc2[nH]5)C=C4)C=C3)cc1)[C@H](C)O)C1CCCC1
REMARK SMILES IDX 15 1 14 2 13 3 11 4 12 5 10 6 9 7 7 8 8 9 6 11 5 12 4 13
REMARK SMILES IDX 2 14 1 15 3 16 91 17 92 18 95 19 93 20 94 21 88 22 89 23
REMARK SMILES IDX 90 24 16 26 17 27 18 28 19 29 20 30 21 31 22 32 23 33 87 34
REMARK SMILES IDX 24 35 86 36 25 37 26 38 27 39 80 40 28 41 85 42 79 43 81 44
REMARK SMILES IDX 29 45 84 46 78 47 77 48 30 50 64 51 43 52 63 53 44 54 47 55
REMARK SMILES IDX 62 56 82 57 45 58 46 59 61 61 83 62 48 63 31 64 32 65 41 66
REMARK SMILES IDX 33 67 34 68 40 69 42 70 35 71 36 72 37 73 38 74 39 75 65 76
REMARK SMILES IDX 66 77 75 78 67 79 68 80 74 81 76 82 69 83 70 84 71 85 72 86
REMARK SMILES IDX 73 87 49 88 50 89 59 90 51 91 52 92 58 93 60 94 53 95 54 96
REMARK SMILES IDX 55 97 56 98 57 99
REMARK H PARENT 9 10 90 25 81 49 47 60
REMARK Flexibility Score: inf
ROOT
ATOM      1  C   UNL A   1      33.258  30.692  27.454  1.00  0.00     0.202 C 
ENDROOT
BRANCH   1   2
ATOM      2  C   UNL A   1      34.291  29.724  26.872  1.00  0.00     0.261 C 
BRANCH   2   3
ATOM      3  O   UNL A   1      33.834  28.379  27.059  1.00  0.00    -0.462 OA
BRANCH   3   4
ATOM      4  C   UNL A   1      33.405  27.725  25.947  1.00  0.00     0.331 C 
ATOM      5  O   UNL A   1      33.135  28.243  24.872  1.00  0.00    -0.250 OA
BRANCH   4   6
ATOM      6  C   UNL A   1      33.319  26.229  26.241  1.00  0.00     0.222 C 
BRANCH   6   7
ATOM      7  N   UNL A   1      31.912  25.931  26.498  1.00  0.00    -0.322 N 
ATOM      8  C   UNL A   1      30.841  25.586  25.771  1.00  0.00     0.318 C 
ATOM      9  O   UNL A   1      29.970  25.048  26.467  1.00  0.00    -0.249 OA
ATOM     10  H   UNL A   1      31.694  26.001  27.455  1.00  0.00     0.166 HD
BRANCH   8  11
ATOM     11  N   UNL A   1      30.670  25.809  24.424  1.00  0.00    -0.322 N 
BRANCH  11  12
ATOM     12  C   UNL A   1      31.120  24.981  23.279  1.00  0.00     0.122 C 
BRANCH  12  13
ATOM     13  C   UNL A   1      30.840  23.460  23.363  1.00  0.00     0.024 C 
BRANCH  13  14
ATOM     14  C   UNL A   1      32.026  22.539  22.975  1.00  0.00    -0.016 C 
ATOM     15  C   UNL A   1      33.114  23.263  22.178  1.00  0.00     0.007 C 
ATOM     16  C   UNL A   1      32.658  21.878  24.204  1.00  0.00     0.007 C 
ENDBRANCH  13  14
ENDBRANCH  12  13
ENDBRANCH  11  12
BRANCH  11  17
ATOM     17  C   UNL A   1      30.040  27.116  24.104  1.00  0.00     0.087 C 
ATOM     18  C   UNL A   1      30.602  27.891  22.911  1.00  0.00     0.025 C 
ATOM     19  C   UNL A   1      28.523  27.054  23.901  1.00  0.00     0.025 C 
ATOM     20  C   UNL A   1      29.490  28.856  22.534  1.00  0.00     0.002 C 
ATOM     21  C   UNL A   1      28.182  28.170  22.914  1.00  0.00     0.002 C 
ENDBRANCH  11  17
ENDBRANCH   8  11
ENDBRANCH   6   7
BRANCH   6  22
ATOM     22  C   UNL A   1      33.903  25.337  25.109  1.00  0.00     0.145 C 
ATOM     23  C   UNL A   1      35.108  24.467  25.444  1.00  0.00     0.041 C 
BRANCH  22  24
ATOM     24  O   UNL A   1      34.244  26.136  23.964  1.00  0.00    -0.391 OA
ATOM     25  H   UNL A   1      34.919  26.786  24.213  1.00  0.00     0.211 HD
ENDBRANCH  22  24
ENDBRANCH   6  22
ENDBRANCH   4   6
ENDBRANCH   3   4
ENDBRANCH   2   3
ENDBRANCH   1   2
BRANCH   1  26
ATOM     26  O   UNL A   1      31.986  30.730  26.798  1.00  0.00    -0.374 OA
BRANCH  26  27
ATOM     27  C   UNL A   1      31.485  32.000  26.390  1.00  0.00     0.202 C 
BRANCH  27  28
ATOM     28  C   UNL A   1      31.863  33.232  27.220  1.00  0.00     0.261 C 
BRANCH  28  29
ATOM     29  O   UNL A   1      33.192  33.163  27.753  1.00  0.00    -0.460 OA
BRANCH  29  30
ATOM     30  C   UNL A   1      33.512  34.209  28.551  1.00  0.00     0.338 C 
ATOM     31  O   UNL A   1      32.909  35.273  28.646  1.00  0.00    -0.246 OA
BRANCH  30  32
ATOM     32  C   UNL A   1      34.613  33.848  29.455  1.00  0.00     0.060 A 
ATOM     33  C   UNL A   1      35.888  34.321  29.123  1.00  0.00     0.016 A 
ATOM     34  C   UNL A   1      34.429  33.007  30.556  1.00  0.00     0.016 A 
ATOM     35  C   UNL A   1      36.994  33.911  29.858  1.00  0.00     0.010 A 
ATOM     36  C   UNL A   1      35.544  32.589  31.291  1.00  0.00     0.010 A 
ATOM     37  C   UNL A   1      36.833  33.011  30.921  1.00  0.00    -0.014 A 
BRANCH  37  38
ATOM     38  C   UNL A   1      38.046  32.437  31.551  1.00  0.00     0.031 A 
ATOM     39  C   UNL A   1      38.485  32.940  32.898  1.00  0.00     0.074 A 
ATOM     40  C   UNL A   1      38.696  31.421  30.958  1.00  0.00     0.049 A 
ATOM     41  N   UNL A   1      39.460  32.517  33.662  1.00  0.00    -0.248 NA
ATOM     42  C   UNL A   1      37.725  34.067  33.461  1.00  0.00     0.031 C 
ATOM     43  C   UNL A   1      38.343  30.836  29.665  1.00  0.00     0.029 A 
ATOM     44  N   UNL A   1      39.780  30.692  31.374  1.00  0.00    -0.354 N 
ATOM     45  C   UNL A   1      39.427  33.320  34.797  1.00  0.00     0.074 A 
ATOM     46  C   UNL A   1      38.362  34.280  34.604  1.00  0.00     0.031 C 
ATOM     47  C   UNL A   1      39.191  29.830  29.396  1.00  0.00     0.029 A 
ATOM     48  C   UNL A   1      40.156  29.712  30.488  1.00  0.00     0.049 A 
ATOM     49  H   UNL A   1      40.244  30.855  32.226  1.00  0.00     0.167 HD
ATOM     50  C   UNL A   1      40.207  33.254  35.903  1.00  0.00     0.037 A 
ATOM     51  C   UNL A   1      41.165  28.822  30.551  1.00  0.00     0.037 A 
ATOM     52  C   UNL A   1      41.270  32.299  36.084  1.00  0.00     0.049 A 
ATOM     53  C   UNL A   1      42.048  28.797  31.770  1.00  0.00     0.074 A 
ATOM     54  C   UNL A   1      42.104  32.134  37.176  1.00  0.00     0.029 A 
ATOM     55  N   UNL A   1      41.653  31.352  35.144  1.00  0.00    -0.354 N 
ATOM     56  N   UNL A   1      41.984  29.541  32.850  1.00  0.00    -0.248 NA
ATOM     57  C   UNL A   1      43.135  27.810  31.781  1.00  0.00     0.031 C 
ATOM     58  C   UNL A   1      43.022  31.120  36.877  1.00  0.00     0.029 A 
ATOM     59  C   UNL A   1      42.729  30.619  35.618  1.00  0.00     0.049 A 
ATOM     60  H   UNL A   1      41.223  31.221  34.268  1.00  0.00     0.167 HD
ATOM     61  C   UNL A   1      43.013  29.099  33.676  1.00  0.00     0.074 A 
ATOM     62  C   UNL A   1      43.668  28.012  32.978  1.00  0.00     0.031 C 
ATOM     63  C   UNL A   1      43.382  29.552  34.902  1.00  0.00     0.037 A 
BRANCH  50  64
ATOM     64  C   UNL A   1      39.950  34.260  36.990  1.00  0.00     0.058 A 
ATOM     65  C   UNL A   1      39.150  33.960  38.104  1.00  0.00     0.135 A 
ATOM     66  C   UNL A   1      40.523  35.541  36.924  1.00  0.00     0.135 A 
ATOM     67  F   UNL A   1      38.564  32.757  38.211  1.00  0.00    -0.206 F 
ATOM     68  C   UNL A   1      38.899  34.903  39.097  1.00  0.00     0.059 A 
ATOM     69  C   UNL A   1      40.305  36.492  37.917  1.00  0.00     0.059 A 
ATOM     70  F   UNL A   1      41.295  35.883  35.881  1.00  0.00    -0.206 F 
ATOM     71  C   UNL A   1      39.476  36.170  38.991  1.00  0.00     0.060 A 
BRANCH  71  72
ATOM     72  S   UNL A   1      39.129  37.389  40.276  1.00  0.00     0.124 S 
ATOM     73  O   UNL A   1      40.464  37.909  40.551  1.00  0.00    -0.237 OA
ATOM     74  O   UNL A   1      38.218  38.307  39.599  1.00  0.00    -0.237 OA
ATOM     75  O   UNL A   1      38.532  36.594  41.346  1.00  0.00    -0.744 OA
ENDBRANCH  71  72
ENDBRANCH  50  64
BRANCH  51  76
ATOM     76  C   UNL A   1      41.384  27.876  29.426  1.00  0.00     0.058 A 
ATOM     77  C   UNL A   1      42.468  28.027  28.550  1.00  0.00     0.135 A 
ATOM     78  C   UNL A   1      40.524  26.785  29.223  1.00  0.00     0.135 A 
ATOM     79  F   UNL A   1      43.311  29.061  28.698  1.00  0.00    -0.206 F 
ATOM     80  C   UNL A   1      42.692  27.133  27.508  1.00  0.00     0.059 A 
ATOM     81  C   UNL A   1      40.741  25.865  28.204  1.00  0.00     0.059 A 
ATOM     82  F   UNL A   1      39.479  26.590  30.042  1.00  0.00    -0.206 F 
ATOM     83  C   UNL A   1      41.825  26.050  27.347  1.00  0.00     0.060 A 
BRANCH  83  84
ATOM     84  S   UNL A   1      42.165  24.854  26.038  1.00  0.00     0.124 S 
ATOM     85  O   UNL A   1      41.245  23.775  26.380  1.00  0.00    -0.237 OA
ATOM     86  O   UNL A   1      41.839  25.616  24.837  1.00  0.00    -0.237 OA
ATOM     87  O   UNL A   1      43.582  24.557  26.216  1.00  0.00    -0.744 OA
ENDBRANCH  83  84
ENDBRANCH  51  76
BRANCH  63  88
ATOM     88  C   UNL A   1      44.546  28.863  35.562  1.00  0.00     0.058 A 
ATOM     89  C   UNL A   1      44.363  27.764  36.415  1.00  0.00     0.135 A 
ATOM     90  C   UNL A   1      45.861  29.299  35.327  1.00  0.00     0.135 A 
ATOM     91  F   UNL A   1      43.126  27.310  36.677  1.00  0.00    -0.206 F 
ATOM     92  C   UNL A   1      45.439  27.143  37.042  1.00  0.00     0.059 A 
ATOM     93  C   UNL A   1      46.953  28.676  35.921  1.00  0.00     0.059 A 
ATOM     94  F   UNL A   1      46.094  30.338  34.509  1.00  0.00    -0.206 F 
ATOM     95  C   UNL A   1      46.731  27.610  36.793  1.00  0.00     0.060 A 
BRANCH  95  96
ATOM     96  S   UNL A   1      48.120  26.798  37.612  1.00  0.00     0.124 S 
ATOM     97  O   UNL A   1      48.321  25.632  36.758  1.00  0.00    -0.237 OA
ATOM     98  O   UNL A   1      49.162  27.818  37.548  1.00  0.00    -0.237 OA
ATOM     99  O   UNL A   1      47.608  26.517  38.950  1.00  0.00    -0.744 OA
ENDBRANCH  95  96
ENDBRANCH  63  88
ENDBRANCH  37  38
ENDBRANCH  30  32
ENDBRANCH  29  30
ENDBRANCH  28  29
ENDBRANCH  27  28
ENDBRANCH  26  27
ENDBRANCH   1  26
TORSDOF 25
ENDMDL
