MODEL 1
REMARK VINA RESULT:     -13.2      0.000      0.000
REMARK SMILES Cc1ccc(NC(=O)N2CCCC[C@@H]2C(=O)OCCOCCOC(=O)c2ccc(-c3c4nc(c(-c5c(F)cc(S(=O)(=O)[O-])cc5F)c5ccc([nH]5)c(-c5c(F)cc(S(=O)(=O)[O-])cc5F)c5nc(c(-c6c(F)cc(S(=O)(=O)[O-])cc6F)c6ccc3[nH]6)C=C5)C=C4)cc2)cc1
REMARK SMILES IDX 21 1 20 2 19 3 18 4 17 5 15 6 16 7 14 8 9 9 10 10 11 11
REMARK SMILES IDX 13 12 12 13 7 14 6 15 8 17 5 18 1 19 2 20 3 21 93 22 4 23
REMARK SMILES IDX 92 24 22 25 23 26 24 27 25 28 26 29 27 30 91 31 28 32 90 33
REMARK SMILES IDX 29 34 30 35 31 36 84 37 32 38 89 39 83 40 85 41 33 42 88 43
REMARK SMILES IDX 82 44 81 45 34 47 68 48 47 49 67 50 48 51 51 52 66 53 86 54
REMARK SMILES IDX 49 55 50 56 65 58 87 59 52 60 35 61 36 62 45 63 37 64 38 65
REMARK SMILES IDX 44 66 46 67 39 68 40 69 41 70 42 71 43 72 69 73 70 74 79 75
REMARK SMILES IDX 71 76 72 77 78 78 80 79 73 80 74 81 75 82 76 83 77 84 53 85
REMARK SMILES IDX 54 86 63 87 55 88 56 89 62 90 64 91 57 92 58 93 59 94 60 95
REMARK SMILES IDX 61 96
REMARK H PARENT 6 16 85 46 51 57
REMARK Flexibility Score: inf
ROOT
ATOM      1  C   UNL A   1      34.881  21.293  24.855  1.00  0.00     0.202 C 
ENDROOT
BRANCH   1   2
ATOM      2  O   UNL A   1      33.546  21.303  24.218  1.00  0.00    -0.374 OA
BRANCH   2   3
ATOM      3  C   UNL A   1      32.975  22.366  23.379  1.00  0.00     0.202 C 
BRANCH   3   4
ATOM      4  C   UNL A   1      33.734  23.640  22.908  1.00  0.00     0.261 C 
BRANCH   4   5
ATOM      5  O   UNL A   1      33.038  24.605  22.140  1.00  0.00    -0.462 OA
BRANCH   5   6
ATOM      6  C   UNL A   1      33.334  25.866  22.501  1.00  0.00     0.329 C 
ATOM      7  O   UNL A   1      33.715  26.753  21.744  1.00  0.00    -0.250 OA
BRANCH   6   8
ATOM      8  C   UNL A   1      32.830  26.181  23.888  1.00  0.00     0.196 C 
ATOM      9  N   UNL A   1      31.438  26.535  24.260  1.00  0.00    -0.311 N 
ATOM     10  C   UNL A   1      31.307  27.050  25.633  1.00  0.00     0.122 C 
ATOM     11  C   UNL A   1      32.338  28.091  26.063  1.00  0.00     0.022 C 
ATOM     12  C   UNL A   1      33.785  27.363  24.234  1.00  0.00     0.037 C 
ATOM     13  C   UNL A   1      33.750  27.678  25.706  1.00  0.00     0.005 C 
BRANCH   9  14
ATOM     14  C   UNL A   1      30.239  26.093  23.726  1.00  0.00     0.322 C 
ATOM     15  N   UNL A   1      29.172  26.886  23.498  1.00  0.00    -0.308 N 
ATOM     16  H   UNL A   1      28.328  26.459  23.768  1.00  0.00     0.171 HD
ATOM     17  O   UNL A   1      30.037  24.883  23.556  1.00  0.00    -0.248 OA
BRANCH  15  18
ATOM     18  C   UNL A   1      28.971  28.161  22.972  1.00  0.00     0.042 A 
ATOM     19  C   UNL A   1      28.423  32.327  22.169  1.00  0.00     0.044 C 
ATOM     20  C   UNL A   1      28.542  30.838  22.286  1.00  0.00    -0.051 A 
ATOM     21  C   UNL A   1      29.725  30.185  21.914  1.00  0.00     0.005 A 
ATOM     22  C   UNL A   1      27.523  30.102  22.887  1.00  0.00     0.005 A 
ATOM     23  C   UNL A   1      29.932  28.841  22.239  1.00  0.00     0.026 A 
ATOM     24  C   UNL A   1      27.728  28.761  23.197  1.00  0.00     0.026 A 
ENDBRANCH  15  18
ENDBRANCH   9  14
ENDBRANCH   6   8
ENDBRANCH   5   6
ENDBRANCH   4   5
ENDBRANCH   3   4
ENDBRANCH   2   3
ENDBRANCH   1   2
BRANCH   1  25
ATOM     25  C   UNL A   1      36.456  22.297  24.697  1.00  0.00     0.261 C 
BRANCH  25  26
ATOM     26  O   UNL A   1      37.709  22.980  25.785  1.00  0.00    -0.460 OA
BRANCH  26  27
ATOM     27  C   UNL A   1      39.028  23.420  26.405  1.00  0.00     0.338 C 
ATOM     28  O   UNL A   1      39.074  24.649  26.609  1.00  0.00    -0.246 OA
BRANCH  27  29
ATOM     29  C   UNL A   1      40.630  22.683  26.720  1.00  0.00     0.060 A 
ATOM     30  C   UNL A   1      41.292  22.977  27.934  1.00  0.00     0.016 A 
ATOM     31  C   UNL A   1      41.599  22.163  25.822  1.00  0.00     0.016 A 
ATOM     32  C   UNL A   1      42.725  23.382  27.948  1.00  0.00     0.010 A 
ATOM     33  C   UNL A   1      42.984  22.636  25.786  1.00  0.00     0.010 A 
ATOM     34  C   UNL A   1      43.491  23.493  26.757  1.00  0.00    -0.014 A 
BRANCH  34  35
ATOM     35  C   UNL A   1      44.469  24.679  26.434  1.00  0.00     0.031 A 
ATOM     36  C   UNL A   1      45.918  24.512  26.129  1.00  0.00     0.074 A 
ATOM     37  C   UNL A   1      44.200  26.017  26.208  1.00  0.00     0.049 A 
ATOM     38  N   UNL A   1      46.879  25.076  26.803  1.00  0.00    -0.248 NA
ATOM     39  C   UNL A   1      46.319  24.035  24.808  1.00  0.00     0.031 C 
ATOM     40  C   UNL A   1      45.106  27.179  26.107  1.00  0.00     0.029 A 
ATOM     41  N   UNL A   1      43.018  26.719  26.155  1.00  0.00    -0.354 N 
ATOM     42  C   UNL A   1      47.922  25.300  25.904  1.00  0.00     0.074 A 
ATOM     43  C   UNL A   1      47.559  24.535  24.716  1.00  0.00     0.031 C 
ATOM     44  C   UNL A   1      44.475  28.308  26.486  1.00  0.00     0.029 A 
ATOM     45  C   UNL A   1      43.124  27.957  26.802  1.00  0.00     0.049 A 
ATOM     46  H   UNL A   1      42.199  26.392  25.717  1.00  0.00     0.167 HD
ATOM     47  C   UNL A   1      48.836  26.326  26.035  1.00  0.00     0.037 A 
ATOM     48  C   UNL A   1      42.372  28.205  27.915  1.00  0.00     0.037 A 
ATOM     49  C   UNL A   1      48.383  27.411  26.942  1.00  0.00     0.049 A 
ATOM     50  C   UNL A   1      43.343  28.216  29.124  1.00  0.00     0.074 A 
ATOM     51  C   UNL A   1      48.240  28.793  26.829  1.00  0.00     0.029 A 
ATOM     52  N   UNL A   1      47.755  27.103  28.138  1.00  0.00    -0.354 N 
ATOM     53  N   UNL A   1      44.611  28.531  29.012  1.00  0.00    -0.248 NA
ATOM     54  C   UNL A   1      43.047  27.805  30.504  1.00  0.00     0.031 C 
ATOM     55  C   UNL A   1      47.594  29.297  27.997  1.00  0.00     0.029 A 
ATOM     56  C   UNL A   1      47.315  28.224  28.817  1.00  0.00     0.049 A 
ATOM     57  H   UNL A   1      47.635  26.184  28.469  1.00  0.00     0.167 HD
ATOM     58  C   UNL A   1      45.317  28.134  30.125  1.00  0.00     0.074 A 
ATOM     59  C   UNL A   1      44.274  27.792  31.076  1.00  0.00     0.031 C 
ATOM     60  C   UNL A   1      46.689  28.038  30.123  1.00  0.00     0.037 A 
BRANCH  47  61
ATOM     61  C   UNL A   1      50.103  26.467  25.168  1.00  0.00     0.058 A 
ATOM     62  C   UNL A   1      50.107  27.150  23.925  1.00  0.00     0.135 A 
ATOM     63  C   UNL A   1      51.393  26.064  25.585  1.00  0.00     0.135 A 
ATOM     64  F   UNL A   1      49.012  27.753  23.445  1.00  0.00    -0.206 F 
ATOM     65  C   UNL A   1      51.251  27.316  23.131  1.00  0.00     0.059 A 
ATOM     66  C   UNL A   1      52.542  26.177  24.792  1.00  0.00     0.059 A 
ATOM     67  F   UNL A   1      51.617  25.616  26.828  1.00  0.00    -0.206 F 
ATOM     68  C   UNL A   1      52.465  26.808  23.562  1.00  0.00     0.060 A 
BRANCH  68  69
ATOM     69  S   UNL A   1      53.936  27.049  22.547  1.00  0.00     0.124 S 
ATOM     70  O   UNL A   1      53.625  26.263  21.356  1.00  0.00    -0.237 OA
ATOM     71  O   UNL A   1      53.950  28.496  22.365  1.00  0.00    -0.237 OA
ATOM     72  O   UNL A   1      55.014  26.514  23.377  1.00  0.00    -0.744 OA
ENDBRANCH  68  69
ENDBRANCH  47  61
BRANCH  48  73
ATOM     73  C   UNL A   1      40.993  27.525  27.720  1.00  0.00     0.058 A 
ATOM     74  C   UNL A   1      40.465  26.744  28.765  1.00  0.00     0.135 A 
ATOM     75  C   UNL A   1      40.024  28.352  27.227  1.00  0.00     0.135 A 
ATOM     76  F   UNL A   1      41.152  25.666  29.182  1.00  0.00    -0.206 F 
ATOM     77  C   UNL A   1      39.249  27.079  29.495  1.00  0.00     0.059 A 
ATOM     78  C   UNL A   1      39.035  28.830  28.153  1.00  0.00     0.059 A 
ATOM     79  F   UNL A   1      40.307  29.049  26.121  1.00  0.00    -0.206 F 
ATOM     80  C   UNL A   1      38.611  28.324  29.350  1.00  0.00     0.060 A 
BRANCH  80  81
ATOM     81  S   UNL A   1      37.124  29.601  30.348  1.00  0.00     0.124 S 
ATOM     82  O   UNL A   1      37.630  30.906  30.660  1.00  0.00    -0.237 OA
ATOM     83  O   UNL A   1      36.034  29.605  29.378  1.00  0.00    -0.237 OA
ATOM     84  O   UNL A   1      36.802  29.073  31.657  1.00  0.00    -0.744 OA
ENDBRANCH  80  81
ENDBRANCH  48  73
BRANCH  60  85
ATOM     85  C   UNL A   1      47.613  27.702  31.293  1.00  0.00     0.058 A 
ATOM     86  C   UNL A   1      47.640  26.448  31.922  1.00  0.00     0.135 A 
ATOM     87  C   UNL A   1      48.388  28.704  31.945  1.00  0.00     0.135 A 
ATOM     88  F   UNL A   1      46.878  25.439  31.472  1.00  0.00    -0.206 F 
ATOM     89  C   UNL A   1      48.420  26.193  33.064  1.00  0.00     0.059 A 
ATOM     90  C   UNL A   1      49.139  28.485  33.096  1.00  0.00     0.059 A 
ATOM     91  F   UNL A   1      48.469  29.960  31.491  1.00  0.00    -0.206 F 
ATOM     92  C   UNL A   1      49.176  27.216  33.637  1.00  0.00     0.060 A 
BRANCH  92  93
ATOM     93  S   UNL A   1      50.198  26.893  35.087  1.00  0.00     0.124 S 
ATOM     94  O   UNL A   1      50.562  25.490  34.912  1.00  0.00    -0.237 OA
ATOM     95  O   UNL A   1      51.279  27.856  34.901  1.00  0.00    -0.237 OA
ATOM     96  O   UNL A   1      49.305  27.167  36.210  1.00  0.00    -0.744 OA
ENDBRANCH  92  93
ENDBRANCH  60  85
ENDBRANCH  34  35
ENDBRANCH  27  29
ENDBRANCH  26  27
ENDBRANCH  25  26
ENDBRANCH   1  25
TORSDOF 19
ENDMDL
MODEL 2
REMARK VINA RESULT:     -12.9      6.774     11.704
REMARK SMILES Cc1ccc(NC(=O)N2CCCC[C@@H]2C(=O)OCCOCCOC(=O)c2ccc(-c3c4nc(c(-c5c(F)cc(S(=O)(=O)[O-])cc5F)c5ccc([nH]5)c(-c5c(F)cc(S(=O)(=O)[O-])cc5F)c5nc(c(-c6c(F)cc(S(=O)(=O)[O-])cc6F)c6ccc3[nH]6)C=C5)C=C4)cc2)cc1
REMARK SMILES IDX 21 1 20 2 19 3 18 4 17 5 15 6 16 7 14 8 9 9 10 10 11 11
REMARK SMILES IDX 13 12 12 13 7 14 6 15 8 17 5 18 1 19 2 20 3 21 93 22 4 23
REMARK SMILES IDX 92 24 22 25 23 26 24 27 25 28 26 29 27 30 91 31 28 32 90 33
REMARK SMILES IDX 29 34 30 35 31 36 84 37 32 38 89 39 83 40 85 41 33 42 88 43
REMARK SMILES IDX 82 44 81 45 34 47 68 48 47 49 67 50 48 51 51 52 66 53 86 54
REMARK SMILES IDX 49 55 50 56 65 58 87 59 52 60 35 61 36 62 45 63 37 64 38 65
REMARK SMILES IDX 44 66 46 67 39 68 40 69 41 70 42 71 43 72 69 73 70 74 79 75
REMARK SMILES IDX 71 76 72 77 78 78 80 79 73 80 74 81 75 82 76 83 77 84 53 85
REMARK SMILES IDX 54 86 63 87 55 88 56 89 62 90 64 91 57 92 58 93 59 94 60 95
REMARK SMILES IDX 61 96
REMARK H PARENT 6 16 85 46 51 57
REMARK Flexibility Score: inf
ROOT
ATOM      1  C   UNL A   1      33.246  28.062  24.207  1.00  0.00     0.202 C 
ENDROOT
BRANCH   1   2
ATOM      2  O   UNL A   1      33.274  28.080  22.728  1.00  0.00    -0.374 OA
BRANCH   2   3
ATOM      3  C   UNL A   1      32.767  27.039  21.823  1.00  0.00     0.202 C 
BRANCH   3   4
ATOM      4  C   UNL A   1      33.344  25.598  21.703  1.00  0.00     0.261 C 
BRANCH   4   5
ATOM      5  O   UNL A   1      33.754  24.928  22.881  1.00  0.00    -0.462 OA
BRANCH   5   6
ATOM      6  C   UNL A   1      33.803  23.593  22.725  1.00  0.00     0.329 C 
ATOM      7  O   UNL A   1      33.534  22.985  21.694  1.00  0.00    -0.250 OA
BRANCH   6   8
ATOM      8  C   UNL A   1      34.550  22.927  23.856  1.00  0.00     0.196 C 
ATOM      9  N   UNL A   1      33.954  22.353  25.088  1.00  0.00    -0.311 N 
ATOM     10  C   UNL A   1      34.946  22.019  26.122  1.00  0.00     0.122 C 
ATOM     11  C   UNL A   1      36.015  23.074  26.395  1.00  0.00     0.022 C 
ATOM     12  C   UNL A   1      35.517  24.091  24.231  1.00  0.00     0.037 C 
ATOM     13  C   UNL A   1      36.631  23.607  25.119  1.00  0.00     0.005 C 
BRANCH   9  14
ATOM     14  C   UNL A   1      32.739  21.712  25.268  1.00  0.00     0.322 C 
ATOM     15  N   UNL A   1      31.583  22.345  25.552  1.00  0.00    -0.308 N 
ATOM     16  H   UNL A   1      31.063  21.875  26.243  1.00  0.00     0.171 HD
ATOM     17  O   UNL A   1      32.684  20.476  25.314  1.00  0.00    -0.248 OA
BRANCH  15  18
ATOM     18  C   UNL A   1      30.941  23.499  25.106  1.00  0.00     0.042 A 
ATOM     19  C   UNL A   1      29.725  27.414  23.884  1.00  0.00     0.044 C 
ATOM     20  C   UNL A   1      29.973  26.005  24.325  1.00  0.00    -0.051 A 
ATOM     21  C   UNL A   1      30.154  24.983  23.384  1.00  0.00     0.005 A 
ATOM     22  C   UNL A   1      30.155  25.719  25.677  1.00  0.00     0.005 A 
ATOM     23  C   UNL A   1      30.619  23.723  23.775  1.00  0.00     0.026 A 
ATOM     24  C   UNL A   1      30.606  24.460  26.064  1.00  0.00     0.026 A 
ENDBRANCH  15  18
ENDBRANCH   9  14
ENDBRANCH   6   8
ENDBRANCH   5   6
ENDBRANCH   4   5
ENDBRANCH   3   4
ENDBRANCH   2   3
ENDBRANCH   1   2
BRANCH   1  25
ATOM     25  C   UNL A   1      33.063  29.340  25.566  1.00  0.00     0.261 C 
BRANCH  25  26
ATOM     26  O   UNL A   1      33.965  29.862  27.027  1.00  0.00    -0.460 OA
BRANCH  26  27
ATOM     27  C   UNL A   1      34.988  30.469  27.976  1.00  0.00     0.338 C 
ATOM     28  O   UNL A   1      35.768  29.617  28.447  1.00  0.00    -0.246 OA
BRANCH  27  29
ATOM     29  C   UNL A   1      35.244  32.048  28.781  1.00  0.00     0.060 A 
ATOM     30  C   UNL A   1      36.524  32.646  28.727  1.00  0.00     0.016 A 
ATOM     31  C   UNL A   1      34.527  32.674  29.835  1.00  0.00     0.016 A 
ATOM     32  C   UNL A   1      37.173  33.182  29.955  1.00  0.00     0.010 A 
ATOM     33  C   UNL A   1      35.164  33.114  31.077  1.00  0.00     0.010 A 
ATOM     34  C   UNL A   1      36.547  33.122  31.229  1.00  0.00    -0.014 A 
BRANCH  34  35
ATOM     35  C   UNL A   1      37.271  32.702  32.558  1.00  0.00     0.031 A 
ATOM     36  C   UNL A   1      37.341  33.552  33.780  1.00  0.00     0.074 A 
ATOM     37  C   UNL A   1      37.813  31.485  32.929  1.00  0.00     0.049 A 
ATOM     38  N   UNL A   1      38.451  33.936  34.344  1.00  0.00    -0.248 NA
ATOM     39  C   UNL A   1      36.168  33.660  34.643  1.00  0.00     0.031 C 
ATOM     40  C   UNL A   1      38.671  31.120  34.075  1.00  0.00     0.029 A 
ATOM     41  N   UNL A   1      37.860  30.268  32.289  1.00  0.00    -0.354 N 
ATOM     42  C   UNL A   1      38.188  34.053  35.709  1.00  0.00     0.074 A 
ATOM     43  C   UNL A   1      36.735  33.977  35.815  1.00  0.00     0.031 C 
ATOM     44  C   UNL A   1      39.450  30.064  33.768  1.00  0.00     0.029 A 
ATOM     45  C   UNL A   1      39.110  29.653  32.440  1.00  0.00     0.049 A 
ATOM     46  H   UNL A   1      37.109  29.877  31.787  1.00  0.00     0.167 HD
ATOM     47  C   UNL A   1      39.144  33.876  36.688  1.00  0.00     0.037 A 
ATOM     48  C   UNL A   1      39.894  29.436  31.342  1.00  0.00     0.037 A 
ATOM     49  C   UNL A   1      40.348  33.144  36.217  1.00  0.00     0.049 A 
ATOM     50  C   UNL A   1      41.087  30.423  31.435  1.00  0.00     0.074 A 
ATOM     51  C   UNL A   1      41.036  32.007  36.638  1.00  0.00     0.029 A 
ATOM     52  N   UNL A   1      40.901  33.435  34.980  1.00  0.00    -0.354 N 
ATOM     53  N   UNL A   1      41.537  30.885  32.577  1.00  0.00    -0.248 NA
ATOM     54  C   UNL A   1      41.811  31.049  30.319  1.00  0.00     0.031 C 
ATOM     55  C   UNL A   1      42.042  31.683  35.679  1.00  0.00     0.029 A 
ATOM     56  C   UNL A   1      41.955  32.603  34.655  1.00  0.00     0.049 A 
ATOM     57  H   UNL A   1      40.577  34.158  34.396  1.00  0.00     0.167 HD
ATOM     58  C   UNL A   1      42.344  31.983  32.379  1.00  0.00     0.074 A 
ATOM     59  C   UNL A   1      42.576  31.972  30.946  1.00  0.00     0.031 C 
ATOM     60  C   UNL A   1      42.664  32.846  33.401  1.00  0.00     0.037 A 
BRANCH  47  61
ATOM     61  C   UNL A   1      38.919  34.194  38.180  1.00  0.00     0.058 A 
ATOM     62  C   UNL A   1      38.352  33.259  39.084  1.00  0.00     0.135 A 
ATOM     63  C   UNL A   1      39.379  35.371  38.813  1.00  0.00     0.135 A 
ATOM     64  F   UNL A   1      38.013  32.021  38.702  1.00  0.00    -0.206 F 
ATOM     65  C   UNL A   1      38.162  33.513  40.450  1.00  0.00     0.059 A 
ATOM     66  C   UNL A   1      39.160  35.669  40.164  1.00  0.00     0.059 A 
ATOM     67  F   UNL A   1      40.145  36.260  38.166  1.00  0.00    -0.206 F 
ATOM     68  C   UNL A   1      38.551  34.732  40.982  1.00  0.00     0.060 A 
BRANCH  68  69
ATOM     69  S   UNL A   1      38.327  35.040  42.744  1.00  0.00     0.124 S 
ATOM     70  O   UNL A   1      39.036  33.917  43.349  1.00  0.00    -0.237 OA
ATOM     71  O   UNL A   1      38.952  36.348  42.909  1.00  0.00    -0.237 OA
ATOM     72  O   UNL A   1      36.875  35.017  42.912  1.00  0.00    -0.744 OA
ENDBRANCH  68  69
ENDBRANCH  47  61
BRANCH  48  73
ATOM     73  C   UNL A   1      38.965  29.068  30.158  1.00  0.00     0.058 A 
ATOM     74  C   UNL A   1      39.173  29.686  28.911  1.00  0.00     0.135 A 
ATOM     75  C   UNL A   1      38.784  27.725  29.983  1.00  0.00     0.135 A 
ATOM     76  F   UNL A   1      39.072  31.024  28.823  1.00  0.00    -0.206 F 
ATOM     77  C   UNL A   1      39.582  28.971  27.708  1.00  0.00     0.059 A 
ATOM     78  C   UNL A   1      39.490  27.104  28.897  1.00  0.00     0.059 A 
ATOM     79  F   UNL A   1      38.411  27.005  31.047  1.00  0.00    -0.206 F 
ATOM     80  C   UNL A   1      40.002  27.630  27.744  1.00  0.00     0.060 A 
BRANCH  80  81
ATOM     81  S   UNL A   1      41.080  26.150  26.525  1.00  0.00     0.124 S 
ATOM     82  O   UNL A   1      41.443  26.652  25.232  1.00  0.00    -0.237 OA
ATOM     83  O   UNL A   1      42.219  25.831  27.378  1.00  0.00    -0.237 OA
ATOM     84  O   UNL A   1      40.210  25.041  26.193  1.00  0.00    -0.744 OA
ENDBRANCH  80  81
ENDBRANCH  48  73
BRANCH  60  85
ATOM     85  C   UNL A   1      43.610  34.045  33.362  1.00  0.00     0.058 A 
ATOM     86  C   UNL A   1      44.741  34.166  34.184  1.00  0.00     0.135 A 
ATOM     87  C   UNL A   1      43.304  35.215  32.607  1.00  0.00     0.135 A 
ATOM     88  F   UNL A   1      45.087  33.176  35.022  1.00  0.00    -0.206 F 
ATOM     89  C   UNL A   1      45.537  35.325  34.208  1.00  0.00     0.059 A 
ATOM     90  C   UNL A   1      44.056  36.385  32.641  1.00  0.00     0.059 A 
ATOM     91  F   UNL A   1      42.256  35.282  31.779  1.00  0.00    -0.206 F 
ATOM     92  C   UNL A   1      45.192  36.426  33.423  1.00  0.00     0.060 A 
BRANCH  92  93
ATOM     93  S   UNL A   1      46.220  37.908  33.428  1.00  0.00     0.124 S 
ATOM     94  O   UNL A   1      47.525  37.389  33.029  1.00  0.00    -0.237 OA
ATOM     95  O   UNL A   1      45.538  38.737  32.439  1.00  0.00    -0.237 OA
ATOM     96  O   UNL A   1      46.136  38.384  34.806  1.00  0.00    -0.744 OA
ENDBRANCH  92  93
ENDBRANCH  60  85
ENDBRANCH  34  35
ENDBRANCH  27  29
ENDBRANCH  26  27
ENDBRANCH  25  26
ENDBRANCH   1  25
TORSDOF 19
ENDMDL
MODEL 3
REMARK VINA RESULT:     -12.8      6.727     12.141
REMARK SMILES Cc1ccc(NC(=O)N2CCCC[C@@H]2C(=O)OCCOCCOC(=O)c2ccc(-c3c4nc(c(-c5c(F)cc(S(=O)(=O)[O-])cc5F)c5ccc([nH]5)c(-c5c(F)cc(S(=O)(=O)[O-])cc5F)c5nc(c(-c6c(F)cc(S(=O)(=O)[O-])cc6F)c6ccc3[nH]6)C=C5)C=C4)cc2)cc1
REMARK SMILES IDX 21 1 20 2 19 3 18 4 17 5 15 6 16 7 14 8 9 9 10 10 11 11
REMARK SMILES IDX 13 12 12 13 7 14 6 15 8 17 5 18 1 19 2 20 3 21 93 22 4 23
REMARK SMILES IDX 92 24 22 25 23 26 24 27 25 28 26 29 27 30 91 31 28 32 90 33
REMARK SMILES IDX 29 34 30 35 31 36 84 37 32 38 89 39 83 40 85 41 33 42 88 43
REMARK SMILES IDX 82 44 81 45 34 47 68 48 47 49 67 50 48 51 51 52 66 53 86 54
REMARK SMILES IDX 49 55 50 56 65 58 87 59 52 60 35 61 36 62 45 63 37 64 38 65
REMARK SMILES IDX 44 66 46 67 39 68 40 69 41 70 42 71 43 72 69 73 70 74 79 75
REMARK SMILES IDX 71 76 72 77 78 78 80 79 73 80 74 81 75 82 76 83 77 84 53 85
REMARK SMILES IDX 54 86 63 87 55 88 56 89 62 90 64 91 57 92 58 93 59 94 60 95
REMARK SMILES IDX 61 96
REMARK H PARENT 6 16 85 46 51 57
REMARK Flexibility Score: inf
ROOT
ATOM      1  C   UNL A   1      32.421  27.939  24.438  1.00  0.00     0.202 C 
ENDROOT
BRANCH   1   2
ATOM      2  O   UNL A   1      32.030  27.943  23.011  1.00  0.00    -0.374 OA
BRANCH   2   3
ATOM      3  C   UNL A   1      31.491  26.815  22.240  1.00  0.00     0.202 C 
BRANCH   3   4
ATOM      4  C   UNL A   1      32.222  25.462  22.000  1.00  0.00     0.261 C 
BRANCH   4   5
ATOM      5  O   UNL A   1      32.774  24.779  23.111  1.00  0.00    -0.462 OA
BRANCH   5   6
ATOM      6  C   UNL A   1      33.414  23.650  22.758  1.00  0.00     0.329 C 
ATOM      7  O   UNL A   1      33.663  23.302  21.609  1.00  0.00    -0.250 OA
BRANCH   6   8
ATOM      8  C   UNL A   1      34.099  23.006  23.939  1.00  0.00     0.196 C 
ATOM      9  N   UNL A   1      33.437  22.307  25.068  1.00  0.00    -0.311 N 
ATOM     10  C   UNL A   1      34.338  22.022  26.196  1.00  0.00     0.122 C 
ATOM     11  C   UNL A   1      35.248  23.167  26.636  1.00  0.00     0.022 C 
ATOM     12  C   UNL A   1      34.884  24.242  24.473  1.00  0.00     0.037 C 
ATOM     13  C   UNL A   1      35.940  23.830  25.463  1.00  0.00     0.005 C 
BRANCH   9  14
ATOM     14  C   UNL A   1      32.288  21.533  25.079  1.00  0.00     0.322 C 
ATOM     15  N   UNL A   1      32.241  20.239  24.700  1.00  0.00    -0.308 N 
ATOM     16  H   UNL A   1      31.449  20.042  24.150  1.00  0.00     0.171 HD
ATOM     17  O   UNL A   1      31.186  22.049  25.313  1.00  0.00    -0.248 OA
BRANCH  15  18
ATOM     18  C   UNL A   1      33.038  19.113  24.896  1.00  0.00     0.042 A 
ATOM     19  C   UNL A   1      34.945  15.284  24.952  1.00  0.00     0.044 C 
ATOM     20  C   UNL A   1      34.368  16.660  25.087  1.00  0.00    -0.051 A 
ATOM     21  C   UNL A   1      34.972  17.754  24.454  1.00  0.00     0.005 A 
ATOM     22  C   UNL A   1      33.149  16.843  25.738  1.00  0.00     0.005 A 
ATOM     23  C   UNL A   1      34.317  18.986  24.376  1.00  0.00     0.026 A 
ATOM     24  C   UNL A   1      32.506  18.075  25.669  1.00  0.00     0.026 A 
ENDBRANCH  15  18
ENDBRANCH   9  14
ENDBRANCH   6   8
ENDBRANCH   5   6
ENDBRANCH   4   5
ENDBRANCH   3   4
ENDBRANCH   2   3
ENDBRANCH   1   2
BRANCH   1  25
ATOM     25  C   UNL A   1      32.522  29.211  25.811  1.00  0.00     0.261 C 
BRANCH  25  26
ATOM     26  O   UNL A   1      33.722  29.757  27.028  1.00  0.00    -0.460 OA
BRANCH  26  27
ATOM     27  C   UNL A   1      34.909  30.408  27.723  1.00  0.00     0.338 C 
ATOM     28  O   UNL A   1      35.832  29.600  27.952  1.00  0.00    -0.246 OA
BRANCH  27  29
ATOM     29  C   UNL A   1      35.260  31.979  28.508  1.00  0.00     0.060 A 
ATOM     30  C   UNL A   1      36.579  32.485  28.470  1.00  0.00     0.016 A 
ATOM     31  C   UNL A   1      34.570  32.670  29.539  1.00  0.00     0.016 A 
ATOM     32  C   UNL A   1      37.241  32.995  29.702  1.00  0.00     0.010 A 
ATOM     33  C   UNL A   1      35.213  33.086  30.786  1.00  0.00     0.010 A 
ATOM     34  C   UNL A   1      36.590  33.001  30.964  1.00  0.00    -0.014 A 
BRANCH  34  35
ATOM     35  C   UNL A   1      37.259  32.553  32.313  1.00  0.00     0.031 A 
ATOM     36  C   UNL A   1      37.285  33.382  33.551  1.00  0.00     0.074 A 
ATOM     37  C   UNL A   1      37.779  31.326  32.684  1.00  0.00     0.049 A 
ATOM     38  N   UNL A   1      38.374  33.750  34.165  1.00  0.00    -0.248 NA
ATOM     39  C   UNL A   1      36.079  33.484  34.369  1.00  0.00     0.031 C 
ATOM     40  C   UNL A   1      38.588  30.937  33.857  1.00  0.00     0.029 A 
ATOM     41  N   UNL A   1      37.843  30.120  32.026  1.00  0.00    -0.354 N 
ATOM     42  C   UNL A   1      38.058  33.845  35.520  1.00  0.00     0.074 A 
ATOM     43  C   UNL A   1      36.602  33.778  35.568  1.00  0.00     0.031 C 
ATOM     44  C   UNL A   1      39.372  29.881  33.563  1.00  0.00     0.029 A 
ATOM     45  C   UNL A   1      39.083  29.495  32.216  1.00  0.00     0.049 A 
ATOM     46  H   UNL A   1      37.110  29.743  31.489  1.00  0.00     0.167 HD
ATOM     47  C   UNL A   1      38.975  33.646  36.533  1.00  0.00     0.037 A 
ATOM     48  C   UNL A   1      39.908  29.291  31.146  1.00  0.00     0.037 A 
ATOM     49  C   UNL A   1      40.191  32.913  36.097  1.00  0.00     0.049 A 
ATOM     50  C   UNL A   1      41.102  30.268  31.302  1.00  0.00     0.074 A 
ATOM     51  C   UNL A   1      40.855  31.766  36.526  1.00  0.00     0.029 A 
ATOM     52  N   UNL A   1      40.794  33.222  34.888  1.00  0.00    -0.354 N 
ATOM     53  N   UNL A   1      41.510  30.708  32.469  1.00  0.00    -0.248 NA
ATOM     54  C   UNL A   1      41.873  30.907  30.227  1.00  0.00     0.031 C 
ATOM     55  C   UNL A   1      41.896  31.451  35.602  1.00  0.00     0.029 A 
ATOM     56  C   UNL A   1      41.856  32.388  34.591  1.00  0.00     0.049 A 
ATOM     57  H   UNL A   1      40.498  33.956  34.304  1.00  0.00     0.167 HD
ATOM     58  C   UNL A   1      42.330  31.803  32.322  1.00  0.00     0.074 A 
ATOM     59  C   UNL A   1      42.618  31.815  30.899  1.00  0.00     0.031 C 
ATOM     60  C   UNL A   1      42.615  32.647  33.370  1.00  0.00     0.037 A 
BRANCH  47  61
ATOM     61  C   UNL A   1      38.692  33.940  38.021  1.00  0.00     0.058 A 
ATOM     62  C   UNL A   1      37.901  33.087  38.832  1.00  0.00     0.135 A 
ATOM     63  C   UNL A   1      39.302  34.990  38.745  1.00  0.00     0.135 A 
ATOM     64  F   UNL A   1      37.381  31.946  38.363  1.00  0.00    -0.206 F 
ATOM     65  C   UNL A   1      37.653  33.317  40.193  1.00  0.00     0.059 A 
ATOM     66  C   UNL A   1      39.033  35.269  40.092  1.00  0.00     0.059 A 
ATOM     67  F   UNL A   1      40.260  35.751  38.201  1.00  0.00    -0.206 F 
ATOM     68  C   UNL A   1      38.206  34.425  40.814  1.00  0.00     0.060 A 
BRANCH  68  69
ATOM     69  S   UNL A   1      37.903  34.699  42.570  1.00  0.00     0.124 S 
ATOM     70  O   UNL A   1      36.452  34.566  42.659  1.00  0.00    -0.237 OA
ATOM     71  O   UNL A   1      38.677  33.627  43.186  1.00  0.00    -0.237 OA
ATOM     72  O   UNL A   1      38.416  36.048  42.797  1.00  0.00    -0.744 OA
ENDBRANCH  68  69
ENDBRANCH  47  61
BRANCH  48  73
ATOM     73  C   UNL A   1      39.023  28.949  29.921  1.00  0.00     0.058 A 
ATOM     74  C   UNL A   1      39.250  29.625  28.707  1.00  0.00     0.135 A 
ATOM     75  C   UNL A   1      38.886  27.611  29.683  1.00  0.00     0.135 A 
ATOM     76  F   UNL A   1      39.113  30.962  28.673  1.00  0.00    -0.206 F 
ATOM     77  C   UNL A   1      39.714  28.974  27.489  1.00  0.00     0.059 A 
ATOM     78  C   UNL A   1      39.640  27.056  28.595  1.00  0.00     0.059 A 
ATOM     79  F   UNL A   1      38.503  26.835  30.705  1.00  0.00    -0.206 F 
ATOM     80  C   UNL A   1      40.171  27.645  27.481  1.00  0.00     0.060 A 
BRANCH  80  81
ATOM     81  S   UNL A   1      41.324  26.248  26.233  1.00  0.00     0.124 S 
ATOM     82  O   UNL A   1      40.596  25.053  25.916  1.00  0.00    -0.237 OA
ATOM     83  O   UNL A   1      41.641  27.074  25.073  1.00  0.00    -0.237 OA
ATOM     84  O   UNL A   1      42.459  25.732  26.969  1.00  0.00    -0.744 OA
ENDBRANCH  80  81
ENDBRANCH  48  73
BRANCH  60  85
ATOM     85  C   UNL A   1      43.569  33.841  33.388  1.00  0.00     0.058 A 
ATOM     86  C   UNL A   1      44.774  33.857  34.108  1.00  0.00     0.135 A 
ATOM     87  C   UNL A   1      43.209  35.095  32.815  1.00  0.00     0.135 A 
ATOM     88  F   UNL A   1      45.184  32.771  34.781  1.00  0.00    -0.206 F 
ATOM     89  C   UNL A   1      45.584  35.003  34.197  1.00  0.00     0.059 A 
ATOM     90  C   UNL A   1      43.976  36.251  32.922  1.00  0.00     0.059 A 
ATOM     91  F   UNL A   1      42.088  35.266  32.105  1.00  0.00    -0.206 F 
ATOM     92  C   UNL A   1      45.181  36.193  33.590  1.00  0.00     0.060 A 
BRANCH  92  93
ATOM     93  S   UNL A   1      46.224  37.661  33.679  1.00  0.00     0.124 S 
ATOM     94  O   UNL A   1      47.486  37.188  33.117  1.00  0.00    -0.237 OA
ATOM     95  O   UNL A   1      45.475  38.601  32.851  1.00  0.00    -0.237 OA
ATOM     96  O   UNL A   1      46.260  37.976  35.105  1.00  0.00    -0.744 OA
ENDBRANCH  92  93
ENDBRANCH  60  85
ENDBRANCH  34  35
ENDBRANCH  27  29
ENDBRANCH  26  27
ENDBRANCH  25  26
ENDBRANCH   1  25
TORSDOF 19
ENDMDL
