MODEL 1
REMARK VINA RESULT:     -10.4      0.000      0.000
REMARK SMILES CCc1cc(Oc2cncc(C(=O)OCCOCCOC(=O)c3ccc(-c4c5nc(c(-c6c(F)cc(S(=O)(=O)[O-])cc6F)c6ccc([nH]6)c(-c6c(F)cc(S(=O)(=O)[O-])cc6F)c6nc(c(-c7c(F)cc(S(=O)(=O)[O-])cc7F)c7ccc4[nH]7)C=C6)C=C5)cc3)n2)ccc1Cl
REMARK SMILES IDX 17 1 16 2 15 3 14 4 12 5 13 6 11 7 7 8 8 9 89 10 9 11 10 12
REMARK SMILES IDX 6 13 5 14 3 15 4 16 92 17 91 18 93 19 90 20 2 21 1 22 18 23
REMARK SMILES IDX 19 24 20 25 21 26 22 27 23 28 24 29 88 30 25 31 87 32 26 33
REMARK SMILES IDX 27 34 28 35 81 36 29 37 86 38 80 39 82 40 30 41 85 42 79 43
REMARK SMILES IDX 78 44 31 46 65 47 44 48 64 49 45 50 48 51 63 52 83 53 46 54
REMARK SMILES IDX 47 55 62 57 84 58 49 59 32 60 33 61 42 62 34 63 35 64 41 65
REMARK SMILES IDX 43 66 36 67 37 68 38 69 39 70 40 71 66 72 67 73 76 74 68 75
REMARK SMILES IDX 69 76 75 77 77 78 70 79 71 80 72 81 73 82 74 83 50 84 51 85
REMARK SMILES IDX 60 86 52 87 53 88 59 89 61 90 54 91 55 92 56 93 57 94 58 95
REMARK H PARENT 82 45 48 56
REMARK Flexibility Score: inf
ROOT
ATOM      1  O   UNL A   1      43.730  21.213  24.761  1.00  0.00    -0.374 OA
ENDROOT
BRANCH   1   2
ATOM      2  C   UNL A   1      43.830  19.962  25.441  1.00  0.00     0.202 C 
BRANCH   2   3
ATOM      3  C   UNL A   1      42.512  19.286  25.837  1.00  0.00     0.261 C 
BRANCH   3   4
ATOM      4  O   UNL A   1      41.381  20.130  25.576  1.00  0.00    -0.458 OA
BRANCH   4   5
ATOM      5  C   UNL A   1      40.745  20.601  26.679  1.00  0.00     0.358 C 
ATOM      6  O   UNL A   1      41.074  20.416  27.842  1.00  0.00    -0.244 OA
BRANCH   5   7
ATOM      7  C   UNL A   1      39.652  21.531  26.308  1.00  0.00     0.170 A 
ATOM      8  C   UNL A   1      37.755  22.082  25.135  1.00  0.00     0.238 A 
ATOM      9  C   UNL A   1      37.753  23.329  25.757  1.00  0.00     0.179 A 
ATOM     10  N   UNL A   1      38.701  21.153  25.411  1.00  0.00    -0.203 NA
ATOM     11  N   UNL A   1      38.730  23.735  26.607  1.00  0.00    -0.257 NA
ATOM     12  C   UNL A   1      39.677  22.800  26.870  1.00  0.00     0.147 A 
BRANCH   8  13
ATOM     13  O   UNL A   1      36.753  21.657  24.295  1.00  0.00    -0.437 OA
BRANCH  13  14
ATOM     14  C   UNL A   1      35.430  21.787  24.657  1.00  0.00     0.129 A 
ATOM     15  C   UNL A   1      33.378  23.077  24.285  1.00  0.00    -0.026 A 
ATOM     16  C   UNL A   1      34.727  22.799  23.989  1.00  0.00     0.052 A 
ATOM     17  C   UNL A   1      32.737  22.296  25.257  1.00  0.00     0.044 A 
ATOM     18  C   UNL A   1      33.441  21.300  25.942  1.00  0.00     0.024 A 
ATOM     19  Cl  UNL A   1      31.074  22.521  25.670  1.00  0.00    -0.084 Cl
ATOM     20  C   UNL A   1      34.790  21.064  25.663  1.00  0.00     0.049 A 
BRANCH  15  21
ATOM     21  C   UNL A   1      32.700  24.237  23.592  1.00  0.00     0.034 C 
ATOM     22  C   UNL A   1      32.910  24.196  22.083  1.00  0.00     0.009 C 
ENDBRANCH  15  21
ENDBRANCH  13  14
ENDBRANCH   8  13
ENDBRANCH   5   7
ENDBRANCH   4   5
ENDBRANCH   3   4
ENDBRANCH   2   3
ENDBRANCH   1   2
BRANCH   1  23
ATOM     23  C   UNL A   1      43.956  22.394  25.534  1.00  0.00     0.202 C 
BRANCH  23  24
ATOM     24  C   UNL A   1      43.102  23.626  25.202  1.00  0.00     0.261 C 
BRANCH  24  25
ATOM     25  O   UNL A   1      42.902  24.480  26.341  1.00  0.00    -0.460 OA
BRANCH  25  26
ATOM     26  C   UNL A   1      42.295  25.661  26.074  1.00  0.00     0.338 C 
ATOM     27  O   UNL A   1      41.801  26.012  25.011  1.00  0.00    -0.246 OA
BRANCH  26  28
ATOM     28  C   UNL A   1      42.131  26.427  27.322  1.00  0.00     0.060 A 
ATOM     29  C   UNL A   1      41.134  26.013  28.215  1.00  0.00     0.016 A 
ATOM     30  C   UNL A   1      42.910  27.552  27.600  1.00  0.00     0.016 A 
ATOM     31  C   UNL A   1      40.901  26.735  29.385  1.00  0.00     0.010 A 
ATOM     32  C   UNL A   1      42.666  28.280  28.770  1.00  0.00     0.010 A 
ATOM     33  C   UNL A   1      41.651  27.886  29.660  1.00  0.00    -0.014 A 
BRANCH  33  34
ATOM     34  C   UNL A   1      41.330  28.715  30.848  1.00  0.00     0.031 A 
ATOM     35  C   UNL A   1      40.212  29.718  30.774  1.00  0.00     0.074 A 
ATOM     36  C   UNL A   1      42.035  28.570  31.985  1.00  0.00     0.049 A 
ATOM     37  N   UNL A   1      39.819  30.586  31.668  1.00  0.00    -0.248 NA
ATOM     38  C   UNL A   1      39.434  29.744  29.525  1.00  0.00     0.031 C 
ATOM     39  C   UNL A   1      43.123  27.612  32.185  1.00  0.00     0.029 A 
ATOM     40  N   UNL A   1      41.953  29.238  33.181  1.00  0.00    -0.354 N 
ATOM     41  C   UNL A   1      38.750  31.264  31.095  1.00  0.00     0.074 A 
ATOM     42  C   UNL A   1      38.575  30.726  29.762  1.00  0.00     0.031 C 
ATOM     43  C   UNL A   1      43.621  27.769  33.423  1.00  0.00     0.029 A 
ATOM     44  C   UNL A   1      42.915  28.862  34.088  1.00  0.00     0.049 A 
ATOM     45  H   UNL A   1      41.271  29.922  33.371  1.00  0.00     0.167 HD
ATOM     46  C   UNL A   1      37.979  32.238  31.636  1.00  0.00     0.037 A 
ATOM     47  C   UNL A   1      43.215  29.365  35.303  1.00  0.00     0.037 A 
ATOM     48  C   UNL A   1      38.165  32.772  32.961  1.00  0.00     0.049 A 
ATOM     49  C   UNL A   1      42.395  30.504  35.850  1.00  0.00     0.074 A 
ATOM     50  C   UNL A   1      37.426  33.750  33.605  1.00  0.00     0.029 A 
ATOM     51  N   UNL A   1      39.164  32.384  33.842  1.00  0.00    -0.354 N 
ATOM     52  N   UNL A   1      41.368  31.117  35.309  1.00  0.00    -0.248 NA
ATOM     53  C   UNL A   1      42.774  31.024  37.173  1.00  0.00     0.031 C 
ATOM     54  C   UNL A   1      38.010  33.990  34.853  1.00  0.00     0.029 A 
ATOM     55  C   UNL A   1      39.080  33.124  35.010  1.00  0.00     0.049 A 
ATOM     56  H   UNL A   1      39.835  31.686  33.662  1.00  0.00     0.167 HD
ATOM     57  C   UNL A   1      40.969  32.080  36.232  1.00  0.00     0.074 A 
ATOM     58  C   UNL A   1      41.850  31.953  37.374  1.00  0.00     0.031 C 
ATOM     59  C   UNL A   1      39.967  32.989  36.139  1.00  0.00     0.037 A 
BRANCH  46  60
ATOM     60  C   UNL A   1      36.870  32.806  30.792  1.00  0.00     0.058 A 
ATOM     61  C   UNL A   1      37.116  33.777  29.809  1.00  0.00     0.135 A 
ATOM     62  C   UNL A   1      35.555  32.331  30.928  1.00  0.00     0.135 A 
ATOM     63  F   UNL A   1      38.351  34.277  29.647  1.00  0.00    -0.206 F 
ATOM     64  C   UNL A   1      36.095  34.270  29.002  1.00  0.00     0.059 A 
ATOM     65  C   UNL A   1      34.523  32.790  30.114  1.00  0.00     0.059 A 
ATOM     66  F   UNL A   1      35.263  31.404  31.854  1.00  0.00    -0.206 F 
ATOM     67  C   UNL A   1      34.803  33.767  29.159  1.00  0.00     0.060 A 
BRANCH  67  68
ATOM     68  S   UNL A   1      33.495  34.403  28.089  1.00  0.00     0.124 S 
ATOM     69  O   UNL A   1      32.713  35.202  29.028  1.00  0.00    -0.237 OA
ATOM     70  O   UNL A   1      34.248  35.154  27.091  1.00  0.00    -0.237 OA
ATOM     71  O   UNL A   1      32.839  33.195  27.597  1.00  0.00    -0.744 OA
ENDBRANCH  67  68
ENDBRANCH  46  60
BRANCH  47  72
ATOM     72  C   UNL A   1      44.370  28.823  36.070  1.00  0.00     0.058 A 
ATOM     73  C   UNL A   1      44.220  27.731  36.937  1.00  0.00     0.135 A 
ATOM     74  C   UNL A   1      45.645  29.399  35.959  1.00  0.00     0.135 A 
ATOM     75  F   UNL A   1      43.018  27.154  37.087  1.00  0.00    -0.206 F 
ATOM     76  C   UNL A   1      45.288  27.242  37.682  1.00  0.00     0.059 A 
ATOM     77  C   UNL A   1      46.735  28.909  36.671  1.00  0.00     0.059 A 
ATOM     78  F   UNL A   1      45.845  30.439  35.136  1.00  0.00    -0.206 F 
ATOM     79  C   UNL A   1      46.543  27.837  37.542  1.00  0.00     0.060 A 
BRANCH  79  80
ATOM     80  S   UNL A   1      47.930  27.173  38.487  1.00  0.00     0.124 S 
ATOM     81  O   UNL A   1      47.261  26.689  39.690  1.00  0.00    -0.237 OA
ATOM     82  O   UNL A   1      48.449  26.146  37.589  1.00  0.00    -0.237 OA
ATOM     83  O   UNL A   1      48.798  28.332  38.670  1.00  0.00    -0.744 OA
ENDBRANCH  79  80
ENDBRANCH  47  72
BRANCH  59  84
ATOM     84  C   UNL A   1      39.755  33.910  37.312  1.00  0.00     0.058 A 
ATOM     85  C   UNL A   1      38.956  33.538  38.405  1.00  0.00     0.135 A 
ATOM     86  C   UNL A   1      40.399  35.157  37.367  1.00  0.00     0.135 A 
ATOM     87  F   UNL A   1      38.311  32.361  38.401  1.00  0.00    -0.206 F 
ATOM     88  C   UNL A   1      38.785  34.378  39.500  1.00  0.00     0.059 A 
ATOM     89  C   UNL A   1      40.266  36.001  38.466  1.00  0.00     0.059 A 
ATOM     90  F   UNL A   1      41.182  35.560  36.353  1.00  0.00    -0.206 F 
ATOM     91  C   UNL A   1      39.449  35.607  39.523  1.00  0.00     0.060 A 
BRANCH  91  92
ATOM     92  S   UNL A   1      39.246  36.670  40.969  1.00  0.00     0.124 S 
ATOM     93  O   UNL A   1      40.620  36.782  41.448  1.00  0.00    -0.237 OA
ATOM     94  O   UNL A   1      38.676  37.881  40.388  1.00  0.00    -0.237 OA
ATOM     95  O   UNL A   1      38.342  35.909  41.827  1.00  0.00    -0.744 OA
ENDBRANCH  91  92
ENDBRANCH  59  84
ENDBRANCH  33  34
ENDBRANCH  26  28
ENDBRANCH  25  26
ENDBRANCH  24  25
ENDBRANCH  23  24
ENDBRANCH   1  23
TORSDOF 20
ENDMDL
MODEL 2
REMARK VINA RESULT:     -10.3      6.407     12.143
REMARK SMILES CCc1cc(Oc2cncc(C(=O)OCCOCCOC(=O)c3ccc(-c4c5nc(c(-c6c(F)cc(S(=O)(=O)[O-])cc6F)c6ccc([nH]6)c(-c6c(F)cc(S(=O)(=O)[O-])cc6F)c6nc(c(-c7c(F)cc(S(=O)(=O)[O-])cc7F)c7ccc4[nH]7)C=C6)C=C5)cc3)n2)ccc1Cl
REMARK SMILES IDX 17 1 16 2 15 3 14 4 12 5 13 6 11 7 7 8 8 9 89 10 9 11 10 12
REMARK SMILES IDX 6 13 5 14 3 15 4 16 92 17 91 18 93 19 90 20 2 21 1 22 18 23
REMARK SMILES IDX 19 24 20 25 21 26 22 27 23 28 24 29 88 30 25 31 87 32 26 33
REMARK SMILES IDX 27 34 28 35 81 36 29 37 86 38 80 39 82 40 30 41 85 42 79 43
REMARK SMILES IDX 78 44 31 46 65 47 44 48 64 49 45 50 48 51 63 52 83 53 46 54
REMARK SMILES IDX 47 55 62 57 84 58 49 59 32 60 33 61 42 62 34 63 35 64 41 65
REMARK SMILES IDX 43 66 36 67 37 68 38 69 39 70 40 71 66 72 67 73 76 74 68 75
REMARK SMILES IDX 69 76 75 77 77 78 70 79 71 80 72 81 73 82 74 83 50 84 51 85
REMARK SMILES IDX 60 86 52 87 53 88 59 89 61 90 54 91 55 92 56 93 57 94 58 95
REMARK H PARENT 82 45 48 56
REMARK Flexibility Score: inf
ROOT
ATOM      1  O   UNL A   1      35.291  31.256  27.520  1.00  0.00    -0.374 OA
ENDROOT
BRANCH   1   2
ATOM      2  C   UNL A   1      34.542  30.041  27.491  1.00  0.00     0.202 C 
BRANCH   2   3
ATOM      3  C   UNL A   1      33.245  30.051  26.673  1.00  0.00     0.261 C 
BRANCH   3   4
ATOM      4  O   UNL A   1      33.296  29.121  25.582  1.00  0.00    -0.458 OA
BRANCH   4   5
ATOM      5  C   UNL A   1      32.315  28.182  25.577  1.00  0.00     0.358 C 
ATOM      6  O   UNL A   1      31.456  28.025  26.433  1.00  0.00    -0.244 OA
BRANCH   5   7
ATOM      7  C   UNL A   1      32.298  27.435  24.296  1.00  0.00     0.170 A 
ATOM      8  C   UNL A   1      33.156  25.897  22.823  1.00  0.00     0.238 A 
ATOM      9  C   UNL A   1      32.112  26.179  21.944  1.00  0.00     0.179 A 
ATOM     10  N   UNL A   1      33.261  26.514  24.024  1.00  0.00    -0.203 NA
ATOM     11  N   UNL A   1      31.183  27.139  22.184  1.00  0.00    -0.257 NA
ATOM     12  C   UNL A   1      31.299  27.756  23.385  1.00  0.00     0.147 A 
BRANCH   8  13
ATOM     13  O   UNL A   1      34.084  24.907  22.597  1.00  0.00    -0.437 OA
BRANCH  13  14
ATOM     14  C   UNL A   1      33.924  23.655  23.149  1.00  0.00     0.129 A 
ATOM     15  C   UNL A   1      34.946  21.975  24.613  1.00  0.00    -0.026 A 
ATOM     16  C   UNL A   1      34.952  23.248  24.009  1.00  0.00     0.052 A 
ATOM     17  C   UNL A   1      33.864  21.121  24.353  1.00  0.00     0.044 A 
ATOM     18  C   UNL A   1      32.847  21.516  23.478  1.00  0.00     0.024 A 
ATOM     19  Cl  UNL A   1      33.732  19.557  25.073  1.00  0.00    -0.084 Cl
ATOM     20  C   UNL A   1      32.889  22.767  22.856  1.00  0.00     0.049 A 
BRANCH  15  21
ATOM     21  C   UNL A   1      36.127  21.562  25.463  1.00  0.00     0.034 C 
ATOM     22  C   UNL A   1      37.342  21.215  24.612  1.00  0.00     0.009 C 
ENDBRANCH  15  21
ENDBRANCH  13  14
ENDBRANCH   8  13
ENDBRANCH   5   7
ENDBRANCH   4   5
ENDBRANCH   3   4
ENDBRANCH   2   3
ENDBRANCH   1   2
BRANCH   1  23
ATOM     23  C   UNL A   1      34.720  32.356  28.232  1.00  0.00     0.202 C 
BRANCH  23  24
ATOM     24  C   UNL A   1      35.016  32.450  29.735  1.00  0.00     0.261 C 
BRANCH  24  25
ATOM     25  O   UNL A   1      36.398  32.197  30.041  1.00  0.00    -0.460 OA
BRANCH  25  26
ATOM     26  C   UNL A   1      36.637  31.037  30.699  1.00  0.00     0.338 C 
ATOM     27  O   UNL A   1      35.873  30.443  31.448  1.00  0.00    -0.246 OA
BRANCH  26  28
ATOM     28  C   UNL A   1      37.912  30.460  30.238  1.00  0.00     0.060 A 
ATOM     29  C   UNL A   1      38.887  30.179  31.205  1.00  0.00     0.016 A 
ATOM     30  C   UNL A   1      38.169  30.231  28.885  1.00  0.00     0.016 A 
ATOM     31  C   UNL A   1      40.131  29.683  30.819  1.00  0.00     0.010 A 
ATOM     32  C   UNL A   1      39.422  29.744  28.500  1.00  0.00     0.010 A 
ATOM     33  C   UNL A   1      40.415  29.481  29.461  1.00  0.00    -0.014 A 
BRANCH  33  34
ATOM     34  C   UNL A   1      41.774  29.058  29.041  1.00  0.00     0.031 A 
ATOM     35  C   UNL A   1      42.882  30.073  28.979  1.00  0.00     0.074 A 
ATOM     36  C   UNL A   1      42.013  27.773  28.720  1.00  0.00     0.049 A 
ATOM     37  N   UNL A   1      44.115  29.927  28.571  1.00  0.00    -0.248 NA
ATOM     38  C   UNL A   1      42.555  31.432  29.438  1.00  0.00     0.031 C 
ATOM     39  C   UNL A   1      41.026  26.695  28.769  1.00  0.00     0.029 A 
ATOM     40  N   UNL A   1      43.156  27.160  28.272  1.00  0.00    -0.354 N 
ATOM     41  C   UNL A   1      44.714  31.172  28.721  1.00  0.00     0.074 A 
ATOM     42  C   UNL A   1      43.699  32.070  29.230  1.00  0.00     0.031 C 
ATOM     43  C   UNL A   1      41.601  25.556  28.347  1.00  0.00     0.029 A 
ATOM     44  C   UNL A   1      42.983  25.833  27.962  1.00  0.00     0.049 A 
ATOM     45  H   UNL A   1      44.018  27.627  28.181  1.00  0.00     0.167 HD
ATOM     46  C   UNL A   1      45.996  31.529  28.467  1.00  0.00     0.037 A 
ATOM     47  C   UNL A   1      43.832  24.949  27.399  1.00  0.00     0.037 A 
ATOM     48  C   UNL A   1      46.998  30.629  27.954  1.00  0.00     0.049 A 
ATOM     49  C   UNL A   1      45.229  25.391  27.049  1.00  0.00     0.074 A 
ATOM     50  C   UNL A   1      48.329  30.892  27.679  1.00  0.00     0.029 A 
ATOM     51  N   UNL A   1      46.780  29.298  27.629  1.00  0.00    -0.354 N 
ATOM     52  N   UNL A   1      45.792  26.564  27.223  1.00  0.00    -0.248 NA
ATOM     53  C   UNL A   1      46.109  24.392  26.425  1.00  0.00     0.031 C 
ATOM     54  C   UNL A   1      48.901  29.736  27.138  1.00  0.00     0.029 A 
ATOM     55  C   UNL A   1      47.943  28.736  27.127  1.00  0.00     0.049 A 
ATOM     56  H   UNL A   1      45.925  28.824  27.738  1.00  0.00     0.167 HD
ATOM     57  C   UNL A   1      47.094  26.437  26.746  1.00  0.00     0.074 A 
ATOM     58  C   UNL A   1      47.241  25.068  26.298  1.00  0.00     0.031 C 
ATOM     59  C   UNL A   1      48.075  27.371  26.682  1.00  0.00     0.037 A 
BRANCH  46  60
ATOM     60  C   UNL A   1      46.391  32.958  28.724  1.00  0.00     0.058 A 
ATOM     61  C   UNL A   1      46.917  33.366  29.960  1.00  0.00     0.135 A 
ATOM     62  C   UNL A   1      46.297  33.918  27.704  1.00  0.00     0.135 A 
ATOM     63  F   UNL A   1      47.015  32.493  30.975  1.00  0.00    -0.206 F 
ATOM     64  C   UNL A   1      47.321  34.680  30.180  1.00  0.00     0.059 A 
ATOM     65  C   UNL A   1      46.718  35.231  27.893  1.00  0.00     0.059 A 
ATOM     66  F   UNL A   1      45.799  33.583  26.503  1.00  0.00    -0.206 F 
ATOM     67  C   UNL A   1      47.221  35.604  29.139  1.00  0.00     0.060 A 
BRANCH  67  68
ATOM     68  S   UNL A   1      47.769  37.299  29.437  1.00  0.00     0.124 S 
ATOM     69  O   UNL A   1      49.173  37.224  29.047  1.00  0.00    -0.237 OA
ATOM     70  O   UNL A   1      46.903  38.066  28.546  1.00  0.00    -0.237 OA
ATOM     71  O   UNL A   1      47.524  37.492  30.863  1.00  0.00    -0.744 OA
ENDBRANCH  67  68
ENDBRANCH  46  60
BRANCH  47  72
ATOM     72  C   UNL A   1      43.373  23.567  27.092  1.00  0.00     0.058 A 
ATOM     73  C   UNL A   1      43.270  22.594  28.097  1.00  0.00     0.135 A 
ATOM     74  C   UNL A   1      43.044  23.188  25.781  1.00  0.00     0.135 A 
ATOM     75  F   UNL A   1      43.585  22.902  29.364  1.00  0.00    -0.206 F 
ATOM     76  C   UNL A   1      42.875  21.291  27.811  1.00  0.00     0.059 A 
ATOM     77  C   UNL A   1      42.618  21.900  25.475  1.00  0.00     0.059 A 
ATOM     78  F   UNL A   1      43.117  24.083  24.784  1.00  0.00    -0.206 F 
ATOM     79  C   UNL A   1      42.550  20.953  26.496  1.00  0.00     0.060 A 
BRANCH  79  80
ATOM     80  S   UNL A   1      42.005  19.270  26.140  1.00  0.00     0.124 S 
ATOM     81  O   UNL A   1      42.330  18.587  27.388  1.00  0.00    -0.237 OA
ATOM     82  O   UNL A   1      40.584  19.459  25.867  1.00  0.00    -0.237 OA
ATOM     83  O   UNL A   1      42.813  18.892  24.985  1.00  0.00    -0.744 OA
ENDBRANCH  79  80
ENDBRANCH  47  72
BRANCH  59  84
ATOM     84  C   UNL A   1      49.405  26.942  26.121  1.00  0.00     0.058 A 
ATOM     85  C   UNL A   1      49.698  27.058  24.753  1.00  0.00     0.135 A 
ATOM     86  C   UNL A   1      50.417  26.459  26.967  1.00  0.00     0.135 A 
ATOM     87  F   UNL A   1      48.765  27.506  23.898  1.00  0.00    -0.206 F 
ATOM     88  C   UNL A   1      50.938  26.689  24.241  1.00  0.00     0.059 A 
ATOM     89  C   UNL A   1      51.674  26.113  26.481  1.00  0.00     0.059 A 
ATOM     90  F   UNL A   1      50.194  26.337  28.286  1.00  0.00    -0.206 F 
ATOM     91  C   UNL A   1      51.922  26.221  25.115  1.00  0.00     0.060 A 
BRANCH  91  92
ATOM     92  S   UNL A   1      53.538  25.782  24.440  1.00  0.00     0.124 S 
ATOM     93  O   UNL A   1      54.431  26.593  25.261  1.00  0.00    -0.237 OA
ATOM     94  O   UNL A   1      53.593  24.342  24.674  1.00  0.00    -0.237 OA
ATOM     95  O   UNL A   1      53.440  26.178  23.037  1.00  0.00    -0.744 OA
ENDBRANCH  91  92
ENDBRANCH  59  84
ENDBRANCH  33  34
ENDBRANCH  26  28
ENDBRANCH  25  26
ENDBRANCH  24  25
ENDBRANCH  23  24
ENDBRANCH   1  23
TORSDOF 20
ENDMDL
MODEL 3
REMARK VINA RESULT:     -10.2      0.772      8.200
REMARK SMILES CCc1cc(Oc2cncc(C(=O)OCCOCCOC(=O)c3ccc(-c4c5nc(c(-c6c(F)cc(S(=O)(=O)[O-])cc6F)c6ccc([nH]6)c(-c6c(F)cc(S(=O)(=O)[O-])cc6F)c6nc(c(-c7c(F)cc(S(=O)(=O)[O-])cc7F)c7ccc4[nH]7)C=C6)C=C5)cc3)n2)ccc1Cl
REMARK SMILES IDX 17 1 16 2 15 3 14 4 12 5 13 6 11 7 7 8 8 9 89 10 9 11 10 12
REMARK SMILES IDX 6 13 5 14 3 15 4 16 92 17 91 18 93 19 90 20 2 21 1 22 18 23
REMARK SMILES IDX 19 24 20 25 21 26 22 27 23 28 24 29 88 30 25 31 87 32 26 33
REMARK SMILES IDX 27 34 28 35 81 36 29 37 86 38 80 39 82 40 30 41 85 42 79 43
REMARK SMILES IDX 78 44 31 46 65 47 44 48 64 49 45 50 48 51 63 52 83 53 46 54
REMARK SMILES IDX 47 55 62 57 84 58 49 59 32 60 33 61 42 62 34 63 35 64 41 65
REMARK SMILES IDX 43 66 36 67 37 68 38 69 39 70 40 71 66 72 67 73 76 74 68 75
REMARK SMILES IDX 69 76 75 77 77 78 70 79 71 80 72 81 73 82 74 83 50 84 51 85
REMARK SMILES IDX 60 86 52 87 53 88 59 89 61 90 54 91 55 92 56 93 57 94 58 95
REMARK H PARENT 82 45 48 56
REMARK Flexibility Score: inf
ROOT
ATOM      1  O   UNL A   1      43.920  21.147  24.664  1.00  0.00    -0.374 OA
ENDROOT
BRANCH   1   2
ATOM      2  C   UNL A   1      43.990  19.912  25.376  1.00  0.00     0.202 C 
BRANCH   2   3
ATOM      3  C   UNL A   1      42.655  19.266  25.766  1.00  0.00     0.261 C 
BRANCH   3   4
ATOM      4  O   UNL A   1      41.554  20.168  25.589  1.00  0.00    -0.458 OA
BRANCH   4   5
ATOM      5  C   UNL A   1      40.807  20.393  26.699  1.00  0.00     0.358 C 
ATOM      6  O   UNL A   1      40.992  19.913  27.809  1.00  0.00    -0.244 OA
BRANCH   5   7
ATOM      7  C   UNL A   1      39.792  21.447  26.456  1.00  0.00     0.170 A 
ATOM      8  C   UNL A   1      37.846  22.223  25.515  1.00  0.00     0.238 A 
ATOM      9  C   UNL A   1      38.062  23.457  26.126  1.00  0.00     0.179 A 
ATOM     10  N   UNL A   1      38.704  21.188  25.681  1.00  0.00    -0.203 NA
ATOM     11  N   UNL A   1      39.175  23.739  26.850  1.00  0.00    -0.257 NA
ATOM     12  C   UNL A   1      40.031  22.700  27.004  1.00  0.00     0.147 A 
BRANCH   8  13
ATOM     13  O   UNL A   1      36.708  21.924  24.803  1.00  0.00    -0.437 OA
BRANCH  13  14
ATOM     14  C   UNL A   1      35.463  22.239  25.302  1.00  0.00     0.129 A 
ATOM     15  C   UNL A   1      33.681  23.922  25.299  1.00  0.00    -0.026 A 
ATOM     16  C   UNL A   1      34.927  23.448  24.843  1.00  0.00     0.052 A 
ATOM     17  C   UNL A   1      32.967  23.136  26.216  1.00  0.00     0.044 A 
ATOM     18  C   UNL A   1      33.509  21.939  26.693  1.00  0.00     0.024 A 
ATOM     19  Cl  UNL A   1      31.412  23.598  26.809  1.00  0.00    -0.084 Cl
ATOM     20  C   UNL A   1      34.765  21.504  26.260  1.00  0.00     0.049 A 
BRANCH  15  21
ATOM     21  C   UNL A   1      33.196  25.276  24.832  1.00  0.00     0.034 C 
ATOM     22  C   UNL A   1      33.653  26.392  25.762  1.00  0.00     0.009 C 
ENDBRANCH  15  21
ENDBRANCH  13  14
ENDBRANCH   8  13
ENDBRANCH   5   7
ENDBRANCH   4   5
ENDBRANCH   3   4
ENDBRANCH   2   3
ENDBRANCH   1   2
BRANCH   1  23
ATOM     23  C   UNL A   1      44.051  22.347  25.429  1.00  0.00     0.202 C 
BRANCH  23  24
ATOM     24  C   UNL A   1      43.040  23.470  25.155  1.00  0.00     0.261 C 
BRANCH  24  25
ATOM     25  O   UNL A   1      42.952  24.408  26.241  1.00  0.00    -0.460 OA
BRANCH  25  26
ATOM     26  C   UNL A   1      42.348  25.582  25.938  1.00  0.00     0.338 C 
ATOM     27  O   UNL A   1      41.816  25.885  24.879  1.00  0.00    -0.246 OA
BRANCH  26  28
ATOM     28  C   UNL A   1      42.242  26.412  27.151  1.00  0.00     0.060 A 
ATOM     29  C   UNL A   1      41.280  26.055  28.104  1.00  0.00     0.016 A 
ATOM     30  C   UNL A   1      43.042  27.541  27.340  1.00  0.00     0.016 A 
ATOM     31  C   UNL A   1      41.101  26.837  29.244  1.00  0.00     0.010 A 
ATOM     32  C   UNL A   1      42.852  28.330  28.479  1.00  0.00     0.010 A 
ATOM     33  C   UNL A   1      41.872  27.992  29.430  1.00  0.00    -0.014 A 
BRANCH  33  34
ATOM     34  C   UNL A   1      41.608  28.884  30.585  1.00  0.00     0.031 A 
ATOM     35  C   UNL A   1      42.437  28.751  31.832  1.00  0.00     0.074 A 
ATOM     36  C   UNL A   1      40.632  29.809  30.517  1.00  0.00     0.049 A 
ATOM     37  N   UNL A   1      42.322  29.378  32.973  1.00  0.00    -0.248 NA
ATOM     38  C   UNL A   1      43.542  27.780  31.786  1.00  0.00     0.031 C 
ATOM     39  C   UNL A   1      39.781  30.051  29.351  1.00  0.00     0.029 A 
ATOM     40  N   UNL A   1      40.180  30.705  31.453  1.00  0.00    -0.354 N 
ATOM     41  C   UNL A   1      43.336  28.881  33.783  1.00  0.00     0.074 A 
ATOM     42  C   UNL A   1      44.039  27.877  33.012  1.00  0.00     0.031 C 
ATOM     43  C   UNL A   1      38.896  31.017  29.649  1.00  0.00     0.029 A 
ATOM     44  C   UNL A   1      39.092  31.434  31.036  1.00  0.00     0.049 A 
ATOM     45  H   UNL A   1      40.595  30.815  32.339  1.00  0.00     0.167 HD
ATOM     46  C   UNL A   1      43.658  29.239  35.050  1.00  0.00     0.037 A 
ATOM     47  C   UNL A   1      38.319  32.311  31.708  1.00  0.00     0.037 A 
ATOM     48  C   UNL A   1      42.949  30.234  35.812  1.00  0.00     0.049 A 
ATOM     49  C   UNL A   1      38.647  32.633  33.143  1.00  0.00     0.074 A 
ATOM     50  C   UNL A   1      43.208  30.678  37.098  1.00  0.00     0.029 A 
ATOM     51  N   UNL A   1      41.837  30.934  35.367  1.00  0.00    -0.354 N 
ATOM     52  N   UNL A   1      39.627  32.177  33.888  1.00  0.00    -0.248 NA
ATOM     53  C   UNL A   1      37.764  33.586  33.832  1.00  0.00     0.031 C 
ATOM     54  C   UNL A   1      42.221  31.606  37.448  1.00  0.00     0.029 A 
ATOM     55  C   UNL A   1      41.380  31.783  36.362  1.00  0.00     0.049 A 
ATOM     56  H   UNL A   1      41.432  30.841  34.475  1.00  0.00     0.167 HD
ATOM     57  C   UNL A   1      39.487  32.801  35.124  1.00  0.00     0.074 A 
ATOM     58  C   UNL A   1      38.343  33.682  35.020  1.00  0.00     0.031 C 
ATOM     59  C   UNL A   1      40.237  32.654  36.245  1.00  0.00     0.037 A 
BRANCH  46  60
ATOM     60  C   UNL A   1      44.819  28.540  35.703  1.00  0.00     0.058 A 
ATOM     61  C   UNL A   1      46.135  29.010  35.566  1.00  0.00     0.135 A 
ATOM     62  C   UNL A   1      44.607  27.420  36.524  1.00  0.00     0.135 A 
ATOM     63  F   UNL A   1      46.396  30.067  34.781  1.00  0.00    -0.206 F 
ATOM     64  C   UNL A   1      47.201  28.385  36.206  1.00  0.00     0.059 A 
ATOM     65  C   UNL A   1      45.655  26.795  37.195  1.00  0.00     0.059 A 
ATOM     66  F   UNL A   1      43.370  26.926  36.688  1.00  0.00    -0.206 F 
ATOM     67  C   UNL A   1      46.950  27.281  37.022  1.00  0.00     0.060 A 
BRANCH  67  68
ATOM     68  S   UNL A   1      48.343  26.496  37.861  1.00  0.00     0.124 S 
ATOM     69  O   UNL A   1      47.939  25.094  37.848  1.00  0.00    -0.237 OA
ATOM     70  O   UNL A   1      49.464  26.840  36.991  1.00  0.00    -0.237 OA
ATOM     71  O   UNL A   1      48.354  27.133  39.174  1.00  0.00    -0.744 OA
ENDBRANCH  67  68
ENDBRANCH  46  60
BRANCH  47  72
ATOM     72  C   UNL A   1      37.134  32.921  31.044  1.00  0.00     0.058 A 
ATOM     73  C   UNL A   1      35.838  32.447  31.288  1.00  0.00     0.135 A 
ATOM     74  C   UNL A   1      37.282  33.983  30.137  1.00  0.00     0.135 A 
ATOM     75  F   UNL A   1      35.646  31.426  32.137  1.00  0.00    -0.206 F 
ATOM     76  C   UNL A   1      34.731  32.990  30.645  1.00  0.00     0.059 A 
ATOM     77  C   UNL A   1      36.187  34.562  29.504  1.00  0.00     0.059 A 
ATOM     78  F   UNL A   1      38.500  34.481  29.875  1.00  0.00    -0.206 F 
ATOM     79  C   UNL A   1      34.915  34.050  29.754  1.00  0.00     0.060 A 
BRANCH  79  80
ATOM     80  S   UNL A   1      33.469  34.771  28.949  1.00  0.00     0.124 S 
ATOM     81  O   UNL A   1      34.028  35.994  28.384  1.00  0.00    -0.237 OA
ATOM     82  O   UNL A   1      33.103  33.732  27.990  1.00  0.00    -0.237 OA
ATOM     83  O   UNL A   1      32.529  34.956  30.050  1.00  0.00    -0.744 OA
ENDBRANCH  79  80
ENDBRANCH  47  72
BRANCH  59  84
ATOM     84  C   UNL A   1      39.855  33.475  37.448  1.00  0.00     0.058 A 
ATOM     85  C   UNL A   1      40.486  34.697  37.733  1.00  0.00     0.135 A 
ATOM     86  C   UNL A   1      38.814  33.064  38.295  1.00  0.00     0.135 A 
ATOM     87  F   UNL A   1      41.493  35.135  36.961  1.00  0.00    -0.206 F 
ATOM     88  C   UNL A   1      40.112  35.470  38.829  1.00  0.00     0.059 A 
ATOM     89  C   UNL A   1      38.403  33.835  39.379  1.00  0.00     0.059 A 
ATOM     90  F   UNL A   1      38.170  31.908  38.063  1.00  0.00    -0.206 F 
ATOM     91  C   UNL A   1      39.066  35.032  39.643  1.00  0.00     0.060 A 
BRANCH  91  92
ATOM     92  S   UNL A   1      38.568  36.064  41.039  1.00  0.00     0.124 S 
ATOM     93  O   UNL A   1      38.275  37.332  40.378  1.00  0.00    -0.237 OA
ATOM     94  O   UNL A   1      37.415  35.342  41.566  1.00  0.00    -0.237 OA
ATOM     95  O   UNL A   1      39.747  36.063  41.901  1.00  0.00    -0.744 OA
ENDBRANCH  91  92
ENDBRANCH  59  84
ENDBRANCH  33  34
ENDBRANCH  26  28
ENDBRANCH  25  26
ENDBRANCH  24  25
ENDBRANCH  23  24
ENDBRANCH   1  23
TORSDOF 20
ENDMDL
