MODEL 1
REMARK VINA RESULT:      -9.5      0.000      0.000
REMARK SMILES C[C@H](O)[C@H](C)[NH2+]C1(C(=O)OCCOCCOC(=O)c2ccc(-c3c4nc(c(-c5c(F)cc(S(=O)(=O)[O-])cc5F)c5ccc([nH]5)c(-c5c(F)cc(S(=O)(=O)[O-])cc5F)c5nc(c(-c6c(F)cc(S(=O)(=O)[O-])cc6F)c6ccc3[nH]6)C=C5)C=C4)cc2)CC1
REMARK SMILES IDX 12 1 11 2 10 3 8 4 9 5 7 6 85 7 86 8 6 9 4 12 5 13 2 14 1 15
REMARK SMILES IDX 3 16 13 18 14 19 15 20 16 21 17 22 18 23 19 24 20 25 84 26
REMARK SMILES IDX 21 27 83 28 22 29 23 30 24 31 77 32 25 33 82 34 76 35 78 36
REMARK SMILES IDX 26 37 81 38 75 39 74 40 27 42 61 43 40 44 60 45 41 46 44 47
REMARK SMILES IDX 59 48 79 49 42 50 43 51 58 53 80 54 45 55 28 56 29 57 38 58
REMARK SMILES IDX 30 59 31 60 37 61 39 62 32 63 33 64 34 65 35 66 36 67 62 68
REMARK SMILES IDX 63 69 72 70 64 71 65 72 71 73 73 74 66 75 67 76 68 77 69 78
REMARK SMILES IDX 70 79 46 80 47 81 56 82 48 83 49 84 55 85 57 86 50 87 51 88
REMARK SMILES IDX 52 89 53 90 54 91
REMARK H PARENT 6 10 6 11 3 17 78 41 44 52
REMARK Flexibility Score: inf
ROOT
ATOM      1  C   UNL A   1      32.059  31.034  26.642  1.00  0.00     0.202 C 
ENDROOT
BRANCH   1   2
ATOM      2  C   UNL A   1      31.538  30.059  25.572  1.00  0.00     0.261 C 
BRANCH   2   3
ATOM      3  O   UNL A   1      32.597  29.419  24.861  1.00  0.00    -0.459 OA
BRANCH   3   4
ATOM      4  C   UNL A   1      32.314  28.187  24.365  1.00  0.00     0.368 C 
ATOM      5  O   UNL A   1      32.134  27.170  25.021  1.00  0.00    -0.245 OA
BRANCH   4   6
ATOM      6  C   UNL A   1      32.152  28.205  22.858  1.00  0.00     0.195 C 
ATOM      7  C   UNL A   1      32.248  26.890  22.112  1.00  0.00     0.088 C 
ATOM      8  C   UNL A   1      33.377  27.867  22.015  1.00  0.00     0.088 C 
BRANCH   6   9
ATOM      9  N   UNL A   1      31.285  29.279  22.276  1.00  0.00    -0.328 N 
ATOM     10  H   UNL A   1      31.351  30.086  22.898  1.00  0.00     0.347 HD
ATOM     11  H   UNL A   1      31.648  29.400  21.330  1.00  0.00     0.347 HD
BRANCH   9  12
ATOM     12  C   UNL A   1      29.852  29.011  22.072  1.00  0.00     0.208 C 
ATOM     13  C   UNL A   1      29.408  28.106  23.234  1.00  0.00     0.078 C 
BRANCH  12  14
ATOM     14  C   UNL A   1      28.924  30.257  21.942  1.00  0.00     0.169 C 
ATOM     15  C   UNL A   1      28.071  30.553  23.169  1.00  0.00     0.045 C 
BRANCH  14  16
ATOM     16  O   UNL A   1      28.033  30.102  20.830  1.00  0.00    -0.387 OA
ATOM     17  H   UNL A   1      27.861  30.969  20.430  1.00  0.00     0.211 HD
ENDBRANCH  14  16
ENDBRANCH  12  14
ENDBRANCH   9  12
ENDBRANCH   6   9
ENDBRANCH   4   6
ENDBRANCH   3   4
ENDBRANCH   2   3
ENDBRANCH   1   2
BRANCH   1  18
ATOM     18  O   UNL A   1      32.967  30.543  27.623  1.00  0.00    -0.374 OA
BRANCH  18  19
ATOM     19  C   UNL A   1      34.371  30.731  27.415  1.00  0.00     0.202 C 
BRANCH  19  20
ATOM     20  C   UNL A   1      35.356  30.018  28.348  1.00  0.00     0.261 C 
BRANCH  20  21
ATOM     21  O   UNL A   1      36.015  30.930  29.246  1.00  0.00    -0.460 OA
BRANCH  21  22
ATOM     22  C   UNL A   1      36.702  30.334  30.250  1.00  0.00     0.338 C 
ATOM     23  O   UNL A   1      36.242  29.804  31.248  1.00  0.00    -0.246 OA
BRANCH  22  24
ATOM     24  C   UNL A   1      38.126  30.229  29.886  1.00  0.00     0.060 A 
ATOM     25  C   UNL A   1      38.443  30.136  28.525  1.00  0.00     0.016 A 
ATOM     26  C   UNL A   1      39.120  30.127  30.860  1.00  0.00     0.016 A 
ATOM     27  C   UNL A   1      39.758  29.896  28.134  1.00  0.00     0.010 A 
ATOM     28  C   UNL A   1      40.437  29.870  30.465  1.00  0.00     0.010 A 
ATOM     29  C   UNL A   1      40.752  29.720  29.103  1.00  0.00    -0.014 A 
BRANCH  29  30
ATOM     30  C   UNL A   1      42.084  29.217  28.693  1.00  0.00     0.031 A 
ATOM     31  C   UNL A   1      43.240  30.178  28.656  1.00  0.00     0.074 A 
ATOM     32  C   UNL A   1      42.262  27.919  28.390  1.00  0.00     0.049 A 
ATOM     33  N   UNL A   1      44.483  29.965  28.316  1.00  0.00    -0.248 NA
ATOM     34  C   UNL A   1      42.954  31.567  29.056  1.00  0.00     0.031 C 
ATOM     35  C   UNL A   1      41.223  26.893  28.431  1.00  0.00     0.029 A 
ATOM     36  N   UNL A   1      43.386  27.245  27.986  1.00  0.00    -0.354 N 
ATOM     37  C   UNL A   1      45.128  31.188  28.453  1.00  0.00     0.074 A 
ATOM     38  C   UNL A   1      44.135  32.146  28.889  1.00  0.00     0.031 C 
ATOM     39  C   UNL A   1      41.756  25.718  28.056  1.00  0.00     0.029 A 
ATOM     40  C   UNL A   1      43.166  25.915  27.725  1.00  0.00     0.049 A 
ATOM     41  H   UNL A   1      44.267  27.676  27.891  1.00  0.00     0.167 HD
ATOM     42  C   UNL A   1      46.431  31.484  28.237  1.00  0.00     0.037 A 
ATOM     43  C   UNL A   1      44.007  24.970  27.258  1.00  0.00     0.037 A 
ATOM     44  C   UNL A   1      47.413  30.525  27.805  1.00  0.00     0.049 A 
ATOM     45  C   UNL A   1      45.441  25.335  26.979  1.00  0.00     0.074 A 
ATOM     46  C   UNL A   1      48.764  30.719  27.582  1.00  0.00     0.029 A 
ATOM     47  N   UNL A   1      47.146  29.192  27.526  1.00  0.00    -0.354 N 
ATOM     48  N   UNL A   1      46.043  26.490  27.133  1.00  0.00    -0.248 NA
ATOM     49  C   UNL A   1      46.312  24.267  26.466  1.00  0.00     0.031 C 
ATOM     50  C   UNL A   1      49.308  29.513  27.125  1.00  0.00     0.029 A 
ATOM     51  C   UNL A   1      48.304  28.557  27.108  1.00  0.00     0.049 A 
ATOM     52  H   UNL A   1      46.265  28.762  27.612  1.00  0.00     0.167 HD
ATOM     53  C   UNL A   1      47.366  26.285  26.758  1.00  0.00     0.074 A 
ATOM     54  C   UNL A   1      47.479  24.891  26.377  1.00  0.00     0.031 C 
ATOM     55  C   UNL A   1      48.396  27.167  26.736  1.00  0.00     0.037 A 
BRANCH  42  56
ATOM     56  C   UNL A   1      46.865  32.908  28.438  1.00  0.00     0.058 A 
ATOM     57  C   UNL A   1      46.831  33.846  27.394  1.00  0.00     0.135 A 
ATOM     58  C   UNL A   1      47.285  33.349  29.704  1.00  0.00     0.135 A 
ATOM     59  F   UNL A   1      46.456  33.470  26.161  1.00  0.00    -0.206 F 
ATOM     60  C   UNL A   1      47.213  35.169  27.594  1.00  0.00     0.059 A 
ATOM     61  C   UNL A   1      47.652  34.672  29.930  1.00  0.00     0.059 A 
ATOM     62  F   UNL A   1      47.343  32.490  30.733  1.00  0.00    -0.206 F 
ATOM     63  C   UNL A   1      47.623  35.572  28.866  1.00  0.00     0.060 A 
BRANCH  63  64
ATOM     64  S   UNL A   1      48.102  37.295  29.115  1.00  0.00     0.124 S 
ATOM     65  O   UNL A   1      48.488  37.687  27.763  1.00  0.00    -0.237 OA
ATOM     66  O   UNL A   1      46.870  37.893  29.619  1.00  0.00    -0.237 OA
ATOM     67  O   UNL A   1      49.194  37.209  30.080  1.00  0.00    -0.744 OA
ENDBRANCH  63  64
ENDBRANCH  42  56
BRANCH  43  68
ATOM     68  C   UNL A   1      43.509  23.590  27.025  1.00  0.00     0.058 A 
ATOM     69  C   UNL A   1      43.269  22.716  28.095  1.00  0.00     0.135 A 
ATOM     70  C   UNL A   1      43.244  23.124  25.728  1.00  0.00     0.135 A 
ATOM     71  F   UNL A   1      43.518  23.112  29.352  1.00  0.00    -0.206 F 
ATOM     72  C   UNL A   1      42.787  21.428  27.889  1.00  0.00     0.059 A 
ATOM     73  C   UNL A   1      42.741  21.848  25.497  1.00  0.00     0.059 A 
ATOM     74  F   UNL A   1      43.449  23.926  24.671  1.00  0.00    -0.206 F 
ATOM     75  C   UNL A   1      42.520  21.004  26.585  1.00  0.00     0.060 A 
BRANCH  75  76
ATOM     76  S   UNL A   1      41.830  19.354  26.332  1.00  0.00     0.124 S 
ATOM     77  O   UNL A   1      42.448  18.967  25.070  1.00  0.00    -0.237 OA
ATOM     78  O   UNL A   1      42.297  18.642  27.518  1.00  0.00    -0.237 OA
ATOM     79  O   UNL A   1      40.391  19.598  26.283  1.00  0.00    -0.744 OA
ENDBRANCH  75  76
ENDBRANCH  43  68
BRANCH  55  80
ATOM     80  C   UNL A   1      49.741  26.652  26.311  1.00  0.00     0.058 A 
ATOM     81  C   UNL A   1      50.226  26.845  25.009  1.00  0.00     0.135 A 
ATOM     82  C   UNL A   1      50.583  26.014  27.238  1.00  0.00     0.135 A 
ATOM     83  F   UNL A   1      49.459  27.445  24.085  1.00  0.00    -0.206 F 
ATOM     84  C   UNL A   1      51.491  26.407  24.634  1.00  0.00     0.059 A 
ATOM     85  C   UNL A   1      51.860  25.589  26.891  1.00  0.00     0.059 A 
ATOM     86  F   UNL A   1      50.170  25.816  28.501  1.00  0.00    -0.206 F 
ATOM     87  C   UNL A   1      52.302  25.780  25.583  1.00  0.00     0.060 A 
BRANCH  87  88
ATOM     88  S   UNL A   1      53.958  25.249  25.096  1.00  0.00     0.124 S 
ATOM     89  O   UNL A   1      53.748  23.826  24.851  1.00  0.00    -0.237 OA
ATOM     90  O   UNL A   1      54.215  26.065  23.913  1.00  0.00    -0.237 OA
ATOM     91  O   UNL A   1      54.775  25.572  26.261  1.00  0.00    -0.744 OA
ENDBRANCH  87  88
ENDBRANCH  55  80
ENDBRANCH  29  30
ENDBRANCH  22  24
ENDBRANCH  21  22
ENDBRANCH  20  21
ENDBRANCH  19  20
ENDBRANCH  18  19
ENDBRANCH   1  18
TORSDOF 21
ENDMDL
MODEL 2
REMARK VINA RESULT:      -9.4      1.178      2.429
REMARK SMILES C[C@H](O)[C@H](C)[NH2+]C1(C(=O)OCCOCCOC(=O)c2ccc(-c3c4nc(c(-c5c(F)cc(S(=O)(=O)[O-])cc5F)c5ccc([nH]5)c(-c5c(F)cc(S(=O)(=O)[O-])cc5F)c5nc(c(-c6c(F)cc(S(=O)(=O)[O-])cc6F)c6ccc3[nH]6)C=C5)C=C4)cc2)CC1
REMARK SMILES IDX 12 1 11 2 10 3 8 4 9 5 7 6 85 7 86 8 6 9 4 12 5 13 2 14 1 15
REMARK SMILES IDX 3 16 13 18 14 19 15 20 16 21 17 22 18 23 19 24 20 25 84 26
REMARK SMILES IDX 21 27 83 28 22 29 23 30 24 31 77 32 25 33 82 34 76 35 78 36
REMARK SMILES IDX 26 37 81 38 75 39 74 40 27 42 61 43 40 44 60 45 41 46 44 47
REMARK SMILES IDX 59 48 79 49 42 50 43 51 58 53 80 54 45 55 28 56 29 57 38 58
REMARK SMILES IDX 30 59 31 60 37 61 39 62 32 63 33 64 34 65 35 66 36 67 62 68
REMARK SMILES IDX 63 69 72 70 64 71 65 72 71 73 73 74 66 75 67 76 68 77 69 78
REMARK SMILES IDX 70 79 46 80 47 81 56 82 48 83 49 84 55 85 57 86 50 87 51 88
REMARK SMILES IDX 52 89 53 90 54 91
REMARK H PARENT 6 10 6 11 3 17 78 41 44 52
REMARK Flexibility Score: inf
ROOT
ATOM      1  C   UNL A   1      34.416  32.899  29.289  1.00  0.00     0.202 C 
ENDROOT
BRANCH   1   2
ATOM      2  C   UNL A   1      34.885  32.016  28.120  1.00  0.00     0.261 C 
BRANCH   2   3
ATOM      3  O   UNL A   1      33.859  31.135  27.662  1.00  0.00    -0.459 OA
BRANCH   3   4
ATOM      4  C   UNL A   1      34.284  29.955  27.139  1.00  0.00     0.368 C 
ATOM      5  O   UNL A   1      35.433  29.534  27.153  1.00  0.00    -0.245 OA
BRANCH   4   6
ATOM      6  C   UNL A   1      33.138  29.135  26.586  1.00  0.00     0.195 C 
ATOM      7  C   UNL A   1      31.723  29.567  26.917  1.00  0.00     0.088 C 
ATOM      8  C   UNL A   1      32.288  28.352  27.581  1.00  0.00     0.088 C 
BRANCH   6   9
ATOM      9  N   UNL A   1      33.367  28.428  25.285  1.00  0.00    -0.328 N 
ATOM     10  H   UNL A   1      34.369  28.247  25.216  1.00  0.00     0.347 HD
ATOM     11  H   UNL A   1      32.758  27.611  25.341  1.00  0.00     0.347 HD
BRANCH   9  12
ATOM     12  C   UNL A   1      32.962  29.084  24.031  1.00  0.00     0.208 C 
ATOM     13  C   UNL A   1      34.044  28.742  22.991  1.00  0.00     0.078 C 
BRANCH  12  14
ATOM     14  C   UNL A   1      31.539  28.740  23.496  1.00  0.00     0.169 C 
ATOM     15  C   UNL A   1      31.001  27.382  23.928  1.00  0.00     0.045 C 
BRANCH  14  16
ATOM     16  O   UNL A   1      31.524  28.769  22.063  1.00  0.00    -0.387 OA
ATOM     17  H   UNL A   1      32.435  28.789  21.731  1.00  0.00     0.211 HD
ENDBRANCH  14  16
ENDBRANCH  12  14
ENDBRANCH   9  12
ENDBRANCH   6   9
ENDBRANCH   4   6
ENDBRANCH   3   4
ENDBRANCH   2   3
ENDBRANCH   1   2
BRANCH   1  18
ATOM     18  O   UNL A   1      35.343  33.820  29.856  1.00  0.00    -0.374 OA
BRANCH  18  19
ATOM     19  C   UNL A   1      36.744  33.569  29.703  1.00  0.00     0.202 C 
BRANCH  19  20
ATOM     20  C   UNL A   1      37.475  32.783  30.795  1.00  0.00     0.261 C 
BRANCH  20  21
ATOM     21  O   UNL A   1      36.650  31.755  31.374  1.00  0.00    -0.460 OA
BRANCH  21  22
ATOM     22  C   UNL A   1      36.873  30.511  30.885  1.00  0.00     0.338 C 
ATOM     23  O   UNL A   1      36.043  29.647  30.658  1.00  0.00    -0.246 OA
BRANCH  22  24
ATOM     24  C   UNL A   1      38.279  30.386  30.465  1.00  0.00     0.060 A 
ATOM     25  C   UNL A   1      38.540  30.289  29.092  1.00  0.00     0.016 A 
ATOM     26  C   UNL A   1      39.310  30.269  31.398  1.00  0.00     0.016 A 
ATOM     27  C   UNL A   1      39.834  30.030  28.648  1.00  0.00     0.010 A 
ATOM     28  C   UNL A   1      40.606  29.993  30.950  1.00  0.00     0.010 A 
ATOM     29  C   UNL A   1      40.864  29.839  29.577  1.00  0.00    -0.014 A 
BRANCH  29  30
ATOM     30  C   UNL A   1      42.170  29.317  29.114  1.00  0.00     0.031 A 
ATOM     31  C   UNL A   1      43.352  30.246  29.087  1.00  0.00     0.074 A 
ATOM     32  C   UNL A   1      42.304  28.028  28.753  1.00  0.00     0.049 A 
ATOM     33  N   UNL A   1      44.580  30.013  28.708  1.00  0.00    -0.248 NA
ATOM     34  C   UNL A   1      43.116  31.624  29.551  1.00  0.00     0.031 C 
ATOM     35  C   UNL A   1      41.237  27.030  28.777  1.00  0.00     0.029 A 
ATOM     36  N   UNL A   1      43.399  27.341  28.294  1.00  0.00    -0.354 N 
ATOM     37  C   UNL A   1      45.263  31.211  28.880  1.00  0.00     0.074 A 
ATOM     38  C   UNL A   1      44.309  32.177  29.379  1.00  0.00     0.031 C 
ATOM     39  C   UNL A   1      41.727  25.858  28.341  1.00  0.00     0.029 A 
ATOM     40  C   UNL A   1      43.134  26.030  27.984  1.00  0.00     0.049 A 
ATOM     41  H   UNL A   1      44.289  27.751  28.195  1.00  0.00     0.167 HD
ATOM     42  C   UNL A   1      46.569  31.479  28.644  1.00  0.00     0.037 A 
ATOM     43  C   UNL A   1      43.936  25.082  27.458  1.00  0.00     0.037 A 
ATOM     44  C   UNL A   1      47.513  30.512  28.149  1.00  0.00     0.049 A 
ATOM     45  C   UNL A   1      45.373  25.418  27.159  1.00  0.00     0.074 A 
ATOM     46  C   UNL A   1      48.863  30.678  27.900  1.00  0.00     0.029 A 
ATOM     47  N   UNL A   1      47.201  29.200  27.822  1.00  0.00    -0.354 N 
ATOM     48  N   UNL A   1      46.011  26.549  27.345  1.00  0.00    -0.248 NA
ATOM     49  C   UNL A   1      46.200  24.349  26.580  1.00  0.00     0.031 C 
ATOM     50  C   UNL A   1      49.361  29.478  27.381  1.00  0.00     0.029 A 
ATOM     51  C   UNL A   1      48.330  28.551  27.350  1.00  0.00     0.049 A 
ATOM     52  H   UNL A   1      46.311  28.792  27.912  1.00  0.00     0.167 HD
ATOM     53  C   UNL A   1      47.319  26.323  26.930  1.00  0.00     0.074 A 
ATOM     54  C   UNL A   1      47.383  24.944  26.489  1.00  0.00     0.031 C 
ATOM     55  C   UNL A   1      48.373  27.176  26.919  1.00  0.00     0.037 A 
BRANCH  42  56
ATOM     56  C   UNL A   1      47.048  32.881  28.893  1.00  0.00     0.058 A 
ATOM     57  C   UNL A   1      47.577  33.273  30.133  1.00  0.00     0.135 A 
ATOM     58  C   UNL A   1      47.011  33.836  27.863  1.00  0.00     0.135 A 
ATOM     59  F   UNL A   1      47.615  32.404  31.155  1.00  0.00    -0.206 F 
ATOM     60  C   UNL A   1      48.039  34.568  30.349  1.00  0.00     0.059 A 
ATOM     61  C   UNL A   1      47.487  35.130  28.051  1.00  0.00     0.059 A 
ATOM     62  F   UNL A   1      46.507  33.514  26.662  1.00  0.00    -0.206 F 
ATOM     63  C   UNL A   1      47.988  35.489  29.301  1.00  0.00     0.060 A 
BRANCH  63  64
ATOM     64  S   UNL A   1      48.605  37.162  29.590  1.00  0.00     0.124 S 
ATOM     65  O   UNL A   1      49.167  37.494  28.285  1.00  0.00    -0.237 OA
ATOM     66  O   UNL A   1      47.391  37.884  29.959  1.00  0.00    -0.237 OA
ATOM     67  O   UNL A   1      49.576  36.985  30.665  1.00  0.00    -0.744 OA
ENDBRANCH  63  64
ENDBRANCH  42  56
BRANCH  43  68
ATOM     68  C   UNL A   1      43.393  23.727  27.181  1.00  0.00     0.058 A 
ATOM     69  C   UNL A   1      43.098  23.318  25.873  1.00  0.00     0.135 A 
ATOM     70  C   UNL A   1      43.178  22.806  28.218  1.00  0.00     0.135 A 
ATOM     71  F   UNL A   1      43.277  24.166  24.849  1.00  0.00    -0.206 F 
ATOM     72  C   UNL A   1      42.606  22.046  25.601  1.00  0.00     0.059 A 
ATOM     73  C   UNL A   1      42.706  21.521  27.970  1.00  0.00     0.059 A 
ATOM     74  F   UNL A   1      43.453  23.147  29.487  1.00  0.00    -0.206 F 
ATOM     75  C   UNL A   1      42.418  21.151  26.657  1.00  0.00     0.060 A 
BRANCH  75  76
ATOM     76  S   UNL A   1      41.843  19.479  26.287  1.00  0.00     0.124 S 
ATOM     77  O   UNL A   1      42.369  18.731  27.423  1.00  0.00    -0.237 OA
ATOM     78  O   UNL A   1      40.394  19.655  26.251  1.00  0.00    -0.237 OA
ATOM     79  O   UNL A   1      42.464  19.191  24.998  1.00  0.00    -0.744 OA
ENDBRANCH  75  76
ENDBRANCH  43  68
BRANCH  55  80
ATOM     80  C   UNL A   1      49.692  26.642  26.439  1.00  0.00     0.058 A 
ATOM     81  C   UNL A   1      50.088  26.752  25.098  1.00  0.00     0.135 A 
ATOM     82  C   UNL A   1      50.600  26.071  27.348  1.00  0.00     0.135 A 
ATOM     83  F   UNL A   1      49.256  27.285  24.191  1.00  0.00    -0.206 F 
ATOM     84  C   UNL A   1      51.331  26.297  24.669  1.00  0.00     0.059 A 
ATOM     85  C   UNL A   1      51.856  25.632  26.945  1.00  0.00     0.059 A 
ATOM     86  F   UNL A   1      50.273  25.954  28.645  1.00  0.00    -0.206 F 
ATOM     87  C   UNL A   1      52.209  25.740  25.601  1.00  0.00     0.060 A 
BRANCH  87  88
ATOM     88  S   UNL A   1      53.834  25.187  25.041  1.00  0.00     0.124 S 
ATOM     89  O   UNL A   1      53.988  25.940  23.802  1.00  0.00    -0.237 OA
ATOM     90  O   UNL A   1      54.701  25.594  26.142  1.00  0.00    -0.237 OA
ATOM     91  O   UNL A   1      53.667  23.746  24.884  1.00  0.00    -0.744 OA
ENDBRANCH  87  88
ENDBRANCH  55  80
ENDBRANCH  29  30
ENDBRANCH  22  24
ENDBRANCH  21  22
ENDBRANCH  20  21
ENDBRANCH  19  20
ENDBRANCH  18  19
ENDBRANCH   1  18
TORSDOF 21
ENDMDL
MODEL 3
REMARK VINA RESULT:      -9.1      1.164      8.690
REMARK SMILES C[C@H](O)[C@H](C)[NH2+]C1(C(=O)OCCOCCOC(=O)c2ccc(-c3c4nc(c(-c5c(F)cc(S(=O)(=O)[O-])cc5F)c5ccc([nH]5)c(-c5c(F)cc(S(=O)(=O)[O-])cc5F)c5nc(c(-c6c(F)cc(S(=O)(=O)[O-])cc6F)c6ccc3[nH]6)C=C5)C=C4)cc2)CC1
REMARK SMILES IDX 12 1 11 2 10 3 8 4 9 5 7 6 85 7 86 8 6 9 4 12 5 13 2 14 1 15
REMARK SMILES IDX 3 16 13 18 14 19 15 20 16 21 17 22 18 23 19 24 20 25 84 26
REMARK SMILES IDX 21 27 83 28 22 29 23 30 24 31 77 32 25 33 82 34 76 35 78 36
REMARK SMILES IDX 26 37 81 38 75 39 74 40 27 42 61 43 40 44 60 45 41 46 44 47
REMARK SMILES IDX 59 48 79 49 42 50 43 51 58 53 80 54 45 55 28 56 29 57 38 58
REMARK SMILES IDX 30 59 31 60 37 61 39 62 32 63 33 64 34 65 35 66 36 67 62 68
REMARK SMILES IDX 63 69 72 70 64 71 65 72 71 73 73 74 66 75 67 76 68 77 69 78
REMARK SMILES IDX 70 79 46 80 47 81 56 82 48 83 49 84 55 85 57 86 50 87 51 88
REMARK SMILES IDX 52 89 53 90 54 91
REMARK H PARENT 6 10 6 11 3 17 78 41 44 52
REMARK Flexibility Score: inf
ROOT
ATOM      1  C   UNL A   1      33.501  30.092  27.225  1.00  0.00     0.202 C 
ENDROOT
BRANCH   1   2
ATOM      2  C   UNL A   1      32.265  29.666  26.415  1.00  0.00     0.261 C 
BRANCH   2   3
ATOM      3  O   UNL A   1      32.431  29.893  25.015  1.00  0.00    -0.459 OA
BRANCH   3   4
ATOM      4  C   UNL A   1      31.594  29.198  24.202  1.00  0.00     0.368 C 
ATOM      5  O   UNL A   1      30.488  29.561  23.825  1.00  0.00    -0.245 OA
BRANCH   4   6
ATOM      6  C   UNL A   1      32.222  27.908  23.714  1.00  0.00     0.195 C 
ATOM      7  C   UNL A   1      33.724  27.751  23.836  1.00  0.00     0.088 C 
ATOM      8  C   UNL A   1      33.123  27.985  22.486  1.00  0.00     0.088 C 
BRANCH   6   9
ATOM      9  N   UNL A   1      31.381  26.669  23.781  1.00  0.00    -0.328 N 
ATOM     10  H   UNL A   1      30.410  26.972  23.860  1.00  0.00     0.347 HD
ATOM     11  H   UNL A   1      31.632  26.158  22.935  1.00  0.00     0.347 HD
BRANCH   9  12
ATOM     12  C   UNL A   1      31.619  25.700  24.862  1.00  0.00     0.208 C 
ATOM     13  C   UNL A   1      30.500  25.918  25.896  1.00  0.00     0.078 C 
BRANCH  12  14
ATOM     14  C   UNL A   1      31.713  24.201  24.442  1.00  0.00     0.169 C 
ATOM     15  C   UNL A   1      32.805  23.886  23.428  1.00  0.00     0.045 C 
BRANCH  14  16
ATOM     16  O   UNL A   1      30.469  23.761  23.881  1.00  0.00    -0.387 OA
ATOM     17  H   UNL A   1      29.833  24.493  23.890  1.00  0.00     0.211 HD
ENDBRANCH  14  16
ENDBRANCH  12  14
ENDBRANCH   9  12
ENDBRANCH   6   9
ENDBRANCH   4   6
ENDBRANCH   3   4
ENDBRANCH   2   3
ENDBRANCH   1   2
BRANCH   1  18
ATOM     18  O   UNL A   1      33.433  31.295  27.984  1.00  0.00    -0.374 OA
BRANCH  18  19
ATOM     19  C   UNL A   1      34.530  32.213  27.919  1.00  0.00     0.202 C 
BRANCH  19  20
ATOM     20  C   UNL A   1      35.373  32.444  29.177  1.00  0.00     0.261 C 
BRANCH  20  21
ATOM     21  O   UNL A   1      35.995  31.234  29.647  1.00  0.00    -0.460 OA
BRANCH  21  22
ATOM     22  C   UNL A   1      37.022  31.427  30.511  1.00  0.00     0.338 C 
ATOM     23  O   UNL A   1      36.981  31.985  31.594  1.00  0.00    -0.246 OA
BRANCH  22  24
ATOM     24  C   UNL A   1      38.208  30.685  30.049  1.00  0.00     0.060 A 
ATOM     25  C   UNL A   1      39.242  30.477  30.970  1.00  0.00     0.016 A 
ATOM     26  C   UNL A   1      38.344  30.287  28.719  1.00  0.00     0.016 A 
ATOM     27  C   UNL A   1      40.441  29.905  30.550  1.00  0.00     0.010 A 
ATOM     28  C   UNL A   1      39.555  29.727  28.296  1.00  0.00     0.010 A 
ATOM     29  C   UNL A   1      40.617  29.567  29.204  1.00  0.00    -0.014 A 
BRANCH  29  30
ATOM     30  C   UNL A   1      41.968  29.201  28.718  1.00  0.00     0.031 A 
ATOM     31  C   UNL A   1      42.224  27.781  28.293  1.00  0.00     0.074 A 
ATOM     32  C   UNL A   1      42.939  30.128  28.631  1.00  0.00     0.049 A 
ATOM     33  N   UNL A   1      43.325  27.235  27.853  1.00  0.00    -0.248 NA
ATOM     34  C   UNL A   1      41.082  26.854  28.377  1.00  0.00     0.031 C 
ATOM     35  C   UNL A   1      42.791  31.539  28.978  1.00  0.00     0.029 A 
ATOM     36  N   UNL A   1      44.243  30.015  28.224  1.00  0.00    -0.354 N 
ATOM     37  C   UNL A   1      43.016  25.902  27.612  1.00  0.00     0.074 A 
ATOM     38  C   UNL A   1      41.628  25.715  27.974  1.00  0.00     0.031 C 
ATOM     39  C   UNL A   1      43.965  32.162  28.778  1.00  0.00     0.029 A 
ATOM     40  C   UNL A   1      44.951  31.188  28.314  1.00  0.00     0.049 A 
ATOM     41  H   UNL A   1      44.635  29.171  27.898  1.00  0.00     0.167 HD
ATOM     42  C   UNL A   1      43.818  24.923  27.130  1.00  0.00     0.037 A 
ATOM     43  C   UNL A   1      46.252  31.440  28.063  1.00  0.00     0.037 A 
ATOM     44  C   UNL A   1      45.198  25.118  26.771  1.00  0.00     0.049 A 
ATOM     45  C   UNL A   1      47.136  30.324  27.574  1.00  0.00     0.074 A 
ATOM     46  C   UNL A   1      46.089  24.196  26.250  1.00  0.00     0.029 A 
ATOM     47  N   UNL A   1      45.887  26.315  26.901  1.00  0.00    -0.354 N 
ATOM     48  N   UNL A   1      46.826  29.073  27.331  1.00  0.00    -0.248 NA
ATOM     49  C   UNL A   1      48.546  30.654  27.322  1.00  0.00     0.031 C 
ATOM     50  C   UNL A   1      47.330  24.825  26.106  1.00  0.00     0.029 A 
ATOM     51  C   UNL A   1      47.200  26.150  26.493  1.00  0.00     0.049 A 
ATOM     52  H   UNL A   1      45.500  27.156  27.233  1.00  0.00     0.167 HD
ATOM     53  C   UNL A   1      47.994  28.471  26.876  1.00  0.00     0.074 A 
ATOM     54  C   UNL A   1      49.017  29.498  26.870  1.00  0.00     0.031 C 
ATOM     55  C   UNL A   1      48.202  27.187  26.492  1.00  0.00     0.037 A 
BRANCH  42  56
ATOM     56  C   UNL A   1      43.231  23.548  26.989  1.00  0.00     0.058 A 
ATOM     57  C   UNL A   1      43.143  22.666  28.078  1.00  0.00     0.135 A 
ATOM     58  C   UNL A   1      42.716  23.119  25.755  1.00  0.00     0.135 A 
ATOM     59  F   UNL A   1      43.639  23.020  29.275  1.00  0.00    -0.206 F 
ATOM     60  C   UNL A   1      42.577  21.402  27.946  1.00  0.00     0.059 A 
ATOM     61  C   UNL A   1      42.127  21.867  25.605  1.00  0.00     0.059 A 
ATOM     62  F   UNL A   1      42.783  23.921  24.681  1.00  0.00    -0.206 F 
ATOM     63  C   UNL A   1      42.073  21.012  26.704  1.00  0.00     0.060 A 
BRANCH  63  64
ATOM     64  S   UNL A   1      41.328  19.374  26.548  1.00  0.00     0.124 S 
ATOM     65  O   UNL A   1      41.005  19.069  27.939  1.00  0.00    -0.237 OA
ATOM     66  O   UNL A   1      40.187  19.630  25.675  1.00  0.00    -0.237 OA
ATOM     67  O   UNL A   1      42.395  18.569  25.961  1.00  0.00    -0.744 OA
ENDBRANCH  63  64
ENDBRANCH  42  56
BRANCH  43  68
ATOM     68  C   UNL A   1      46.791  32.809  28.272  1.00  0.00     0.058 A 
ATOM     69  C   UNL A   1      47.386  33.175  29.488  1.00  0.00     0.135 A 
ATOM     70  C   UNL A   1      46.741  33.772  27.253  1.00  0.00     0.135 A 
ATOM     71  F   UNL A   1      47.448  32.292  30.496  1.00  0.00    -0.206 F 
ATOM     72  C   UNL A   1      47.910  34.447  29.688  1.00  0.00     0.059 A 
ATOM     73  C   UNL A   1      47.276  35.045  27.422  1.00  0.00     0.059 A 
ATOM     74  F   UNL A   1      46.189  33.468  26.067  1.00  0.00    -0.206 F 
ATOM     75  C   UNL A   1      47.855  35.375  28.646  1.00  0.00     0.060 A 
BRANCH  75  76
ATOM     76  S   UNL A   1      48.599  37.003  28.892  1.00  0.00     0.124 S 
ATOM     77  O   UNL A   1      49.895  36.834  28.247  1.00  0.00    -0.237 OA
ATOM     78  O   UNL A   1      47.653  37.879  28.207  1.00  0.00    -0.237 OA
ATOM     79  O   UNL A   1      48.628  37.140  30.346  1.00  0.00    -0.744 OA
ENDBRANCH  75  76
ENDBRANCH  43  68
BRANCH  55  80
ATOM     80  C   UNL A   1      49.576  26.821  26.010  1.00  0.00     0.058 A 
ATOM     81  C   UNL A   1      49.974  27.041  24.683  1.00  0.00     0.135 A 
ATOM     82  C   UNL A   1      50.529  26.305  26.906  1.00  0.00     0.135 A 
ATOM     83  F   UNL A   1      49.100  27.527  23.789  1.00  0.00    -0.206 F 
ATOM     84  C   UNL A   1      51.263  26.743  24.254  1.00  0.00     0.059 A 
ATOM     85  C   UNL A   1      51.830  26.024  26.503  1.00  0.00     0.059 A 
ATOM     86  F   UNL A   1      50.202  26.089  28.190  1.00  0.00    -0.206 F 
ATOM     87  C   UNL A   1      52.185  26.236  25.172  1.00  0.00     0.060 A 
BRANCH  87  88
ATOM     88  S   UNL A   1      53.867  25.889  24.613  1.00  0.00     0.124 S 
ATOM     89  O   UNL A   1      54.045  24.512  25.058  1.00  0.00    -0.237 OA
ATOM     90  O   UNL A   1      53.764  26.080  23.170  1.00  0.00    -0.237 OA
ATOM     91  O   UNL A   1      54.670  26.885  25.315  1.00  0.00    -0.744 OA
ENDBRANCH  87  88
ENDBRANCH  55  80
ENDBRANCH  29  30
ENDBRANCH  22  24
ENDBRANCH  21  22
ENDBRANCH  20  21
ENDBRANCH  19  20
ENDBRANCH  18  19
ENDBRANCH   1  18
TORSDOF 21
ENDMDL
