MODEL 1
REMARK VINA RESULT:     -11.6      0.000      0.000
REMARK SMILES CN(C(=O)C[C@@H]1SC(=O)N(c2ccccc2)C1=O)c1ccccc1C(=O)OCCOCCOC(=O)c1ccc(-c2c3nc(c(-c4c(F)cc(S(=O)(=O)[O-])cc4F)c4ccc([nH]4)c(-c4c(F)cc(S(=O)(=O)[O-])cc4F)c4nc(c(-c5c(F)cc(S(=O)(=O)[O-])cc5F)c5ccc2[nH]5)C=C4)C=C3)cc1
REMARK SMILES IDX 29 1 28 2 27 3 25 4 26 5 24 6 19 7 20 8 21 9 23 10 22 11
REMARK SMILES IDX 2 12 1 13 3 14 4 15 5 16 6 17 7 18 17 19 8 20 10 21 18 22
REMARK SMILES IDX 9 23 11 24 12 25 16 26 13 27 15 28 14 29 30 30 31 31 32 32
REMARK SMILES IDX 33 33 34 34 35 35 36 36 37 37 101 38 38 39 100 40 39 41
REMARK SMILES IDX 40 42 41 43 94 44 42 45 99 46 93 47 95 48 43 49 98 50 92 51
REMARK SMILES IDX 91 52 44 54 78 55 57 56 77 57 58 58 61 59 76 60 96 61 59 62
REMARK SMILES IDX 60 63 75 65 97 66 62 67 45 68 46 69 55 70 47 71 48 72 54 73
REMARK SMILES IDX 56 74 49 75 50 76 51 77 52 78 53 79 79 80 80 81 89 82 81 83
REMARK SMILES IDX 82 84 88 85 90 86 83 87 84 88 85 89 86 90 87 91 63 92 64 93
REMARK SMILES IDX 73 94 65 95 66 96 72 97 74 98 67 99 68 100 69 101 70 102
REMARK SMILES IDX 71 103
REMARK H PARENT 95 53 61 64
REMARK Flexibility Score: inf
ROOT
ATOM      1  C   UNL A   1      38.407  21.765  25.978  1.00  0.00     0.202 C 
ENDROOT
BRANCH   1   2
ATOM      2  C   UNL A   1      37.491  21.820  24.764  1.00  0.00     0.261 C 
BRANCH   2   3
ATOM      3  O   UNL A   1      36.740  20.596  24.651  1.00  0.00    -0.460 OA
BRANCH   3   4
ATOM      4  C   UNL A   1      35.526  20.647  25.238  1.00  0.00     0.340 C 
ATOM      5  O   UNL A   1      35.141  21.511  26.014  1.00  0.00    -0.246 OA
BRANCH   4   6
ATOM      6  C   UNL A   1      34.589  19.633  24.706  1.00  0.00     0.083 A 
ATOM      7  C   UNL A   1      33.323  19.823  24.106  1.00  0.00     0.058 A 
ATOM      8  C   UNL A   1      32.762  18.676  23.492  1.00  0.00     0.027 A 
ATOM      9  C   UNL A   1      33.336  17.401  23.571  1.00  0.00     0.002 A 
ATOM     10  C   UNL A   1      35.138  18.327  24.824  1.00  0.00     0.018 A 
ATOM     11  C   UNL A   1      34.508  17.216  24.277  1.00  0.00     0.001 A 
BRANCH   7  12
ATOM     12  N   UNL A   1      32.550  21.061  24.019  1.00  0.00    -0.315 N 
ATOM     13  C   UNL A   1      31.905  21.571  25.223  1.00  0.00     0.153 C 
BRANCH  12  14
ATOM     14  C   UNL A   1      32.416  21.708  22.764  1.00  0.00     0.228 C 
ATOM     15  O   UNL A   1      31.518  21.422  21.963  1.00  0.00    -0.274 OA
BRANCH  14  16
ATOM     16  C   UNL A   1      33.374  22.829  22.341  1.00  0.00     0.125 C 
BRANCH  16  17
ATOM     17  C   UNL A   1      32.777  24.210  22.626  1.00  0.00     0.156 C 
ATOM     18  S   UNL A   1      32.458  25.403  21.286  1.00  0.00    -0.050 SA
ATOM     19  C   UNL A   1      33.581  25.068  23.606  1.00  0.00     0.248 C 
ATOM     20  C   UNL A   1      32.388  26.734  22.455  1.00  0.00     0.293 C 
ATOM     21  N   UNL A   1      33.125  26.401  23.563  1.00  0.00    -0.240 N 
ATOM     22  O   UNL A   1      34.368  24.567  24.399  1.00  0.00    -0.273 OA
ATOM     23  O   UNL A   1      31.664  27.700  22.284  1.00  0.00    -0.261 OA
BRANCH  21  24
ATOM     24  C   UNL A   1      33.089  27.146  24.802  1.00  0.00     0.053 A 
ATOM     25  C   UNL A   1      31.727  26.734  25.853  1.00  0.00     0.027 A 
ATOM     26  C   UNL A   1      34.080  28.681  25.131  1.00  0.00     0.027 A 
ATOM     27  C   UNL A   1      31.277  27.797  27.202  1.00  0.00     0.002 A 
ATOM     28  C   UNL A   1      33.605  29.807  26.483  1.00  0.00     0.002 A 
ATOM     29  C   UNL A   1      32.191  29.378  27.516  1.00  0.00     0.000 A 
ENDBRANCH  21  24
ENDBRANCH  16  17
ENDBRANCH  14  16
ENDBRANCH  12  14
ENDBRANCH   7  12
ENDBRANCH   4   6
ENDBRANCH   3   4
ENDBRANCH   2   3
ENDBRANCH   1   2
BRANCH   1  30
ATOM     30  O   UNL A   1      39.670  21.130  25.776  1.00  0.00    -0.374 OA
BRANCH  30  31
ATOM     31  C   UNL A   1      40.687  21.368  26.750  1.00  0.00     0.202 C 
BRANCH  31  32
ATOM     32  C   UNL A   1      41.788  22.351  26.341  1.00  0.00     0.261 C 
BRANCH  32  33
ATOM     33  O   UNL A   1      41.349  23.713  26.411  1.00  0.00    -0.460 OA
BRANCH  33  34
ATOM     34  C   UNL A   1      42.220  24.731  26.132  1.00  0.00     0.338 C 
ATOM     35  O   UNL A   1      42.969  24.820  25.181  1.00  0.00    -0.246 OA
BRANCH  34  36
ATOM     36  C   UNL A   1      41.995  25.765  27.184  1.00  0.00     0.060 A 
ATOM     37  C   UNL A   1      42.844  26.810  27.581  1.00  0.00     0.016 A 
ATOM     38  C   UNL A   1      40.806  25.647  27.837  1.00  0.00     0.016 A 
ATOM     39  C   UNL A   1      42.506  27.683  28.688  1.00  0.00     0.010 A 
ATOM     40  C   UNL A   1      40.486  26.546  28.838  1.00  0.00     0.010 A 
ATOM     41  C   UNL A   1      41.289  27.563  29.408  1.00  0.00    -0.014 A 
BRANCH  41  42
ATOM     42  C   UNL A   1      40.949  28.422  30.966  1.00  0.00     0.031 A 
ATOM     43  C   UNL A   1      41.632  27.919  32.967  1.00  0.00     0.074 A 
ATOM     44  C   UNL A   1      40.297  29.596  30.379  1.00  0.00     0.049 A 
ATOM     45  N   UNL A   1      41.734  28.681  34.139  1.00  0.00    -0.248 NA
ATOM     46  C   UNL A   1      42.288  26.520  33.674  1.00  0.00     0.031 C 
ATOM     47  C   UNL A   1      39.306  29.610  29.268  1.00  0.00     0.029 A 
ATOM     48  N   UNL A   1      40.138  30.928  30.828  1.00  0.00    -0.354 N 
ATOM     49  C   UNL A   1      42.645  28.256  35.050  1.00  0.00     0.074 A 
ATOM     50  C   UNL A   1      42.920  26.892  34.779  1.00  0.00     0.031 C 
ATOM     51  C   UNL A   1      38.537  30.729  29.352  1.00  0.00     0.029 A 
ATOM     52  C   UNL A   1      38.955  31.518  30.507  1.00  0.00     0.049 A 
ATOM     53  H   UNL A   1      40.838  31.398  31.338  1.00  0.00     0.167 HD
ATOM     54  C   UNL A   1      43.232  29.070  35.954  1.00  0.00     0.037 A 
ATOM     55  C   UNL A   1      38.312  32.496  31.193  1.00  0.00     0.037 A 
ATOM     56  C   UNL A   1      42.759  30.407  36.249  1.00  0.00     0.049 A 
ATOM     57  C   UNL A   1      38.783  32.984  32.595  1.00  0.00     0.074 A 
ATOM     58  C   UNL A   1      43.107  31.227  37.302  1.00  0.00     0.029 A 
ATOM     59  N   UNL A   1      41.770  31.090  35.527  1.00  0.00    -0.354 N 
ATOM     60  N   UNL A   1      39.759  32.565  33.382  1.00  0.00    -0.248 NA
ATOM     61  C   UNL A   1      37.992  34.065  33.208  1.00  0.00     0.031 C 
ATOM     62  C   UNL A   1      42.275  32.357  37.258  1.00  0.00     0.029 A 
ATOM     63  C   UNL A   1      41.450  32.294  36.135  1.00  0.00     0.049 A 
ATOM     64  H   UNL A   1      41.357  30.757  34.698  1.00  0.00     0.167 HD
ATOM     65  C   UNL A   1      39.688  33.300  34.578  1.00  0.00     0.074 A 
ATOM     66  C   UNL A   1      38.597  34.242  34.377  1.00  0.00     0.031 C 
ATOM     67  C   UNL A   1      40.399  33.235  35.747  1.00  0.00     0.037 A 
BRANCH  54  68
ATOM     68  C   UNL A   1      44.416  28.489  36.650  1.00  0.00     0.058 A 
ATOM     69  C   UNL A   1      44.248  27.532  37.668  1.00  0.00     0.135 A 
ATOM     70  C   UNL A   1      45.703  28.976  36.403  1.00  0.00     0.135 A 
ATOM     71  F   UNL A   1      43.028  27.046  37.949  1.00  0.00    -0.206 F 
ATOM     72  C   UNL A   1      45.317  27.119  38.453  1.00  0.00     0.059 A 
ATOM     73  C   UNL A   1      46.787  28.573  37.174  1.00  0.00     0.059 A 
ATOM     74  F   UNL A   1      45.902  29.898  35.450  1.00  0.00    -0.206 F 
ATOM     75  C   UNL A   1      46.579  27.667  38.214  1.00  0.00     0.060 A 
BRANCH  75  76
ATOM     76  S   UNL A   1      47.929  27.237  39.334  1.00  0.00     0.124 S 
ATOM     77  O   UNL A   1      47.873  28.337  40.293  1.00  0.00    -0.237 OA
ATOM     78  O   UNL A   1      47.510  25.934  39.840  1.00  0.00    -0.237 OA
ATOM     79  O   UNL A   1      49.102  27.225  38.465  1.00  0.00    -0.744 OA
ENDBRANCH  75  76
ENDBRANCH  54  68
BRANCH  55  80
ATOM     80  C   UNL A   1      37.077  33.079  30.601  1.00  0.00     0.058 A 
ATOM     81  C   UNL A   1      35.824  32.655  31.071  1.00  0.00     0.135 A 
ATOM     82  C   UNL A   1      37.100  34.060  29.599  1.00  0.00     0.135 A 
ATOM     83  F   UNL A   1      35.749  31.690  32.001  1.00  0.00    -0.206 F 
ATOM     84  C   UNL A   1      34.639  33.194  30.584  1.00  0.00     0.059 A 
ATOM     85  C   UNL A   1      35.927  34.633  29.113  1.00  0.00     0.059 A 
ATOM     86  F   UNL A   1      38.271  34.488  29.105  1.00  0.00    -0.206 F 
ATOM     87  C   UNL A   1      34.702  34.198  29.619  1.00  0.00     0.060 A 
BRANCH  87  88
ATOM     88  S   UNL A   1      33.159  34.987  29.103  1.00  0.00     0.124 S 
ATOM     89  O   UNL A   1      32.441  35.089  30.368  1.00  0.00    -0.237 OA
ATOM     90  O   UNL A   1      33.641  36.244  28.539  1.00  0.00    -0.237 OA
ATOM     91  O   UNL A   1      32.609  34.045  28.134  1.00  0.00    -0.744 OA
ENDBRANCH  87  88
ENDBRANCH  55  80
BRANCH  67  92
ATOM     92  C   UNL A   1      40.117  34.321  36.780  1.00  0.00     0.058 A 
ATOM     93  C   UNL A   1      39.183  34.166  37.817  1.00  0.00     0.135 A 
ATOM     94  C   UNL A   1      40.898  35.493  36.782  1.00  0.00     0.135 A 
ATOM     95  F   UNL A   1      38.400  33.077  37.864  1.00  0.00    -0.206 F 
ATOM     96  C   UNL A   1      39.030  35.134  38.813  1.00  0.00     0.059 A 
ATOM     97  C   UNL A   1      40.786  36.453  37.785  1.00  0.00     0.059 A 
ATOM     98  F   UNL A   1      41.825  35.685  35.830  1.00  0.00    -0.206 F 
ATOM     99  C   UNL A   1      39.843  36.269  38.794  1.00  0.00     0.060 A 
BRANCH  99 100
ATOM    100  S   UNL A   1      39.690  37.486  40.123  1.00  0.00     0.124 S 
ATOM    101  O   UNL A   1      40.670  38.489  39.718  1.00  0.00    -0.237 OA
ATOM    102  O   UNL A   1      38.291  37.890  40.023  1.00  0.00    -0.237 OA
ATOM    103  O   UNL A   1      40.031  36.724  41.321  1.00  0.00    -0.744 OA
ENDBRANCH  99 100
ENDBRANCH  67  92
ENDBRANCH  41  42
ENDBRANCH  34  36
ENDBRANCH  33  34
ENDBRANCH  32  33
ENDBRANCH  31  32
ENDBRANCH  30  31
ENDBRANCH   1  30
TORSDOF 22
ENDMDL
MODEL 2
REMARK VINA RESULT:     -10.8      1.344      2.066
REMARK SMILES CN(C(=O)C[C@@H]1SC(=O)N(c2ccccc2)C1=O)c1ccccc1C(=O)OCCOCCOC(=O)c1ccc(-c2c3nc(c(-c4c(F)cc(S(=O)(=O)[O-])cc4F)c4ccc([nH]4)c(-c4c(F)cc(S(=O)(=O)[O-])cc4F)c4nc(c(-c5c(F)cc(S(=O)(=O)[O-])cc5F)c5ccc2[nH]5)C=C4)C=C3)cc1
REMARK SMILES IDX 29 1 28 2 27 3 25 4 26 5 24 6 19 7 20 8 21 9 23 10 22 11
REMARK SMILES IDX 2 12 1 13 3 14 4 15 5 16 6 17 7 18 17 19 8 20 10 21 18 22
REMARK SMILES IDX 9 23 11 24 12 25 16 26 13 27 15 28 14 29 30 30 31 31 32 32
REMARK SMILES IDX 33 33 34 34 35 35 36 36 37 37 101 38 38 39 100 40 39 41
REMARK SMILES IDX 40 42 41 43 94 44 42 45 99 46 93 47 95 48 43 49 98 50 92 51
REMARK SMILES IDX 91 52 44 54 78 55 57 56 77 57 58 58 61 59 76 60 96 61 59 62
REMARK SMILES IDX 60 63 75 65 97 66 62 67 45 68 46 69 55 70 47 71 48 72 54 73
REMARK SMILES IDX 56 74 49 75 50 76 51 77 52 78 53 79 79 80 80 81 89 82 81 83
REMARK SMILES IDX 82 84 88 85 90 86 83 87 84 88 85 89 86 90 87 91 63 92 64 93
REMARK SMILES IDX 73 94 65 95 66 96 72 97 74 98 67 99 68 100 69 101 70 102
REMARK SMILES IDX 71 103
REMARK H PARENT 95 53 61 64
REMARK Flexibility Score: inf
ROOT
ATOM      1  C   UNL A   1      38.091  22.479  25.547  1.00  0.00     0.202 C 
ENDROOT
BRANCH   1   2
ATOM      2  C   UNL A   1      37.056  22.069  24.511  1.00  0.00     0.261 C 
BRANCH   2   3
ATOM      3  O   UNL A   1      36.572  20.741  24.789  1.00  0.00    -0.460 OA
BRANCH   3   4
ATOM      4  C   UNL A   1      35.382  20.719  25.425  1.00  0.00     0.340 C 
ATOM      5  O   UNL A   1      35.079  21.389  26.403  1.00  0.00    -0.246 OA
BRANCH   4   6
ATOM      6  C   UNL A   1      34.364  19.920  24.708  1.00  0.00     0.083 A 
ATOM      7  C   UNL A   1      33.179  20.358  24.072  1.00  0.00     0.058 A 
ATOM      8  C   UNL A   1      32.521  19.389  23.276  1.00  0.00     0.027 A 
ATOM      9  C   UNL A   1      32.919  18.048  23.208  1.00  0.00     0.002 A 
ATOM     10  C   UNL A   1      34.730  18.548  24.672  1.00  0.00     0.018 A 
ATOM     11  C   UNL A   1      34.005  17.614  23.943  1.00  0.00     0.001 A 
BRANCH   7  12
ATOM     12  N   UNL A   1      32.579  21.690  24.116  1.00  0.00    -0.315 N 
ATOM     13  C   UNL A   1      31.551  21.964  25.113  1.00  0.00     0.153 C 
BRANCH  12  14
ATOM     14  C   UNL A   1      32.983  22.664  23.168  1.00  0.00     0.228 C 
ATOM     15  O   UNL A   1      32.580  22.658  21.998  1.00  0.00    -0.274 OA
BRANCH  14  16
ATOM     16  C   UNL A   1      33.930  23.807  23.555  1.00  0.00     0.125 C 
BRANCH  16  17
ATOM     17  C   UNL A   1      33.204  24.881  24.371  1.00  0.00     0.156 C 
ATOM     18  S   UNL A   1      32.761  24.611  26.118  1.00  0.00    -0.050 SA
ATOM     19  C   UNL A   1      31.864  25.334  23.788  1.00  0.00     0.248 C 
ATOM     20  C   UNL A   1      31.574  25.925  26.045  1.00  0.00     0.293 C 
ATOM     21  N   UNL A   1      31.149  26.079  24.749  1.00  0.00    -0.240 N 
ATOM     22  O   UNL A   1      31.597  25.184  22.603  1.00  0.00    -0.273 OA
ATOM     23  O   UNL A   1      31.329  26.623  27.014  1.00  0.00    -0.261 OA
BRANCH  21  24
ATOM     24  C   UNL A   1      30.370  27.207  24.291  1.00  0.00     0.053 A 
ATOM     25  C   UNL A   1      28.652  26.853  24.060  1.00  0.00     0.027 A 
ATOM     26  C   UNL A   1      31.094  28.765  23.587  1.00  0.00     0.027 A 
ATOM     27  C   UNL A   1      27.621  27.960  23.132  1.00  0.00     0.002 A 
ATOM     28  C   UNL A   1      30.062  29.891  22.593  1.00  0.00     0.002 A 
ATOM     29  C   UNL A   1      28.322  29.485  22.348  1.00  0.00     0.000 A 
ENDBRANCH  21  24
ENDBRANCH  16  17
ENDBRANCH  14  16
ENDBRANCH  12  14
ENDBRANCH   7  12
ENDBRANCH   4   6
ENDBRANCH   3   4
ENDBRANCH   2   3
ENDBRANCH   1   2
BRANCH   1  30
ATOM     30  O   UNL A   1      39.230  21.625  25.662  1.00  0.00    -0.374 OA
BRANCH  30  31
ATOM     31  C   UNL A   1      40.042  21.766  26.828  1.00  0.00     0.202 C 
BRANCH  31  32
ATOM     32  C   UNL A   1      41.362  22.518  26.636  1.00  0.00     0.261 C 
BRANCH  32  33
ATOM     33  O   UNL A   1      41.156  23.904  26.338  1.00  0.00    -0.460 OA
BRANCH  33  34
ATOM     34  C   UNL A   1      42.221  24.761  26.279  1.00  0.00     0.338 C 
ATOM     35  O   UNL A   1      43.127  24.756  25.471  1.00  0.00    -0.246 OA
BRANCH  34  36
ATOM     36  C   UNL A   1      41.998  25.770  27.355  1.00  0.00     0.060 A 
ATOM     37  C   UNL A   1      42.837  26.820  27.760  1.00  0.00     0.016 A 
ATOM     38  C   UNL A   1      40.821  25.620  28.025  1.00  0.00     0.016 A 
ATOM     39  C   UNL A   1      42.503  27.665  28.890  1.00  0.00     0.010 A 
ATOM     40  C   UNL A   1      40.504  26.494  29.049  1.00  0.00     0.010 A 
ATOM     41  C   UNL A   1      41.300  27.512  29.627  1.00  0.00    -0.014 A 
BRANCH  41  42
ATOM     42  C   UNL A   1      40.972  28.333  31.208  1.00  0.00     0.031 A 
ATOM     43  C   UNL A   1      41.652  27.771  33.193  1.00  0.00     0.074 A 
ATOM     44  C   UNL A   1      40.332  29.530  30.652  1.00  0.00     0.049 A 
ATOM     45  N   UNL A   1      41.764  28.501  34.384  1.00  0.00    -0.248 NA
ATOM     46  C   UNL A   1      42.294  26.347  33.862  1.00  0.00     0.031 C 
ATOM     47  C   UNL A   1      39.339  29.583  29.543  1.00  0.00     0.029 A 
ATOM     48  N   UNL A   1      40.189  30.851  31.135  1.00  0.00    -0.354 N 
ATOM     49  C   UNL A   1      42.672  28.043  35.282  1.00  0.00     0.074 A 
ATOM     50  C   UNL A   1      42.931  26.684  34.976  1.00  0.00     0.031 C 
ATOM     51  C   UNL A   1      38.583  30.708  29.658  1.00  0.00     0.029 A 
ATOM     52  C   UNL A   1      39.012  31.462  30.832  1.00  0.00     0.049 A 
ATOM     53  H   UNL A   1      40.894  31.299  31.656  1.00  0.00     0.167 HD
ATOM     54  C   UNL A   1      43.270  28.827  36.207  1.00  0.00     0.037 A 
ATOM     55  C   UNL A   1      38.381  32.429  31.544  1.00  0.00     0.037 A 
ATOM     56  C   UNL A   1      42.812  30.160  36.537  1.00  0.00     0.049 A 
ATOM     57  C   UNL A   1      38.860  32.876  32.957  1.00  0.00     0.074 A 
ATOM     58  C   UNL A   1      43.170  30.949  37.609  1.00  0.00     0.029 A 
ATOM     59  N   UNL A   1      41.830  30.873  35.835  1.00  0.00    -0.354 N 
ATOM     60  N   UNL A   1      39.832  32.425  33.732  1.00  0.00    -0.248 NA
ATOM     61  C   UNL A   1      38.081  33.949  33.600  1.00  0.00     0.031 C 
ATOM     62  C   UNL A   1      42.351  32.089  37.597  1.00  0.00     0.029 A 
ATOM     63  C   UNL A   1      41.524  32.064  36.474  1.00  0.00     0.049 A 
ATOM     64  H   UNL A   1      41.411  30.566  34.998  1.00  0.00     0.167 HD
ATOM     65  C   UNL A   1      39.770  33.129  34.946  1.00  0.00     0.074 A 
ATOM     66  C   UNL A   1      38.690  34.088  34.771  1.00  0.00     0.031 C 
ATOM     67  C   UNL A   1      40.482  33.027  36.112  1.00  0.00     0.037 A 
BRANCH  54  68
ATOM     68  C   UNL A   1      44.448  28.215  36.885  1.00  0.00     0.058 A 
ATOM     69  C   UNL A   1      45.755  28.601  36.533  1.00  0.00     0.135 A 
ATOM     70  C   UNL A   1      44.287  27.155  37.783  1.00  0.00     0.135 A 
ATOM     71  F   UNL A   1      45.956  29.604  35.665  1.00  0.00    -0.206 F 
ATOM     72  C   UNL A   1      46.863  27.914  37.015  1.00  0.00     0.059 A 
ATOM     73  C   UNL A   1      45.383  26.458  38.279  1.00  0.00     0.059 A 
ATOM     74  F   UNL A   1      43.058  26.750  38.132  1.00  0.00    -0.206 F 
ATOM     75  C   UNL A   1      46.664  26.827  37.867  1.00  0.00     0.060 A 
BRANCH  75  76
ATOM     76  S   UNL A   1      48.099  25.851  38.366  1.00  0.00     0.124 S 
ATOM     77  O   UNL A   1      48.734  25.587  37.078  1.00  0.00    -0.237 OA
ATOM     78  O   UNL A   1      48.810  26.772  39.245  1.00  0.00    -0.237 OA
ATOM     79  O   UNL A   1      47.509  24.688  39.022  1.00  0.00    -0.744 OA
ENDBRANCH  75  76
ENDBRANCH  54  68
BRANCH  55  80
ATOM     80  C   UNL A   1      37.151  33.041  30.970  1.00  0.00     0.058 A 
ATOM     81  C   UNL A   1      37.268  33.957  29.914  1.00  0.00     0.135 A 
ATOM     82  C   UNL A   1      35.861  32.728  31.423  1.00  0.00     0.135 A 
ATOM     83  F   UNL A   1      38.483  34.317  29.472  1.00  0.00    -0.206 F 
ATOM     84  C   UNL A   1      36.153  34.528  29.313  1.00  0.00     0.059 A 
ATOM     85  C   UNL A   1      34.726  33.268  30.821  1.00  0.00     0.059 A 
ATOM     86  F   UNL A   1      35.695  31.871  32.441  1.00  0.00    -0.206 F 
ATOM     87  C   UNL A   1      34.884  34.161  29.760  1.00  0.00     0.060 A 
BRANCH  87  88
ATOM     88  S   UNL A   1      33.446  34.802  28.873  1.00  0.00     0.124 S 
ATOM     89  O   UNL A   1      32.479  34.962  29.952  1.00  0.00    -0.237 OA
ATOM     90  O   UNL A   1      33.973  36.037  28.300  1.00  0.00    -0.237 OA
ATOM     91  O   UNL A   1      33.150  33.749  27.907  1.00  0.00    -0.744 OA
ENDBRANCH  87  88
ENDBRANCH  55  80
BRANCH  67  92
ATOM     92  C   UNL A   1      40.214  34.089  37.173  1.00  0.00     0.058 A 
ATOM     93  C   UNL A   1      39.357  33.878  38.265  1.00  0.00     0.135 A 
ATOM     94  C   UNL A   1      40.935  35.297  37.140  1.00  0.00     0.135 A 
ATOM     95  F   UNL A   1      38.634  32.751  38.350  1.00  0.00    -0.206 F 
ATOM     96  C   UNL A   1      39.221  34.829  39.280  1.00  0.00     0.059 A 
ATOM     97  C   UNL A   1      40.841  36.243  38.159  1.00  0.00     0.059 A 
ATOM     98  F   UNL A   1      41.789  35.544  36.133  1.00  0.00    -0.206 F 
ATOM     99  C   UNL A   1      39.974  36.004  39.223  1.00  0.00     0.060 A 
BRANCH  99 100
ATOM    100  S   UNL A   1      39.847  37.200  40.573  1.00  0.00     0.124 S 
ATOM    101  O   UNL A   1      39.942  36.334  41.744  1.00  0.00    -0.237 OA
ATOM    102  O   UNL A   1      40.993  38.071  40.334  1.00  0.00    -0.237 OA
ATOM    103  O   UNL A   1      38.542  37.820  40.356  1.00  0.00    -0.744 OA
ENDBRANCH  99 100
ENDBRANCH  67  92
ENDBRANCH  41  42
ENDBRANCH  34  36
ENDBRANCH  33  34
ENDBRANCH  32  33
ENDBRANCH  31  32
ENDBRANCH  30  31
ENDBRANCH   1  30
TORSDOF 22
ENDMDL
MODEL 3
REMARK VINA RESULT:     -10.0      5.718      7.776
REMARK SMILES CN(C(=O)C[C@@H]1SC(=O)N(c2ccccc2)C1=O)c1ccccc1C(=O)OCCOCCOC(=O)c1ccc(-c2c3nc(c(-c4c(F)cc(S(=O)(=O)[O-])cc4F)c4ccc([nH]4)c(-c4c(F)cc(S(=O)(=O)[O-])cc4F)c4nc(c(-c5c(F)cc(S(=O)(=O)[O-])cc5F)c5ccc2[nH]5)C=C4)C=C3)cc1
REMARK SMILES IDX 29 1 28 2 27 3 25 4 26 5 24 6 19 7 20 8 21 9 23 10 22 11
REMARK SMILES IDX 2 12 1 13 3 14 4 15 5 16 6 17 7 18 17 19 8 20 10 21 18 22
REMARK SMILES IDX 9 23 11 24 12 25 16 26 13 27 15 28 14 29 30 30 31 31 32 32
REMARK SMILES IDX 33 33 34 34 35 35 36 36 37 37 101 38 38 39 100 40 39 41
REMARK SMILES IDX 40 42 41 43 94 44 42 45 99 46 93 47 95 48 43 49 98 50 92 51
REMARK SMILES IDX 91 52 44 54 78 55 57 56 77 57 58 58 61 59 76 60 96 61 59 62
REMARK SMILES IDX 60 63 75 65 97 66 62 67 45 68 46 69 55 70 47 71 48 72 54 73
REMARK SMILES IDX 56 74 49 75 50 76 51 77 52 78 53 79 79 80 80 81 89 82 81 83
REMARK SMILES IDX 82 84 88 85 90 86 83 87 84 88 85 89 86 90 87 91 63 92 64 93
REMARK SMILES IDX 73 94 65 95 66 96 72 97 74 98 67 99 68 100 69 101 70 102
REMARK SMILES IDX 71 103
REMARK H PARENT 95 53 61 64
REMARK Flexibility Score: inf
ROOT
ATOM      1  C   UNL A   1      37.353  22.665  25.706  1.00  0.00     0.202 C 
ENDROOT
BRANCH   1   2
ATOM      2  C   UNL A   1      35.864  22.896  25.922  1.00  0.00     0.261 C 
BRANCH   2   3
ATOM      3  O   UNL A   1      35.245  21.703  26.438  1.00  0.00    -0.460 OA
BRANCH   3   4
ATOM      4  C   UNL A   1      33.899  21.781  26.517  1.00  0.00     0.340 C 
ATOM      5  O   UNL A   1      33.267  22.547  27.231  1.00  0.00    -0.246 OA
BRANCH   4   6
ATOM      6  C   UNL A   1      33.217  20.956  25.496  1.00  0.00     0.083 A 
ATOM      7  C   UNL A   1      32.771  21.331  24.207  1.00  0.00     0.058 A 
ATOM      8  C   UNL A   1      32.355  20.264  23.374  1.00  0.00     0.027 A 
ATOM      9  C   UNL A   1      32.258  18.937  23.810  1.00  0.00     0.002 A 
ATOM     10  C   UNL A   1      33.067  19.616  25.945  1.00  0.00     0.018 A 
ATOM     11  C   UNL A   1      32.574  18.617  25.116  1.00  0.00     0.001 A 
BRANCH   7  12
ATOM     12  N   UNL A   1      32.721  22.674  23.632  1.00  0.00    -0.315 N 
ATOM     13  C   UNL A   1      33.796  23.096  22.742  1.00  0.00     0.153 C 
BRANCH  12  14
ATOM     14  C   UNL A   1      31.655  23.539  23.984  1.00  0.00     0.228 C 
ATOM     15  O   UNL A   1      31.295  23.706  25.156  1.00  0.00    -0.274 OA
BRANCH  14  16
ATOM     16  C   UNL A   1      30.900  24.345  22.920  1.00  0.00     0.125 C 
BRANCH  16  17
ATOM     17  C   UNL A   1      31.453  25.769  22.801  1.00  0.00     0.156 C 
ATOM     18  S   UNL A   1      33.027  26.247  23.584  1.00  0.00    -0.050 SA
ATOM     19  C   UNL A   1      30.518  26.866  23.314  1.00  0.00     0.248 C 
ATOM     20  C   UNL A   1      32.592  27.961  23.470  1.00  0.00     0.293 C 
ATOM     21  N   UNL A   1      31.225  28.079  23.443  1.00  0.00    -0.240 N 
ATOM     22  O   UNL A   1      29.310  26.685  23.410  1.00  0.00    -0.273 OA
ATOM     23  O   UNL A   1      33.434  28.828  23.308  1.00  0.00    -0.261 OA
BRANCH  21  24
ATOM     24  C   UNL A   1      30.533  29.305  23.114  1.00  0.00     0.053 A 
ATOM     25  C   UNL A   1      30.422  30.454  24.455  1.00  0.00     0.027 A 
ATOM     26  C   UNL A   1      29.477  29.541  21.606  1.00  0.00     0.027 A 
ATOM     27  C   UNL A   1      29.283  31.813  24.384  1.00  0.00     0.002 A 
ATOM     28  C   UNL A   1      28.269  30.904  21.534  1.00  0.00     0.002 A 
ATOM     29  C   UNL A   1      28.156  32.039  22.930  1.00  0.00     0.000 A 
ENDBRANCH  21  24
ENDBRANCH  16  17
ENDBRANCH  14  16
ENDBRANCH  12  14
ENDBRANCH   7  12
ENDBRANCH   4   6
ENDBRANCH   3   4
ENDBRANCH   2   3
ENDBRANCH   1   2
BRANCH   1  30
ATOM     30  O   UNL A   1      37.697  21.770  24.649  1.00  0.00    -0.374 OA
BRANCH  30  31
ATOM     31  C   UNL A   1      37.780  20.380  24.966  1.00  0.00     0.202 C 
BRANCH  31  32
ATOM     32  C   UNL A   1      39.155  19.876  25.414  1.00  0.00     0.261 C 
BRANCH  32  33
ATOM     33  O   UNL A   1      40.008  20.945  25.844  1.00  0.00    -0.460 OA
BRANCH  33  34
ATOM     34  C   UNL A   1      40.646  20.872  27.053  1.00  0.00     0.338 C 
ATOM     35  O   UNL A   1      40.876  19.874  27.705  1.00  0.00    -0.246 OA
BRANCH  34  36
ATOM     36  C   UNL A   1      41.092  22.260  27.367  1.00  0.00     0.060 A 
ATOM     37  C   UNL A   1      40.865  23.440  26.641  1.00  0.00     0.016 A 
ATOM     38  C   UNL A   1      41.826  22.364  28.510  1.00  0.00     0.016 A 
ATOM     39  C   UNL A   1      41.446  24.705  27.047  1.00  0.00     0.010 A 
ATOM     40  C   UNL A   1      42.300  23.602  28.905  1.00  0.00     0.010 A 
ATOM     41  C   UNL A   1      42.241  24.837  28.215  1.00  0.00    -0.014 A 
BRANCH  41  42
ATOM     42  C   UNL A   1      43.224  26.307  28.606  1.00  0.00     0.031 A 
ATOM     43  C   UNL A   1      45.383  26.549  28.544  1.00  0.00     0.074 A 
ATOM     44  C   UNL A   1      42.099  27.238  28.737  1.00  0.00     0.049 A 
ATOM     45  N   UNL A   1      46.193  27.690  28.471  1.00  0.00    -0.248 NA
ATOM     46  C   UNL A   1      46.691  25.467  28.500  1.00  0.00     0.031 C 
ATOM     47  C   UNL A   1      40.801  26.985  29.421  1.00  0.00     0.029 A 
ATOM     48  N   UNL A   1      41.993  28.640  28.583  1.00  0.00    -0.354 N 
ATOM     49  C   UNL A   1      47.430  27.511  27.942  1.00  0.00     0.074 A 
ATOM     50  C   UNL A   1      47.741  26.131  28.036  1.00  0.00     0.031 C 
ATOM     51  C   UNL A   1      40.254  28.164  29.820  1.00  0.00     0.029 A 
ATOM     52  C   UNL A   1      41.139  29.261  29.441  1.00  0.00     0.049 A 
ATOM     53  H   UNL A   1      42.503  29.134  27.901  1.00  0.00     0.167 HD
ATOM     54  C   UNL A   1      48.137  28.495  27.344  1.00  0.00     0.037 A 
ATOM     55  C   UNL A   1      41.213  30.538  29.893  1.00  0.00     0.037 A 
ATOM     56  C   UNL A   1      47.795  29.898  27.449  1.00  0.00     0.049 A 
ATOM     57  C   UNL A   1      42.436  31.459  29.606  1.00  0.00     0.074 A 
ATOM     58  C   UNL A   1      48.557  30.995  27.103  1.00  0.00     0.029 A 
ATOM     59  N   UNL A   1      46.614  30.401  28.012  1.00  0.00    -0.354 N 
ATOM     60  N   UNL A   1      43.581  31.221  28.989  1.00  0.00    -0.248 NA
ATOM     61  C   UNL A   1      42.365  32.826  30.150  1.00  0.00     0.031 C 
ATOM     62  C   UNL A   1      47.873  32.144  27.531  1.00  0.00     0.029 A 
ATOM     63  C   UNL A   1      46.642  31.785  28.080  1.00  0.00     0.049 A 
ATOM     64  H   UNL A   1      45.863  29.843  28.320  1.00  0.00     0.167 HD
ATOM     65  C   UNL A   1      44.368  32.380  29.090  1.00  0.00     0.074 A 
ATOM     66  C   UNL A   1      43.529  33.347  29.782  1.00  0.00     0.031 C 
ATOM     67  C   UNL A   1      45.649  32.666  28.695  1.00  0.00     0.037 A 
BRANCH  54  68
ATOM     68  C   UNL A   1      49.321  28.035  26.564  1.00  0.00     0.058 A 
ATOM     69  C   UNL A   1      50.603  28.037  27.143  1.00  0.00     0.135 A 
ATOM     70  C   UNL A   1      49.207  27.722  25.206  1.00  0.00     0.135 A 
ATOM     71  F   UNL A   1      50.762  28.344  28.441  1.00  0.00    -0.206 F 
ATOM     72  C   UNL A   1      51.740  27.793  26.381  1.00  0.00     0.059 A 
ATOM     73  C   UNL A   1      50.330  27.472  24.426  1.00  0.00     0.059 A 
ATOM     74  F   UNL A   1      48.003  27.723  24.614  1.00  0.00    -0.206 F 
ATOM     75  C   UNL A   1      51.592  27.538  25.017  1.00  0.00     0.060 A 
BRANCH  75  76
ATOM     76  S   UNL A   1      53.081  27.371  24.008  1.00  0.00     0.124 S 
ATOM     77  O   UNL A   1      52.532  26.840  22.764  1.00  0.00    -0.237 OA
ATOM     78  O   UNL A   1      53.572  28.743  23.949  1.00  0.00    -0.237 OA
ATOM     79  O   UNL A   1      53.908  26.442  24.772  1.00  0.00    -0.744 OA
ENDBRANCH  75  76
ENDBRANCH  54  68
BRANCH  55  80
ATOM     80  C   UNL A   1      40.105  31.053  30.743  1.00  0.00     0.058 A 
ATOM     81  C   UNL A   1      40.284  31.130  32.133  1.00  0.00     0.135 A 
ATOM     82  C   UNL A   1      38.880  31.489  30.218  1.00  0.00     0.135 A 
ATOM     83  F   UNL A   1      41.424  30.688  32.686  1.00  0.00    -0.206 F 
ATOM     84  C   UNL A   1      39.300  31.639  32.971  1.00  0.00     0.059 A 
ATOM     85  C   UNL A   1      37.886  32.027  31.034  1.00  0.00     0.059 A 
ATOM     86  F   UNL A   1      38.651  31.421  28.898  1.00  0.00    -0.206 F 
ATOM     87  C   UNL A   1      38.111  32.105  32.410  1.00  0.00     0.060 A 
BRANCH  87  88
ATOM     88  S   UNL A   1      36.903  32.895  33.497  1.00  0.00     0.124 S 
ATOM     89  O   UNL A   1      37.016  32.086  34.704  1.00  0.00    -0.237 OA
ATOM     90  O   UNL A   1      37.426  34.255  33.588  1.00  0.00    -0.237 OA
ATOM     91  O   UNL A   1      35.651  32.763  32.759  1.00  0.00    -0.744 OA
ENDBRANCH  87  88
ENDBRANCH  55  80
BRANCH  67  92
ATOM     92  C   UNL A   1      46.106  34.113  28.853  1.00  0.00     0.058 A 
ATOM     93  C   UNL A   1      45.806  35.116  27.917  1.00  0.00     0.135 A 
ATOM     94  C   UNL A   1      46.759  34.507  30.037  1.00  0.00     0.135 A 
ATOM     95  F   UNL A   1      45.195  34.803  26.764  1.00  0.00    -0.206 F 
ATOM     96  C   UNL A   1      46.142  36.452  28.147  1.00  0.00     0.059 A 
ATOM     97  C   UNL A   1      47.071  35.839  30.300  1.00  0.00     0.059 A 
ATOM     98  F   UNL A   1      47.049  33.596  30.980  1.00  0.00    -0.206 F 
ATOM     99  C   UNL A   1      46.765  36.805  29.345  1.00  0.00     0.060 A 
BRANCH  99 100
ATOM    100  S   UNL A   1      47.135  38.546  29.668  1.00  0.00     0.124 S 
ATOM    101  O   UNL A   1      46.956  39.135  28.345  1.00  0.00    -0.237 OA
ATOM    102  O   UNL A   1      46.130  38.904  30.663  1.00  0.00    -0.237 OA
ATOM    103  O   UNL A   1      48.510  38.515  30.159  1.00  0.00    -0.744 OA
ENDBRANCH  99 100
ENDBRANCH  67  92
ENDBRANCH  41  42
ENDBRANCH  34  36
ENDBRANCH  33  34
ENDBRANCH  32  33
ENDBRANCH  31  32
ENDBRANCH  30  31
ENDBRANCH   1  30
TORSDOF 22
ENDMDL
