MODEL 1
REMARK VINA RESULT:     -10.4      0.000      0.000
REMARK SMILES C[C@H](NC(=O)c1cc(S(=O)(=O)N(C)C)cs1)C(=O)OCCOCCOC(=O)c1ccc(-c2c3nc(c(-c4c(F)cc(S(=O)(=O)[O-])cc4F)c4ccc([nH]4)c(-c4c(F)cc(S(=O)(=O)[O-])cc4F)c4nc(c(-c5c(F)cc(S(=O)(=O)[O-])cc5F)c5ccc2[nH]5)C=C4)C=C3)cc1
REMARK SMILES IDX 21 1 20 2 19 3 17 4 18 5 2 6 1 7 3 8 4 9 5 11 6 12 7 13
REMARK SMILES IDX 16 14 8 15 15 16 9 17 10 18 11 19 12 20 13 21 14 22 22 23
REMARK SMILES IDX 23 24 24 25 25 26 26 27 27 28 28 29 29 30 93 31 30 32 92 33
REMARK SMILES IDX 31 34 32 35 33 36 86 37 34 38 91 39 85 40 87 41 35 42 90 43
REMARK SMILES IDX 84 44 83 45 36 47 70 48 49 49 69 50 50 51 53 52 68 53 88 54
REMARK SMILES IDX 51 55 52 56 67 58 89 59 54 60 37 61 38 62 47 63 39 64 40 65
REMARK SMILES IDX 46 66 48 67 41 68 42 69 43 70 44 71 45 72 71 73 72 74 81 75
REMARK SMILES IDX 73 76 74 77 80 78 82 79 75 80 76 81 77 82 78 83 79 84 55 85
REMARK SMILES IDX 56 86 65 87 57 88 58 89 64 90 66 91 59 92 60 93 61 94 62 95
REMARK SMILES IDX 63 96
REMARK H PARENT 3 10 87 46 53 57
REMARK Flexibility Score: inf
ROOT
ATOM      1  C   UNL A   1      41.717  20.975  26.276  1.00  0.00     0.202 C 
ENDROOT
BRANCH   1   2
ATOM      2  C   UNL A   1      40.218  20.674  26.239  1.00  0.00     0.261 C 
BRANCH   2   3
ATOM      3  O   UNL A   1      39.484  21.858  25.870  1.00  0.00    -0.462 OA
BRANCH   3   4
ATOM      4  C   UNL A   1      38.200  21.636  25.488  1.00  0.00     0.328 C 
ATOM      5  O   UNL A   1      37.797  20.595  24.982  1.00  0.00    -0.250 OA
BRANCH   4   6
ATOM      6  C   UNL A   1      37.298  22.861  25.702  1.00  0.00     0.189 C 
ATOM      7  C   UNL A   1      38.161  24.022  26.176  1.00  0.00     0.043 C 
BRANCH   6   8
ATOM      8  N   UNL A   1      36.174  22.703  26.637  1.00  0.00    -0.338 N 
ATOM      9  C   UNL A   1      34.874  23.118  26.472  1.00  0.00     0.262 C 
ATOM     10  H   UNL A   1      36.378  22.243  27.483  1.00  0.00     0.164 HD
ATOM     11  O   UNL A   1      34.104  23.065  27.428  1.00  0.00    -0.268 OA
BRANCH   9  12
ATOM     12  C   UNL A   1      34.462  23.506  25.144  1.00  0.00     0.093 A 
ATOM     13  C   UNL A   1      33.989  24.739  24.758  1.00  0.00     0.047 A 
ATOM     14  S   UNL A   1      34.536  22.417  23.833  1.00  0.00    -0.137 S 
ATOM     15  C   UNL A   1      33.653  24.786  23.380  1.00  0.00     0.094 A 
ATOM     16  C   UNL A   1      33.868  23.578  22.753  1.00  0.00     0.087 A 
BRANCH  15  17
ATOM     17  S   UNL A   1      32.991  26.198  22.625  1.00  0.00     0.243 S 
ATOM     18  O   UNL A   1      33.566  26.206  21.298  1.00  0.00    -0.207 OA
ATOM     19  O   UNL A   1      31.571  26.049  22.853  1.00  0.00    -0.207 OA
BRANCH  17  20
ATOM     20  N   UNL A   1      33.557  27.561  23.480  1.00  0.00    -0.204 NA
ATOM     21  C   UNL A   1      34.141  28.635  22.648  1.00  0.00     0.124 C 
ATOM     22  C   UNL A   1      32.615  28.089  24.488  1.00  0.00     0.124 C 
ENDBRANCH  17  20
ENDBRANCH  15  17
ENDBRANCH   9  12
ENDBRANCH   6   8
ENDBRANCH   4   6
ENDBRANCH   3   4
ENDBRANCH   2   3
ENDBRANCH   1   2
BRANCH   1  23
ATOM     23  O   UNL A   1      42.133  22.004  25.369  1.00  0.00    -0.374 OA
BRANCH  23  24
ATOM     24  C   UNL A   1      43.410  22.585  25.622  1.00  0.00     0.202 C 
BRANCH  24  25
ATOM     25  C   UNL A   1      43.427  23.789  26.567  1.00  0.00     0.261 C 
BRANCH  25  26
ATOM     26  O   UNL A   1      43.337  25.030  25.856  1.00  0.00    -0.460 OA
BRANCH  26  27
ATOM     27  C   UNL A   1      42.140  25.652  25.986  1.00  0.00     0.338 C 
ATOM     28  O   UNL A   1      41.185  25.569  25.232  1.00  0.00    -0.246 OA
BRANCH  27  29
ATOM     29  C   UNL A   1      42.067  26.345  27.287  1.00  0.00     0.060 A 
ATOM     30  C   UNL A   1      40.987  26.020  28.114  1.00  0.00     0.016 A 
ATOM     31  C   UNL A   1      42.992  27.318  27.677  1.00  0.00     0.016 A 
ATOM     32  C   UNL A   1      40.792  26.711  29.306  1.00  0.00     0.010 A 
ATOM     33  C   UNL A   1      42.792  28.017  28.874  1.00  0.00     0.010 A 
ATOM     34  C   UNL A   1      41.669  27.740  29.672  1.00  0.00    -0.014 A 
BRANCH  34  35
ATOM     35  C   UNL A   1      41.297  28.606  30.816  1.00  0.00     0.031 A 
ATOM     36  C   UNL A   1      42.112  28.535  32.077  1.00  0.00     0.074 A 
ATOM     37  C   UNL A   1      40.308  29.508  30.696  1.00  0.00     0.049 A 
ATOM     38  N   UNL A   1      42.047  29.281  33.148  1.00  0.00    -0.248 NA
ATOM     39  C   UNL A   1      43.143  27.485  32.136  1.00  0.00     0.031 C 
ATOM     40  C   UNL A   1      39.455  29.677  29.520  1.00  0.00     0.029 A 
ATOM     41  N   UNL A   1      39.864  30.463  31.574  1.00  0.00    -0.354 N 
ATOM     42  C   UNL A   1      43.042  28.812  33.998  1.00  0.00     0.074 A 
ATOM     43  C   UNL A   1      43.666  27.685  33.338  1.00  0.00     0.031 C 
ATOM     44  C   UNL A   1      38.586  30.677  29.753  1.00  0.00     0.029 A 
ATOM     45  C   UNL A   1      38.823  31.216  31.091  1.00  0.00     0.049 A 
ATOM     46  H   UNL A   1      40.254  30.595  32.468  1.00  0.00     0.167 HD
ATOM     47  C   UNL A   1      43.416  29.288  35.208  1.00  0.00     0.037 A 
ATOM     48  C   UNL A   1      38.144  32.230  31.661  1.00  0.00     0.037 A 
ATOM     49  C   UNL A   1      42.783  30.395  35.874  1.00  0.00     0.049 A 
ATOM     50  C   UNL A   1      38.559  32.724  33.021  1.00  0.00     0.074 A 
ATOM     51  C   UNL A   1      43.078  30.943  37.110  1.00  0.00     0.029 A 
ATOM     52  N   UNL A   1      41.721  31.124  35.358  1.00  0.00    -0.354 N 
ATOM     53  N   UNL A   1      39.522  32.290  33.798  1.00  0.00    -0.248 NA
ATOM     54  C   UNL A   1      37.805  33.859  33.573  1.00  0.00     0.031 C 
ATOM     55  C   UNL A   1      42.177  31.988  37.353  1.00  0.00     0.029 A 
ATOM     56  C   UNL A   1      41.343  32.110  36.253  1.00  0.00     0.049 A 
ATOM     57  H   UNL A   1      41.299  30.963  34.483  1.00  0.00     0.167 HD
ATOM     58  C   UNL A   1      39.499  33.104  34.925  1.00  0.00     0.074 A 
ATOM     59  C   UNL A   1      38.439  34.071  34.719  1.00  0.00     0.031 C 
ATOM     60  C   UNL A   1      40.282  33.059  36.031  1.00  0.00     0.037 A 
BRANCH  47  61
ATOM     61  C   UNL A   1      44.567  28.604  35.887  1.00  0.00     0.058 A 
ATOM     62  C   UNL A   1      44.359  27.518  36.754  1.00  0.00     0.135 A 
ATOM     63  C   UNL A   1      45.887  29.023  35.664  1.00  0.00     0.135 A 
ATOM     64  F   UNL A   1      43.113  27.093  37.016  1.00  0.00    -0.206 F 
ATOM     65  C   UNL A   1      45.420  26.886  37.392  1.00  0.00     0.059 A 
ATOM     66  C   UNL A   1      46.965  28.392  36.278  1.00  0.00     0.059 A 
ATOM     67  F   UNL A   1      46.138  30.061  34.850  1.00  0.00    -0.206 F 
ATOM     68  C   UNL A   1      46.719  27.333  37.151  1.00  0.00     0.060 A 
BRANCH  68  69
ATOM     69  S   UNL A   1      48.089  26.505  37.988  1.00  0.00     0.124 S 
ATOM     70  O   UNL A   1      47.510  26.242  39.301  1.00  0.00    -0.237 OA
ATOM     71  O   UNL A   1      48.310  25.333  37.146  1.00  0.00    -0.237 OA
ATOM     72  O   UNL A   1      49.155  27.502  37.960  1.00  0.00    -0.744 OA
ENDBRANCH  68  69
ENDBRANCH  47  61
BRANCH  48  73
ATOM     73  C   UNL A   1      37.003  32.853  30.943  1.00  0.00     0.058 A 
ATOM     74  C   UNL A   1      37.206  33.785  29.916  1.00  0.00     0.135 A 
ATOM     75  C   UNL A   1      35.681  32.521  31.277  1.00  0.00     0.135 A 
ATOM     76  F   UNL A   1      38.453  34.137  29.568  1.00  0.00    -0.206 F 
ATOM     77  C   UNL A   1      36.138  34.380  29.253  1.00  0.00     0.059 A 
ATOM     78  C   UNL A   1      34.597  33.087  30.616  1.00  0.00     0.059 A 
ATOM     79  F   UNL A   1      35.437  31.624  32.244  1.00  0.00    -0.206 F 
ATOM     80  C   UNL A   1      34.836  34.024  29.611  1.00  0.00     0.060 A 
BRANCH  80  81
ATOM     81  S   UNL A   1      33.450  34.759  28.713  1.00  0.00     0.124 S 
ATOM     82  O   UNL A   1      33.088  33.680  27.801  1.00  0.00    -0.237 OA
ATOM     83  O   UNL A   1      32.498  35.036  29.785  1.00  0.00    -0.237 OA
ATOM     84  O   UNL A   1      34.045  35.940  28.095  1.00  0.00    -0.744 OA
ENDBRANCH  80  81
ENDBRANCH  48  73
BRANCH  60  85
ATOM     85  C   UNL A   1      40.025  34.089  37.094  1.00  0.00     0.058 A 
ATOM     86  C   UNL A   1      39.144  33.839  38.157  1.00  0.00     0.135 A 
ATOM     87  C   UNL A   1      40.680  35.330  37.058  1.00  0.00     0.135 A 
ATOM     88  F   UNL A   1      38.492  32.669  38.233  1.00  0.00    -0.206 F 
ATOM     89  C   UNL A   1      38.896  34.798  39.135  1.00  0.00     0.059 A 
ATOM     90  C   UNL A   1      40.462  36.295  38.036  1.00  0.00     0.059 A 
ATOM     91  F   UNL A   1      41.540  35.613  36.067  1.00  0.00    -0.206 F 
ATOM     92  C   UNL A   1      39.555  36.026  39.061  1.00  0.00     0.060 A 
BRANCH  92  93
ATOM     93  S   UNL A   1      39.234  37.266  40.334  1.00  0.00     0.124 S 
ATOM     94  O   UNL A   1      38.462  38.256  39.589  1.00  0.00    -0.237 OA
ATOM     95  O   UNL A   1      38.491  36.507  41.336  1.00  0.00    -0.237 OA
ATOM     96  O   UNL A   1      40.570  37.686  40.741  1.00  0.00    -0.744 OA
ENDBRANCH  92  93
ENDBRANCH  60  85
ENDBRANCH  34  35
ENDBRANCH  27  29
ENDBRANCH  26  27
ENDBRANCH  25  26
ENDBRANCH  24  25
ENDBRANCH  23  24
ENDBRANCH   1  23
TORSDOF 21
ENDMDL
MODEL 2
REMARK VINA RESULT:     -10.1      5.053     10.512
REMARK SMILES C[C@H](NC(=O)c1cc(S(=O)(=O)N(C)C)cs1)C(=O)OCCOCCOC(=O)c1ccc(-c2c3nc(c(-c4c(F)cc(S(=O)(=O)[O-])cc4F)c4ccc([nH]4)c(-c4c(F)cc(S(=O)(=O)[O-])cc4F)c4nc(c(-c5c(F)cc(S(=O)(=O)[O-])cc5F)c5ccc2[nH]5)C=C4)C=C3)cc1
REMARK SMILES IDX 21 1 20 2 19 3 17 4 18 5 2 6 1 7 3 8 4 9 5 11 6 12 7 13
REMARK SMILES IDX 16 14 8 15 15 16 9 17 10 18 11 19 12 20 13 21 14 22 22 23
REMARK SMILES IDX 23 24 24 25 25 26 26 27 27 28 28 29 29 30 93 31 30 32 92 33
REMARK SMILES IDX 31 34 32 35 33 36 86 37 34 38 91 39 85 40 87 41 35 42 90 43
REMARK SMILES IDX 84 44 83 45 36 47 70 48 49 49 69 50 50 51 53 52 68 53 88 54
REMARK SMILES IDX 51 55 52 56 67 58 89 59 54 60 37 61 38 62 47 63 39 64 40 65
REMARK SMILES IDX 46 66 48 67 41 68 42 69 43 70 44 71 45 72 71 73 72 74 81 75
REMARK SMILES IDX 73 76 74 77 80 78 82 79 75 80 76 81 77 82 78 83 79 84 55 85
REMARK SMILES IDX 56 86 65 87 57 88 58 89 64 90 66 91 59 92 60 93 61 94 62 95
REMARK SMILES IDX 63 96
REMARK H PARENT 3 10 87 46 53 57
REMARK Flexibility Score: inf
ROOT
ATOM      1  C   UNL A   1      31.385  28.030  24.750  1.00  0.00     0.202 C 
ENDROOT
BRANCH   1   2
ATOM      2  C   UNL A   1      31.256  27.081  25.942  1.00  0.00     0.261 C 
BRANCH   2   3
ATOM      3  O   UNL A   1      31.097  25.725  25.481  1.00  0.00    -0.462 OA
BRANCH   3   4
ATOM      4  C   UNL A   1      31.804  24.799  26.179  1.00  0.00     0.328 C 
ATOM      5  O   UNL A   1      31.485  24.371  27.282  1.00  0.00    -0.250 OA
BRANCH   4   6
ATOM      6  C   UNL A   1      33.097  24.378  25.464  1.00  0.00     0.189 C 
ATOM      7  C   UNL A   1      34.208  25.341  25.860  1.00  0.00     0.043 C 
BRANCH   6   8
ATOM      8  N   UNL A   1      33.049  24.300  23.996  1.00  0.00    -0.338 N 
ATOM      9  C   UNL A   1      33.512  23.289  23.188  1.00  0.00     0.262 C 
ATOM     10  H   UNL A   1      32.634  25.065  23.536  1.00  0.00     0.164 HD
ATOM     11  O   UNL A   1      33.554  23.465  21.973  1.00  0.00    -0.268 OA
BRANCH   9  12
ATOM     12  C   UNL A   1      33.836  22.030  23.817  1.00  0.00     0.093 A 
ATOM     13  C   UNL A   1      33.018  20.928  23.920  1.00  0.00     0.047 A 
ATOM     14  S   UNL A   1      35.363  21.754  24.527  1.00  0.00    -0.137 S 
ATOM     15  C   UNL A   1      33.635  19.856  24.615  1.00  0.00     0.094 A 
ATOM     16  C   UNL A   1      34.908  20.175  25.037  1.00  0.00     0.087 A 
BRANCH  15  17
ATOM     17  S   UNL A   1      32.825  18.357  24.933  1.00  0.00     0.243 S 
ATOM     18  O   UNL A   1      32.533  18.394  26.349  1.00  0.00    -0.207 OA
ATOM     19  O   UNL A   1      31.786  18.335  23.929  1.00  0.00    -0.207 OA
BRANCH  17  20
ATOM     20  N   UNL A   1      33.928  17.092  24.629  1.00  0.00    -0.204 NA
ATOM     21  C   UNL A   1      33.658  15.828  25.347  1.00  0.00     0.124 C 
ATOM     22  C   UNL A   1      34.225  16.867  23.200  1.00  0.00     0.124 C 
ENDBRANCH  17  20
ENDBRANCH  15  17
ENDBRANCH   9  12
ENDBRANCH   6   8
ENDBRANCH   4   6
ENDBRANCH   3   4
ENDBRANCH   2   3
ENDBRANCH   1   2
BRANCH   1  23
ATOM     23  O   UNL A   1      31.742  29.373  25.102  1.00  0.00    -0.374 OA
BRANCH  23  24
ATOM     24  C   UNL A   1      33.063  29.560  25.604  1.00  0.00     0.202 C 
BRANCH  24  25
ATOM     25  C   UNL A   1      33.172  30.217  26.982  1.00  0.00     0.261 C 
BRANCH  25  26
ATOM     26  O   UNL A   1      34.221  29.638  27.769  1.00  0.00    -0.460 OA
BRANCH  26  27
ATOM     27  C   UNL A   1      35.067  30.548  28.312  1.00  0.00     0.338 C 
ATOM     28  O   UNL A   1      34.771  31.633  28.784  1.00  0.00    -0.246 OA
BRANCH  27  29
ATOM     29  C   UNL A   1      36.425  29.979  28.416  1.00  0.00     0.060 A 
ATOM     30  C   UNL A   1      36.812  29.500  29.672  1.00  0.00     0.016 A 
ATOM     31  C   UNL A   1      37.317  29.955  27.340  1.00  0.00     0.016 A 
ATOM     32  C   UNL A   1      38.114  29.051  29.873  1.00  0.00     0.010 A 
ATOM     33  C   UNL A   1      38.629  29.508  27.545  1.00  0.00     0.010 A 
ATOM     34  C   UNL A   1      39.040  29.091  28.822  1.00  0.00    -0.014 A 
BRANCH  34  35
ATOM     35  C   UNL A   1      40.466  28.834  29.134  1.00  0.00     0.031 A 
ATOM     36  C   UNL A   1      41.052  27.490  28.800  1.00  0.00     0.074 A 
ATOM     37  C   UNL A   1      41.247  29.815  29.618  1.00  0.00     0.049 A 
ATOM     38  N   UNL A   1      42.294  27.089  28.868  1.00  0.00    -0.248 NA
ATOM     39  C   UNL A   1      40.113  26.463  28.320  1.00  0.00     0.031 C 
ATOM     40  C   UNL A   1      40.795  31.161  29.971  1.00  0.00     0.029 A 
ATOM     41  N   UNL A   1      42.593  29.831  29.883  1.00  0.00    -0.354 N 
ATOM     42  C   UNL A   1      42.293  25.775  28.416  1.00  0.00     0.074 A 
ATOM     43  C   UNL A   1      40.919  25.430  28.120  1.00  0.00     0.031 C 
ATOM     44  C   UNL A   1      41.848  31.872  30.411  1.00  0.00     0.029 A 
ATOM     45  C   UNL A   1      43.044  31.034  30.369  1.00  0.00     0.049 A 
ATOM     46  H   UNL A   1      43.179  29.054  29.740  1.00  0.00     0.167 HD
ATOM     47  C   UNL A   1      43.342  24.938  28.242  1.00  0.00     0.037 A 
ATOM     48  C   UNL A   1      44.284  31.415  30.730  1.00  0.00     0.037 A 
ATOM     49  C   UNL A   1      44.706  25.273  28.554  1.00  0.00     0.049 A 
ATOM     50  C   UNL A   1      45.432  30.457  30.557  1.00  0.00     0.074 A 
ATOM     51  C   UNL A   1      45.839  24.488  28.430  1.00  0.00     0.029 A 
ATOM     52  N   UNL A   1      45.122  26.497  29.058  1.00  0.00    -0.354 N 
ATOM     53  N   UNL A   1      45.419  29.228  30.098  1.00  0.00    -0.248 NA
ATOM     54  C   UNL A   1      46.766  30.945  30.932  1.00  0.00     0.031 C 
ATOM     55  C   UNL A   1      46.938  25.229  28.883  1.00  0.00     0.029 A 
ATOM     56  C   UNL A   1      46.492  26.486  29.258  1.00  0.00     0.049 A 
ATOM     57  H   UNL A   1      44.530  27.260  29.246  1.00  0.00     0.167 HD
ATOM     58  C   UNL A   1      46.742  28.800  30.118  1.00  0.00     0.074 A 
ATOM     59  C   UNL A   1      47.532  29.909  30.615  1.00  0.00     0.031 C 
ATOM     60  C   UNL A   1      47.259  27.599  29.759  1.00  0.00     0.037 A 
BRANCH  47  61
ATOM     61  C   UNL A   1      43.047  23.575  27.688  1.00  0.00     0.058 A 
ATOM     62  C   UNL A   1      42.655  22.518  28.527  1.00  0.00     0.135 A 
ATOM     63  C   UNL A   1      43.140  23.321  26.312  1.00  0.00     0.135 A 
ATOM     64  F   UNL A   1      42.571  22.705  29.854  1.00  0.00    -0.206 F 
ATOM     65  C   UNL A   1      42.387  21.251  28.021  1.00  0.00     0.059 A 
ATOM     66  C   UNL A   1      42.858  22.064  25.782  1.00  0.00     0.059 A 
ATOM     67  F   UNL A   1      43.516  24.295  25.468  1.00  0.00    -0.206 F 
ATOM     68  C   UNL A   1      42.496  21.033  26.647  1.00  0.00     0.060 A 
BRANCH  68  69
ATOM     69  S   UNL A   1      42.149  19.382  26.003  1.00  0.00     0.124 S 
ATOM     70  O   UNL A   1      42.949  19.373  24.783  1.00  0.00    -0.237 OA
ATOM     71  O   UNL A   1      42.624  18.517  27.079  1.00  0.00    -0.237 OA
ATOM     72  O   UNL A   1      40.702  19.393  25.806  1.00  0.00    -0.744 OA
ENDBRANCH  68  69
ENDBRANCH  47  61
BRANCH  48  73
ATOM     73  C   UNL A   1      44.507  32.773  31.289  1.00  0.00     0.058 A 
ATOM     74  C   UNL A   1      44.835  33.858  30.464  1.00  0.00     0.135 A 
ATOM     75  C   UNL A   1      44.395  33.007  32.668  1.00  0.00     0.135 A 
ATOM     76  F   UNL A   1      44.960  33.679  29.140  1.00  0.00    -0.206 F 
ATOM     77  C   UNL A   1      45.059  35.127  30.987  1.00  0.00     0.059 A 
ATOM     78  C   UNL A   1      44.594  34.271  33.212  1.00  0.00     0.059 A 
ATOM     79  F   UNL A   1      44.070  32.002  33.496  1.00  0.00    -0.206 F 
ATOM     80  C   UNL A   1      44.937  35.323  32.364  1.00  0.00     0.060 A 
BRANCH  80  81
ATOM     81  S   UNL A   1      45.176  36.983  33.036  1.00  0.00     0.124 S 
ATOM     82  O   UNL A   1      44.462  36.891  34.304  1.00  0.00    -0.237 OA
ATOM     83  O   UNL A   1      46.631  37.075  33.127  1.00  0.00    -0.237 OA
ATOM     84  O   UNL A   1      44.566  37.841  32.025  1.00  0.00    -0.744 OA
ENDBRANCH  80  81
ENDBRANCH  48  73
BRANCH  60  85
ATOM     85  C   UNL A   1      48.747  27.430  29.883  1.00  0.00     0.058 A 
ATOM     86  C   UNL A   1      49.342  27.058  31.097  1.00  0.00     0.135 A 
ATOM     87  C   UNL A   1      49.582  27.624  28.771  1.00  0.00     0.135 A 
ATOM     88  F   UNL A   1      48.585  26.865  32.189  1.00  0.00    -0.206 F 
ATOM     89  C   UNL A   1      50.721  26.915  31.215  1.00  0.00     0.059 A 
ATOM     90  C   UNL A   1      50.961  27.465  28.861  1.00  0.00     0.059 A 
ATOM     91  F   UNL A   1      49.059  27.969  27.584  1.00  0.00    -0.206 F 
ATOM     92  C   UNL A   1      51.522  27.127  30.093  1.00  0.00     0.060 A 
BRANCH  92  93
ATOM     93  S   UNL A   1      53.311  26.935  30.249  1.00  0.00     0.124 S 
ATOM     94  O   UNL A   1      53.660  26.379  28.946  1.00  0.00    -0.237 OA
ATOM     95  O   UNL A   1      53.757  28.303  30.494  1.00  0.00    -0.237 OA
ATOM     96  O   UNL A   1      53.454  26.026  31.381  1.00  0.00    -0.744 OA
ENDBRANCH  92  93
ENDBRANCH  60  85
ENDBRANCH  34  35
ENDBRANCH  27  29
ENDBRANCH  26  27
ENDBRANCH  25  26
ENDBRANCH  24  25
ENDBRANCH  23  24
ENDBRANCH   1  23
TORSDOF 21
ENDMDL
MODEL 3
REMARK VINA RESULT:     -10.1      6.178     12.204
REMARK SMILES C[C@H](NC(=O)c1cc(S(=O)(=O)N(C)C)cs1)C(=O)OCCOCCOC(=O)c1ccc(-c2c3nc(c(-c4c(F)cc(S(=O)(=O)[O-])cc4F)c4ccc([nH]4)c(-c4c(F)cc(S(=O)(=O)[O-])cc4F)c4nc(c(-c5c(F)cc(S(=O)(=O)[O-])cc5F)c5ccc2[nH]5)C=C4)C=C3)cc1
REMARK SMILES IDX 21 1 20 2 19 3 17 4 18 5 2 6 1 7 3 8 4 9 5 11 6 12 7 13
REMARK SMILES IDX 16 14 8 15 15 16 9 17 10 18 11 19 12 20 13 21 14 22 22 23
REMARK SMILES IDX 23 24 24 25 25 26 26 27 27 28 28 29 29 30 93 31 30 32 92 33
REMARK SMILES IDX 31 34 32 35 33 36 86 37 34 38 91 39 85 40 87 41 35 42 90 43
REMARK SMILES IDX 84 44 83 45 36 47 70 48 49 49 69 50 50 51 53 52 68 53 88 54
REMARK SMILES IDX 51 55 52 56 67 58 89 59 54 60 37 61 38 62 47 63 39 64 40 65
REMARK SMILES IDX 46 66 48 67 41 68 42 69 43 70 44 71 45 72 71 73 72 74 81 75
REMARK SMILES IDX 73 76 74 77 80 78 82 79 75 80 76 81 77 82 78 83 79 84 55 85
REMARK SMILES IDX 56 86 65 87 57 88 58 89 64 90 66 91 59 92 60 93 61 94 62 95
REMARK SMILES IDX 63 96
REMARK H PARENT 3 10 87 46 53 57
REMARK Flexibility Score: inf
ROOT
ATOM      1  C   UNL A   1      35.138  31.216  27.911  1.00  0.00     0.202 C 
ENDROOT
BRANCH   1   2
ATOM      2  C   UNL A   1      33.655  31.118  27.551  1.00  0.00     0.261 C 
BRANCH   2   3
ATOM      3  O   UNL A   1      33.443  30.044  26.615  1.00  0.00    -0.462 OA
BRANCH   3   4
ATOM      4  C   UNL A   1      32.290  30.128  25.903  1.00  0.00     0.328 C 
ATOM      5  O   UNL A   1      31.435  30.991  26.067  1.00  0.00    -0.250 OA
BRANCH   4   6
ATOM      6  C   UNL A   1      32.132  28.981  24.893  1.00  0.00     0.189 C 
ATOM      7  C   UNL A   1      33.140  29.182  23.769  1.00  0.00     0.043 C 
BRANCH   6   8
ATOM      8  N   UNL A   1      30.799  28.799  24.297  1.00  0.00    -0.338 N 
ATOM      9  C   UNL A   1      30.262  27.651  23.767  1.00  0.00     0.262 C 
ATOM     10  H   UNL A   1      30.223  29.597  24.277  1.00  0.00     0.164 HD
ATOM     11  O   UNL A   1      29.202  27.717  23.148  1.00  0.00    -0.268 OA
BRANCH   9  12
ATOM     12  C   UNL A   1      30.934  26.406  24.053  1.00  0.00     0.093 A 
ATOM     13  C   UNL A   1      30.692  25.567  25.116  1.00  0.00     0.047 A 
ATOM     14  S   UNL A   1      32.163  25.801  23.036  1.00  0.00    -0.137 S 
ATOM     15  C   UNL A   1      31.542  24.430  25.118  1.00  0.00     0.094 A 
ATOM     16  C   UNL A   1      32.422  24.441  24.057  1.00  0.00     0.087 A 
BRANCH  15  17
ATOM     17  S   UNL A   1      31.492  23.225  26.361  1.00  0.00     0.243 S 
ATOM     18  O   UNL A   1      31.755  23.951  27.584  1.00  0.00    -0.207 OA
ATOM     19  O   UNL A   1      30.233  22.559  26.112  1.00  0.00    -0.207 OA
BRANCH  17  20
ATOM     20  N   UNL A   1      32.771  22.131  26.081  1.00  0.00    -0.204 NA
ATOM     21  C   UNL A   1      33.605  21.815  27.261  1.00  0.00     0.124 C 
ATOM     22  C   UNL A   1      32.390  20.920  25.328  1.00  0.00     0.124 C 
ENDBRANCH  17  20
ENDBRANCH  15  17
ENDBRANCH   9  12
ENDBRANCH   6   8
ENDBRANCH   4   6
ENDBRANCH   3   4
ENDBRANCH   2   3
ENDBRANCH   1   2
BRANCH   1  23
ATOM     23  O   UNL A   1      35.554  32.517  28.345  1.00  0.00    -0.374 OA
BRANCH  23  24
ATOM     24  C   UNL A   1      34.987  32.983  29.567  1.00  0.00     0.202 C 
BRANCH  24  25
ATOM     25  C   UNL A   1      35.153  32.066  30.780  1.00  0.00     0.261 C 
BRANCH  25  26
ATOM     26  O   UNL A   1      36.527  31.930  31.164  1.00  0.00    -0.460 OA
BRANCH  26  27
ATOM     27  C   UNL A   1      36.944  30.644  31.267  1.00  0.00     0.338 C 
ATOM     28  O   UNL A   1      36.277  29.682  31.610  1.00  0.00    -0.246 OA
BRANCH  27  29
ATOM     29  C   UNL A   1      38.315  30.511  30.737  1.00  0.00     0.060 A 
ATOM     30  C   UNL A   1      38.455  30.501  29.345  1.00  0.00     0.016 A 
ATOM     31  C   UNL A   1      39.432  30.352  31.564  1.00  0.00     0.016 A 
ATOM     32  C   UNL A   1      39.702  30.269  28.774  1.00  0.00     0.010 A 
ATOM     33  C   UNL A   1      40.686  30.113  30.987  1.00  0.00     0.010 A 
ATOM     34  C   UNL A   1      40.815  30.033  29.591  1.00  0.00    -0.014 A 
BRANCH  34  35
ATOM     35  C   UNL A   1      42.065  29.556  28.953  1.00  0.00     0.031 A 
ATOM     36  C   UNL A   1      43.219  30.510  28.812  1.00  0.00     0.074 A 
ATOM     37  C   UNL A   1      42.200  28.268  28.593  1.00  0.00     0.049 A 
ATOM     38  N   UNL A   1      44.439  30.278  28.404  1.00  0.00    -0.248 NA
ATOM     39  C   UNL A   1      42.965  31.910  29.188  1.00  0.00     0.031 C 
ATOM     40  C   UNL A   1      41.156  27.248  28.690  1.00  0.00     0.029 A 
ATOM     41  N   UNL A   1      43.282  27.595  28.085  1.00  0.00    -0.354 N 
ATOM     42  C   UNL A   1      45.107  31.493  28.498  1.00  0.00     0.074 A 
ATOM     43  C   UNL A   1      44.144  32.472  28.956  1.00  0.00     0.031 C 
ATOM     44  C   UNL A   1      41.649  26.077  28.250  1.00  0.00     0.029 A 
ATOM     45  C   UNL A   1      43.041  26.265  27.844  1.00  0.00     0.049 A 
ATOM     46  H   UNL A   1      44.149  28.026  27.908  1.00  0.00     0.167 HD
ATOM     47  C   UNL A   1      46.408  31.767  28.245  1.00  0.00     0.037 A 
ATOM     48  C   UNL A   1      43.853  25.308  27.358  1.00  0.00     0.037 A 
ATOM     49  C   UNL A   1      47.361  30.800  27.769  1.00  0.00     0.049 A 
ATOM     50  C   UNL A   1      45.290  25.642  27.055  1.00  0.00     0.074 A 
ATOM     51  C   UNL A   1      48.700  30.983  27.467  1.00  0.00     0.029 A 
ATOM     52  N   UNL A   1      47.075  29.465  27.523  1.00  0.00    -0.354 N 
ATOM     53  N   UNL A   1      45.914  26.789  27.178  1.00  0.00    -0.248 NA
ATOM     54  C   UNL A   1      46.137  24.546  26.564  1.00  0.00     0.031 C 
ATOM     55  C   UNL A   1      49.217  29.762  27.013  1.00  0.00     0.029 A 
ATOM     56  C   UNL A   1      48.208  28.814  27.065  1.00  0.00     0.049 A 
ATOM     57  H   UNL A   1      46.195  29.043  27.656  1.00  0.00     0.167 HD
ATOM     58  C   UNL A   1      47.228  26.551  26.793  1.00  0.00     0.074 A 
ATOM     59  C   UNL A   1      47.315  25.145  26.452  1.00  0.00     0.031 C 
ATOM     60  C   UNL A   1      48.271  27.415  26.726  1.00  0.00     0.037 A 
BRANCH  47  61
ATOM     61  C   UNL A   1      46.870  33.176  28.479  1.00  0.00     0.058 A 
ATOM     62  C   UNL A   1      46.851  34.128  27.447  1.00  0.00     0.135 A 
ATOM     63  C   UNL A   1      47.321  33.585  29.742  1.00  0.00     0.135 A 
ATOM     64  F   UNL A   1      46.447  33.781  26.214  1.00  0.00    -0.206 F 
ATOM     65  C   UNL A   1      47.285  35.433  27.655  1.00  0.00     0.059 A 
ATOM     66  C   UNL A   1      47.742  34.891  29.978  1.00  0.00     0.059 A 
ATOM     67  F   UNL A   1      47.365  32.711  30.761  1.00  0.00    -0.206 F 
ATOM     68  C   UNL A   1      47.733  35.803  28.923  1.00  0.00     0.060 A 
BRANCH  68  69
ATOM     69  S   UNL A   1      48.297  37.499  29.181  1.00  0.00     0.124 S 
ATOM     70  O   UNL A   1      47.511  38.221  28.185  1.00  0.00    -0.237 OA
ATOM     71  O   UNL A   1      47.934  37.744  30.574  1.00  0.00    -0.237 OA
ATOM     72  O   UNL A   1      49.730  37.423  28.915  1.00  0.00    -0.744 OA
ENDBRANCH  68  69
ENDBRANCH  47  61
BRANCH  48  73
ATOM     73  C   UNL A   1      43.330  23.937  27.132  1.00  0.00     0.058 A 
ATOM     74  C   UNL A   1      43.235  23.009  28.178  1.00  0.00     0.135 A 
ATOM     75  C   UNL A   1      42.912  23.532  25.855  1.00  0.00     0.135 A 
ATOM     76  F   UNL A   1      43.630  23.350  29.414  1.00  0.00    -0.206 F 
ATOM     77  C   UNL A   1      42.759  21.720  27.965  1.00  0.00     0.059 A 
ATOM     78  C   UNL A   1      42.413  22.255  25.621  1.00  0.00     0.059 A 
ATOM     79  F   UNL A   1      42.970  24.390  24.825  1.00  0.00    -0.206 F 
ATOM     80  C   UNL A   1      42.351  21.352  26.681  1.00  0.00     0.060 A 
BRANCH  80  81
ATOM     81  S   UNL A   1      41.683  19.694  26.417  1.00  0.00     0.124 S 
ATOM     82  O   UNL A   1      40.259  19.972  26.270  1.00  0.00    -0.237 OA
ATOM     83  O   UNL A   1      42.379  19.268  25.206  1.00  0.00    -0.237 OA
ATOM     84  O   UNL A   1      42.068  18.984  27.633  1.00  0.00    -0.744 OA
ENDBRANCH  80  81
ENDBRANCH  48  73
BRANCH  60  85
ATOM     85  C   UNL A   1      49.593  26.859  26.276  1.00  0.00     0.058 A 
ATOM     86  C   UNL A   1      50.070  27.070  24.974  1.00  0.00     0.135 A 
ATOM     87  C   UNL A   1      50.396  26.124  27.162  1.00  0.00     0.135 A 
ATOM     88  F   UNL A   1      49.336  27.763  24.090  1.00  0.00    -0.206 F 
ATOM     89  C   UNL A   1      51.288  26.544  24.554  1.00  0.00     0.059 A 
ATOM     90  C   UNL A   1      51.626  25.607  26.770  1.00  0.00     0.059 A 
ATOM     91  F   UNL A   1      49.988  25.905  28.422  1.00  0.00    -0.206 F 
ATOM     92  C   UNL A   1      52.056  25.807  25.458  1.00  0.00     0.060 A 
BRANCH  92  93
ATOM     93  S   UNL A   1      53.637  25.131  24.909  1.00  0.00     0.124 S 
ATOM     94  O   UNL A   1      53.540  23.750  25.373  1.00  0.00    -0.237 OA
ATOM     95  O   UNL A   1      53.579  25.318  23.463  1.00  0.00    -0.237 OA
ATOM     96  O   UNL A   1      54.617  25.960  25.602  1.00  0.00    -0.744 OA
ENDBRANCH  92  93
ENDBRANCH  60  85
ENDBRANCH  34  35
ENDBRANCH  27  29
ENDBRANCH  26  27
ENDBRANCH  25  26
ENDBRANCH  24  25
ENDBRANCH  23  24
ENDBRANCH   1  23
TORSDOF 21
ENDMDL
