MODEL 1
REMARK VINA RESULT:     -10.3      0.000      0.000
REMARK SMILES COc1ccc2c(c1)CCN=C2C[C@H]1CN(C(=O)c2ccco2)CC[C@H]1CC(=O)OCCOCCOC(=O)c1ccc(-c2c3nc(c(-c4c(F)cc(S(=O)(=O)[O-])cc4F)c4ccc([nH]4)c(-c4c(F)cc(S(=O)(=O)[O-])cc4F)c4nc(c(-c5c(F)cc(S(=O)(=O)[O-])cc5F)c5ccc2[nH]5)C=C4)C=C3)cc1
REMARK SMILES IDX 32 1 31 2 30 3 28 4 29 5 27 6 26 7 14 8 15 9 16 10 25 11
REMARK SMILES IDX 24 12 13 13 12 14 3 15 4 16 8 17 5 18 7 19 6 20 9 21 10 22
REMARK SMILES IDX 11 23 2 24 1 25 17 26 18 27 19 28 20 29 23 30 21 31 22 32
REMARK SMILES IDX 33 33 34 34 35 35 36 36 37 37 38 38 39 39 40 40 104 41 41 42
REMARK SMILES IDX 103 43 42 44 43 45 44 46 97 47 45 48 102 49 96 50 98 51
REMARK SMILES IDX 46 52 101 53 95 54 94 55 47 57 81 58 60 59 80 60 61 61 64 62
REMARK SMILES IDX 79 63 99 64 62 65 63 66 78 68 100 69 65 70 48 71 49 72 58 73
REMARK SMILES IDX 50 74 51 75 57 76 59 77 52 78 53 79 54 80 55 81 56 82 82 83
REMARK SMILES IDX 83 84 92 85 84 86 85 87 91 88 93 89 86 90 87 91 88 92 89 93
REMARK SMILES IDX 90 94 66 95 67 96 76 97 68 98 69 99 75 100 77 101 70 102
REMARK SMILES IDX 71 103 72 104 73 105 74 106
REMARK H PARENT 98 56 64 67
REMARK Flexibility Score: inf
ROOT
ATOM      1  C   UNL A   1      46.543  40.091  25.105  1.00  0.00     0.202 C 
ENDROOT
BRANCH   1   2
ATOM      2  C   UNL A   1      46.748  41.209  24.081  1.00  0.00     0.261 C 
BRANCH   2   3
ATOM      3  O   UNL A   1      47.152  40.642  22.824  1.00  0.00    -0.463 OA
BRANCH   3   4
ATOM      4  C   UNL A   1      47.266  41.500  21.784  1.00  0.00     0.306 C 
ATOM      5  O   UNL A   1      48.084  41.397  20.876  1.00  0.00    -0.252 OA
BRANCH   4   6
ATOM      6  C   UNL A   1      46.210  42.584  21.793  1.00  0.00     0.126 C 
BRANCH   6   7
ATOM      7  C   UNL A   1      45.048  42.555  20.766  1.00  0.00     0.007 C 
ATOM      8  C   UNL A   1      43.680  43.097  21.259  1.00  0.00     0.018 C 
ATOM      9  C   UNL A   1      42.701  43.212  20.082  1.00  0.00     0.124 C 
ATOM     10  N   UNL A   1      43.218  44.087  19.045  1.00  0.00    -0.336 N 
ATOM     11  C   UNL A   1      45.538  43.185  19.437  1.00  0.00     0.026 C 
ATOM     12  C   UNL A   1      44.476  43.665  18.447  1.00  0.00     0.120 C 
BRANCH   8  13
ATOM     13  C   UNL A   1      43.686  44.341  22.175  1.00  0.00     0.062 C 
BRANCH  13  14
ATOM     14  C   UNL A   1      43.987  44.111  23.654  1.00  0.00     0.043 C 
ATOM     15  C   UNL A   1      42.249  40.890  25.894  1.00  0.00     0.119 A 
ATOM     16  C   UNL A   1      41.628  41.303  24.716  1.00  0.00     0.047 A 
ATOM     17  C   UNL A   1      43.388  41.549  26.350  1.00  0.00     0.050 A 
ATOM     18  C   UNL A   1      42.174  42.349  23.963  1.00  0.00     0.014 A 
ATOM     19  C   UNL A   1      43.932  42.601  25.607  1.00  0.00    -0.033 A 
ATOM     20  C   UNL A   1      43.330  42.995  24.400  1.00  0.00    -0.001 A 
ATOM     21  C   UNL A   1      45.180  43.295  26.068  1.00  0.00     0.060 C 
ATOM     22  C   UNL A   1      45.146  44.745  25.622  1.00  0.00     0.147 C 
ATOM     23  N   UNL A   1      44.886  44.868  24.190  1.00  0.00    -0.289 NA
BRANCH  15  24
ATOM     24  O   UNL A   1      41.782  39.884  26.694  1.00  0.00    -0.497 OA
ATOM     25  C   UNL A   1      42.757  39.403  27.618  1.00  0.00     0.278 C 
ENDBRANCH  15  24
ENDBRANCH  13  14
ENDBRANCH   8  13
BRANCH  10  26
ATOM     26  C   UNL A   1      42.425  45.172  18.642  1.00  0.00     0.289 C 
ATOM     27  O   UNL A   1      41.200  45.128  18.772  1.00  0.00    -0.265 OA
BRANCH  26  28
ATOM     28  C   UNL A   1      43.068  46.371  18.147  1.00  0.00     0.191 A 
ATOM     29  C   UNL A   1      42.696  47.381  17.280  1.00  0.00     0.056 A 
ATOM     30  O   UNL A   1      44.304  46.664  18.663  1.00  0.00    -0.459 OA
ATOM     31  C   UNL A   1      43.768  48.311  17.248  1.00  0.00     0.043 A 
ATOM     32  C   UNL A   1      44.721  47.826  18.109  1.00  0.00     0.196 A 
ENDBRANCH  26  28
ENDBRANCH  10  26
ENDBRANCH   6   7
ENDBRANCH   4   6
ENDBRANCH   3   4
ENDBRANCH   2   3
ENDBRANCH   1   2
BRANCH   1  33
ATOM     33  O   UNL A   1      47.696  39.303  25.414  1.00  0.00    -0.374 OA
BRANCH  33  34
ATOM     34  C   UNL A   1      48.286  39.472  26.701  1.00  0.00     0.202 C 
BRANCH  34  35
ATOM     35  C   UNL A   1      49.153  38.321  27.229  1.00  0.00     0.261 C 
BRANCH  35  36
ATOM     36  O   UNL A   1      48.500  37.542  28.247  1.00  0.00    -0.460 OA
BRANCH  36  37
ATOM     37  C   UNL A   1      49.138  36.381  28.545  1.00  0.00     0.338 C 
ATOM     38  O   UNL A   1      50.278  36.257  28.959  1.00  0.00    -0.246 OA
BRANCH  37  39
ATOM     39  C   UNL A   1      48.209  35.236  28.466  1.00  0.00     0.060 A 
ATOM     40  C   UNL A   1      48.240  34.322  29.525  1.00  0.00     0.016 A 
ATOM     41  C   UNL A   1      47.409  34.998  27.346  1.00  0.00     0.016 A 
ATOM     42  C   UNL A   1      47.521  33.132  29.443  1.00  0.00     0.010 A 
ATOM     43  C   UNL A   1      46.691  33.798  27.264  1.00  0.00     0.010 A 
ATOM     44  C   UNL A   1      46.776  32.841  28.293  1.00  0.00    -0.014 A 
BRANCH  44  45
ATOM     45  C   UNL A   1      46.217  31.476  28.121  1.00  0.00     0.031 A 
ATOM     46  C   UNL A   1      47.106  30.380  27.594  1.00  0.00     0.074 A 
ATOM     47  C   UNL A   1      44.951  31.202  28.485  1.00  0.00     0.049 A 
ATOM     48  N   UNL A   1      46.826  29.122  27.370  1.00  0.00    -0.248 NA
ATOM     49  C   UNL A   1      48.497  30.751  27.281  1.00  0.00     0.031 C 
ATOM     50  C   UNL A   1      44.005  32.167  29.041  1.00  0.00     0.029 A 
ATOM     51  N   UNL A   1      44.243  30.027  28.435  1.00  0.00    -0.354 N 
ATOM     52  C   UNL A   1      47.997  28.553  26.881  1.00  0.00     0.074 A 
ATOM     53  C   UNL A   1      48.985  29.607  26.820  1.00  0.00     0.031 C 
ATOM     54  C   UNL A   1      42.834  31.548  29.269  1.00  0.00     0.029 A 
ATOM     55  C   UNL A   1      42.939  30.151  28.850  1.00  0.00     0.049 A 
ATOM     56  H   UNL A   1      44.632  29.176  28.130  1.00  0.00     0.167 HD
ATOM     57  C   UNL A   1      48.229  27.268  26.524  1.00  0.00     0.037 A 
ATOM     58  C   UNL A   1      41.938  29.248  28.870  1.00  0.00     0.037 A 
ATOM     59  C   UNL A   1      47.248  26.217  26.600  1.00  0.00     0.049 A 
ATOM     60  C   UNL A   1      42.208  27.834  28.422  1.00  0.00     0.074 A 
ATOM     61  C   UNL A   1      47.398  24.876  26.292  1.00  0.00     0.029 A 
ATOM     62  N   UNL A   1      45.932  26.388  27.005  1.00  0.00    -0.354 N 
ATOM     63  N   UNL A   1      43.329  27.305  27.994  1.00  0.00    -0.248 NA
ATOM     64  C   UNL A   1      41.079  26.894  28.466  1.00  0.00     0.031 C 
ATOM     65  C   UNL A   1      46.162  24.245  26.464  1.00  0.00     0.029 A 
ATOM     66  C   UNL A   1      45.254  25.182  26.929  1.00  0.00     0.049 A 
ATOM     67  H   UNL A   1      45.538  27.240  27.301  1.00  0.00     0.167 HD
ATOM     68  C   UNL A   1      43.046  25.966  27.741  1.00  0.00     0.074 A 
ATOM     69  C   UNL A   1      41.652  25.764  28.076  1.00  0.00     0.031 C 
ATOM     70  C   UNL A   1      43.866  24.992  27.274  1.00  0.00     0.037 A 
BRANCH  57  71
ATOM     71  C   UNL A   1      49.593  26.921  25.996  1.00  0.00     0.058 A 
ATOM     72  C   UNL A   1      50.623  26.478  26.839  1.00  0.00     0.135 A 
ATOM     73  C   UNL A   1      49.855  26.978  24.617  1.00  0.00     0.135 A 
ATOM     74  F   UNL A   1      50.432  26.421  28.167  1.00  0.00    -0.206 F 
ATOM     75  C   UNL A   1      51.870  26.118  26.337  1.00  0.00     0.059 A 
ATOM     76  C   UNL A   1      51.085  26.600  24.089  1.00  0.00     0.059 A 
ATOM     77  F   UNL A   1      48.905  27.397  23.766  1.00  0.00    -0.206 F 
ATOM     78  C   UNL A   1      52.090  26.179  24.960  1.00  0.00     0.060 A 
BRANCH  78  79
ATOM     79  S   UNL A   1      53.706  25.687  24.320  1.00  0.00     0.124 S 
ATOM     80  O   UNL A   1      54.604  26.470  25.162  1.00  0.00    -0.237 OA
ATOM     81  O   UNL A   1      53.710  24.247  24.558  1.00  0.00    -0.237 OA
ATOM     82  O   UNL A   1      53.653  26.087  22.917  1.00  0.00    -0.744 OA
ENDBRANCH  78  79
ENDBRANCH  57  71
BRANCH  58  83
ATOM     83  C   UNL A   1      40.576  29.657  29.307  1.00  0.00     0.058 A 
ATOM     84  C   UNL A   1      39.529  29.813  28.387  1.00  0.00     0.135 A 
ATOM     85  C   UNL A   1      40.301  29.911  30.660  1.00  0.00     0.135 A 
ATOM     86  F   UNL A   1      39.745  29.594  27.082  1.00  0.00    -0.206 F 
ATOM     87  C   UNL A   1      38.262  30.225  28.789  1.00  0.00     0.059 A 
ATOM     88  C   UNL A   1      39.036  30.297  31.090  1.00  0.00     0.059 A 
ATOM     89  F   UNL A   1      41.265  29.764  31.583  1.00  0.00    -0.206 F 
ATOM     90  C   UNL A   1      38.025  30.464  30.145  1.00  0.00     0.060 A 
BRANCH  90  91
ATOM     91  S   UNL A   1      36.368  30.959  30.664  1.00  0.00     0.124 S 
ATOM     92  O   UNL A   1      36.630  32.248  31.292  1.00  0.00    -0.237 OA
ATOM     93  O   UNL A   1      35.648  30.999  29.396  1.00  0.00    -0.237 OA
ATOM     94  O   UNL A   1      35.968  29.884  31.569  1.00  0.00    -0.744 OA
ENDBRANCH  90  91
ENDBRANCH  58  83
BRANCH  70  95
ATOM     95  C   UNL A   1      43.294  23.609  27.128  1.00  0.00     0.058 A 
ATOM     96  C   UNL A   1      43.151  22.749  28.227  1.00  0.00     0.135 A 
ATOM     97  C   UNL A   1      42.831  23.160  25.880  1.00  0.00     0.135 A 
ATOM     98  F   UNL A   1      43.583  23.127  29.441  1.00  0.00    -0.206 F 
ATOM     99  C   UNL A   1      42.591  21.482  28.092  1.00  0.00     0.059 A 
ATOM    100  C   UNL A   1      42.243  21.908  25.727  1.00  0.00     0.059 A 
ATOM    101  F   UNL A   1      42.931  23.947  24.798  1.00  0.00    -0.206 F 
ATOM    102  C   UNL A   1      42.138  21.071  26.837  1.00  0.00     0.060 A 
BRANCH 102 103
ATOM    103  S   UNL A   1      41.384  19.438  26.679  1.00  0.00     0.124 S 
ATOM    104  O   UNL A   1      42.508  18.640  26.201  1.00  0.00    -0.237 OA
ATOM    105  O   UNL A   1      40.946  19.161  28.044  1.00  0.00    -0.237 OA
ATOM    106  O   UNL A   1      40.310  19.652  25.714  1.00  0.00    -0.744 OA
ENDBRANCH 102 103
ENDBRANCH  70  95
ENDBRANCH  44  45
ENDBRANCH  37  39
ENDBRANCH  36  37
ENDBRANCH  35  36
ENDBRANCH  34  35
ENDBRANCH  33  34
ENDBRANCH   1  33
TORSDOF 23
ENDMDL
MODEL 2
REMARK VINA RESULT:     -10.3      9.778     17.112
REMARK SMILES COc1ccc2c(c1)CCN=C2C[C@H]1CN(C(=O)c2ccco2)CC[C@H]1CC(=O)OCCOCCOC(=O)c1ccc(-c2c3nc(c(-c4c(F)cc(S(=O)(=O)[O-])cc4F)c4ccc([nH]4)c(-c4c(F)cc(S(=O)(=O)[O-])cc4F)c4nc(c(-c5c(F)cc(S(=O)(=O)[O-])cc5F)c5ccc2[nH]5)C=C4)C=C3)cc1
REMARK SMILES IDX 32 1 31 2 30 3 28 4 29 5 27 6 26 7 14 8 15 9 16 10 25 11
REMARK SMILES IDX 24 12 13 13 12 14 3 15 4 16 8 17 5 18 7 19 6 20 9 21 10 22
REMARK SMILES IDX 11 23 2 24 1 25 17 26 18 27 19 28 20 29 23 30 21 31 22 32
REMARK SMILES IDX 33 33 34 34 35 35 36 36 37 37 38 38 39 39 40 40 104 41 41 42
REMARK SMILES IDX 103 43 42 44 43 45 44 46 97 47 45 48 102 49 96 50 98 51
REMARK SMILES IDX 46 52 101 53 95 54 94 55 47 57 81 58 60 59 80 60 61 61 64 62
REMARK SMILES IDX 79 63 99 64 62 65 63 66 78 68 100 69 65 70 48 71 49 72 58 73
REMARK SMILES IDX 50 74 51 75 57 76 59 77 52 78 53 79 54 80 55 81 56 82 82 83
REMARK SMILES IDX 83 84 92 85 84 86 85 87 91 88 93 89 86 90 87 91 88 92 89 93
REMARK SMILES IDX 90 94 66 95 67 96 76 97 68 98 69 99 75 100 77 101 70 102
REMARK SMILES IDX 71 103 72 104 73 105 74 106
REMARK H PARENT 98 56 64 67
REMARK Flexibility Score: inf
ROOT
ATOM      1  C   UNL A   1      40.977  27.159  26.482  1.00  0.00     0.202 C 
ENDROOT
BRANCH   1   2
ATOM      2  C   UNL A   1      40.739  25.672  26.215  1.00  0.00     0.261 C 
BRANCH   2   3
ATOM      3  O   UNL A   1      39.669  25.199  27.049  1.00  0.00    -0.463 OA
BRANCH   3   4
ATOM      4  C   UNL A   1      39.261  23.926  26.843  1.00  0.00     0.306 C 
ATOM      5  O   UNL A   1      39.833  22.928  27.266  1.00  0.00    -0.252 OA
BRANCH   4   6
ATOM      6  C   UNL A   1      37.949  23.840  26.093  1.00  0.00     0.126 C 
BRANCH   6   7
ATOM      7  C   UNL A   1      37.032  22.600  26.257  1.00  0.00     0.007 C 
ATOM      8  C   UNL A   1      35.517  22.882  26.440  1.00  0.00     0.018 C 
ATOM      9  C   UNL A   1      34.721  21.572  26.364  1.00  0.00     0.124 C 
ATOM     10  N   UNL A   1      34.932  20.895  25.097  1.00  0.00    -0.336 N 
ATOM     11  C   UNL A   1      37.356  21.586  25.129  1.00  0.00     0.026 C 
ATOM     12  C   UNL A   1      36.309  20.514  24.818  1.00  0.00     0.120 C 
BRANCH   8  13
ATOM     13  C   UNL A   1      34.893  24.028  25.611  1.00  0.00     0.062 C 
BRANCH  13  14
ATOM     14  C   UNL A   1      33.470  24.448  25.971  1.00  0.00     0.043 C 
ATOM     15  C   UNL A   1      31.650  28.015  24.432  1.00  0.00     0.119 A 
ATOM     16  C   UNL A   1      33.041  27.912  24.426  1.00  0.00     0.047 A 
ATOM     17  C   UNL A   1      30.878  26.991  24.972  1.00  0.00     0.050 A 
ATOM     18  C   UNL A   1      33.662  26.760  24.919  1.00  0.00     0.014 A 
ATOM     19  C   UNL A   1      31.493  25.841  25.475  1.00  0.00    -0.033 A 
ATOM     20  C   UNL A   1      32.892  25.718  25.435  1.00  0.00    -0.001 A 
ATOM     21  C   UNL A   1      30.670  24.713  26.024  1.00  0.00     0.060 C 
ATOM     22  C   UNL A   1      31.446  24.011  27.123  1.00  0.00     0.147 C 
ATOM     23  N   UNL A   1      32.781  23.617  26.680  1.00  0.00    -0.289 NA
BRANCH  15  24
ATOM     24  O   UNL A   1      30.961  29.106  23.978  1.00  0.00    -0.497 OA
ATOM     25  C   UNL A   1      30.883  29.168  22.555  1.00  0.00     0.278 C 
ENDBRANCH  15  24
ENDBRANCH  13  14
ENDBRANCH   8  13
BRANCH  10  26
ATOM     26  C   UNL A   1      33.806  20.575  24.324  1.00  0.00     0.289 C 
ATOM     27  O   UNL A   1      33.395  19.414  24.277  1.00  0.00    -0.265 OA
BRANCH  26  28
ATOM     28  C   UNL A   1      33.088  21.636  23.649  1.00  0.00     0.191 A 
ATOM     29  C   UNL A   1      31.777  22.075  23.658  1.00  0.00     0.056 A 
ATOM     30  O   UNL A   1      33.829  22.473  22.856  1.00  0.00    -0.459 OA
ATOM     31  C   UNL A   1      31.718  23.210  22.807  1.00  0.00     0.043 A 
ATOM     32  C   UNL A   1      32.996  23.409  22.345  1.00  0.00     0.196 A 
ENDBRANCH  26  28
ENDBRANCH  10  26
ENDBRANCH   6   7
ENDBRANCH   4   6
ENDBRANCH   3   4
ENDBRANCH   2   3
ENDBRANCH   1   2
BRANCH   1  33
ATOM     33  O   UNL A   1      42.158  27.721  25.904  1.00  0.00    -0.374 OA
BRANCH  33  34
ATOM     34  C   UNL A   1      42.884  26.923  24.973  1.00  0.00     0.202 C 
BRANCH  34  35
ATOM     35  C   UNL A   1      44.277  26.441  25.403  1.00  0.00     0.261 C 
BRANCH  35  36
ATOM     36  O   UNL A   1      44.234  25.413  26.409  1.00  0.00    -0.460 OA
BRANCH  36  37
ATOM     37  C   UNL A   1      44.946  25.709  27.526  1.00  0.00     0.338 C 
ATOM     38  O   UNL A   1      46.094  25.378  27.772  1.00  0.00    -0.246 OA
BRANCH  37  39
ATOM     39  C   UNL A   1      44.208  26.657  28.384  1.00  0.00     0.060 A 
ATOM     40  C   UNL A   1      44.617  27.995  28.345  1.00  0.00     0.016 A 
ATOM     41  C   UNL A   1      43.222  26.242  29.281  1.00  0.00     0.016 A 
ATOM     42  C   UNL A   1      44.087  28.914  29.248  1.00  0.00     0.010 A 
ATOM     43  C   UNL A   1      42.694  27.167  30.191  1.00  0.00     0.010 A 
ATOM     44  C   UNL A   1      43.154  28.498  30.206  1.00  0.00    -0.014 A 
BRANCH  44  45
ATOM     45  C   UNL A   1      42.784  29.425  31.305  1.00  0.00     0.031 A 
ATOM     46  C   UNL A   1      41.507  30.217  31.199  1.00  0.00     0.074 A 
ATOM     47  C   UNL A   1      43.547  29.519  32.409  1.00  0.00     0.049 A 
ATOM     48  N   UNL A   1      40.994  31.078  32.040  1.00  0.00    -0.248 NA
ATOM     49  C   UNL A   1      40.698  30.008  29.987  1.00  0.00     0.031 C 
ATOM     50  C   UNL A   1      44.785  28.779  32.646  1.00  0.00     0.029 A 
ATOM     51  N   UNL A   1      43.391  30.282  33.540  1.00  0.00    -0.354 N 
ATOM     52  C   UNL A   1      39.812  31.521  31.457  1.00  0.00     0.074 A 
ATOM     53  C   UNL A   1      39.694  30.851  30.181  1.00  0.00     0.031 C 
ATOM     54  C   UNL A   1      45.284  29.134  33.842  1.00  0.00     0.029 A 
ATOM     55  C   UNL A   1      44.418  30.146  34.443  1.00  0.00     0.049 A 
ATOM     56  H   UNL A   1      42.617  30.872  33.689  1.00  0.00     0.167 HD
ATOM     57  C   UNL A   1      38.905  32.400  31.945  1.00  0.00     0.037 A 
ATOM     58  C   UNL A   1      44.644  30.780  35.611  1.00  0.00     0.037 A 
ATOM     59  C   UNL A   1      39.017  33.055  33.223  1.00  0.00     0.049 A 
ATOM     60  C   UNL A   1      43.643  31.790  36.111  1.00  0.00     0.074 A 
ATOM     61  C   UNL A   1      38.132  33.936  33.819  1.00  0.00     0.029 A 
ATOM     62  N   UNL A   1      40.083  32.907  34.099  1.00  0.00    -0.354 N 
ATOM     63  N   UNL A   1      42.514  32.173  35.563  1.00  0.00    -0.248 NA
ATOM     64  C   UNL A   1      43.943  32.450  37.390  1.00  0.00     0.031 C 
ATOM     65  C   UNL A   1      38.683  34.358  35.032  1.00  0.00     0.029 A 
ATOM     66  C   UNL A   1      39.889  33.701  35.217  1.00  0.00     0.049 A 
ATOM     67  H   UNL A   1      40.862  32.324  33.948  1.00  0.00     0.167 HD
ATOM     68  C   UNL A   1      41.959  33.099  36.442  1.00  0.00     0.074 A 
ATOM     69  C   UNL A   1      42.869  33.209  37.562  1.00  0.00     0.031 C 
ATOM     70  C   UNL A   1      40.800  33.795  36.331  1.00  0.00     0.037 A 
BRANCH  57  71
ATOM     71  C   UNL A   1      37.714  32.728  31.089  1.00  0.00     0.058 A 
ATOM     72  C   UNL A   1      37.770  33.707  30.085  1.00  0.00     0.135 A 
ATOM     73  C   UNL A   1      36.515  32.011  31.238  1.00  0.00     0.135 A 
ATOM     74  F   UNL A   1      38.886  34.433  29.910  1.00  0.00    -0.206 F 
ATOM     75  C   UNL A   1      36.675  33.974  29.268  1.00  0.00     0.059 A 
ATOM     76  C   UNL A   1      35.416  32.244  30.418  1.00  0.00     0.059 A 
ATOM     77  F   UNL A   1      36.407  31.066  32.185  1.00  0.00    -0.206 F 
ATOM     78  C   UNL A   1      35.503  33.235  29.440  1.00  0.00     0.060 A 
BRANCH  78  79
ATOM     79  S   UNL A   1      34.098  33.577  28.359  1.00  0.00     0.124 S 
ATOM     80  O   UNL A   1      33.164  34.210  29.285  1.00  0.00    -0.237 OA
ATOM     81  O   UNL A   1      34.686  34.457  27.353  1.00  0.00    -0.237 OA
ATOM     82  O   UNL A   1      33.707  32.256  27.879  1.00  0.00    -0.744 OA
ENDBRANCH  78  79
ENDBRANCH  57  71
BRANCH  58  83
ATOM     83  C   UNL A   1      45.886  30.499  36.382  1.00  0.00     0.058 A 
ATOM     84  C   UNL A   1      45.916  29.525  37.390  1.00  0.00     0.135 A 
ATOM     85  C   UNL A   1      47.067  31.214  36.127  1.00  0.00     0.135 A 
ATOM     86  F   UNL A   1      44.809  28.824  37.678  1.00  0.00    -0.206 F 
ATOM     87  C   UNL A   1      47.067  29.281  38.132  1.00  0.00     0.059 A 
ATOM     88  C   UNL A   1      48.237  30.970  36.837  1.00  0.00     0.059 A 
ATOM     89  F   UNL A   1      47.094  32.149  35.164  1.00  0.00    -0.206 F 
ATOM     90  C   UNL A   1      48.224  30.010  37.847  1.00  0.00     0.060 A 
BRANCH  90  91
ATOM     91  S   UNL A   1      49.725  29.660  38.788  1.00  0.00     0.124 S 
ATOM     92  O   UNL A   1      50.685  30.554  38.153  1.00  0.00    -0.237 OA
ATOM     93  O   UNL A   1      49.325  30.011  40.147  1.00  0.00    -0.237 OA
ATOM     94  O   UNL A   1      49.939  28.234  38.556  1.00  0.00    -0.744 OA
ENDBRANCH  90  91
ENDBRANCH  58  83
BRANCH  70  95
ATOM     95  C   UNL A   1      40.427  34.712  37.463  1.00  0.00     0.058 A 
ATOM     96  C   UNL A   1      39.691  34.260  38.568  1.00  0.00     0.135 A 
ATOM     97  C   UNL A   1      40.859  36.049  37.466  1.00  0.00     0.135 A 
ATOM     98  F   UNL A   1      39.249  32.993  38.613  1.00  0.00    -0.206 F 
ATOM     99  C   UNL A   1      39.376  35.106  39.628  1.00  0.00     0.059 A 
ATOM    100  C   UNL A   1      40.579  36.905  38.527  1.00  0.00     0.059 A 
ATOM    101  F   UNL A   1      41.577  36.530  36.438  1.00  0.00    -0.206 F 
ATOM    102  C   UNL A   1      39.826  36.427  39.599  1.00  0.00     0.060 A 
BRANCH 102 103
ATOM    103  S   UNL A   1      39.439  37.506  40.993  1.00  0.00     0.124 S 
ATOM    104  O   UNL A   1      38.879  36.559  41.951  1.00  0.00    -0.237 OA
ATOM    105  O   UNL A   1      40.747  38.056  41.337  1.00  0.00    -0.237 OA
ATOM    106  O   UNL A   1      38.493  38.464  40.430  1.00  0.00    -0.744 OA
ENDBRANCH 102 103
ENDBRANCH  70  95
ENDBRANCH  44  45
ENDBRANCH  37  39
ENDBRANCH  36  37
ENDBRANCH  35  36
ENDBRANCH  34  35
ENDBRANCH  33  34
ENDBRANCH   1  33
TORSDOF 23
ENDMDL
MODEL 3
REMARK VINA RESULT:     -10.1      6.666     12.343
REMARK SMILES COc1ccc2c(c1)CCN=C2C[C@H]1CN(C(=O)c2ccco2)CC[C@H]1CC(=O)OCCOCCOC(=O)c1ccc(-c2c3nc(c(-c4c(F)cc(S(=O)(=O)[O-])cc4F)c4ccc([nH]4)c(-c4c(F)cc(S(=O)(=O)[O-])cc4F)c4nc(c(-c5c(F)cc(S(=O)(=O)[O-])cc5F)c5ccc2[nH]5)C=C4)C=C3)cc1
REMARK SMILES IDX 32 1 31 2 30 3 28 4 29 5 27 6 26 7 14 8 15 9 16 10 25 11
REMARK SMILES IDX 24 12 13 13 12 14 3 15 4 16 8 17 5 18 7 19 6 20 9 21 10 22
REMARK SMILES IDX 11 23 2 24 1 25 17 26 18 27 19 28 20 29 23 30 21 31 22 32
REMARK SMILES IDX 33 33 34 34 35 35 36 36 37 37 38 38 39 39 40 40 104 41 41 42
REMARK SMILES IDX 103 43 42 44 43 45 44 46 97 47 45 48 102 49 96 50 98 51
REMARK SMILES IDX 46 52 101 53 95 54 94 55 47 57 81 58 60 59 80 60 61 61 64 62
REMARK SMILES IDX 79 63 99 64 62 65 63 66 78 68 100 69 65 70 48 71 49 72 58 73
REMARK SMILES IDX 50 74 51 75 57 76 59 77 52 78 53 79 54 80 55 81 56 82 82 83
REMARK SMILES IDX 83 84 92 85 84 86 85 87 91 88 93 89 86 90 87 91 88 92 89 93
REMARK SMILES IDX 90 94 66 95 67 96 76 97 68 98 69 99 75 100 77 101 70 102
REMARK SMILES IDX 71 103 72 104 73 105 74 106
REMARK H PARENT 98 56 64 67
REMARK Flexibility Score: inf
ROOT
ATOM      1  C   UNL A   1      39.390  32.294  37.049  1.00  0.00     0.202 C 
ENDROOT
BRANCH   1   2
ATOM      2  C   UNL A   1      38.945  33.681  37.517  1.00  0.00     0.261 C 
BRANCH   2   3
ATOM      3  O   UNL A   1      38.138  34.295  36.499  1.00  0.00    -0.463 OA
BRANCH   3   4
ATOM      4  C   UNL A   1      36.943  33.713  36.245  1.00  0.00     0.306 C 
ATOM      5  O   UNL A   1      36.087  33.471  37.089  1.00  0.00    -0.252 OA
BRANCH   4   6
ATOM      6  C   UNL A   1      36.711  33.458  34.772  1.00  0.00     0.126 C 
BRANCH   6   7
ATOM      7  C   UNL A   1      35.813  34.412  33.942  1.00  0.00     0.007 C 
ATOM      8  C   UNL A   1      36.355  34.832  32.550  1.00  0.00     0.018 C 
ATOM      9  C   UNL A   1      35.271  35.584  31.765  1.00  0.00     0.124 C 
ATOM     10  N   UNL A   1      34.082  34.771  31.590  1.00  0.00    -0.336 N 
ATOM     11  C   UNL A   1      34.370  33.844  33.915  1.00  0.00     0.026 C 
ATOM     12  C   UNL A   1      33.429  34.352  32.821  1.00  0.00     0.120 C 
BRANCH   8  13
ATOM     13  C   UNL A   1      37.090  33.762  31.711  1.00  0.00     0.062 C 
BRANCH  13  14
ATOM     14  C   UNL A   1      38.469  34.132  31.171  1.00  0.00     0.043 C 
ATOM     15  C   UNL A   1      42.082  33.441  33.380  1.00  0.00     0.119 A 
ATOM     16  C   UNL A   1      40.870  33.490  34.068  1.00  0.00     0.047 A 
ATOM     17  C   UNL A   1      42.111  33.659  32.005  1.00  0.00     0.050 A 
ATOM     18  C   UNL A   1      39.675  33.711  33.375  1.00  0.00     0.014 A 
ATOM     19  C   UNL A   1      40.922  33.891  31.308  1.00  0.00    -0.033 A 
ATOM     20  C   UNL A   1      39.696  33.903  31.993  1.00  0.00    -0.001 A 
ATOM     21  C   UNL A   1      40.936  34.089  29.820  1.00  0.00     0.060 C 
ATOM     22  C   UNL A   1      39.804  35.017  29.424  1.00  0.00     0.147 C 
ATOM     23  N   UNL A   1      38.520  34.568  29.956  1.00  0.00    -0.289 NA
BRANCH  15  24
ATOM     24  O   UNL A   1      43.295  33.238  33.978  1.00  0.00    -0.497 OA
ATOM     25  C   UNL A   1      43.358  32.021  34.719  1.00  0.00     0.278 C 
ENDBRANCH  15  24
ENDBRANCH  13  14
ENDBRANCH   8  13
BRANCH  10  26
ATOM     26  C   UNL A   1      33.613  34.561  30.284  1.00  0.00     0.289 C 
ATOM     27  O   UNL A   1      32.644  35.195  29.863  1.00  0.00    -0.265 OA
BRANCH  26  28
ATOM     28  C   UNL A   1      34.329  33.650  29.415  1.00  0.00     0.191 A 
ATOM     29  C   UNL A   1      35.026  33.791  28.230  1.00  0.00     0.056 A 
ATOM     30  O   UNL A   1      34.430  32.350  29.837  1.00  0.00    -0.459 OA
ATOM     31  C   UNL A   1      35.547  32.511  27.905  1.00  0.00     0.043 A 
ATOM     32  C   UNL A   1      35.155  31.670  28.918  1.00  0.00     0.196 A 
ENDBRANCH  26  28
ENDBRANCH  10  26
ENDBRANCH   6   7
ENDBRANCH   4   6
ENDBRANCH   3   4
ENDBRANCH   2   3
ENDBRANCH   1   2
BRANCH   1  33
ATOM     33  O   UNL A   1      38.531  31.206  37.400  1.00  0.00    -0.374 OA
BRANCH  33  34
ATOM     34  C   UNL A   1      38.254  30.231  36.397  1.00  0.00     0.202 C 
BRANCH  34  35
ATOM     35  C   UNL A   1      38.387  30.676  34.934  1.00  0.00     0.261 C 
BRANCH  35  36
ATOM     36  O   UNL A   1      38.014  29.651  33.996  1.00  0.00    -0.460 OA
BRANCH  36  37
ATOM     37  C   UNL A   1      37.920  30.088  32.714  1.00  0.00     0.338 C 
ATOM     38  O   UNL A   1      36.924  30.520  32.159  1.00  0.00    -0.246 OA
BRANCH  37  39
ATOM     39  C   UNL A   1      39.251  30.141  32.079  1.00  0.00     0.060 A 
ATOM     40  C   UNL A   1      39.289  30.436  30.711  1.00  0.00     0.016 A 
ATOM     41  C   UNL A   1      40.421  29.805  32.765  1.00  0.00     0.016 A 
ATOM     42  C   UNL A   1      40.486  30.336  30.007  1.00  0.00     0.010 A 
ATOM     43  C   UNL A   1      41.623  29.700  32.053  1.00  0.00     0.010 A 
ATOM     44  C   UNL A   1      41.653  29.925  30.664  1.00  0.00    -0.014 A 
BRANCH  44  45
ATOM     45  C   UNL A   1      42.855  29.592  29.858  1.00  0.00     0.031 A 
ATOM     46  C   UNL A   1      42.945  28.241  29.196  1.00  0.00     0.074 A 
ATOM     47  C   UNL A   1      43.829  30.501  29.669  1.00  0.00     0.049 A 
ATOM     48  N   UNL A   1      43.898  27.746  28.449  1.00  0.00    -0.248 NA
ATOM     49  C   UNL A   1      41.807  27.328  29.401  1.00  0.00     0.031 C 
ATOM     50  C   UNL A   1      43.841  31.853  30.226  1.00  0.00     0.029 A 
ATOM     51  N   UNL A   1      45.000  30.421  28.958  1.00  0.00    -0.354 N 
ATOM     52  C   UNL A   1      43.483  26.465  28.104  1.00  0.00     0.074 A 
ATOM     53  C   UNL A   1      42.203  26.249  28.740  1.00  0.00     0.031 C 
ATOM     54  C   UNL A   1      44.972  32.472  29.845  1.00  0.00     0.029 A 
ATOM     55  C   UNL A   1      45.776  31.552  29.043  1.00  0.00     0.049 A 
ATOM     56  H   UNL A   1      45.261  29.627  28.436  1.00  0.00     0.167 HD
ATOM     57  C   UNL A   1      44.109  25.554  27.321  1.00  0.00     0.037 A 
ATOM     58  C   UNL A   1      47.004  31.809  28.548  1.00  0.00     0.037 A 
ATOM     59  C   UNL A   1      45.378  25.777  26.676  1.00  0.00     0.049 A 
ATOM     60  C   UNL A   1      47.702  30.761  27.719  1.00  0.00     0.074 A 
ATOM     61  C   UNL A   1      46.076  24.926  25.836  1.00  0.00     0.029 A 
ATOM     62  N   UNL A   1      46.142  26.927  26.805  1.00  0.00    -0.354 N 
ATOM     63  N   UNL A   1      47.281  29.567  27.374  1.00  0.00    -0.248 NA
ATOM     64  C   UNL A   1      49.038  31.098  27.206  1.00  0.00     0.031 C 
ATOM     65  C   UNL A   1      47.284  25.543  25.495  1.00  0.00     0.029 A 
ATOM     66  C   UNL A   1      47.316  26.798  26.081  1.00  0.00     0.049 A 
ATOM     67  H   UNL A   1      45.888  27.718  27.332  1.00  0.00     0.167 HD
ATOM     68  C   UNL A   1      48.290  29.021  26.586  1.00  0.00     0.074 A 
ATOM     69  C   UNL A   1      49.334  30.019  26.494  1.00  0.00     0.031 C 
ATOM     70  C   UNL A   1      48.346  27.804  25.991  1.00  0.00     0.037 A 
BRANCH  57  71
ATOM     71  C   UNL A   1      43.447  24.219  27.129  1.00  0.00     0.058 A 
ATOM     72  C   UNL A   1      42.790  23.883  25.935  1.00  0.00     0.135 A 
ATOM     73  C   UNL A   1      43.520  23.240  28.134  1.00  0.00     0.135 A 
ATOM     74  F   UNL A   1      42.675  24.787  24.949  1.00  0.00    -0.206 F 
ATOM     75  C   UNL A   1      42.215  22.629  25.750  1.00  0.00     0.059 A 
ATOM     76  C   UNL A   1      42.975  21.972  27.961  1.00  0.00     0.059 A 
ATOM     77  F   UNL A   1      44.135  23.510  29.295  1.00  0.00    -0.206 F 
ATOM     78  C   UNL A   1      42.316  21.679  26.767  1.00  0.00     0.060 A 
BRANCH  78  79
ATOM     79  S   UNL A   1      41.586  20.048  26.503  1.00  0.00     0.124 S 
ATOM     80  O   UNL A   1      42.301  19.599  25.312  1.00  0.00    -0.237 OA
ATOM     81  O   UNL A   1      41.921  19.352  27.741  1.00  0.00    -0.237 OA
ATOM     82  O   UNL A   1      40.168  20.336  26.313  1.00  0.00    -0.744 OA
ENDBRANCH  78  79
ENDBRANCH  57  71
BRANCH  58  83
ATOM     83  C   UNL A   1      47.668  33.107  28.844  1.00  0.00     0.058 A 
ATOM     84  C   UNL A   1      47.495  34.223  28.011  1.00  0.00     0.135 A 
ATOM     85  C   UNL A   1      48.500  33.250  29.965  1.00  0.00     0.135 A 
ATOM     86  F   UNL A   1      46.718  34.132  26.922  1.00  0.00    -0.206 F 
ATOM     87  C   UNL A   1      48.138  35.429  28.269  1.00  0.00     0.059 A 
ATOM     88  C   UNL A   1      49.133  34.454  30.258  1.00  0.00     0.059 A 
ATOM     89  F   UNL A   1      48.689  32.216  30.800  1.00  0.00    -0.206 F 
ATOM     90  C   UNL A   1      48.956  35.535  29.397  1.00  0.00     0.060 A 
BRANCH  90  91
ATOM     91  S   UNL A   1      49.756  37.115  29.746  1.00  0.00     0.124 S 
ATOM     92  O   UNL A   1      49.688  37.163  31.201  1.00  0.00    -0.237 OA
ATOM     93  O   UNL A   1      51.084  36.920  29.173  1.00  0.00    -0.237 OA
ATOM     94  O   UNL A   1      48.914  38.078  29.041  1.00  0.00    -0.744 OA
ENDBRANCH  90  91
ENDBRANCH  58  83
BRANCH  70  95
ATOM     95  C   UNL A   1      49.558  27.490  25.158  1.00  0.00     0.058 A 
ATOM     96  C   UNL A   1      49.530  27.560  23.757  1.00  0.00     0.135 A 
ATOM     97  C   UNL A   1      50.779  27.167  25.773  1.00  0.00     0.135 A 
ATOM     98  F   UNL A   1      48.387  27.859  23.118  1.00  0.00    -0.206 F 
ATOM     99  C   UNL A   1      50.664  27.299  22.993  1.00  0.00     0.059 A 
ATOM    100  C   UNL A   1      51.931  26.929  25.030  1.00  0.00     0.059 A 
ATOM    101  F   UNL A   1      50.864  27.098  27.111  1.00  0.00    -0.206 F 
ATOM    102  C   UNL A   1      51.861  26.986  23.639  1.00  0.00     0.060 A 
BRANCH 102 103
ATOM    103  S   UNL A   1      53.333  26.682  22.639  1.00  0.00     0.124 S 
ATOM    104  O   UNL A   1      54.154  25.899  23.557  1.00  0.00    -0.237 OA
ATOM    105  O   UNL A   1      52.791  25.953  21.496  1.00  0.00    -0.237 OA
ATOM    106  O   UNL A   1      53.826  28.023  22.343  1.00  0.00    -0.744 OA
ENDBRANCH 102 103
ENDBRANCH  70  95
ENDBRANCH  44  45
ENDBRANCH  37  39
ENDBRANCH  36  37
ENDBRANCH  35  36
ENDBRANCH  34  35
ENDBRANCH  33  34
ENDBRANCH   1  33
TORSDOF 23
ENDMDL
