MODEL 1
REMARK VINA RESULT:      -9.8      0.000      0.000
REMARK SMILES CC(C)OCCS(=O)(=O)N1CCC[C@H](C(=O)OCCOCCOC(=O)c2ccc(-c3c4nc(c(-c5c(F)cc(S(=O)(=O)[O-])cc5F)c5ccc([nH]5)c(-c5c(F)cc(S(=O)(=O)[O-])cc5F)c5nc(c(-c6c(F)cc(S(=O)(=O)[O-])cc6F)c6ccc3[nH]6)C=C5)C=C4)cc2)C1
REMARK SMILES IDX 19 1 18 2 17 3 15 4 16 5 14 6 10 7 11 8 92 9 12 10 13 11
REMARK SMILES IDX 7 12 8 13 9 14 6 15 5 16 4 17 2 18 1 19 3 20 20 21 21 22
REMARK SMILES IDX 22 23 23 24 24 25 25 26 26 27 27 28 91 29 28 30 90 31 29 32
REMARK SMILES IDX 30 33 31 34 84 35 32 36 89 37 83 38 85 39 33 40 88 41 82 42
REMARK SMILES IDX 81 43 34 45 68 46 47 47 67 48 48 49 51 50 66 51 86 52 49 53
REMARK SMILES IDX 50 54 65 56 87 57 52 58 35 59 36 60 45 61 37 62 38 63 44 64
REMARK SMILES IDX 46 65 39 66 40 67 41 68 42 69 43 70 69 71 70 72 79 73 71 74
REMARK SMILES IDX 72 75 78 76 80 77 73 78 74 79 75 80 76 81 77 82 53 83 54 84
REMARK SMILES IDX 63 85 55 86 56 87 62 88 64 89 57 90 58 91 59 92 60 93 61 94
REMARK H PARENT 85 44 51 55
REMARK Flexibility Score: inf
ROOT
ATOM      1  C   UNL A   1      31.946  28.785  26.574  1.00  0.00     0.202 C 
ENDROOT
BRANCH   1   2
ATOM      2  C   UNL A   1      31.668  29.510  25.251  1.00  0.00     0.261 C 
BRANCH   2   3
ATOM      3  O   UNL A   1      30.931  28.706  24.314  1.00  0.00    -0.463 OA
BRANCH   3   4
ATOM      4  C   UNL A   1      31.626  28.353  23.208  1.00  0.00     0.310 C 
ATOM      5  O   UNL A   1      32.609  28.951  22.773  1.00  0.00    -0.252 OA
BRANCH   4   6
ATOM      6  C   UNL A   1      31.172  27.062  22.568  1.00  0.00     0.114 C 
ATOM      7  N   UNL A   1      31.358  25.379  24.386  1.00  0.00    -0.201 NA
ATOM      8  C   UNL A   1      32.056  24.396  23.540  1.00  0.00     0.102 C 
ATOM      9  C   UNL A   1      30.455  26.246  23.615  1.00  0.00     0.117 C 
ATOM     10  C   UNL A   1      32.915  25.170  22.534  1.00  0.00     0.018 C 
ATOM     11  C   UNL A   1      32.120  26.203  21.733  1.00  0.00     0.018 C 
BRANCH   7  12
ATOM     12  S   UNL A   1      30.865  24.956  25.953  1.00  0.00     0.216 S 
ATOM     13  O   UNL A   1      29.539  25.500  26.102  1.00  0.00    -0.212 OA
ATOM     14  O   UNL A   1      31.935  25.331  26.858  1.00  0.00    -0.212 OA
BRANCH  12  15
ATOM     15  C   UNL A   1      30.763  23.149  25.926  1.00  0.00     0.182 C 
BRANCH  15  16
ATOM     16  C   UNL A   1      31.837  22.488  26.792  1.00  0.00     0.178 C 
BRANCH  16  17
ATOM     17  O   UNL A   1      33.142  22.462  26.193  1.00  0.00    -0.378 OA
BRANCH  17  18
ATOM     18  C   UNL A   1      33.683  21.214  25.733  1.00  0.00     0.112 C 
ATOM     19  C   UNL A   1      32.674  20.183  25.231  1.00  0.00     0.038 C 
ATOM     20  C   UNL A   1      34.781  21.478  24.721  1.00  0.00     0.038 C 
ENDBRANCH  17  18
ENDBRANCH  16  17
ENDBRANCH  15  16
ENDBRANCH  12  15
ENDBRANCH   7  12
ENDBRANCH   4   6
ENDBRANCH   3   4
ENDBRANCH   2   3
ENDBRANCH   1   2
BRANCH   1  21
ATOM     21  O   UNL A   1      33.010  29.276  27.384  1.00  0.00    -0.374 OA
BRANCH  21  22
ATOM     22  C   UNL A   1      33.444  30.623  27.200  1.00  0.00     0.202 C 
BRANCH  22  23
ATOM     23  C   UNL A   1      34.697  31.085  27.957  1.00  0.00     0.261 C 
BRANCH  23  24
ATOM     24  O   UNL A   1      35.527  29.983  28.371  1.00  0.00    -0.460 OA
BRANCH  24  25
ATOM     25  C   UNL A   1      36.195  30.165  29.535  1.00  0.00     0.338 C 
ATOM     26  O   UNL A   1      35.715  30.277  30.649  1.00  0.00    -0.246 OA
BRANCH  25  27
ATOM     27  C   UNL A   1      37.646  30.049  29.307  1.00  0.00     0.060 A 
ATOM     28  C   UNL A   1      38.093  29.835  27.997  1.00  0.00     0.016 A 
ATOM     29  C   UNL A   1      38.541  30.014  30.377  1.00  0.00     0.016 A 
ATOM     30  C   UNL A   1      39.436  29.556  27.755  1.00  0.00     0.010 A 
ATOM     31  C   UNL A   1      39.888  29.720  30.132  1.00  0.00     0.010 A 
ATOM     32  C   UNL A   1      40.336  29.462  28.823  1.00  0.00    -0.014 A 
BRANCH  32  33
ATOM     33  C   UNL A   1      41.722  28.993  28.576  1.00  0.00     0.031 A 
ATOM     34  C   UNL A   1      42.856  29.982  28.611  1.00  0.00     0.074 A 
ATOM     35  C   UNL A   1      41.962  27.689  28.343  1.00  0.00     0.049 A 
ATOM     36  N   UNL A   1      44.126  29.790  28.368  1.00  0.00    -0.248 NA
ATOM     37  C   UNL A   1      42.514  31.369  28.965  1.00  0.00     0.031 C 
ATOM     38  C   UNL A   1      40.947  26.636  28.320  1.00  0.00     0.029 A 
ATOM     39  N   UNL A   1      43.135  27.032  28.063  1.00  0.00    -0.354 N 
ATOM     40  C   UNL A   1      44.735  31.030  28.525  1.00  0.00     0.074 A 
ATOM     41  C   UNL A   1      43.693  31.972  28.874  1.00  0.00     0.031 C 
ATOM     42  C   UNL A   1      41.537  25.468  28.015  1.00  0.00     0.029 A 
ATOM     43  C   UNL A   1      42.963  25.697  27.786  1.00  0.00     0.049 A 
ATOM     44  H   UNL A   1      44.014  27.475  28.063  1.00  0.00     0.167 HD
ATOM     45  C   UNL A   1      46.044  31.349  28.390  1.00  0.00     0.037 A 
ATOM     46  C   UNL A   1      43.846  24.773  27.356  1.00  0.00     0.037 A 
ATOM     47  C   UNL A   1      47.076  30.400  28.060  1.00  0.00     0.049 A 
ATOM     48  C   UNL A   1      45.286  25.172  27.152  1.00  0.00     0.074 A 
ATOM     49  C   UNL A   1      48.440  30.616  27.962  1.00  0.00     0.029 A 
ATOM     50  N   UNL A   1      46.861  29.064  27.760  1.00  0.00    -0.354 N 
ATOM     51  N   UNL A   1      45.858  26.335  27.358  1.00  0.00    -0.248 NA
ATOM     52  C   UNL A   1      46.201  24.136  26.650  1.00  0.00     0.031 C 
ATOM     53  C   UNL A   1      49.042  29.425  27.543  1.00  0.00     0.029 A 
ATOM     54  C   UNL A   1      48.059  28.455  27.431  1.00  0.00     0.049 A 
ATOM     55  H   UNL A   1      45.984  28.616  27.777  1.00  0.00     0.167 HD
ATOM     56  C   UNL A   1      47.197  26.167  27.021  1.00  0.00     0.074 A 
ATOM     57  C   UNL A   1      47.357  24.785  26.622  1.00  0.00     0.031 C 
ATOM     58  C   UNL A   1      48.202  27.076  27.033  1.00  0.00     0.037 A 
BRANCH  45  59
ATOM     59  C   UNL A   1      46.451  32.785  28.570  1.00  0.00     0.058 A 
ATOM     60  C   UNL A   1      46.885  33.283  29.807  1.00  0.00     0.135 A 
ATOM     61  C   UNL A   1      46.495  33.648  27.462  1.00  0.00     0.135 A 
ATOM     62  F   UNL A   1      46.847  32.506  30.900  1.00  0.00    -0.206 F 
ATOM     63  C   UNL A   1      47.352  34.588  29.941  1.00  0.00     0.059 A 
ATOM     64  C   UNL A   1      46.979  34.949  27.568  1.00  0.00     0.059 A 
ATOM     65  F   UNL A   1      46.086  33.222  26.257  1.00  0.00    -0.206 F 
ATOM     66  C   UNL A   1      47.402  35.410  28.812  1.00  0.00     0.060 A 
BRANCH  66  67
ATOM     67  S   UNL A   1      48.057  37.084  28.992  1.00  0.00     0.124 S 
ATOM     68  O   UNL A   1      47.083  37.862  28.233  1.00  0.00    -0.237 OA
ATOM     69  O   UNL A   1      48.030  37.275  30.440  1.00  0.00    -0.237 OA
ATOM     70  O   UNL A   1      49.387  36.997  28.399  1.00  0.00    -0.744 OA
ENDBRANCH  66  67
ENDBRANCH  45  59
BRANCH  46  71
ATOM     71  C   UNL A   1      43.388  23.395  27.028  1.00  0.00     0.058 A 
ATOM     72  C   UNL A   1      43.098  22.462  28.033  1.00  0.00     0.135 A 
ATOM     73  C   UNL A   1      43.263  22.977  25.693  1.00  0.00     0.135 A 
ATOM     74  F   UNL A   1      43.215  22.809  29.324  1.00  0.00    -0.206 F 
ATOM     75  C   UNL A   1      42.729  21.155  27.730  1.00  0.00     0.059 A 
ATOM     76  C   UNL A   1      42.865  21.685  25.363  1.00  0.00     0.059 A 
ATOM     77  F   UNL A   1      43.525  23.833  24.693  1.00  0.00    -0.206 F 
ATOM     78  C   UNL A   1      42.619  20.775  26.390  1.00  0.00     0.060 A 
BRANCH  78  79
ATOM     79  S   UNL A   1      42.138  19.078  26.007  1.00  0.00     0.124 S 
ATOM     80  O   UNL A   1      42.912  18.821  24.798  1.00  0.00    -0.237 OA
ATOM     81  O   UNL A   1      42.565  18.357  27.202  1.00  0.00    -0.237 OA
ATOM     82  O   UNL A   1      40.692  19.169  25.822  1.00  0.00    -0.744 OA
ENDBRANCH  78  79
ENDBRANCH  46  71
BRANCH  58  83
ATOM     83  C   UNL A   1      49.567  26.610  26.607  1.00  0.00     0.058 A 
ATOM     84  C   UNL A   1      50.444  25.991  27.511  1.00  0.00     0.135 A 
ATOM     85  C   UNL A   1      49.979  26.724  25.269  1.00  0.00     0.135 A 
ATOM     86  F   UNL A   1      50.102  25.865  28.803  1.00  0.00    -0.206 F 
ATOM     87  C   UNL A   1      51.687  25.513  27.108  1.00  0.00     0.059 A 
ATOM     88  C   UNL A   1      51.206  26.229  24.838  1.00  0.00     0.059 A 
ATOM     89  F   UNL A   1      49.174  27.299  24.361  1.00  0.00    -0.206 F 
ATOM     90  C   UNL A   1      52.057  25.632  25.767  1.00  0.00     0.060 A 
BRANCH  90  91
ATOM     91  S   UNL A   1      53.652  24.965  25.248  1.00  0.00     0.124 S 
ATOM     92  O   UNL A   1      53.890  25.699  24.010  1.00  0.00    -0.237 OA
ATOM     93  O   UNL A   1      54.517  25.315  26.370  1.00  0.00    -0.237 OA
ATOM     94  O   UNL A   1      53.388  23.538  25.091  1.00  0.00    -0.744 OA
ENDBRANCH  90  91
ENDBRANCH  58  83
ENDBRANCH  32  33
ENDBRANCH  25  27
ENDBRANCH  24  25
ENDBRANCH  23  24
ENDBRANCH  22  23
ENDBRANCH  21  22
ENDBRANCH   1  21
TORSDOF 22
ENDMDL
MODEL 2
REMARK VINA RESULT:      -9.7      6.452     11.973
REMARK SMILES CC(C)OCCS(=O)(=O)N1CCC[C@H](C(=O)OCCOCCOC(=O)c2ccc(-c3c4nc(c(-c5c(F)cc(S(=O)(=O)[O-])cc5F)c5ccc([nH]5)c(-c5c(F)cc(S(=O)(=O)[O-])cc5F)c5nc(c(-c6c(F)cc(S(=O)(=O)[O-])cc6F)c6ccc3[nH]6)C=C5)C=C4)cc2)C1
REMARK SMILES IDX 19 1 18 2 17 3 15 4 16 5 14 6 10 7 11 8 92 9 12 10 13 11
REMARK SMILES IDX 7 12 8 13 9 14 6 15 5 16 4 17 2 18 1 19 3 20 20 21 21 22
REMARK SMILES IDX 22 23 23 24 24 25 25 26 26 27 27 28 91 29 28 30 90 31 29 32
REMARK SMILES IDX 30 33 31 34 84 35 32 36 89 37 83 38 85 39 33 40 88 41 82 42
REMARK SMILES IDX 81 43 34 45 68 46 47 47 67 48 48 49 51 50 66 51 86 52 49 53
REMARK SMILES IDX 50 54 65 56 87 57 52 58 35 59 36 60 45 61 37 62 38 63 44 64
REMARK SMILES IDX 46 65 39 66 40 67 41 68 42 69 43 70 69 71 70 72 79 73 71 74
REMARK SMILES IDX 72 75 78 76 80 77 73 78 74 79 75 80 76 81 77 82 53 83 54 84
REMARK SMILES IDX 63 85 55 86 56 87 62 88 64 89 57 90 58 91 59 92 60 93 61 94
REMARK H PARENT 85 44 51 55
REMARK Flexibility Score: inf
ROOT
ATOM      1  C   UNL A   1      36.478  21.698  25.700  1.00  0.00     0.202 C 
ENDROOT
BRANCH   1   2
ATOM      2  C   UNL A   1      35.330  21.023  24.939  1.00  0.00     0.261 C 
BRANCH   2   3
ATOM      3  O   UNL A   1      34.039  21.553  25.283  1.00  0.00    -0.463 OA
BRANCH   3   4
ATOM      4  C   UNL A   1      33.488  22.349  24.338  1.00  0.00     0.310 C 
ATOM      5  O   UNL A   1      34.096  22.843  23.391  1.00  0.00    -0.252 OA
BRANCH   4   6
ATOM      6  C   UNL A   1      31.991  22.518  24.457  1.00  0.00     0.114 C 
ATOM      7  N   UNL A   1      31.651  24.979  24.468  1.00  0.00    -0.201 NA
ATOM      8  C   UNL A   1      30.741  24.949  25.626  1.00  0.00     0.102 C 
ATOM      9  C   UNL A   1      31.593  23.744  23.673  1.00  0.00     0.117 C 
ATOM     10  C   UNL A   1      31.183  23.798  26.537  1.00  0.00     0.018 C 
ATOM     11  C   UNL A   1      31.280  22.456  25.807  1.00  0.00     0.018 C 
BRANCH   7  12
ATOM     12  S   UNL A   1      31.903  26.428  23.622  1.00  0.00     0.216 S 
ATOM     13  O   UNL A   1      30.853  27.316  24.052  1.00  0.00    -0.212 OA
ATOM     14  O   UNL A   1      32.068  26.087  22.222  1.00  0.00    -0.212 OA
BRANCH  12  15
ATOM     15  C   UNL A   1      33.489  27.045  24.238  1.00  0.00     0.182 C 
BRANCH  15  16
ATOM     16  C   UNL A   1      33.374  28.438  24.860  1.00  0.00     0.178 C 
BRANCH  16  17
ATOM     17  O   UNL A   1      33.777  28.502  26.237  1.00  0.00    -0.378 OA
BRANCH  17  18
ATOM     18  C   UNL A   1      32.878  29.053  27.211  1.00  0.00     0.112 C 
ATOM     19  C   UNL A   1      32.408  30.486  26.962  1.00  0.00     0.038 C 
ATOM     20  C   UNL A   1      31.718  28.102  27.429  1.00  0.00     0.038 C 
ENDBRANCH  17  18
ENDBRANCH  16  17
ENDBRANCH  15  16
ENDBRANCH  12  15
ENDBRANCH   7  12
ENDBRANCH   4   6
ENDBRANCH   3   4
ENDBRANCH   2   3
ENDBRANCH   1   2
BRANCH   1  21
ATOM     21  O   UNL A   1      37.731  21.817  25.033  1.00  0.00    -0.374 OA
BRANCH  21  22
ATOM     22  C   UNL A   1      38.928  21.637  25.788  1.00  0.00     0.202 C 
BRANCH  22  23
ATOM     23  C   UNL A   1      39.285  22.699  26.837  1.00  0.00     0.261 C 
BRANCH  23  24
ATOM     24  O   UNL A   1      40.124  23.740  26.301  1.00  0.00    -0.460 OA
BRANCH  24  25
ATOM     25  C   UNL A   1      41.226  24.031  27.033  1.00  0.00     0.338 C 
ATOM     26  O   UNL A   1      42.305  23.466  26.994  1.00  0.00    -0.246 OA
BRANCH  25  27
ATOM     27  C   UNL A   1      41.008  25.267  27.805  1.00  0.00     0.060 A 
ATOM     28  C   UNL A   1      42.106  26.106  28.030  1.00  0.00     0.016 A 
ATOM     29  C   UNL A   1      39.779  25.527  28.412  1.00  0.00     0.016 A 
ATOM     30  C   UNL A   1      41.986  27.197  28.889  1.00  0.00     0.010 A 
ATOM     31  C   UNL A   1      39.664  26.616  29.285  1.00  0.00     0.010 A 
ATOM     32  C   UNL A   1      40.775  27.439  29.549  1.00  0.00    -0.014 A 
BRANCH  32  33
ATOM     33  C   UNL A   1      40.706  28.492  30.592  1.00  0.00     0.031 A 
ATOM     34  C   UNL A   1      41.616  28.411  31.787  1.00  0.00     0.074 A 
ATOM     35  C   UNL A   1      39.851  29.522  30.456  1.00  0.00     0.049 A 
ATOM     36  N   UNL A   1      41.677  29.194  32.833  1.00  0.00    -0.248 NA
ATOM     37  C   UNL A   1      42.585  27.303  31.809  1.00  0.00     0.031 C 
ATOM     38  C   UNL A   1      38.947  29.723  29.323  1.00  0.00     0.029 A 
ATOM     39  N   UNL A   1      39.590  30.585  31.286  1.00  0.00    -0.354 N 
ATOM     40  C   UNL A   1      42.677  28.668  33.644  1.00  0.00     0.074 A 
ATOM     41  C   UNL A   1      43.190  27.492  32.975  1.00  0.00     0.031 C 
ATOM     42  C   UNL A   1      38.212  30.826  29.542  1.00  0.00     0.029 A 
ATOM     43  C   UNL A   1      38.566  31.388  30.845  1.00  0.00     0.049 A 
ATOM     44  H   UNL A   1      40.090  30.754  32.117  1.00  0.00     0.167 HD
ATOM     45  C   UNL A   1      43.123  29.128  34.836  1.00  0.00     0.037 A 
ATOM     46  C   UNL A   1      37.957  32.433  31.441  1.00  0.00     0.037 A 
ATOM     47  C   UNL A   1      42.618  30.311  35.486  1.00  0.00     0.049 A 
ATOM     48  C   UNL A   1      38.432  32.884  32.799  1.00  0.00     0.074 A 
ATOM     49  C   UNL A   1      43.050  30.892  36.666  1.00  0.00     0.029 A 
ATOM     50  N   UNL A   1      41.564  31.083  35.023  1.00  0.00    -0.354 N 
ATOM     51  N   UNL A   1      39.416  32.411  33.528  1.00  0.00    -0.248 NA
ATOM     52  C   UNL A   1      37.712  34.006  33.420  1.00  0.00     0.031 C 
ATOM     53  C   UNL A   1      42.217  31.980  36.947  1.00  0.00     0.029 A 
ATOM     54  C   UNL A   1      41.300  32.107  35.916  1.00  0.00     0.049 A 
ATOM     55  H   UNL A   1      41.075  30.925  34.183  1.00  0.00     0.167 HD
ATOM     56  C   UNL A   1      39.437  33.183  34.686  1.00  0.00     0.074 A 
ATOM     57  C   UNL A   1      38.386  34.169  34.549  1.00  0.00     0.031 C 
ATOM     58  C   UNL A   1      40.247  33.081  35.767  1.00  0.00     0.037 A 
BRANCH  45  59
ATOM     59  C   UNL A   1      44.196  28.349  35.546  1.00  0.00     0.058 A 
ATOM     60  C   UNL A   1      43.891  27.322  36.450  1.00  0.00     0.135 A 
ATOM     61  C   UNL A   1      45.549  28.575  35.240  1.00  0.00     0.135 A 
ATOM     62  F   UNL A   1      42.617  27.075  36.790  1.00  0.00    -0.206 F 
ATOM     63  C   UNL A   1      44.890  26.542  37.027  1.00  0.00     0.059 A 
ATOM     64  C   UNL A   1      46.562  27.795  35.787  1.00  0.00     0.059 A 
ATOM     65  F   UNL A   1      45.893  29.551  34.384  1.00  0.00    -0.206 F 
ATOM     66  C   UNL A   1      46.223  26.782  36.682  1.00  0.00     0.060 A 
BRANCH  66  67
ATOM     67  S   UNL A   1      47.503  25.730  37.400  1.00  0.00     0.124 S 
ATOM     68  O   UNL A   1      48.714  26.314  36.833  1.00  0.00    -0.237 OA
ATOM     69  O   UNL A   1      47.310  25.940  38.833  1.00  0.00    -0.237 OA
ATOM     70  O   UNL A   1      47.163  24.397  36.914  1.00  0.00    -0.744 OA
ENDBRANCH  66  67
ENDBRANCH  45  59
BRANCH  46  71
ATOM     71  C   UNL A   1      36.789  33.088  30.791  1.00  0.00     0.058 A 
ATOM     72  C   UNL A   1      36.957  34.089  29.824  1.00  0.00     0.135 A 
ATOM     73  C   UNL A   1      35.476  32.743  31.152  1.00  0.00     0.135 A 
ATOM     74  F   UNL A   1      38.191  34.464  29.454  1.00  0.00    -0.206 F 
ATOM     75  C   UNL A   1      35.868  34.747  29.259  1.00  0.00     0.059 A 
ATOM     76  C   UNL A   1      34.371  33.363  30.580  1.00  0.00     0.059 A 
ATOM     77  F   UNL A   1      35.261  31.788  32.070  1.00  0.00    -0.206 F 
ATOM     78  C   UNL A   1      34.578  34.379  29.647  1.00  0.00     0.060 A 
BRANCH  78  79
ATOM     79  S   UNL A   1      33.172  35.237  28.907  1.00  0.00     0.124 S 
ATOM     80  O   UNL A   1      32.598  34.189  28.070  1.00  0.00    -0.237 OA
ATOM     81  O   UNL A   1      32.389  35.615  30.079  1.00  0.00    -0.237 OA
ATOM     82  O   UNL A   1      33.792  36.347  28.190  1.00  0.00    -0.744 OA
ENDBRANCH  78  79
ENDBRANCH  46  71
BRANCH  58  83
ATOM     83  C   UNL A   1      40.037  34.058  36.891  1.00  0.00     0.058 A 
ATOM     84  C   UNL A   1      40.655  35.319  36.888  1.00  0.00     0.135 A 
ATOM     85  C   UNL A   1      39.160  33.761  37.946  1.00  0.00     0.135 A 
ATOM     86  F   UNL A   1      41.508  35.650  35.906  1.00  0.00    -0.206 F 
ATOM     87  C   UNL A   1      40.422  36.245  37.899  1.00  0.00     0.059 A 
ATOM     88  C   UNL A   1      38.891  34.682  38.954  1.00  0.00     0.059 A 
ATOM     89  F   UNL A   1      38.535  32.573  37.991  1.00  0.00    -0.206 F 
ATOM     90  C   UNL A   1      39.534  35.919  38.926  1.00  0.00     0.060 A 
BRANCH  90  91
ATOM     91  S   UNL A   1      39.205  37.148  40.206  1.00  0.00     0.124 S 
ATOM     92  O   UNL A   1      40.556  37.521  40.612  1.00  0.00    -0.237 OA
ATOM     93  O   UNL A   1      38.458  38.167  39.476  1.00  0.00    -0.237 OA
ATOM     94  O   UNL A   1      38.433  36.407  41.200  1.00  0.00    -0.744 OA
ENDBRANCH  90  91
ENDBRANCH  58  83
ENDBRANCH  32  33
ENDBRANCH  25  27
ENDBRANCH  24  25
ENDBRANCH  23  24
ENDBRANCH  22  23
ENDBRANCH  21  22
ENDBRANCH   1  21
TORSDOF 22
ENDMDL
MODEL 3
REMARK VINA RESULT:      -9.6      4.480     10.065
REMARK SMILES CC(C)OCCS(=O)(=O)N1CCC[C@H](C(=O)OCCOCCOC(=O)c2ccc(-c3c4nc(c(-c5c(F)cc(S(=O)(=O)[O-])cc5F)c5ccc([nH]5)c(-c5c(F)cc(S(=O)(=O)[O-])cc5F)c5nc(c(-c6c(F)cc(S(=O)(=O)[O-])cc6F)c6ccc3[nH]6)C=C5)C=C4)cc2)C1
REMARK SMILES IDX 19 1 18 2 17 3 15 4 16 5 14 6 10 7 11 8 92 9 12 10 13 11
REMARK SMILES IDX 7 12 8 13 9 14 6 15 5 16 4 17 2 18 1 19 3 20 20 21 21 22
REMARK SMILES IDX 22 23 23 24 24 25 25 26 26 27 27 28 91 29 28 30 90 31 29 32
REMARK SMILES IDX 30 33 31 34 84 35 32 36 89 37 83 38 85 39 33 40 88 41 82 42
REMARK SMILES IDX 81 43 34 45 68 46 47 47 67 48 48 49 51 50 66 51 86 52 49 53
REMARK SMILES IDX 50 54 65 56 87 57 52 58 35 59 36 60 45 61 37 62 38 63 44 64
REMARK SMILES IDX 46 65 39 66 40 67 41 68 42 69 43 70 69 71 70 72 79 73 71 74
REMARK SMILES IDX 72 75 78 76 80 77 73 78 74 79 75 80 76 81 77 82 53 83 54 84
REMARK SMILES IDX 63 85 55 86 56 87 62 88 64 89 57 90 58 91 59 92 60 93 61 94
REMARK H PARENT 85 44 51 55
REMARK Flexibility Score: inf
ROOT
ATOM      1  C   UNL A   1      34.206  20.704  25.341  1.00  0.00     0.202 C 
ENDROOT
BRANCH   1   2
ATOM      2  C   UNL A   1      33.030  20.968  24.392  1.00  0.00     0.261 C 
BRANCH   2   3
ATOM      3  O   UNL A   1      32.721  22.366  24.256  1.00  0.00    -0.463 OA
BRANCH   3   4
ATOM      4  C   UNL A   1      31.926  22.864  25.231  1.00  0.00     0.310 C 
ATOM      5  O   UNL A   1      30.935  22.298  25.689  1.00  0.00    -0.252 OA
BRANCH   4   6
ATOM      6  C   UNL A   1      32.408  24.165  25.828  1.00  0.00     0.114 C 
ATOM      7  N   UNL A   1      32.258  25.791  23.955  1.00  0.00    -0.201 NA
ATOM      8  C   UNL A   1      33.608  26.334  24.187  1.00  0.00     0.102 C 
ATOM      9  C   UNL A   1      31.633  25.291  25.188  1.00  0.00     0.117 C 
ATOM     10  C   UNL A   1      34.486  25.193  24.713  1.00  0.00     0.018 C 
ATOM     11  C   UNL A   1      33.895  24.496  25.940  1.00  0.00     0.018 C 
BRANCH   7  12
ATOM     12  S   UNL A   1      31.234  26.515  22.813  1.00  0.00     0.216 S 
ATOM     13  O   UNL A   1      29.893  26.218  23.251  1.00  0.00    -0.212 OA
ATOM     14  O   UNL A   1      31.699  26.113  21.500  1.00  0.00    -0.212 OA
BRANCH  12  15
ATOM     15  C   UNL A   1      31.534  28.291  22.994  1.00  0.00     0.182 C 
BRANCH  15  16
ATOM     16  C   UNL A   1      30.238  29.099  23.075  1.00  0.00     0.178 C 
BRANCH  16  17
ATOM     17  O   UNL A   1      29.636  29.374  21.800  1.00  0.00    -0.378 OA
BRANCH  17  18
ATOM     18  C   UNL A   1      28.357  30.024  21.748  1.00  0.00     0.112 C 
ATOM     19  C   UNL A   1      27.451  29.832  22.963  1.00  0.00     0.038 C 
ATOM     20  C   UNL A   1      28.544  31.488  21.402  1.00  0.00     0.038 C 
ENDBRANCH  17  18
ENDBRANCH  16  17
ENDBRANCH  15  16
ENDBRANCH  12  15
ENDBRANCH   7  12
ENDBRANCH   4   6
ENDBRANCH   3   4
ENDBRANCH   2   3
ENDBRANCH   1   2
BRANCH   1  21
ATOM     21  O   UNL A   1      35.507  20.612  24.768  1.00  0.00    -0.374 OA
BRANCH  21  22
ATOM     22  C   UNL A   1      36.285  21.802  24.643  1.00  0.00     0.202 C 
BRANCH  22  23
ATOM     23  C   UNL A   1      37.683  21.818  25.278  1.00  0.00     0.261 C 
BRANCH  23  24
ATOM     24  O   UNL A   1      38.062  23.130  25.737  1.00  0.00    -0.460 OA
BRANCH  24  25
ATOM     25  C   UNL A   1      39.306  23.222  26.266  1.00  0.00     0.338 C 
ATOM     26  O   UNL A   1      40.241  22.463  26.083  1.00  0.00    -0.246 OA
BRANCH  25  27
ATOM     27  C   UNL A   1      39.450  24.493  26.998  1.00  0.00     0.060 A 
ATOM     28  C   UNL A   1      40.236  25.499  26.423  1.00  0.00     0.016 A 
ATOM     29  C   UNL A   1      38.937  24.642  28.287  1.00  0.00     0.016 A 
ATOM     30  C   UNL A   1      40.536  26.650  27.148  1.00  0.00     0.010 A 
ATOM     31  C   UNL A   1      39.251  25.794  29.018  1.00  0.00     0.010 A 
ATOM     32  C   UNL A   1      40.075  26.790  28.463  1.00  0.00    -0.014 A 
BRANCH  32  33
ATOM     33  C   UNL A   1      40.542  27.932  29.286  1.00  0.00     0.031 A 
ATOM     34  C   UNL A   1      39.634  29.113  29.498  1.00  0.00     0.074 A 
ATOM     35  C   UNL A   1      41.761  27.900  29.856  1.00  0.00     0.049 A 
ATOM     36  N   UNL A   1      39.869  30.232  30.133  1.00  0.00    -0.248 NA
ATOM     37  C   UNL A   1      38.284  29.024  28.917  1.00  0.00     0.031 C 
ATOM     38  C   UNL A   1      42.712  26.794  29.748  1.00  0.00     0.029 A 
ATOM     39  N   UNL A   1      42.415  28.832  30.623  1.00  0.00    -0.354 N 
ATOM     40  C   UNL A   1      38.706  30.986  30.019  1.00  0.00     0.074 A 
ATOM     41  C   UNL A   1      37.768  30.202  29.243  1.00  0.00     0.031 C 
ATOM     42  C   UNL A   1      43.839  27.122  30.403  1.00  0.00     0.029 A 
ATOM     43  C   UNL A   1      43.703  28.474  30.943  1.00  0.00     0.049 A 
ATOM     44  H   UNL A   1      42.000  29.676  30.916  1.00  0.00     0.167 HD
ATOM     45  C   UNL A   1      38.449  32.218  30.517  1.00  0.00     0.037 A 
ATOM     46  C   UNL A   1      44.675  29.171  31.566  1.00  0.00     0.037 A 
ATOM     47  C   UNL A   1      39.383  32.982  31.304  1.00  0.00     0.049 A 
ATOM     48  C   UNL A   1      44.379  30.568  32.054  1.00  0.00     0.074 A 
ATOM     49  C   UNL A   1      39.191  34.214  31.906  1.00  0.00     0.029 A 
ATOM     50  N   UNL A   1      40.684  32.599  31.585  1.00  0.00    -0.354 N 
ATOM     51  N   UNL A   1      43.258  31.246  31.987  1.00  0.00    -0.248 NA
ATOM     52  C   UNL A   1      45.483  31.298  32.696  1.00  0.00     0.031 C 
ATOM     53  C   UNL A   1      40.396  34.603  32.499  1.00  0.00     0.029 A 
ATOM     54  C   UNL A   1      41.323  33.590  32.311  1.00  0.00     0.049 A 
ATOM     55  H   UNL A   1      41.095  31.748  31.308  1.00  0.00     0.167 HD
ATOM     56  C   UNL A   1      43.519  32.474  32.586  1.00  0.00     0.074 A 
ATOM     57  C   UNL A   1      44.896  32.437  33.032  1.00  0.00     0.031 C 
ATOM     58  C   UNL A   1      42.696  33.540  32.746  1.00  0.00     0.037 A 
BRANCH  45  59
ATOM     59  C   UNL A   1      37.116  32.845  30.215  1.00  0.00     0.058 A 
ATOM     60  C   UNL A   1      36.023  32.720  31.085  1.00  0.00     0.135 A 
ATOM     61  C   UNL A   1      36.964  33.664  29.083  1.00  0.00     0.135 A 
ATOM     62  F   UNL A   1      36.109  31.937  32.171  1.00  0.00    -0.206 F 
ATOM     63  C   UNL A   1      34.824  33.385  30.845  1.00  0.00     0.059 A 
ATOM     64  C   UNL A   1      35.782  34.356  28.835  1.00  0.00     0.059 A 
ATOM     65  F   UNL A   1      37.978  33.814  28.217  1.00  0.00    -0.206 F 
ATOM     66  C   UNL A   1      34.717  34.208  29.721  1.00  0.00     0.060 A 
BRANCH  66  67
ATOM     67  S   UNL A   1      33.172  35.103  29.450  1.00  0.00     0.124 S 
ATOM     68  O   UNL A   1      33.661  36.405  29.009  1.00  0.00    -0.237 OA
ATOM     69  O   UNL A   1      32.518  34.292  28.426  1.00  0.00    -0.237 OA
ATOM     70  O   UNL A   1      32.532  35.086  30.762  1.00  0.00    -0.744 OA
ENDBRANCH  66  67
ENDBRANCH  45  59
BRANCH  46  71
ATOM     71  C   UNL A   1      46.037  28.591  31.711  1.00  0.00     0.058 A 
ATOM     72  C   UNL A   1      46.997  28.717  30.697  1.00  0.00     0.135 A 
ATOM     73  C   UNL A   1      46.393  27.867  32.861  1.00  0.00     0.135 A 
ATOM     74  F   UNL A   1      46.701  29.388  29.573  1.00  0.00    -0.206 F 
ATOM     75  C   UNL A   1      48.252  28.123  30.803  1.00  0.00     0.059 A 
ATOM     76  C   UNL A   1      47.651  27.290  33.004  1.00  0.00     0.059 A 
ATOM     77  F   UNL A   1      45.512  27.721  33.862  1.00  0.00    -0.206 F 
ATOM     78  C   UNL A   1      48.567  27.408  31.960  1.00  0.00     0.060 A 
BRANCH  78  79
ATOM     79  S   UNL A   1      50.198  26.642  32.089  1.00  0.00     0.124 S 
ATOM     80  O   UNL A   1      50.017  25.762  33.238  1.00  0.00    -0.237 OA
ATOM     81  O   UNL A   1      50.332  25.981  30.796  1.00  0.00    -0.237 OA
ATOM     82  O   UNL A   1      51.089  27.779  32.300  1.00  0.00    -0.744 OA
ENDBRANCH  78  79
ENDBRANCH  46  71
BRANCH  58  83
ATOM     83  C   UNL A   1      43.256  34.755  33.433  1.00  0.00     0.058 A 
ATOM     84  C   UNL A   1      43.735  35.853  32.702  1.00  0.00     0.135 A 
ATOM     85  C   UNL A   1      43.253  34.852  34.834  1.00  0.00     0.135 A 
ATOM     86  F   UNL A   1      43.765  35.808  31.360  1.00  0.00    -0.206 F 
ATOM     87  C   UNL A   1      44.205  36.999  33.334  1.00  0.00     0.059 A 
ATOM     88  C   UNL A   1      43.694  35.998  35.487  1.00  0.00     0.059 A 
ATOM     89  F   UNL A   1      42.796  33.833  35.581  1.00  0.00    -0.206 F 
ATOM     90  C   UNL A   1      44.176  37.064  34.729  1.00  0.00     0.060 A 
BRANCH  90  91
ATOM     91  S   UNL A   1      44.745  38.576  35.535  1.00  0.00     0.124 S 
ATOM     92  O   UNL A   1      44.138  38.451  36.856  1.00  0.00    -0.237 OA
ATOM     93  O   UNL A   1      46.195  38.429  35.487  1.00  0.00    -0.237 OA
ATOM     94  O   UNL A   1      44.201  39.637  34.692  1.00  0.00    -0.744 OA
ENDBRANCH  90  91
ENDBRANCH  58  83
ENDBRANCH  32  33
ENDBRANCH  25  27
ENDBRANCH  24  25
ENDBRANCH  23  24
ENDBRANCH  22  23
ENDBRANCH  21  22
ENDBRANCH   1  21
TORSDOF 22
ENDMDL
