MODEL 1
REMARK VINA RESULT:     -11.8      0.000      0.000
REMARK SMILES O=C(CC1CCN(C(=O)c2ccc3[nH]ccc3c2)CC1)OCCOCCOC(=O)c1ccc(-c2c3nc(c(-c4c(F)cc(S(=O)(=O)[O-])cc4F)c4ccc([nH]4)c(-c4c(F)cc(S(=O)(=O)[O-])cc4F)c4nc(c(-c5c(F)cc(S(=O)(=O)[O-])cc5F)c5ccc2[nH]5)C=C4)C=C3)cc1
REMARK SMILES IDX 25 1 24 2 23 3 22 4 21 5 2 6 1 7 3 8 4 9 5 10 20 11 6 12
REMARK SMILES IDX 19 13 7 14 8 15 9 16 10 17 11 18 18 19 12 20 17 21 13 22
REMARK SMILES IDX 16 23 14 24 15 25 26 27 27 28 28 29 29 30 30 31 31 32 95 33
REMARK SMILES IDX 32 34 94 35 33 36 34 37 35 38 88 39 36 40 93 41 87 42 89 43
REMARK SMILES IDX 37 44 92 45 86 46 85 47 38 49 72 50 51 51 71 52 52 53 55 54
REMARK SMILES IDX 70 55 90 56 53 57 54 58 69 60 91 61 56 62 39 63 40 64 49 65
REMARK SMILES IDX 41 66 42 67 48 68 50 69 43 70 44 71 45 72 46 73 47 74 73 75
REMARK SMILES IDX 74 76 83 77 75 78 76 79 82 80 84 81 77 82 78 83 79 84 80 85
REMARK SMILES IDX 81 86 57 87 58 88 67 89 59 90 60 91 66 92 68 93 61 94 62 95
REMARK SMILES IDX 63 96 64 97 65 98
REMARK H PARENT 14 26 89 48 55 59
REMARK Flexibility Score: inf
ROOT
ATOM      1  C   UNL A   1      39.275  22.202  26.527  1.00  0.00     0.202 C 
ENDROOT
BRANCH   1   2
ATOM      2  O   UNL A   1      38.380  21.875  25.460  1.00  0.00    -0.374 OA
BRANCH   2   3
ATOM      3  C   UNL A   1      37.195  22.636  25.279  1.00  0.00     0.202 C 
BRANCH   3   4
ATOM      4  C   UNL A   1      35.853  22.033  25.708  1.00  0.00     0.261 C 
BRANCH   4   5
ATOM      5  O   UNL A   1      35.445  20.857  25.002  1.00  0.00    -0.463 OA
BRANCH   5   6
ATOM      6  C   UNL A   1      34.163  20.429  24.969  1.00  0.00     0.306 C 
ATOM      7  O   UNL A   1      33.887  19.308  24.547  1.00  0.00    -0.252 OA
BRANCH   6   8
ATOM      8  C   UNL A   1      33.069  21.383  25.384  1.00  0.00     0.126 C 
BRANCH   8   9
ATOM      9  C   UNL A   1      32.154  21.960  24.290  1.00  0.00     0.003 C 
ATOM     10  C   UNL A   1      32.775  22.148  22.894  1.00  0.00     0.026 C 
ATOM     11  C   UNL A   1      31.556  23.297  24.756  1.00  0.00     0.026 C 
ATOM     12  C   UNL A   1      33.779  23.294  22.838  1.00  0.00     0.120 C 
ATOM     13  C   UNL A   1      32.586  24.423  24.691  1.00  0.00     0.120 C 
ATOM     14  N   UNL A   1      33.177  24.513  23.354  1.00  0.00    -0.339 N 
ATOM     15  C   UNL A   1      33.176  25.628  22.527  1.00  0.00     0.253 C 
ATOM     16  O   UNL A   1      33.657  25.651  21.397  1.00  0.00    -0.269 OA
BRANCH  15  17
ATOM     17  C   UNL A   1      32.502  26.848  22.985  1.00  0.00     0.040 A 
ATOM     18  C   UNL A   1      33.151  27.763  23.816  1.00  0.00     0.016 A 
ATOM     19  C   UNL A   1      31.203  27.067  22.510  1.00  0.00     0.024 A 
ATOM     20  C   UNL A   1      32.491  28.922  24.233  1.00  0.00     0.027 A 
ATOM     21  C   UNL A   1      30.539  28.237  22.903  1.00  0.00     0.000 A 
ATOM     22  C   UNL A   1      31.191  29.131  23.753  1.00  0.00     0.045 A 
ATOM     23  C   UNL A   1      29.261  28.781  22.609  1.00  0.00     0.028 A 
ATOM     24  N   UNL A   1      30.324  30.181  23.964  1.00  0.00    -0.361 N 
ATOM     25  C   UNL A   1      29.161  29.983  23.269  1.00  0.00     0.083 A 
ATOM     26  H   UNL A   1      30.515  30.961  24.532  1.00  0.00     0.166 HD
ENDBRANCH  15  17
ENDBRANCH   8   9
ENDBRANCH   6   8
ENDBRANCH   5   6
ENDBRANCH   4   5
ENDBRANCH   3   4
ENDBRANCH   2   3
ENDBRANCH   1   2
BRANCH   1  27
ATOM     27  C   UNL A   1      40.301  23.318  26.332  1.00  0.00     0.261 C 
BRANCH  27  28
ATOM     28  O   UNL A   1      39.701  24.622  26.361  1.00  0.00    -0.460 OA
BRANCH  28  29
ATOM     29  C   UNL A   1      40.580  25.647  26.352  1.00  0.00     0.338 C 
ATOM     30  O   UNL A   1      41.059  26.202  25.370  1.00  0.00    -0.246 OA
BRANCH  29  31
ATOM     31  C   UNL A   1      40.766  26.166  27.711  1.00  0.00     0.060 A 
ATOM     32  C   UNL A   1      39.714  26.004  28.623  1.00  0.00     0.016 A 
ATOM     33  C   UNL A   1      41.880  26.945  28.023  1.00  0.00     0.016 A 
ATOM     34  C   UNL A   1      39.731  26.702  29.824  1.00  0.00     0.010 A 
ATOM     35  C   UNL A   1      41.888  27.657  29.222  1.00  0.00     0.010 A 
ATOM     36  C   UNL A   1      40.782  27.586  30.087  1.00  0.00    -0.014 A 
BRANCH  36  37
ATOM     37  C   UNL A   1      40.585  28.632  31.113  1.00  0.00     0.031 A 
ATOM     38  C   UNL A   1      41.465  28.596  32.335  1.00  0.00     0.074 A 
ATOM     39  C   UNL A   1      39.682  29.610  30.938  1.00  0.00     0.049 A 
ATOM     40  N   UNL A   1      41.477  29.384  33.376  1.00  0.00    -0.248 NA
ATOM     41  C   UNL A   1      42.467  27.516  32.388  1.00  0.00     0.031 C 
ATOM     42  C   UNL A   1      38.822  29.764  29.766  1.00  0.00     0.029 A 
ATOM     43  N   UNL A   1      39.342  30.658  31.750  1.00  0.00    -0.354 N 
ATOM     44  C   UNL A   1      42.471  28.888  34.213  1.00  0.00     0.074 A 
ATOM     45  C   UNL A   1      43.023  27.717  33.572  1.00  0.00     0.031 C 
ATOM     46  C   UNL A   1      38.045  30.847  29.939  1.00  0.00     0.029 A 
ATOM     47  C   UNL A   1      38.335  31.441  31.242  1.00  0.00     0.049 A 
ATOM     48  H   UNL A   1      39.779  30.834  32.615  1.00  0.00     0.167 HD
ATOM     49  C   UNL A   1      42.887  29.371  35.408  1.00  0.00     0.037 A 
ATOM     50  C   UNL A   1      37.716  32.507  31.783  1.00  0.00     0.037 A 
ATOM     51  C   UNL A   1      42.325  30.540  36.030  1.00  0.00     0.049 A 
ATOM     52  C   UNL A   1      38.160  32.998  33.136  1.00  0.00     0.074 A 
ATOM     53  C   UNL A   1      42.673  31.130  37.230  1.00  0.00     0.029 A 
ATOM     54  N   UNL A   1      41.287  31.293  35.497  1.00  0.00    -0.354 N 
ATOM     55  N   UNL A   1      39.108  32.531  33.916  1.00  0.00    -0.248 NA
ATOM     56  C   UNL A   1      37.458  34.168  33.678  1.00  0.00     0.031 C 
ATOM     57  C   UNL A   1      41.813  32.213  37.448  1.00  0.00     0.029 A 
ATOM     58  C   UNL A   1      40.969  32.332  36.354  1.00  0.00     0.049 A 
ATOM     59  H   UNL A   1      40.844  31.114  34.637  1.00  0.00     0.167 HD
ATOM     60  C   UNL A   1      39.142  33.372  35.022  1.00  0.00     0.074 A 
ATOM     61  C   UNL A   1      38.119  34.377  34.809  1.00  0.00     0.031 C 
ATOM     62  C   UNL A   1      39.952  33.327  36.111  1.00  0.00     0.037 A 
BRANCH  49  63
ATOM     63  C   UNL A   1      43.963  28.604  36.127  1.00  0.00     0.058 A 
ATOM     64  C   UNL A   1      45.321  28.947  36.024  1.00  0.00     0.135 A 
ATOM     65  C   UNL A   1      43.630  27.496  36.923  1.00  0.00     0.135 A 
ATOM     66  F   UNL A   1      45.700  29.983  35.259  1.00  0.00    -0.206 F 
ATOM     67  C   UNL A   1      46.312  28.196  36.649  1.00  0.00     0.059 A 
ATOM     68  C   UNL A   1      44.601  26.748  37.582  1.00  0.00     0.059 A 
ATOM     69  F   UNL A   1      42.348  27.120  37.056  1.00  0.00    -0.206 F 
ATOM     70  C   UNL A   1      45.942  27.093  37.421  1.00  0.00     0.060 A 
BRANCH  70  71
ATOM     71  S   UNL A   1      47.237  26.113  38.210  1.00  0.00     0.124 S 
ATOM     72  O   UNL A   1      46.461  25.299  39.140  1.00  0.00    -0.237 OA
ATOM     73  O   UNL A   1      47.822  25.399  37.080  1.00  0.00    -0.237 OA
ATOM     74  O   UNL A   1      48.097  27.119  38.825  1.00  0.00    -0.744 OA
ENDBRANCH  70  71
ENDBRANCH  49  63
BRANCH  50  75
ATOM     75  C   UNL A   1      36.630  33.189  31.033  1.00  0.00     0.058 A 
ATOM     76  C   UNL A   1      36.914  33.966  29.901  1.00  0.00     0.135 A 
ATOM     77  C   UNL A   1      35.285  33.056  31.413  1.00  0.00     0.135 A 
ATOM     78  F   UNL A   1      38.185  34.130  29.502  1.00  0.00    -0.206 F 
ATOM     79  C   UNL A   1      35.907  34.596  29.177  1.00  0.00     0.059 A 
ATOM     80  C   UNL A   1      34.258  33.655  30.691  1.00  0.00     0.059 A 
ATOM     81  F   UNL A   1      34.960  32.312  32.481  1.00  0.00    -0.206 F 
ATOM     82  C   UNL A   1      34.580  34.429  29.577  1.00  0.00     0.060 A 
BRANCH  82  83
ATOM     83  S   UNL A   1      33.278  35.201  28.592  1.00  0.00     0.124 S 
ATOM     84  O   UNL A   1      34.054  36.031  27.678  1.00  0.00    -0.237 OA
ATOM     85  O   UNL A   1      32.617  34.043  27.999  1.00  0.00    -0.237 OA
ATOM     86  O   UNL A   1      32.489  35.923  29.586  1.00  0.00    -0.744 OA
ENDBRANCH  82  83
ENDBRANCH  50  75
BRANCH  62  87
ATOM     87  C   UNL A   1      39.803  34.427  37.125  1.00  0.00     0.058 A 
ATOM     88  C   UNL A   1      38.978  34.294  38.252  1.00  0.00     0.135 A 
ATOM     89  C   UNL A   1      40.534  35.618  36.983  1.00  0.00     0.135 A 
ATOM     90  F   UNL A   1      38.256  33.178  38.435  1.00  0.00    -0.206 F 
ATOM     91  C   UNL A   1      38.856  35.320  39.186  1.00  0.00     0.059 A 
ATOM     92  C   UNL A   1      40.451  36.642  37.919  1.00  0.00     0.059 A 
ATOM     93  F   UNL A   1      41.351  35.789  35.930  1.00  0.00    -0.206 F 
ATOM     94  C   UNL A   1      39.595  36.490  39.009  1.00  0.00     0.060 A 
BRANCH  94  95
ATOM     95  S   UNL A   1      39.441  37.808  40.233  1.00  0.00     0.124 S 
ATOM     96  O   UNL A   1      38.331  38.583  39.691  1.00  0.00    -0.237 OA
ATOM     97  O   UNL A   1      39.159  37.066  41.459  1.00  0.00    -0.237 OA
ATOM     98  O   UNL A   1      40.745  38.464  40.191  1.00  0.00    -0.744 OA
ENDBRANCH  94  95
ENDBRANCH  62  87
ENDBRANCH  36  37
ENDBRANCH  29  31
ENDBRANCH  28  29
ENDBRANCH  27  28
ENDBRANCH   1  27
TORSDOF 19
ENDMDL
MODEL 2
REMARK VINA RESULT:     -11.6      1.326      2.274
REMARK SMILES O=C(CC1CCN(C(=O)c2ccc3[nH]ccc3c2)CC1)OCCOCCOC(=O)c1ccc(-c2c3nc(c(-c4c(F)cc(S(=O)(=O)[O-])cc4F)c4ccc([nH]4)c(-c4c(F)cc(S(=O)(=O)[O-])cc4F)c4nc(c(-c5c(F)cc(S(=O)(=O)[O-])cc5F)c5ccc2[nH]5)C=C4)C=C3)cc1
REMARK SMILES IDX 25 1 24 2 23 3 22 4 21 5 2 6 1 7 3 8 4 9 5 10 20 11 6 12
REMARK SMILES IDX 19 13 7 14 8 15 9 16 10 17 11 18 18 19 12 20 17 21 13 22
REMARK SMILES IDX 16 23 14 24 15 25 26 27 27 28 28 29 29 30 30 31 31 32 95 33
REMARK SMILES IDX 32 34 94 35 33 36 34 37 35 38 88 39 36 40 93 41 87 42 89 43
REMARK SMILES IDX 37 44 92 45 86 46 85 47 38 49 72 50 51 51 71 52 52 53 55 54
REMARK SMILES IDX 70 55 90 56 53 57 54 58 69 60 91 61 56 62 39 63 40 64 49 65
REMARK SMILES IDX 41 66 42 67 48 68 50 69 43 70 44 71 45 72 46 73 47 74 73 75
REMARK SMILES IDX 74 76 83 77 75 78 76 79 82 80 84 81 77 82 78 83 79 84 80 85
REMARK SMILES IDX 81 86 57 87 58 88 67 89 59 90 60 91 66 92 68 93 61 94 62 95
REMARK SMILES IDX 63 96 64 97 65 98
REMARK H PARENT 14 26 89 48 55 59
REMARK Flexibility Score: inf
ROOT
ATOM      1  C   UNL A   1      40.793  21.014  26.670  1.00  0.00     0.202 C 
ENDROOT
BRANCH   1   2
ATOM      2  O   UNL A   1      39.884  21.159  25.576  1.00  0.00    -0.374 OA
BRANCH   2   3
ATOM      3  C   UNL A   1      38.645  21.824  25.774  1.00  0.00     0.202 C 
BRANCH   3   4
ATOM      4  C   UNL A   1      37.363  21.180  25.235  1.00  0.00     0.261 C 
BRANCH   4   5
ATOM      5  O   UNL A   1      37.011  21.524  23.891  1.00  0.00    -0.463 OA
BRANCH   5   6
ATOM      6  C   UNL A   1      36.241  22.592  23.585  1.00  0.00     0.306 C 
ATOM      7  O   UNL A   1      36.652  23.463  22.822  1.00  0.00    -0.252 OA
BRANCH   6   8
ATOM      8  C   UNL A   1      34.900  22.737  24.262  1.00  0.00     0.126 C 
BRANCH   8   9
ATOM      9  C   UNL A   1      34.741  23.828  25.336  1.00  0.00     0.003 C 
ATOM     10  C   UNL A   1      33.712  23.562  26.449  1.00  0.00     0.026 C 
ATOM     11  C   UNL A   1      34.424  25.178  24.671  1.00  0.00     0.026 C 
ATOM     12  C   UNL A   1      32.271  23.654  25.962  1.00  0.00     0.120 C 
ATOM     13  C   UNL A   1      32.975  25.237  24.192  1.00  0.00     0.120 C 
ATOM     14  N   UNL A   1      32.050  24.922  25.284  1.00  0.00    -0.339 N 
ATOM     15  C   UNL A   1      31.025  25.731  25.754  1.00  0.00     0.253 C 
ATOM     16  O   UNL A   1      30.291  25.441  26.695  1.00  0.00    -0.269 OA
BRANCH  15  17
ATOM     17  C   UNL A   1      30.832  27.053  25.147  1.00  0.00     0.040 A 
ATOM     18  C   UNL A   1      31.592  28.152  25.552  1.00  0.00     0.016 A 
ATOM     19  C   UNL A   1      29.887  27.142  24.117  1.00  0.00     0.024 A 
ATOM     20  C   UNL A   1      31.394  29.399  24.953  1.00  0.00     0.027 A 
ATOM     21  C   UNL A   1      29.697  28.382  23.493  1.00  0.00     0.000 A 
ATOM     22  C   UNL A   1      30.446  29.477  23.924  1.00  0.00     0.045 A 
ATOM     23  C   UNL A   1      28.864  28.825  22.432  1.00  0.00     0.028 A 
ATOM     24  N   UNL A   1      30.070  30.548  23.143  1.00  0.00    -0.361 N 
ATOM     25  C   UNL A   1      29.123  30.161  22.233  1.00  0.00     0.083 A 
ATOM     26  H   UNL A   1      30.431  31.459  23.227  1.00  0.00     0.166 HD
ENDBRANCH  15  17
ENDBRANCH   8   9
ENDBRANCH   6   8
ENDBRANCH   5   6
ENDBRANCH   4   5
ENDBRANCH   3   4
ENDBRANCH   2   3
ENDBRANCH   1   2
BRANCH   1  27
ATOM     27  C   UNL A   1      41.025  22.193  27.616  1.00  0.00     0.261 C 
BRANCH  27  28
ATOM     28  O   UNL A   1      41.081  23.448  26.920  1.00  0.00    -0.460 OA
BRANCH  28  29
ATOM     29  C   UNL A   1      42.066  24.275  27.330  1.00  0.00     0.338 C 
ATOM     30  O   UNL A   1      43.271  24.132  27.159  1.00  0.00    -0.246 OA
BRANCH  29  31
ATOM     31  C   UNL A   1      41.495  25.514  27.868  1.00  0.00     0.060 A 
ATOM     32  C   UNL A   1      42.306  26.657  27.879  1.00  0.00     0.016 A 
ATOM     33  C   UNL A   1      40.254  25.502  28.503  1.00  0.00     0.016 A 
ATOM     34  C   UNL A   1      41.915  27.771  28.610  1.00  0.00     0.010 A 
ATOM     35  C   UNL A   1      39.870  26.615  29.251  1.00  0.00     0.010 A 
ATOM     36  C   UNL A   1      40.734  27.720  29.357  1.00  0.00    -0.014 A 
BRANCH  36  37
ATOM     37  C   UNL A   1      40.549  28.692  30.456  1.00  0.00     0.031 A 
ATOM     38  C   UNL A   1      41.458  28.585  31.652  1.00  0.00     0.074 A 
ATOM     39  C   UNL A   1      39.631  29.667  30.367  1.00  0.00     0.049 A 
ATOM     40  N   UNL A   1      41.486  29.302  32.743  1.00  0.00    -0.248 NA
ATOM     41  C   UNL A   1      42.474  27.517  31.608  1.00  0.00     0.031 C 
ATOM     42  C   UNL A   1      38.742  29.888  29.229  1.00  0.00     0.029 A 
ATOM     43  N   UNL A   1      39.299  30.654  31.256  1.00  0.00    -0.354 N 
ATOM     44  C   UNL A   1      42.505  28.764  33.522  1.00  0.00     0.074 A 
ATOM     45  C   UNL A   1      43.055  27.645  32.790  1.00  0.00     0.031 C 
ATOM     46  C   UNL A   1      37.957  30.947  29.491  1.00  0.00     0.029 A 
ATOM     47  C   UNL A   1      38.271  31.456  30.825  1.00  0.00     0.049 A 
ATOM     48  H   UNL A   1      39.754  30.777  32.120  1.00  0.00     0.167 HD
ATOM     49  C   UNL A   1      42.943  29.171  34.736  1.00  0.00     0.037 A 
ATOM     50  C   UNL A   1      37.653  32.475  31.450  1.00  0.00     0.037 A 
ATOM     51  C   UNL A   1      42.383  30.288  35.448  1.00  0.00     0.049 A 
ATOM     52  C   UNL A   1      38.123  32.880  32.823  1.00  0.00     0.074 A 
ATOM     53  C   UNL A   1      42.752  30.800  36.678  1.00  0.00     0.029 A 
ATOM     54  N   UNL A   1      41.325  31.062  34.992  1.00  0.00    -0.354 N 
ATOM     55  N   UNL A   1      39.094  32.374  33.547  1.00  0.00    -0.248 NA
ATOM     56  C   UNL A   1      37.420  34.002  33.459  1.00  0.00     0.031 C 
ATOM     57  C   UNL A   1      41.886  31.855  36.987  1.00  0.00     0.029 A 
ATOM     58  C   UNL A   1      41.014  32.036  35.924  1.00  0.00     0.049 A 
ATOM     59  H   UNL A   1      40.863  30.935  34.132  1.00  0.00     0.167 HD
ATOM     60  C   UNL A   1      39.145  33.139  34.707  1.00  0.00     0.074 A 
ATOM     61  C   UNL A   1      38.106  34.143  34.586  1.00  0.00     0.031 C 
ATOM     62  C   UNL A   1      39.980  33.032  35.772  1.00  0.00     0.037 A 
BRANCH  49  63
ATOM     63  C   UNL A   1      44.045  28.371  35.378  1.00  0.00     0.058 A 
ATOM     64  C   UNL A   1      43.783  27.247  36.179  1.00  0.00     0.135 A 
ATOM     65  C   UNL A   1      45.387  28.744  35.198  1.00  0.00     0.135 A 
ATOM     66  F   UNL A   1      42.518  26.856  36.403  1.00  0.00    -0.206 F 
ATOM     67  C   UNL A   1      44.807  26.549  36.811  1.00  0.00     0.059 A 
ATOM     68  C   UNL A   1      46.429  28.043  35.796  1.00  0.00     0.059 A 
ATOM     69  F   UNL A   1      45.697  29.812  34.446  1.00  0.00    -0.206 F 
ATOM     70  C   UNL A   1      46.128  26.959  36.619  1.00  0.00     0.060 A 
BRANCH  70  71
ATOM     71  S   UNL A   1      47.446  26.058  37.462  1.00  0.00     0.124 S 
ATOM     72  O   UNL A   1      46.723  25.469  38.586  1.00  0.00    -0.237 OA
ATOM     73  O   UNL A   1      47.893  25.122  36.436  1.00  0.00    -0.237 OA
ATOM     74  O   UNL A   1      48.402  27.104  37.812  1.00  0.00    -0.744 OA
ENDBRANCH  70  71
ENDBRANCH  49  63
BRANCH  50  75
ATOM     75  C   UNL A   1      36.542  33.192  30.773  1.00  0.00     0.058 A 
ATOM     76  C   UNL A   1      35.210  32.987  31.160  1.00  0.00     0.135 A 
ATOM     77  C   UNL A   1      36.788  34.116  29.745  1.00  0.00     0.135 A 
ATOM     78  F   UNL A   1      34.921  32.108  32.132  1.00  0.00    -0.206 F 
ATOM     79  C   UNL A   1      34.160  33.664  30.548  1.00  0.00     0.059 A 
ATOM     80  C   UNL A   1      35.759  34.824  29.135  1.00  0.00     0.059 A 
ATOM     81  F   UNL A   1      38.047  34.357  29.347  1.00  0.00    -0.206 F 
ATOM     82  C   UNL A   1      34.446  34.586  29.540  1.00  0.00     0.060 A 
BRANCH  82  83
ATOM     83  S   UNL A   1      33.079  35.504  28.797  1.00  0.00     0.124 S 
ATOM     84  O   UNL A   1      32.406  34.460  28.032  1.00  0.00    -0.237 OA
ATOM     85  O   UNL A   1      32.366  35.995  29.972  1.00  0.00    -0.237 OA
ATOM     86  O   UNL A   1      33.754  36.530  28.007  1.00  0.00    -0.744 OA
ENDBRANCH  82  83
ENDBRANCH  50  75
BRANCH  62  87
ATOM     87  C   UNL A   1      39.843  34.059  36.861  1.00  0.00     0.058 A 
ATOM     88  C   UNL A   1      40.508  35.294  36.808  1.00  0.00     0.135 A 
ATOM     89  C   UNL A   1      38.998  33.815  37.956  1.00  0.00     0.135 A 
ATOM     90  F   UNL A   1      41.329  35.577  35.785  1.00  0.00    -0.206 F 
ATOM     91  C   UNL A   1      40.364  36.238  37.821  1.00  0.00     0.059 A 
ATOM     92  C   UNL A   1      38.817  34.755  38.963  1.00  0.00     0.059 A 
ATOM     93  F   UNL A   1      38.326  32.655  38.046  1.00  0.00    -0.206 F 
ATOM     94  C   UNL A   1      39.519  35.958  38.895  1.00  0.00     0.060 A 
BRANCH  94  95
ATOM     95  S   UNL A   1      39.329  37.194  40.197  1.00  0.00     0.124 S 
ATOM     96  O   UNL A   1      38.483  38.183  39.540  1.00  0.00    -0.237 OA
ATOM     97  O   UNL A   1      38.697  36.428  41.267  1.00  0.00    -0.237 OA
ATOM     98  O   UNL A   1      40.700  37.619  40.464  1.00  0.00    -0.744 OA
ENDBRANCH  94  95
ENDBRANCH  62  87
ENDBRANCH  36  37
ENDBRANCH  29  31
ENDBRANCH  28  29
ENDBRANCH  27  28
ENDBRANCH   1  27
TORSDOF 19
ENDMDL
MODEL 3
REMARK VINA RESULT:     -11.6      5.841     11.456
REMARK SMILES O=C(CC1CCN(C(=O)c2ccc3[nH]ccc3c2)CC1)OCCOCCOC(=O)c1ccc(-c2c3nc(c(-c4c(F)cc(S(=O)(=O)[O-])cc4F)c4ccc([nH]4)c(-c4c(F)cc(S(=O)(=O)[O-])cc4F)c4nc(c(-c5c(F)cc(S(=O)(=O)[O-])cc5F)c5ccc2[nH]5)C=C4)C=C3)cc1
REMARK SMILES IDX 25 1 24 2 23 3 22 4 21 5 2 6 1 7 3 8 4 9 5 10 20 11 6 12
REMARK SMILES IDX 19 13 7 14 8 15 9 16 10 17 11 18 18 19 12 20 17 21 13 22
REMARK SMILES IDX 16 23 14 24 15 25 26 27 27 28 28 29 29 30 30 31 31 32 95 33
REMARK SMILES IDX 32 34 94 35 33 36 34 37 35 38 88 39 36 40 93 41 87 42 89 43
REMARK SMILES IDX 37 44 92 45 86 46 85 47 38 49 72 50 51 51 71 52 52 53 55 54
REMARK SMILES IDX 70 55 90 56 53 57 54 58 69 60 91 61 56 62 39 63 40 64 49 65
REMARK SMILES IDX 41 66 42 67 48 68 50 69 43 70 44 71 45 72 46 73 47 74 73 75
REMARK SMILES IDX 74 76 83 77 75 78 76 79 82 80 84 81 77 82 78 83 79 84 80 85
REMARK SMILES IDX 81 86 57 87 58 88 67 89 59 90 60 91 66 92 68 93 61 94 62 95
REMARK SMILES IDX 63 96 64 97 65 98
REMARK H PARENT 14 26 89 48 55 59
REMARK Flexibility Score: inf
ROOT
ATOM      1  C   UNL A   1      33.868  31.254  27.623  1.00  0.00     0.202 C 
ENDROOT
BRANCH   1   2
ATOM      2  O   UNL A   1      32.561  31.148  27.052  1.00  0.00    -0.374 OA
BRANCH   2   3
ATOM      3  C   UNL A   1      31.979  29.867  26.860  1.00  0.00     0.202 C 
BRANCH   3   4
ATOM      4  C   UNL A   1      31.856  29.314  25.436  1.00  0.00     0.261 C 
BRANCH   4   5
ATOM      5  O   UNL A   1      30.758  29.815  24.667  1.00  0.00    -0.463 OA
BRANCH   5   6
ATOM      6  C   UNL A   1      30.242  29.152  23.607  1.00  0.00     0.306 C 
ATOM      7  O   UNL A   1      29.188  29.518  23.092  1.00  0.00    -0.252 OA
BRANCH   6   8
ATOM      8  C   UNL A   1      30.942  27.906  23.120  1.00  0.00     0.126 C 
BRANCH   8   9
ATOM      9  C   UNL A   1      30.215  26.559  23.269  1.00  0.00     0.003 C 
ATOM     10  C   UNL A   1      29.494  26.302  24.604  1.00  0.00     0.026 C 
ATOM     11  C   UNL A   1      31.190  25.402  22.995  1.00  0.00     0.026 C 
ATOM     12  C   UNL A   1      30.455  26.056  25.762  1.00  0.00     0.120 C 
ATOM     13  C   UNL A   1      32.139  25.183  24.171  1.00  0.00     0.120 C 
ATOM     14  N   UNL A   1      31.393  24.999  25.418  1.00  0.00    -0.339 N 
ATOM     15  C   UNL A   1      31.465  23.904  26.268  1.00  0.00     0.253 C 
ATOM     16  O   UNL A   1      30.797  23.777  27.290  1.00  0.00    -0.269 OA
BRANCH  15  17
ATOM     17  C   UNL A   1      32.340  22.783  25.904  1.00  0.00     0.040 A 
ATOM     18  C   UNL A   1      31.816  21.593  25.396  1.00  0.00     0.016 A 
ATOM     19  C   UNL A   1      33.718  22.986  26.049  1.00  0.00     0.024 A 
ATOM     20  C   UNL A   1      32.669  20.543  25.050  1.00  0.00     0.027 A 
ATOM     21  C   UNL A   1      34.586  21.947  25.683  1.00  0.00     0.000 A 
ATOM     22  C   UNL A   1      34.046  20.755  25.199  1.00  0.00     0.045 A 
ATOM     23  C   UNL A   1      35.998  21.811  25.675  1.00  0.00     0.028 A 
ATOM     24  N   UNL A   1      35.109  19.927  24.911  1.00  0.00    -0.361 N 
ATOM     25  C   UNL A   1      36.292  20.560  25.186  1.00  0.00     0.083 A 
ATOM     26  H   UNL A   1      35.029  19.012  24.559  1.00  0.00     0.166 HD
ENDBRANCH  15  17
ENDBRANCH   8   9
ENDBRANCH   6   8
ENDBRANCH   5   6
ENDBRANCH   4   5
ENDBRANCH   3   4
ENDBRANCH   2   3
ENDBRANCH   1   2
BRANCH   1  27
ATOM     27  C   UNL A   1      34.145  32.327  28.676  1.00  0.00     0.261 C 
BRANCH  27  28
ATOM     28  O   UNL A   1      35.530  32.378  29.052  1.00  0.00    -0.460 OA
BRANCH  28  29
ATOM     29  C   UNL A   1      35.840  31.659  30.153  1.00  0.00     0.338 C 
ATOM     30  O   UNL A   1      35.250  31.660  31.226  1.00  0.00    -0.246 OA
BRANCH  29  31
ATOM     31  C   UNL A   1      36.901  30.695  29.845  1.00  0.00     0.060 A 
ATOM     32  C   UNL A   1      37.633  30.165  30.917  1.00  0.00     0.016 A 
ATOM     33  C   UNL A   1      37.278  30.457  28.524  1.00  0.00     0.016 A 
ATOM     34  C   UNL A   1      38.807  29.464  30.669  1.00  0.00     0.010 A 
ATOM     35  C   UNL A   1      38.465  29.769  28.277  1.00  0.00     0.010 A 
ATOM     36  C   UNL A   1      39.261  29.334  29.352  1.00  0.00    -0.014 A 
BRANCH  36  37
ATOM     37  C   UNL A   1      40.683  29.001  29.125  1.00  0.00     0.031 A 
ATOM     38  C   UNL A   1      41.708  30.076  29.380  1.00  0.00     0.074 A 
ATOM     39  C   UNL A   1      41.052  27.767  28.748  1.00  0.00     0.049 A 
ATOM     40  N   UNL A   1      43.005  30.039  29.240  1.00  0.00    -0.248 NA
ATOM     41  C   UNL A   1      41.192  31.372  29.856  1.00  0.00     0.031 C 
ATOM     42  C   UNL A   1      40.142  26.645  28.528  1.00  0.00     0.029 A 
ATOM     43  N   UNL A   1      42.294  27.256  28.484  1.00  0.00    -0.354 N 
ATOM     44  C   UNL A   1      43.459  31.305  29.591  1.00  0.00     0.074 A 
ATOM     45  C   UNL A   1      42.297  32.096  29.928  1.00  0.00     0.031 C 
ATOM     46  C   UNL A   1      40.860  25.571  28.157  1.00  0.00     0.029 A 
ATOM     47  C   UNL A   1      42.272  25.942  28.085  1.00  0.00     0.049 A 
ATOM     48  H   UNL A   1      43.123  27.779  28.572  1.00  0.00     0.167 HD
ATOM     49  C   UNL A   1      44.732  31.764  29.634  1.00  0.00     0.037 A 
ATOM     50  C   UNL A   1      43.282  25.142  27.696  1.00  0.00     0.037 A 
ATOM     51  C   UNL A   1      45.876  30.961  29.296  1.00  0.00     0.049 A 
ATOM     52  C   UNL A   1      44.687  25.687  27.702  1.00  0.00     0.074 A 
ATOM     53  C   UNL A   1      47.213  31.313  29.313  1.00  0.00     0.029 A 
ATOM     54  N   UNL A   1      45.814  29.640  28.871  1.00  0.00    -0.354 N 
ATOM     55  N   UNL A   1      45.108  26.882  28.047  1.00  0.00    -0.248 NA
ATOM     56  C   UNL A   1      45.753  24.773  27.276  1.00  0.00     0.031 C 
ATOM     57  C   UNL A   1      47.956  30.220  28.852  1.00  0.00     0.029 A 
ATOM     58  C   UNL A   1      47.087  29.168  28.604  1.00  0.00     0.049 A 
ATOM     59  H   UNL A   1      44.985  29.118  28.774  1.00  0.00     0.167 HD
ATOM     60  C   UNL A   1      46.492  26.851  27.918  1.00  0.00     0.074 A 
ATOM     61  C   UNL A   1      46.835  25.518  27.462  1.00  0.00     0.031 C 
ATOM     62  C   UNL A   1      47.400  27.830  28.162  1.00  0.00     0.037 A 
BRANCH  49  63
ATOM     63  C   UNL A   1      44.935  33.206  30.013  1.00  0.00     0.058 A 
ATOM     64  C   UNL A   1      44.950  34.235  29.056  1.00  0.00     0.135 A 
ATOM     65  C   UNL A   1      45.132  33.564  31.357  1.00  0.00     0.135 A 
ATOM     66  F   UNL A   1      44.789  33.950  27.754  1.00  0.00    -0.206 F 
ATOM     67  C   UNL A   1      45.195  35.558  29.413  1.00  0.00     0.059 A 
ATOM     68  C   UNL A   1      45.348  34.884  31.740  1.00  0.00     0.059 A 
ATOM     69  F   UNL A   1      45.131  32.622  32.313  1.00  0.00    -0.206 F 
ATOM     70  C   UNL A   1      45.399  35.872  30.758  1.00  0.00     0.060 A 
BRANCH  70  71
ATOM     71  S   UNL A   1      45.736  37.587  31.206  1.00  0.00     0.124 S 
ATOM     72  O   UNL A   1      47.079  37.482  31.771  1.00  0.00    -0.237 OA
ATOM     73  O   UNL A   1      45.643  38.272  29.920  1.00  0.00    -0.237 OA
ATOM     74  O   UNL A   1      44.678  37.904  32.160  1.00  0.00    -0.744 OA
ENDBRANCH  70  71
ENDBRANCH  49  63
BRANCH  50  75
ATOM     75  C   UNL A   1      43.001  23.740  27.292  1.00  0.00     0.058 A 
ATOM     76  C   UNL A   1      42.891  22.723  28.251  1.00  0.00     0.135 A 
ATOM     77  C   UNL A   1      42.808  23.393  25.946  1.00  0.00     0.135 A 
ATOM     78  F   UNL A   1      43.074  23.003  29.551  1.00  0.00    -0.206 F 
ATOM     79  C   UNL A   1      42.609  21.409  27.891  1.00  0.00     0.059 A 
ATOM     80  C   UNL A   1      42.501  22.091  25.563  1.00  0.00     0.059 A 
ATOM     81  F   UNL A   1      42.890  24.333  24.992  1.00  0.00    -0.206 F 
ATOM     82  C   UNL A   1      42.410  21.104  26.543  1.00  0.00     0.060 A 
BRANCH  82  83
ATOM     83  S   UNL A   1      41.984  19.408  26.096  1.00  0.00     0.124 S 
ATOM     84  O   UNL A   1      42.836  19.188  24.932  1.00  0.00    -0.237 OA
ATOM     85  O   UNL A   1      42.350  18.673  27.303  1.00  0.00    -0.237 OA
ATOM     86  O   UNL A   1      40.552  19.481  25.825  1.00  0.00    -0.744 OA
ENDBRANCH  82  83
ENDBRANCH  50  75
BRANCH  62  87
ATOM     87  C   UNL A   1      48.853  27.478  27.999  1.00  0.00     0.058 A 
ATOM     88  C   UNL A   1      49.546  27.714  26.802  1.00  0.00     0.135 A 
ATOM     89  C   UNL A   1      49.570  26.932  29.076  1.00  0.00     0.135 A 
ATOM     90  F   UNL A   1      48.908  28.232  25.741  1.00  0.00    -0.206 F 
ATOM     91  C   UNL A   1      50.893  27.389  26.669  1.00  0.00     0.059 A 
ATOM     92  C   UNL A   1      50.922  26.628  28.975  1.00  0.00     0.059 A 
ATOM     93  F   UNL A   1      48.956  26.701  30.249  1.00  0.00    -0.206 F 
ATOM     94  C   UNL A   1      51.571  26.844  27.760  1.00  0.00     0.060 A 
BRANCH  94  95
ATOM     95  S   UNL A   1      53.321  26.439  27.582  1.00  0.00     0.124 S 
ATOM     96  O   UNL A   1      53.826  27.621  26.892  1.00  0.00    -0.237 OA
ATOM     97  O   UNL A   1      53.750  26.283  28.969  1.00  0.00    -0.237 OA
ATOM     98  O   UNL A   1      53.307  25.210  26.795  1.00  0.00    -0.744 OA
ENDBRANCH  94  95
ENDBRANCH  62  87
ENDBRANCH  36  37
ENDBRANCH  29  31
ENDBRANCH  28  29
ENDBRANCH  27  28
ENDBRANCH   1  27
TORSDOF 19
ENDMDL
